REMARK SMILES C[C@@H](NC(=O)CN1C(=O)S/C(=C\c2c[nH]c3ccccc23)C1=O)C(=O)OCCOC(=O)c1ccc(-c2c3nc(c(-c4cc(S(=O)(=O)[O-])ccc4F)c4ccc([nH]4)c(-c4cc(S(=O)(=O)[O-])ccc4F)c4nc(c(-c5cc(S(=O)(=O)[O-])ccc5F)c5ccc2[nH]5)C=C4)C=C3)cc1
REMARK SMILES IDX 27 1 26 2 24 3 25 4 2 5 1 6 3 7 4 8 5 10 6 11 7 12 8 13
REMARK SMILES IDX 22 14 9 15 10 16 11 17 23 18 12 19 13 20 14 21 21 22 15 23
REMARK SMILES IDX 16 24 20 25 17 27 19 28 18 29 28 30 29 31 30 32 31 33 32 34
REMARK SMILES IDX 33 35 94 36 34 37 93 38 35 39 36 40 37 41 87 42 38 43 92 44
REMARK SMILES IDX 86 45 88 46 39 47 91 48 85 49 84 50 40 52 72 53 52 54 71 55
REMARK SMILES IDX 53 56 56 57 70 58 89 59 54 60 55 61 69 63 90 64 57 65 41 66
REMARK SMILES IDX 42 67 50 68 43 69 49 70 51 71 48 72 44 73 45 74 46 75 47 76
REMARK SMILES IDX 73 77 74 78 82 79 75 80 81 81 83 82 80 83 76 84 77 85 78 86
REMARK SMILES IDX 79 87 58 88 59 89 67 90 60 91 66 92 68 93 65 94 61 95 62 96
REMARK SMILES IDX 63 97 64 98
REMARK H PARENT 3 9 15 26 88 51 56 62
REMARK Flexibility Score: inf
ROOT
ATOM      1  C   UNL     1      -3.202   0.854   1.180  1.00  0.00     0.274 C 
ENDROOT
BRANCH   1   2
ATOM      2  O   UNL     1      -1.755   0.813   1.108  1.00  0.00    -0.461 OA
BRANCH   2   3
ATOM      3  C   UNL     1      -1.087   1.557   2.038  1.00  0.00     0.328 C 
ATOM      4  O   UNL     1      -1.647   2.196   2.924  1.00  0.00    -0.250 OA
BRANCH   3   5
ATOM      5  C   UNL     1       0.412   1.733   1.721  1.00  0.00     0.189 C 
ATOM      6  C   UNL     1       1.153   0.586   1.035  1.00  0.00     0.043 C 
BRANCH   5   7
ATOM      7  N   UNL     1       0.790   3.053   1.165  1.00  0.00    -0.341 N 
ATOM      8  C   UNL     1       0.357   3.706   0.044  1.00  0.00     0.240 C 
ATOM      9  H   UNL     1       1.466   3.540   1.689  1.00  0.00     0.164 HD
ATOM     10  O   UNL     1       1.138   4.463  -0.539  1.00  0.00    -0.273 OA
BRANCH   8  11
ATOM     11  C   UNL     1      -1.080   3.554  -0.445  1.00  0.00     0.229 C 
BRANCH  11  12
ATOM     12  N   UNL     1      -1.261   2.944  -1.749  1.00  0.00    -0.259 N 
ATOM     13  C   UNL     1      -0.523   1.867  -2.142  1.00  0.00     0.294 C 
ATOM     14  C   UNL     1      -2.440   3.138  -2.438  1.00  0.00     0.268 C 
ATOM     15  O   UNL     1       0.365   1.303  -1.526  1.00  0.00    -0.261 OA
ATOM     16  S   UNL     1      -1.073   1.276  -3.685  1.00  0.00    -0.022 SA
ATOM     17  C   UNL     1      -2.558   2.124  -3.520  1.00  0.00     0.083 C 
ATOM     18  O   UNL     1      -3.334   3.917  -2.140  1.00  0.00    -0.268 OA
ATOM     19  C   UNL     1      -3.733   1.784  -4.072  1.00  0.00     0.031 C 
BRANCH  19  20
ATOM     20  C   UNL     1      -3.929   0.602  -4.845  1.00  0.00     0.001 A 
ATOM     21  C   UNL     1      -3.458   0.390  -6.120  1.00  0.00     0.091 A 
ATOM     22  C   UNL     1      -4.510  -0.614  -4.377  1.00  0.00     0.007 A 
ATOM     23  N   UNL     1      -3.710  -0.921  -6.438  1.00  0.00    -0.361 N 
ATOM     24  C   UNL     1      -4.346  -1.556  -5.394  1.00  0.00     0.046 A 
ATOM     25  C   UNL     1      -5.105  -1.025  -3.165  1.00  0.00     0.011 A 
ATOM     26  H   UNL     1      -3.470  -1.347  -7.292  1.00  0.00     0.166 HD
ATOM     27  C   UNL     1      -4.754  -2.889  -5.261  1.00  0.00     0.027 A 
ATOM     28  C   UNL     1      -5.516  -2.354  -3.016  1.00  0.00     0.001 A 
ATOM     29  C   UNL     1      -5.342  -3.270  -4.051  1.00  0.00     0.002 A 
ENDBRANCH  19  20
ENDBRANCH  11  12
ENDBRANCH   8  11
ENDBRANCH   5   7
ENDBRANCH   3   5
ENDBRANCH   2   3
ENDBRANCH   1   2
BRANCH   1  30
ATOM     30  C   UNL     1      -3.820  -0.514   0.887  1.00  0.00     0.275 C 
BRANCH  30  31
ATOM     31  O   UNL     1      -3.455  -1.423   1.934  1.00  0.00    -0.458 OA
BRANCH  31  32
ATOM     32  C   UNL     1      -2.278  -2.057   1.712  1.00  0.00     0.338 C 
ATOM     33  O   UNL     1      -1.684  -2.148   0.651  1.00  0.00    -0.246 OA
BRANCH  32  34
ATOM     34  C   UNL     1      -1.678  -2.368   3.017  1.00  0.00     0.060 A 
ATOM     35  C   UNL     1      -0.361  -1.948   3.218  1.00  0.00     0.016 A 
ATOM     36  C   UNL     1      -2.378  -3.032   4.025  1.00  0.00     0.016 A 
ATOM     37  C   UNL     1       0.274  -2.188   4.426  1.00  0.00     0.010 A 
ATOM     38  C   UNL     1      -1.734  -3.296   5.234  1.00  0.00     0.010 A 
ATOM     39  C   UNL     1      -0.403  -2.888   5.430  1.00  0.00    -0.014 A 
BRANCH  39  40
ATOM     40  C   UNL     1       0.356  -3.318   6.621  1.00  0.00     0.031 A 
ATOM     41  C   UNL     1       0.901  -4.715   6.651  1.00  0.00     0.074 A 
ATOM     42  C   UNL     1       0.607  -2.445   7.611  1.00  0.00     0.049 A 
ATOM     43  N   UNL     1       1.558  -5.329   7.597  1.00  0.00    -0.248 NA
ATOM     44  C   UNL     1       0.673  -5.528   5.445  1.00  0.00     0.031 C 
ATOM     45  C   UNL     1       0.175  -1.046   7.629  1.00  0.00     0.029 A 
ATOM     46  N   UNL     1       1.286  -2.603   8.789  1.00  0.00    -0.354 N 
ATOM     47  C   UNL     1       1.827  -6.601   7.102  1.00  0.00     0.074 A 
ATOM     48  C   UNL     1       1.226  -6.680   5.788  1.00  0.00     0.031 C 
ATOM     49  C   UNL     1       0.591  -0.477   8.774  1.00  0.00     0.029 A 
ATOM     50  C   UNL     1       1.278  -1.480   9.583  1.00  0.00     0.049 A 
ATOM     51  H   UNL     1       1.736  -3.440   9.044  1.00  0.00     0.167 HD
ATOM     52  C   UNL     1       2.521  -7.604   7.693  1.00  0.00     0.034 A 
ATOM     53  C   UNL     1       1.746  -1.302  10.833  1.00  0.00     0.034 A 
ATOM     54  C   UNL     1       3.081  -7.501   9.018  1.00  0.00     0.049 A 
ATOM     55  C   UNL     1       2.438  -2.462  11.507  1.00  0.00     0.074 A 
ATOM     56  C   UNL     1       3.753  -8.461   9.752  1.00  0.00     0.029 A 
ATOM     57  N   UNL     1       3.027  -6.361   9.813  1.00  0.00    -0.354 N 
ATOM     58  N   UNL     1       2.655  -3.676  11.047  1.00  0.00    -0.248 NA
ATOM     59  C   UNL     1       2.959  -2.228  12.857  1.00  0.00     0.031 C 
ATOM     60  C   UNL     1       4.056  -7.920  11.008  1.00  0.00     0.029 A 
ATOM     61  C   UNL     1       3.638  -6.598  11.033  1.00  0.00     0.049 A 
ATOM     62  H   UNL     1       2.613  -5.508   9.546  1.00  0.00     0.167 HD
ATOM     63  C   UNL     1       3.358  -4.341  12.048  1.00  0.00     0.074 A 
ATOM     64  C   UNL     1       3.552  -3.383  13.119  1.00  0.00     0.031 C 
ATOM     65  C   UNL     1       3.802  -5.624  12.088  1.00  0.00     0.034 A 
BRANCH  52  66
ATOM     66  C   UNL     1       2.643  -8.897   6.926  1.00  0.00     0.023 A 
ATOM     67  C   UNL     1       3.342  -8.969   5.706  1.00  0.00     0.031 A 
ATOM     68  C   UNL     1       2.004 -10.061   7.386  1.00  0.00     0.131 A 
ATOM     69  C   UNL     1       3.323 -10.155   4.956  1.00  0.00     0.055 A 
ATOM     70  C   UNL     1       2.054 -11.261   6.673  1.00  0.00     0.041 A 
ATOM     71  F   UNL     1       1.298 -10.047   8.527  1.00  0.00    -0.206 F 
ATOM     72  C   UNL     1       2.704 -11.309   5.443  1.00  0.00     0.022 A 
BRANCH  69  73
ATOM     73  S   UNL     1       3.995 -10.129   3.271  1.00  0.00     0.124 S 
ATOM     74  O   UNL     1       3.143  -9.130   2.630  1.00  0.00    -0.237 OA
ATOM     75  O   UNL     1       5.383  -9.739   3.490  1.00  0.00    -0.237 OA
ATOM     76  O   UNL     1       3.797 -11.499   2.802  1.00  0.00    -0.744 OA
ENDBRANCH  69  73
ENDBRANCH  52  66
BRANCH  53  77
ATOM     77  C   UNL     1       1.533  -0.010  11.549  1.00  0.00     0.023 A 
ATOM     78  C   UNL     1       2.612   0.778  11.977  1.00  0.00     0.031 A 
ATOM     79  C   UNL     1       0.234   0.427  11.867  1.00  0.00     0.131 A 
ATOM     80  C   UNL     1       2.376   1.932  12.742  1.00  0.00     0.055 A 
ATOM     81  C   UNL     1       0.002   1.605  12.578  1.00  0.00     0.041 A 
ATOM     82  F   UNL     1      -0.837  -0.288  11.484  1.00  0.00    -0.206 F 
ATOM     83  C   UNL     1       1.079   2.358  13.034  1.00  0.00     0.022 A 
BRANCH  80  84
ATOM     84  S   UNL     1       3.798   2.820  13.438  1.00  0.00     0.124 S 
ATOM     85  O   UNL     1       4.472   1.764  14.184  1.00  0.00    -0.237 OA
ATOM     86  O   UNL     1       4.477   3.290  12.235  1.00  0.00    -0.237 OA
ATOM     87  O   UNL     1       3.181   3.865  14.252  1.00  0.00    -0.744 OA
ENDBRANCH  80  84
ENDBRANCH  53  77
BRANCH  65  88
ATOM     88  C   UNL     1       4.569  -6.034  13.320  1.00  0.00     0.023 A 
ATOM     89  C   UNL     1       3.954  -6.099  14.582  1.00  0.00     0.031 A 
ATOM     90  C   UNL     1       5.941  -6.328  13.235  1.00  0.00     0.131 A 
ATOM     91  C   UNL     1       4.725  -6.378  15.720  1.00  0.00     0.055 A 
ATOM     92  C   UNL     1       6.690  -6.671  14.361  1.00  0.00     0.041 A 
ATOM     93  F   UNL     1       6.579  -6.281  12.054  1.00  0.00    -0.206 F 
ATOM     94  C   UNL     1       6.086  -6.679  15.616  1.00  0.00     0.022 A 
BRANCH  91  95
ATOM     95  S   UNL     1       3.950  -6.225  17.352  1.00  0.00     0.124 S 
ATOM     96  O   UNL     1       3.468  -4.847  17.331  1.00  0.00    -0.237 OA
ATOM     97  O   UNL     1       2.922  -7.260  17.307  1.00  0.00    -0.237 OA
ATOM     98  O   UNL     1       5.049  -6.483  18.280  1.00  0.00    -0.744 OA
ENDBRANCH  91  95
ENDBRANCH  65  88
ENDBRANCH  39  40
ENDBRANCH  32  34
ENDBRANCH  31  32
ENDBRANCH  30  31
ENDBRANCH   1  30
TORSDOF 18
