REMARK SMILES COc1cc(/C=C2/CCc3cc(OC(C)(C)C(=O)OCCOC(=O)c4ccc(-c5c6nc(c(-c7cc(S(=O)(=O)[O-])ccc7F)c7ccc([nH]7)c(-c7cc(S(=O)(=O)[O-])ccc7F)c7nc(c(-c8cc(S(=O)(=O)[O-])ccc8F)c8ccc5[nH]8)C=C7)C=C6)cc4)ccc3C2=O)cc(OC)c1O
REMARK SMILES IDX 20 1 19 2 17 3 18 4 14 5 15 6 16 7 13 8 12 9 6 10 7 11 8 12
REMARK SMILES IDX 91 13 9 14 90 15 92 16 10 17 89 18 11 19 88 20 5 21 3 22
REMARK SMILES IDX 4 23 97 24 94 25 93 26 2 27 1 28 98 29 95 31 96 32 21 33
REMARK SMILES IDX 22 34 23 35 24 36 25 37 26 38 87 39 27 40 86 41 28 42 29 43
REMARK SMILES IDX 30 44 80 45 31 46 85 47 79 48 81 49 32 50 84 51 78 52 77 53
REMARK SMILES IDX 33 55 65 56 45 57 64 58 46 59 49 60 63 61 82 62 47 63 48 64
REMARK SMILES IDX 62 66 83 67 50 68 34 69 35 70 43 71 36 72 42 73 44 74 41 75
REMARK SMILES IDX 37 76 38 77 39 78 40 79 66 80 67 81 75 82 68 83 74 84 76 85
REMARK SMILES IDX 73 86 69 87 70 88 71 89 72 90 51 91 52 92 60 93 53 94 59 95
REMARK SMILES IDX 61 96 58 97 54 98 55 99 56 100 57 101
REMARK H PARENT 98 30 81 54 49 65
REMARK Flexibility Score: inf
ROOT
ATOM      1  C   UNL     1       2.985  -5.312  -1.512  1.00  0.00     0.274 C 
ENDROOT
BRANCH   1   2
ATOM      2  O   UNL     1       2.500  -4.457  -2.564  1.00  0.00    -0.459 OA
BRANCH   2   3
ATOM      3  C   UNL     1       2.741  -4.822  -3.881  1.00  0.00     0.350 C 
ATOM      4  O   UNL     1       3.489  -5.705  -4.222  1.00  0.00    -0.247 OA
BRANCH   3   5
ATOM      5  C   UNL     1       1.823  -3.952  -4.813  1.00  0.00     0.200 C 
ATOM      6  C   UNL     1       2.259  -2.500  -4.540  1.00  0.00     0.069 C 
ATOM      7  C   UNL     1       0.411  -4.253  -4.245  1.00  0.00     0.069 C 
BRANCH   5   8
ATOM      8  O   UNL     1       2.026  -4.258  -6.238  1.00  0.00    -0.476 OA
BRANCH   8   9
ATOM      9  C   UNL     1       1.050  -3.757  -7.087  1.00  0.00     0.121 A 
ATOM     10  C   UNL     1      -2.195   0.090  -4.769  1.00  0.00     0.016 C 
ATOM     11  C   UNL     1      -1.996  -0.545  -5.947  1.00  0.00     0.001 C 
ATOM     12  C   UNL     1      -1.772   0.159  -7.274  1.00  0.00     0.044 C 
ATOM     13  C   UNL     1      -1.821  -2.024  -6.072  1.00  0.00     0.189 C 
ATOM     14  C   UNL     1      -0.400  -0.293  -7.882  1.00  0.00     0.041 C 
ATOM     15  C   UNL     1      -1.304  -2.539  -7.379  1.00  0.00     0.026 A 
ATOM     16  O   UNL     1      -1.957  -2.802  -5.141  1.00  0.00    -0.289 OA
ATOM     17  C   UNL     1      -0.183  -1.785  -7.721  1.00  0.00    -0.033 A 
ATOM     18  C   UNL     1      -1.291  -3.929  -7.476  1.00  0.00     0.016 A 
ATOM     19  C   UNL     1       1.050  -2.420  -7.529  1.00  0.00     0.051 A 
ATOM     20  C   UNL     1      -0.065  -4.558  -7.322  1.00  0.00     0.047 A 
BRANCH  10  21
ATOM     21  C   UNL     1      -1.749  -0.385  -3.428  1.00  0.00    -0.018 A 
ATOM     22  C   UNL     1      -0.058  -0.042  -1.710  1.00  0.00     0.165 A 
ATOM     23  C   UNL     1      -0.740   0.394  -2.844  1.00  0.00     0.058 A 
ATOM     24  C   UNL     1      -0.342  -1.294  -1.155  1.00  0.00     0.200 A 
ATOM     25  C   UNL     1      -1.419  -2.040  -1.634  1.00  0.00     0.165 A 
ATOM     26  C   UNL     1      -2.132  -1.558  -2.756  1.00  0.00     0.058 A 
BRANCH  22  27
ATOM     27  O   UNL     1       0.966   0.758  -1.270  1.00  0.00    -0.493 OA
ATOM     28  C   UNL     1       0.888   1.051   0.127  1.00  0.00     0.278 C 
ENDBRANCH  22  27
BRANCH  24  29
ATOM     29  O   UNL     1       0.525  -1.796  -0.219  1.00  0.00    -0.502 OA
ATOM     30  H   UNL     1       1.241  -1.273   0.084  1.00  0.00     0.293 HD
ENDBRANCH  24  29
BRANCH  25  31
ATOM     31  O   UNL     1      -1.817  -3.281  -1.203  1.00  0.00    -0.493 OA
ATOM     32  C   UNL     1      -1.356  -3.728   0.067  1.00  0.00     0.278 C 
ENDBRANCH  25  31
ENDBRANCH  10  21
ENDBRANCH   8   9
ENDBRANCH   5   8
ENDBRANCH   3   5
ENDBRANCH   2   3
ENDBRANCH   1   2
BRANCH   1  33
ATOM     33  C   UNL     1       1.872  -6.218  -0.973  1.00  0.00     0.275 C 
BRANCH  33  34
ATOM     34  O   UNL     1       1.363  -7.031  -2.035  1.00  0.00    -0.458 OA
BRANCH  34  35
ATOM     35  C   UNL     1       0.086  -7.466  -1.895  1.00  0.00     0.338 C 
ATOM     36  O   UNL     1      -0.613  -7.365  -0.896  1.00  0.00    -0.246 OA
BRANCH  35  37
ATOM     37  C   UNL     1      -0.336  -8.104  -3.162  1.00  0.00     0.060 A 
ATOM     38  C   UNL     1       0.180  -7.654  -4.379  1.00  0.00     0.016 A 
ATOM     39  C   UNL     1      -1.266  -9.145  -3.154  1.00  0.00     0.016 A 
ATOM     40  C   UNL     1      -0.267  -8.184  -5.576  1.00  0.00     0.010 A 
ATOM     41  C   UNL     1      -1.605  -9.776  -4.357  1.00  0.00     0.010 A 
ATOM     42  C   UNL     1      -1.101  -9.302  -5.581  1.00  0.00    -0.014 A 
BRANCH  42  43
ATOM     43  C   UNL     1      -1.381  -9.987  -6.869  1.00  0.00     0.031 A 
ATOM     44  C   UNL     1      -2.798 -10.185  -7.319  1.00  0.00     0.074 A 
ATOM     45  C   UNL     1      -0.350 -10.419  -7.626  1.00  0.00     0.049 A 
ATOM     46  N   UNL     1      -3.261 -10.944  -8.276  1.00  0.00    -0.248 NA
ATOM     47  C   UNL     1      -3.831  -9.447  -6.578  1.00  0.00     0.031 C 
ATOM     48  C   UNL     1       1.072 -10.223  -7.317  1.00  0.00     0.029 A 
ATOM     49  N   UNL     1      -0.327 -11.102  -8.815  1.00  0.00    -0.354 N 
ATOM     50  C   UNL     1      -4.646 -10.827  -8.214  1.00  0.00     0.074 A 
ATOM     51  C   UNL     1      -4.942  -9.924  -7.121  1.00  0.00     0.031 C 
ATOM     52  C   UNL     1       1.819 -10.720  -8.310  1.00  0.00     0.029 A 
ATOM     53  C   UNL     1       0.944 -11.390  -9.258  1.00  0.00     0.049 A 
ATOM     54  H   UNL     1      -1.141 -11.361  -9.305  1.00  0.00     0.167 HD
ATOM     55  C   UNL     1      -5.572 -11.436  -8.995  1.00  0.00     0.034 A 
ATOM     56  C   UNL     1       1.365 -12.166 -10.275  1.00  0.00     0.034 A 
ATOM     57  C   UNL     1      -5.226 -12.313 -10.090  1.00  0.00     0.049 A 
ATOM     58  C   UNL     1       0.320 -12.868 -11.095  1.00  0.00     0.074 A 
ATOM     59  C   UNL     1      -6.065 -13.009 -10.943  1.00  0.00     0.029 A 
ATOM     60  N   UNL     1      -3.925 -12.607 -10.489  1.00  0.00    -0.354 N 
ATOM     61  N   UNL     1      -0.987 -12.827 -10.973  1.00  0.00    -0.248 NA
ATOM     62  C   UNL     1       0.803 -13.733 -12.176  1.00  0.00     0.031 C 
ATOM     63  C   UNL     1      -5.274 -13.764 -11.817  1.00  0.00     0.029 A 
ATOM     64  C   UNL     1      -3.940 -13.485 -11.562  1.00  0.00     0.049 A 
ATOM     65  H   UNL     1      -3.112 -12.244 -10.070  1.00  0.00     0.167 HD
ATOM     66  C   UNL     1      -1.486 -13.654 -11.971  1.00  0.00     0.074 A 
ATOM     67  C   UNL     1      -0.337 -14.156 -12.701  1.00  0.00     0.031 C 
ATOM     68  C   UNL     1      -2.773 -13.978 -12.258  1.00  0.00     0.034 A 
BRANCH  55  69
ATOM     69  C   UNL     1      -7.025 -11.236  -8.631  1.00  0.00     0.023 A 
ATOM     70  C   UNL     1      -7.644  -9.975  -8.680  1.00  0.00     0.031 A 
ATOM     71  C   UNL     1      -7.790 -12.323  -8.168  1.00  0.00     0.131 A 
ATOM     72  C   UNL     1      -8.955  -9.817  -8.200  1.00  0.00     0.055 A 
ATOM     73  C   UNL     1      -9.120 -12.175  -7.768  1.00  0.00     0.041 A 
ATOM     74  F   UNL     1      -7.249 -13.548  -8.073  1.00  0.00    -0.206 F 
ATOM     75  C   UNL     1      -9.705 -10.913  -7.767  1.00  0.00     0.022 A 
BRANCH  72  76
ATOM     76  S   UNL     1      -9.615  -8.138  -8.008  1.00  0.00     0.124 S 
ATOM     77  O   UNL     1      -8.652  -7.546  -7.082  1.00  0.00    -0.237 OA
ATOM     78  O   UNL     1      -9.585  -7.628  -9.373  1.00  0.00    -0.237 OA
ATOM     79  O   UNL     1     -10.950  -8.354  -7.452  1.00  0.00    -0.744 OA
ENDBRANCH  72  76
ENDBRANCH  55  69
BRANCH  56  80
ATOM     80  C   UNL     1       2.823 -12.383 -10.511  1.00  0.00     0.023 A 
ATOM     81  C   UNL     1       3.432 -11.983 -11.710  1.00  0.00     0.031 A 
ATOM     82  C   UNL     1       3.630 -13.011  -9.542  1.00  0.00     0.131 A 
ATOM     83  C   UNL     1       4.797 -12.240 -11.922  1.00  0.00     0.055 A 
ATOM     84  C   UNL     1       4.998 -13.209  -9.733  1.00  0.00     0.041 A 
ATOM     85  F   UNL     1       3.102 -13.420  -8.378  1.00  0.00    -0.206 F 
ATOM     86  C   UNL     1       5.587 -12.834 -10.935  1.00  0.00     0.022 A 
BRANCH  83  87
ATOM     87  S   UNL     1       5.511 -11.863 -13.546  1.00  0.00     0.124 S 
ATOM     88  O   UNL     1       4.659 -12.645 -14.435  1.00  0.00    -0.237 OA
ATOM     89  O   UNL     1       5.355 -10.414 -13.618  1.00  0.00    -0.237 OA
ATOM     90  O   UNL     1       6.890 -12.334 -13.430  1.00  0.00    -0.744 OA
ENDBRANCH  83  87
ENDBRANCH  56  80
BRANCH  68  91
ATOM     91  C   UNL     1      -2.982 -14.885 -13.442  1.00  0.00     0.023 A 
ATOM     92  C   UNL     1      -2.567 -16.227 -13.423  1.00  0.00     0.031 A 
ATOM     93  C   UNL     1      -3.567 -14.384 -14.617  1.00  0.00     0.131 A 
ATOM     94  C   UNL     1      -2.684 -17.007 -14.582  1.00  0.00     0.055 A 
ATOM     95  C   UNL     1      -3.739 -15.183 -15.747  1.00  0.00     0.041 A 
ATOM     96  F   UNL     1      -3.976 -13.107 -14.687  1.00  0.00    -0.206 F 
ATOM     97  C   UNL     1      -3.282 -16.498 -15.739  1.00  0.00     0.022 A 
BRANCH  94  98
ATOM     98  S   UNL     1      -1.947 -18.663 -14.593  1.00  0.00     0.124 S 
ATOM     99  O   UNL     1      -0.547 -18.374 -14.301  1.00  0.00    -0.237 OA
ATOM    100  O   UNL     1      -2.691 -19.343 -13.537  1.00  0.00    -0.237 OA
ATOM    101  O   UNL     1      -2.211 -19.147 -15.947  1.00  0.00    -0.744 OA
ENDBRANCH  94  98
ENDBRANCH  68  91
ENDBRANCH  42  43
ENDBRANCH  35  37
ENDBRANCH  34  35
ENDBRANCH  33  34
ENDBRANCH   1  33
TORSDOF 20
