REMARK SMILES O=C(CC1CC[NH+](C[C@H]2Cc3ccccc3O2)CC1)OCCOC(=O)c1ccc(-c2c3nc(c(-c4cc(S(=O)(=O)[O-])ccc4F)c4ccc([nH]4)c(-c4cc(S(=O)(=O)[O-])ccc4F)c4nc(c(-c5cc(S(=O)(=O)[O-])ccc5F)c5ccc2[nH]5)C=C4)C=C3)cc1
REMARK SMILES IDX 21 1 20 2 2 3 1 4 3 5 4 6 5 7 19 8 6 9 18 10 7 11 8 13 9 14
REMARK SMILES IDX 10 15 17 16 11 17 16 18 12 19 15 20 13 21 14 22 22 23 23 24
REMARK SMILES IDX 24 25 25 26 26 27 27 28 88 29 28 30 87 31 29 32 30 33 31 34
REMARK SMILES IDX 81 35 32 36 86 37 80 38 82 39 33 40 85 41 79 42 78 43 34 45
REMARK SMILES IDX 66 46 46 47 65 48 47 49 50 50 64 51 83 52 48 53 49 54 63 56
REMARK SMILES IDX 84 57 51 58 35 59 36 60 44 61 37 62 43 63 45 64 42 65 38 66
REMARK SMILES IDX 39 67 40 68 41 69 67 70 68 71 76 72 69 73 75 74 77 75 74 76
REMARK SMILES IDX 70 77 71 78 72 79 73 80 52 81 53 82 61 83 54 84 60 85 62 86
REMARK SMILES IDX 59 87 55 88 56 89 57 90 58 91
REMARK H PARENT 7 12 82 44 50 55
REMARK Flexibility Score: inf
ROOT
ATOM      1  C   UNL     1       5.263   1.146  -0.052  1.00  0.00     0.274 C 
ENDROOT
BRANCH   1   2
ATOM      2  O   UNL     1       4.207   0.857  -0.992  1.00  0.00    -0.462 OA
BRANCH   2   3
ATOM      3  C   UNL     1       3.330  -0.166  -0.887  1.00  0.00     0.306 C 
ATOM      4  O   UNL     1       2.325  -0.183  -1.593  1.00  0.00    -0.252 OA
BRANCH   3   5
ATOM      5  C   UNL     1       3.652  -1.300   0.054  1.00  0.00     0.126 C 
BRANCH   5   6
ATOM      6  C   UNL     1       4.606  -2.356  -0.525  1.00  0.00     0.011 C 
ATOM      7  C   UNL     1       4.001  -3.164  -1.682  1.00  0.00     0.066 C 
ATOM      8  C   UNL     1       5.032  -3.343   0.576  1.00  0.00     0.066 C 
ATOM      9  C   UNL     1       2.888  -4.106  -1.218  1.00  0.00     0.262 C 
ATOM     10  C   UNL     1       3.881  -4.266   1.009  1.00  0.00     0.262 C 
ATOM     11  N   UNL     1       3.317  -4.985  -0.133  1.00  0.00    -0.332 N 
ATOM     12  H   UNL     1       4.108  -5.514  -0.501  1.00  0.00     0.348 HD
BRANCH  11  13
ATOM     13  C   UNL     1       2.329  -6.039   0.208  1.00  0.00     0.308 C 
BRANCH  13  14
ATOM     14  C   UNL     1       0.834  -5.790   0.607  1.00  0.00     0.232 C 
ATOM     15  C   UNL     1       0.643  -4.882   1.813  1.00  0.00     0.090 C 
ATOM     16  O   UNL     1       0.024  -5.285  -0.494  1.00  0.00    -0.484 OA
ATOM     17  C   UNL     1       0.226  -3.656   1.114  1.00  0.00    -0.002 A 
ATOM     18  C   UNL     1      -0.218  -3.976  -0.153  1.00  0.00     0.123 A 
ATOM     19  C   UNL     1       0.281  -2.348   1.536  1.00  0.00     0.007 A 
ATOM     20  C   UNL     1      -0.688  -3.011  -1.020  1.00  0.00     0.047 A 
ATOM     21  C   UNL     1      -0.133  -1.344   0.662  1.00  0.00     0.001 A 
ATOM     22  C   UNL     1      -0.632  -1.677  -0.606  1.00  0.00     0.004 A 
ENDBRANCH  13  14
ENDBRANCH  11  13
ENDBRANCH   5   6
ENDBRANCH   3   5
ENDBRANCH   2   3
ENDBRANCH   1   2
BRANCH   1  23
ATOM     23  C   UNL     1       4.737   1.967   1.128  1.00  0.00     0.275 C 
BRANCH  23  24
ATOM     24  O   UNL     1       4.218   1.090   2.151  1.00  0.00    -0.458 OA
BRANCH  24  25
ATOM     25  C   UNL     1       2.955   1.348   2.586  1.00  0.00     0.338 C 
ATOM     26  O   UNL     1       2.254   2.265   2.212  1.00  0.00    -0.246 OA
BRANCH  25  27
ATOM     27  C   UNL     1       2.491   0.289   3.535  1.00  0.00     0.060 A 
ATOM     28  C   UNL     1       1.117   0.200   3.777  1.00  0.00     0.016 A 
ATOM     29  C   UNL     1       3.354  -0.610   4.181  1.00  0.00     0.016 A 
ATOM     30  C   UNL     1       0.609  -0.794   4.624  1.00  0.00     0.010 A 
ATOM     31  C   UNL     1       2.844  -1.595   5.052  1.00  0.00     0.010 A 
ATOM     32  C   UNL     1       1.464  -1.703   5.277  1.00  0.00    -0.014 A 
BRANCH  32  33
ATOM     33  C   UNL     1       0.871  -2.587   6.329  1.00  0.00     0.031 A 
ATOM     34  C   UNL     1       0.371  -1.917   7.574  1.00  0.00     0.074 A 
ATOM     35  C   UNL     1       0.705  -3.918   6.194  1.00  0.00     0.049 A 
ATOM     36  N   UNL     1      -0.378  -2.389   8.532  1.00  0.00    -0.248 NA
ATOM     37  C   UNL     1       0.801  -0.523   7.759  1.00  0.00     0.031 C 
ATOM     38  C   UNL     1       1.229  -4.712   5.097  1.00  0.00     0.029 A 
ATOM     39  N   UNL     1       0.020  -4.839   6.960  1.00  0.00    -0.354 N 
ATOM     40  C   UNL     1      -0.534  -1.340   9.427  1.00  0.00     0.074 A 
ATOM     41  C   UNL     1       0.216  -0.218   8.903  1.00  0.00     0.031 C 
ATOM     42  C   UNL     1       0.762  -5.970   5.188  1.00  0.00     0.029 A 
ATOM     43  C   UNL     1      -0.054  -6.099   6.393  1.00  0.00     0.049 A 
ATOM     44  H   UNL     1      -0.380  -4.619   7.832  1.00  0.00     0.167 HD
ATOM     45  C   UNL     1      -1.219  -1.317  10.595  1.00  0.00     0.034 A 
ATOM     46  C   UNL     1      -0.704  -7.215   6.800  1.00  0.00     0.034 A 
ATOM     47  C   UNL     1      -1.858  -2.470  11.172  1.00  0.00     0.049 A 
ATOM     48  C   UNL     1      -1.437  -7.172   8.128  1.00  0.00     0.074 A 
ATOM     49  C   UNL     1      -2.515  -2.574  12.384  1.00  0.00     0.029 A 
ATOM     50  N   UNL     1      -1.884  -3.735  10.596  1.00  0.00    -0.354 N 
ATOM     51  N   UNL     1      -1.617  -6.157   8.942  1.00  0.00    -0.248 NA
ATOM     52  C   UNL     1      -2.028  -8.431   8.606  1.00  0.00     0.031 C 
ATOM     53  C   UNL     1      -2.867  -3.914  12.578  1.00  0.00     0.029 A 
ATOM     54  C   UNL     1      -2.519  -4.630  11.443  1.00  0.00     0.049 A 
ATOM     55  H   UNL     1      -1.507  -3.962   9.716  1.00  0.00     0.167 HD
ATOM     56  C   UNL     1      -2.354  -6.655  10.017  1.00  0.00     0.074 A 
ATOM     57  C   UNL     1      -2.616  -8.048   9.729  1.00  0.00     0.031 C 
ATOM     58  C   UNL     1      -2.767  -6.022  11.146  1.00  0.00     0.034 A 
BRANCH  45  59
ATOM     59  C   UNL     1      -1.191  -0.014  11.349  1.00  0.00     0.023 A 
ATOM     60  C   UNL     1      -1.762   1.153  10.810  1.00  0.00     0.031 A 
ATOM     61  C   UNL     1      -0.479   0.090  12.555  1.00  0.00     0.131 A 
ATOM     62  C   UNL     1      -1.523   2.390  11.425  1.00  0.00     0.055 A 
ATOM     63  C   UNL     1      -0.326   1.312  13.211  1.00  0.00     0.041 A 
ATOM     64  F   UNL     1       0.120  -0.985  13.091  1.00  0.00    -0.206 F 
ATOM     65  C   UNL     1      -0.832   2.474  12.636  1.00  0.00     0.022 A 
BRANCH  62  66
ATOM     66  S   UNL     1      -1.957   3.901  10.519  1.00  0.00     0.124 S 
ATOM     67  O   UNL     1      -1.135   3.768   9.319  1.00  0.00    -0.237 OA
ATOM     68  O   UNL     1      -3.395   3.754  10.329  1.00  0.00    -0.237 OA
ATOM     69  O   UNL     1      -1.552   4.971  11.428  1.00  0.00    -0.744 OA
ENDBRANCH  62  66
ENDBRANCH  45  59
BRANCH  46  70
ATOM     70  C   UNL     1      -0.680  -8.496   6.009  1.00  0.00     0.023 A 
ATOM     71  C   UNL     1      -1.873  -9.133   5.606  1.00  0.00     0.031 A 
ATOM     72  C   UNL     1       0.526  -9.169   5.745  1.00  0.00     0.131 A 
ATOM     73  C   UNL     1      -1.834 -10.416   5.027  1.00  0.00     0.055 A 
ATOM     74  C   UNL     1       0.563 -10.411   5.103  1.00  0.00     0.041 A 
ATOM     75  F   UNL     1       1.699  -8.636   6.121  1.00  0.00    -0.206 F 
ATOM     76  C   UNL     1      -0.622 -11.050   4.756  1.00  0.00     0.022 A 
BRANCH  73  77
ATOM     77  S   UNL     1      -3.394 -11.310   4.752  1.00  0.00     0.124 S 
ATOM     78  O   UNL     1      -3.945 -11.365   6.101  1.00  0.00    -0.237 OA
ATOM     79  O   UNL     1      -4.083 -10.436   3.809  1.00  0.00    -0.237 OA
ATOM     80  O   UNL     1      -2.958 -12.594   4.203  1.00  0.00    -0.744 OA
ENDBRANCH  73  77
ENDBRANCH  46  70
BRANCH  58  81
ATOM     81  C   UNL     1      -3.589  -6.824  12.130  1.00  0.00     0.023 A 
ATOM     82  C   UNL     1      -3.065  -7.935  12.816  1.00  0.00     0.031 A 
ATOM     83  C   UNL     1      -4.926  -6.467  12.381  1.00  0.00     0.131 A 
ATOM     84  C   UNL     1      -3.891  -8.685  13.668  1.00  0.00     0.055 A 
ATOM     85  C   UNL     1      -5.723  -7.175  13.281  1.00  0.00     0.041 A 
ATOM     86  F   UNL     1      -5.482  -5.417  11.755  1.00  0.00    -0.206 F 
ATOM     87  C   UNL     1      -5.211  -8.301  13.919  1.00  0.00     0.022 A 
BRANCH  84  88
ATOM     88  S   UNL     1      -3.254 -10.237  14.360  1.00  0.00     0.124 S 
ATOM     89  O   UNL     1      -2.859 -10.967  13.159  1.00  0.00    -0.237 OA
ATOM     90  O   UNL     1      -2.163  -9.774  15.211  1.00  0.00    -0.237 OA
ATOM     91  O   UNL     1      -4.403 -10.792  15.073  1.00  0.00    -0.744 OA
ENDBRANCH  84  88
ENDBRANCH  58  81
ENDBRANCH  32  33
ENDBRANCH  25  27
ENDBRANCH  24  25
ENDBRANCH  23  24
ENDBRANCH   1  23
TORSDOF 17
