REMARK SMILES CC1(C)Cc2c(-c3ccccc3)c(-c3ccc(Cl)cc3)c(CC(=O)OCCOC(=O)c3ccc(-c4c5nc(c(-c6cc(S(=O)(=O)[O-])ccc6F)c6ccc([nH]6)c(-c6cc(S(=O)(=O)[O-])ccc6F)c6nc(c(-c7cc(S(=O)(=O)[O-])ccc7F)c7ccc4[nH]7)C=C6)C=C5)cc3)n2C1
REMARK SMILES IDX 27 1 26 2 25 3 23 4 24 5 22 6 21 7 1 8 2 9 3 10 4 11 95 12
REMARK SMILES IDX 5 13 94 14 6 15 13 16 7 17 8 18 12 19 9 20 11 21 10 22 14 23
REMARK SMILES IDX 15 24 20 25 16 26 19 27 17 28 18 29 28 30 29 31 30 32 31 33
REMARK SMILES IDX 32 34 93 35 33 36 92 37 34 38 35 39 36 40 86 41 37 42 91 43
REMARK SMILES IDX 85 44 87 45 38 46 90 47 84 48 83 49 39 51 71 52 51 53 70 54
REMARK SMILES IDX 52 55 55 56 69 57 88 58 53 59 54 60 68 62 89 63 56 64 40 65
REMARK SMILES IDX 41 66 49 67 42 68 48 69 50 70 47 71 43 72 44 73 45 74 46 75
REMARK SMILES IDX 72 76 73 77 81 78 74 79 80 80 82 81 79 82 75 83 76 84 77 85
REMARK SMILES IDX 78 86 57 87 58 88 66 89 59 90 65 91 67 92 64 93 60 94 61 95
REMARK SMILES IDX 62 96 63 97
REMARK H PARENT 87 50 55 61
REMARK Flexibility Score: inf
ROOT
ATOM      1  C   UNL     1      -2.374   7.526   4.038  1.00  0.00     0.275 C 
ENDROOT
BRANCH   1   2
ATOM      2  C   UNL     1      -2.569   6.696   2.764  1.00  0.00     0.274 C 
BRANCH   2   3
ATOM      3  O   UNL     1      -1.389   5.912   2.512  1.00  0.00    -0.462 OA
BRANCH   3   4
ATOM      4  C   UNL     1      -0.919   5.866   1.244  1.00  0.00     0.311 C 
ATOM      5  O   UNL     1      -1.558   6.254   0.268  1.00  0.00    -0.252 OA
BRANCH   4   6
ATOM      6  C   UNL     1       0.521   5.391   1.139  1.00  0.00     0.177 C 
BRANCH   6   7
ATOM      7  C   UNL     1       0.970   4.253   2.024  1.00  0.00     0.037 A 
ATOM      8  C   UNL     1       0.823  -0.173  -0.220  1.00  0.00     0.013 C 
ATOM      9  C   UNL     1       0.408   0.783   0.897  1.00  0.00    -0.012 C 
ATOM     10  C   UNL     1      -1.008   0.436   1.390  1.00  0.00     0.013 C 
ATOM     11  C   UNL     1       1.419   0.698   2.083  1.00  0.00     0.063 C 
ATOM     12  C   UNL     1       0.457   2.267   0.422  1.00  0.00     0.129 C 
ATOM     13  C   UNL     1       1.515   2.103   2.504  1.00  0.00     0.027 A 
ATOM     14  N   UNL     1       0.982   2.960   1.588  1.00  0.00    -0.346 N 
ATOM     15  C   UNL     1       1.914   2.820   3.590  1.00  0.00     0.011 A 
ATOM     16  C   UNL     1       1.547   4.192   3.301  1.00  0.00     0.011 A 
BRANCH  15  17
ATOM     17  C   UNL     1       2.446   2.240   4.816  1.00  0.00    -0.016 A 
ATOM     18  C   UNL     1       3.718   1.661   4.828  1.00  0.00     0.009 A 
ATOM     19  C   UNL     1       1.754   2.389   6.026  1.00  0.00     0.009 A 
ATOM     20  C   UNL     1       4.306   1.289   6.041  1.00  0.00     0.001 A 
ATOM     21  C   UNL     1       2.358   2.057   7.238  1.00  0.00     0.001 A 
ATOM     22  C   UNL     1       3.637   1.510   7.245  1.00  0.00     0.000 A 
ENDBRANCH  15  17
BRANCH  16  23
ATOM     23  C   UNL     1       1.504   5.196   4.354  1.00  0.00    -0.016 A 
ATOM     24  C   UNL     1       2.652   5.457   5.117  1.00  0.00     0.010 A 
ATOM     25  C   UNL     1       0.245   5.387   4.930  1.00  0.00     0.010 A 
ATOM     26  C   UNL     1       2.518   5.706   6.491  1.00  0.00     0.021 A 
ATOM     27  C   UNL     1       0.107   5.715   6.267  1.00  0.00     0.021 A 
ATOM     28  C   UNL     1       1.242   5.750   7.058  1.00  0.00     0.041 A 
ATOM     29  Cl  UNL     1       0.993   5.511   8.739  1.00  0.00    -0.084 Cl
ENDBRANCH  16  23
ENDBRANCH   6   7
ENDBRANCH   4   6
ENDBRANCH   3   4
ENDBRANCH   2   3
ENDBRANCH   1   2
BRANCH   1  30
ATOM     30  O   UNL     1      -1.586   8.723   3.886  1.00  0.00    -0.458 OA
BRANCH  30  31
ATOM     31  C   UNL     1      -0.261   8.558   3.613  1.00  0.00     0.338 C 
ATOM     32  O   UNL     1       0.178   8.226   2.540  1.00  0.00    -0.246 OA
BRANCH  31  33
ATOM     33  C   UNL     1       0.586   8.892   4.795  1.00  0.00     0.060 A 
ATOM     34  C   UNL     1       1.961   8.649   4.713  1.00  0.00     0.016 A 
ATOM     35  C   UNL     1       0.040   9.377   5.990  1.00  0.00     0.016 A 
ATOM     36  C   UNL     1       2.764   8.812   5.843  1.00  0.00     0.010 A 
ATOM     37  C   UNL     1       0.843   9.539   7.121  1.00  0.00     0.010 A 
ATOM     38  C   UNL     1       2.205   9.230   7.065  1.00  0.00    -0.014 A 
BRANCH  38  39
ATOM     39  C   UNL     1       3.114   9.741   8.115  1.00  0.00     0.031 A 
ATOM     40  C   UNL     1       3.957  10.825   7.559  1.00  0.00     0.074 A 
ATOM     41  C   UNL     1       3.084   9.452   9.438  1.00  0.00     0.049 A 
ATOM     42  N   UNL     1       5.237  10.802   7.389  1.00  0.00    -0.248 NA
ATOM     43  C   UNL     1       3.287  11.942   6.861  1.00  0.00     0.031 C 
ATOM     44  C   UNL     1       2.236   8.453  10.061  1.00  0.00     0.029 A 
ATOM     45  N   UNL     1       3.712  10.001  10.532  1.00  0.00    -0.354 N 
ATOM     46  C   UNL     1       5.537  12.066   6.899  1.00  0.00     0.074 A 
ATOM     47  C   UNL     1       4.330  12.562   6.308  1.00  0.00     0.031 C 
ATOM     48  C   UNL     1       2.183   8.622  11.396  1.00  0.00     0.029 A 
ATOM     49  C   UNL     1       3.089   9.693  11.754  1.00  0.00     0.049 A 
ATOM     50  H   UNL     1       4.522  10.558  10.466  1.00  0.00     0.167 HD
ATOM     51  C   UNL     1       6.565  12.755   7.463  1.00  0.00     0.034 A 
ATOM     52  C   UNL     1       3.284  10.220  12.996  1.00  0.00     0.034 A 
ATOM     53  C   UNL     1       7.486  11.845   8.113  1.00  0.00     0.049 A 
ATOM     54  C   UNL     1       4.662  10.745  13.009  1.00  0.00     0.074 A 
ATOM     55  C   UNL     1       8.316  10.817   7.718  1.00  0.00     0.029 A 
ATOM     56  N   UNL     1       7.288  11.708   9.464  1.00  0.00    -0.354 N 
ATOM     57  N   UNL     1       5.708   9.967  12.929  1.00  0.00    -0.248 NA
ATOM     58  C   UNL     1       4.899  12.143  12.676  1.00  0.00     0.031 C 
ATOM     59  C   UNL     1       8.454   9.960   8.850  1.00  0.00     0.029 A 
ATOM     60  C   UNL     1       7.765  10.513   9.929  1.00  0.00     0.049 A 
ATOM     61  H   UNL     1       6.857  12.388  10.030  1.00  0.00     0.167 HD
ATOM     62  C   UNL     1       6.582  10.655  12.111  1.00  0.00     0.074 A 
ATOM     63  C   UNL     1       6.116  12.038  12.135  1.00  0.00     0.031 C 
ATOM     64  C   UNL     1       7.375   9.983  11.226  1.00  0.00     0.034 A 
BRANCH  51  65
ATOM     65  C   UNL     1       6.430  14.200   7.936  1.00  0.00     0.023 A 
ATOM     66  C   UNL     1       7.564  14.770   8.544  1.00  0.00     0.031 A 
ATOM     67  C   UNL     1       5.217  14.910   8.129  1.00  0.00     0.131 A 
ATOM     68  C   UNL     1       7.449  15.904   9.368  1.00  0.00     0.055 A 
ATOM     69  C   UNL     1       5.118  16.061   8.911  1.00  0.00     0.041 A 
ATOM     70  F   UNL     1       4.037  14.505   7.653  1.00  0.00    -0.206 F 
ATOM     71  C   UNL     1       6.231  16.549   9.562  1.00  0.00     0.022 A 
BRANCH  68  72
ATOM     72  S   UNL     1       8.898  16.437  10.308  1.00  0.00     0.124 S 
ATOM     73  O   UNL     1       9.184  15.248  11.100  1.00  0.00    -0.237 OA
ATOM     74  O   UNL     1       9.844  16.752   9.242  1.00  0.00    -0.237 OA
ATOM     75  O   UNL     1       8.405  17.589  11.060  1.00  0.00    -0.744 OA
ENDBRANCH  68  72
ENDBRANCH  51  65
BRANCH  52  76
ATOM     76  C   UNL     1       2.277  10.460  14.084  1.00  0.00     0.023 A 
ATOM     77  C   UNL     1       2.626  10.794  15.416  1.00  0.00     0.031 A 
ATOM     78  C   UNL     1       0.909  10.604  13.750  1.00  0.00     0.131 A 
ATOM     79  C   UNL     1       1.640  11.262  16.327  1.00  0.00     0.055 A 
ATOM     80  C   UNL     1      -0.056  11.064  14.651  1.00  0.00     0.041 A 
ATOM     81  F   UNL     1       0.469  10.386  12.502  1.00  0.00    -0.206 F 
ATOM     82  C   UNL     1       0.307  11.410  15.940  1.00  0.00     0.022 A 
BRANCH  79  83
ATOM     83  S   UNL     1       2.088  11.794  18.018  1.00  0.00     0.124 S 
ATOM     84  O   UNL     1       2.392  10.527  18.673  1.00  0.00    -0.237 OA
ATOM     85  O   UNL     1       3.214  12.690  17.780  1.00  0.00    -0.237 OA
ATOM     86  O   UNL     1       0.875  12.457  18.501  1.00  0.00    -0.744 OA
ENDBRANCH  79  83
ENDBRANCH  52  76
BRANCH  64  87
ATOM     87  C   UNL     1       7.801   8.578  11.581  1.00  0.00     0.023 A 
ATOM     88  C   UNL     1       6.948   7.471  11.778  1.00  0.00     0.031 A 
ATOM     89  C   UNL     1       9.189   8.361  11.678  1.00  0.00     0.131 A 
ATOM     90  C   UNL     1       7.503   6.205  12.062  1.00  0.00     0.055 A 
ATOM     91  C   UNL     1       9.732   7.107  11.938  1.00  0.00     0.041 A 
ATOM     92  F   UNL     1      10.051   9.375  11.495  1.00  0.00    -0.206 F 
ATOM     93  C   UNL     1       8.889   6.023  12.137  1.00  0.00     0.022 A 
BRANCH  90  94
ATOM     94  S   UNL     1       6.433   4.762  12.375  1.00  0.00     0.124 S 
ATOM     95  O   UNL     1       5.425   5.276  13.293  1.00  0.00    -0.237 OA
ATOM     96  O   UNL     1       5.965   4.422  11.034  1.00  0.00    -0.237 OA
ATOM     97  O   UNL     1       7.349   3.781  12.962  1.00  0.00    -0.744 OA
ENDBRANCH  90  94
ENDBRANCH  64  87
ENDBRANCH  38  39
ENDBRANCH  31  33
ENDBRANCH  30  31
ENDBRANCH   1  30
TORSDOF 17
