REMARK SMILES O=C(OCCOC(=O)c1c(C2CC2)nn(-c2ccc(Cl)c(F)c2)c1Cl)c1ccc(-c2c3nc(c(-c4cc(S(=O)(=O)[O-])ccc4F)c4ccc([nH]4)c(-c4cc(S(=O)(=O)[O-])ccc4F)c4nc(c(-c5cc(S(=O)(=O)[O-])ccc5F)c5ccc2[nH]5)C=C4)C=C3)cc1
REMARK SMILES IDX 4 1 3 2 2 3 1 4 26 5 27 6 88 7 28 8 87 9 29 10 30 11 31 12
REMARK SMILES IDX 81 13 32 14 86 15 80 16 82 17 33 18 85 19 79 20 78 21 34 23
REMARK SMILES IDX 66 24 46 25 65 26 47 27 50 28 64 29 83 30 48 31 49 32 63 34
REMARK SMILES IDX 84 35 51 36 35 37 36 38 44 39 37 40 43 41 45 42 42 43 38 44
REMARK SMILES IDX 39 45 40 46 41 47 67 48 68 49 76 50 69 51 75 52 77 53 74 54
REMARK SMILES IDX 70 55 71 56 72 57 73 58 52 59 53 60 61 61 54 62 60 63 62 64
REMARK SMILES IDX 59 65 55 66 56 67 57 68 58 69 5 70 6 71 7 72 8 73 9 74 10 75
REMARK SMILES IDX 24 76 14 77 15 78 25 79 11 80 12 81 13 82 16 83 17 84 23 85
REMARK SMILES IDX 18 86 21 87 19 88 22 89 20 90
REMARK H PARENT 82 22 50 33
REMARK Flexibility Score: inf
ROOT
ATOM      1  C   UNL     1       5.112   0.390  -1.365  1.00  0.00     0.275 C 
ENDROOT
BRANCH   1   2
ATOM      2  O   UNL     1       4.906  -0.784  -0.573  1.00  0.00    -0.458 OA
BRANCH   2   3
ATOM      3  C   UNL     1       3.735  -1.437  -0.763  1.00  0.00     0.338 C 
ATOM      4  O   UNL     1       3.041  -1.395  -1.767  1.00  0.00    -0.246 OA
BRANCH   3   5
ATOM      5  C   UNL     1       3.302  -1.924   0.564  1.00  0.00     0.060 A 
ATOM      6  C   UNL     1       4.231  -2.215   1.571  1.00  0.00     0.016 A 
ATOM      7  C   UNL     1       1.935  -1.950   0.840  1.00  0.00     0.016 A 
ATOM      8  C   UNL     1       3.793  -2.504   2.861  1.00  0.00     0.010 A 
ATOM      9  C   UNL     1       1.505  -2.239   2.133  1.00  0.00     0.010 A 
ATOM     10  C   UNL     1       2.426  -2.514   3.155  1.00  0.00    -0.014 A 
BRANCH  10  11
ATOM     11  C   UNL     1       2.012  -2.851   4.524  1.00  0.00     0.031 A 
ATOM     12  C   UNL     1       2.527  -2.067   5.689  1.00  0.00     0.074 A 
ATOM     13  C   UNL     1       1.086  -3.785   4.820  1.00  0.00     0.049 A 
ATOM     14  N   UNL     1       3.259  -2.496   6.668  1.00  0.00    -0.248 NA
ATOM     15  C   UNL     1       2.134  -0.658   5.824  1.00  0.00     0.031 C 
ATOM     16  C   UNL     1       0.202  -4.500   3.901  1.00  0.00     0.029 A 
ATOM     17  N   UNL     1       0.686  -4.220   6.055  1.00  0.00    -0.354 N 
ATOM     18  C   UNL     1       3.273  -1.493   7.637  1.00  0.00     0.074 A 
ATOM     19  C   UNL     1       2.628  -0.354   7.028  1.00  0.00     0.031 C 
ATOM     20  C   UNL     1      -0.778  -5.098   4.608  1.00  0.00     0.029 A 
ATOM     21  C   UNL     1      -0.480  -4.958   6.023  1.00  0.00     0.049 A 
ATOM     22  H   UNL     1       1.181  -4.026   6.884  1.00  0.00     0.167 HD
ATOM     23  C   UNL     1       3.684  -1.723   8.919  1.00  0.00     0.034 A 
ATOM     24  C   UNL     1      -1.182  -5.452   7.065  1.00  0.00     0.034 A 
ATOM     25  C   UNL     1       4.381  -2.978   9.045  1.00  0.00     0.049 A 
ATOM     26  C   UNL     1      -0.256  -5.689   8.190  1.00  0.00     0.074 A 
ATOM     27  C   UNL     1       5.527  -3.535   8.514  1.00  0.00     0.029 A 
ATOM     28  N   UNL     1       3.730  -4.004   9.685  1.00  0.00    -0.354 N 
ATOM     29  N   UNL     1       0.730  -6.543   8.140  1.00  0.00    -0.248 NA
ATOM     30  C   UNL     1      -0.233  -4.793   9.338  1.00  0.00     0.031 C 
ATOM     31  C   UNL     1       5.294  -4.943   8.494  1.00  0.00     0.029 A 
ATOM     32  C   UNL     1       4.011  -5.159   8.999  1.00  0.00     0.049 A 
ATOM     33  H   UNL     1       3.165  -3.925  10.487  1.00  0.00     0.167 HD
ATOM     34  C   UNL     1       1.692  -6.026   8.983  1.00  0.00     0.074 A 
ATOM     35  C   UNL     1       0.978  -5.080   9.827  1.00  0.00     0.031 C 
ATOM     36  C   UNL     1       3.019  -6.176   8.705  1.00  0.00     0.034 A 
BRANCH  23  37
ATOM     37  C   UNL     1       3.276  -0.956  10.162  1.00  0.00     0.023 A 
ATOM     38  C   UNL     1       3.958  -1.229  11.371  1.00  0.00     0.031 A 
ATOM     39  C   UNL     1       2.101  -0.188  10.284  1.00  0.00     0.131 A 
ATOM     40  C   UNL     1       3.458  -0.791  12.611  1.00  0.00     0.055 A 
ATOM     41  C   UNL     1       1.641   0.304  11.513  1.00  0.00     0.041 A 
ATOM     42  F   UNL     1       1.295   0.043   9.239  1.00  0.00    -0.206 F 
ATOM     43  C   UNL     1       2.308  -0.012  12.688  1.00  0.00     0.022 A 
BRANCH  40  44
ATOM     44  S   UNL     1       4.228  -1.409  14.137  1.00  0.00     0.124 S 
ATOM     45  O   UNL     1       4.330  -2.839  13.870  1.00  0.00    -0.237 OA
ATOM     46  O   UNL     1       5.484  -0.667  14.161  1.00  0.00    -0.237 OA
ATOM     47  O   UNL     1       3.267  -1.040  15.174  1.00  0.00    -0.744 OA
ENDBRANCH  40  44
ENDBRANCH  23  37
BRANCH  24  48
ATOM     48  C   UNL     1      -2.646  -5.633   7.106  1.00  0.00     0.023 A 
ATOM     49  C   UNL     1      -3.265  -6.593   7.917  1.00  0.00     0.031 A 
ATOM     50  C   UNL     1      -3.482  -4.705   6.442  1.00  0.00     0.131 A 
ATOM     51  C   UNL     1      -4.671  -6.623   8.015  1.00  0.00     0.055 A 
ATOM     52  C   UNL     1      -4.872  -4.751   6.526  1.00  0.00     0.041 A 
ATOM     53  F   UNL     1      -2.965  -3.682   5.741  1.00  0.00    -0.206 F 
ATOM     54  C   UNL     1      -5.474  -5.714   7.319  1.00  0.00     0.022 A 
BRANCH  51  55
ATOM     55  S   UNL     1      -5.470  -7.785   9.160  1.00  0.00     0.124 S 
ATOM     56  O   UNL     1      -5.422  -9.035   8.410  1.00  0.00    -0.237 OA
ATOM     57  O   UNL     1      -4.617  -7.705  10.341  1.00  0.00    -0.237 OA
ATOM     58  O   UNL     1      -6.807  -7.217   9.334  1.00  0.00    -0.744 OA
ENDBRANCH  51  55
ENDBRANCH  24  48
BRANCH  36  59
ATOM     59  C   UNL     1       3.427  -7.276   7.754  1.00  0.00     0.023 A 
ATOM     60  C   UNL     1       3.024  -7.327   6.403  1.00  0.00     0.031 A 
ATOM     61  C   UNL     1       4.354  -8.233   8.199  1.00  0.00     0.131 A 
ATOM     62  C   UNL     1       3.531  -8.323   5.553  1.00  0.00     0.055 A 
ATOM     63  C   UNL     1       4.868  -9.213   7.349  1.00  0.00     0.041 A 
ATOM     64  F   UNL     1       4.808  -8.206   9.463  1.00  0.00    -0.206 F 
ATOM     65  C   UNL     1       4.453  -9.264   6.021  1.00  0.00     0.022 A 
BRANCH  62  66
ATOM     66  S   UNL     1       3.001  -8.389   3.813  1.00  0.00     0.124 S 
ATOM     67  O   UNL     1       1.545  -8.391   3.901  1.00  0.00    -0.237 OA
ATOM     68  O   UNL     1       3.608  -7.185   3.250  1.00  0.00    -0.237 OA
ATOM     69  O   UNL     1       3.582  -9.642   3.329  1.00  0.00    -0.744 OA
ENDBRANCH  62  66
ENDBRANCH  36  59
ENDBRANCH  10  11
ENDBRANCH   3   5
ENDBRANCH   2   3
ENDBRANCH   1   2
BRANCH   1  70
ATOM     70  C   UNL     1       3.957   1.392  -1.240  1.00  0.00     0.275 C 
BRANCH  70  71
ATOM     71  O   UNL     1       3.627   1.601   0.147  1.00  0.00    -0.458 OA
BRANCH  71  72
ATOM     72  C   UNL     1       2.342   1.988   0.412  1.00  0.00     0.343 C 
ATOM     73  O   UNL     1       1.461   2.043  -0.436  1.00  0.00    -0.246 OA
BRANCH  72  74
ATOM     74  C   UNL     1       2.173   2.488   1.762  1.00  0.00     0.121 A 
ATOM     75  C   UNL     1       1.038   2.590   2.618  1.00  0.00     0.082 A 
ATOM     76  C   UNL     1       3.134   3.200   2.452  1.00  0.00     0.147 A 
ATOM     77  N   UNL     1       1.288   3.303   3.726  1.00  0.00    -0.170 NA
ATOM     78  N   UNL     1       2.574   3.681   3.605  1.00  0.00    -0.221 N 
ATOM     79  Cl  UNL     1       4.752   3.610   2.062  1.00  0.00    -0.061 Cl
BRANCH  75  80
ATOM     80  C   UNL     1      -0.386   2.059   2.468  1.00  0.00     0.041 C 
ATOM     81  C   UNL     1      -0.885   1.191   1.347  1.00  0.00     0.011 C 
ATOM     82  C   UNL     1      -0.621   0.587   2.689  1.00  0.00     0.011 C 
ENDBRANCH  75  80
BRANCH  78  83
ATOM     83  C   UNL     1       3.041   4.734   4.414  1.00  0.00     0.069 A 
ATOM     84  C   UNL     1       3.415   4.476   5.735  1.00  0.00     0.030 A 
ATOM     85  C   UNL     1       3.088   6.026   3.879  1.00  0.00     0.069 A 
ATOM     86  C   UNL     1       3.887   5.530   6.522  1.00  0.00     0.026 A 
ATOM     87  C   UNL     1       3.532   7.066   4.684  1.00  0.00     0.143 A 
ATOM     88  C   UNL     1       3.941   6.825   5.996  1.00  0.00     0.076 A 
ATOM     89  F   UNL     1       3.554   8.306   4.173  1.00  0.00    -0.205 F 
ATOM     90  Cl  UNL     1       4.514   8.118   6.979  1.00  0.00    -0.081 Cl
ENDBRANCH  78  83
ENDBRANCH  72  74
ENDBRANCH  71  72
ENDBRANCH  70  71
ENDBRANCH   1  70
TORSDOF 16
