REMARK SMILES O=C(OCCOC(=O)[C@H]1CCC(=O)N(C2CCCCC2)[C@H]1c1ccccc1)c1ccc(-c2c3nc(c(-c4cc(S(=O)(=O)[O-])ccc4F)c4ccc([nH]4)c(-c4cc(S(=O)(=O)[O-])ccc4F)c4nc(c(-c5cc(S(=O)(=O)[O-])ccc5F)c5ccc2[nH]5)C=C4)C=C3)cc1
REMARK SMILES IDX 4 1 3 2 2 3 1 4 28 5 29 6 90 7 30 8 89 9 31 10 32 11 33 12
REMARK SMILES IDX 83 13 34 14 88 15 82 16 84 17 35 18 87 19 81 20 80 21 36 23
REMARK SMILES IDX 68 24 48 25 67 26 49 27 52 28 66 29 85 30 50 31 51 32 65 34
REMARK SMILES IDX 86 35 53 36 37 37 38 38 46 39 39 40 45 41 47 42 44 43 40 44
REMARK SMILES IDX 41 45 42 46 43 47 69 48 70 49 78 50 71 51 77 52 79 53 76 54
REMARK SMILES IDX 72 55 73 56 74 57 75 58 54 59 55 60 63 61 56 62 62 63 64 64
REMARK SMILES IDX 61 65 57 66 58 67 59 68 60 69 5 70 6 71 7 72 8 73 9 74 10 75
REMARK SMILES IDX 21 76 11 77 14 78 12 79 13 80 22 81 23 82 27 83 24 84 26 85
REMARK SMILES IDX 25 86 15 87 16 88 20 89 17 90 19 91 18 92
REMARK H PARENT 84 22 52 33
REMARK Flexibility Score: inf
ROOT
ATOM      1  C   UNL     1       1.093  -2.894  -2.005  1.00  0.00     0.275 C 
ENDROOT
BRANCH   1   2
ATOM      2  O   UNL     1       2.477  -2.499  -2.076  1.00  0.00    -0.458 OA
BRANCH   2   3
ATOM      3  C   UNL     1       3.083  -1.387  -1.593  1.00  0.00     0.338 C 
ATOM      4  O   UNL     1       4.274  -1.192  -1.828  1.00  0.00    -0.246 OA
BRANCH   3   5
ATOM      5  C   UNL     1       2.393  -0.461  -0.654  1.00  0.00     0.060 A 
ATOM      6  C   UNL     1       1.074  -0.033  -0.804  1.00  0.00     0.016 A 
ATOM      7  C   UNL     1       3.148   0.041   0.422  1.00  0.00     0.016 A 
ATOM      8  C   UNL     1       0.479   0.786   0.157  1.00  0.00     0.010 A 
ATOM      9  C   UNL     1       2.567   0.889   1.370  1.00  0.00     0.010 A 
ATOM     10  C   UNL     1       1.222   1.256   1.244  1.00  0.00    -0.014 A 
BRANCH  10  11
ATOM     11  C   UNL     1       0.632   2.312   2.095  1.00  0.00     0.031 A 
ATOM     12  C   UNL     1       0.861   3.735   1.676  1.00  0.00     0.074 A 
ATOM     13  C   UNL     1      -0.157   2.017   3.144  1.00  0.00     0.049 A 
ATOM     14  N   UNL     1       0.306   4.825   2.129  1.00  0.00    -0.248 NA
ATOM     15  C   UNL     1       1.803   3.948   0.564  1.00  0.00     0.031 C 
ATOM     16  C   UNL     1      -0.513   0.672   3.588  1.00  0.00     0.029 A 
ATOM     17  N   UNL     1      -0.804   2.835   4.034  1.00  0.00    -0.354 N 
ATOM     18  C   UNL     1       0.756   5.840   1.297  1.00  0.00     0.074 A 
ATOM     19  C   UNL     1       1.707   5.254   0.379  1.00  0.00     0.031 C 
ATOM     20  C   UNL     1      -1.246   0.751   4.711  1.00  0.00     0.029 A 
ATOM     21  C   UNL     1      -1.450   2.156   5.042  1.00  0.00     0.049 A 
ATOM     22  H   UNL     1      -0.806   3.817   3.958  1.00  0.00     0.167 HD
ATOM     23  C   UNL     1       0.370   7.137   1.271  1.00  0.00     0.034 A 
ATOM     24  C   UNL     1      -2.139   2.622   6.101  1.00  0.00     0.034 A 
ATOM     25  C   UNL     1      -0.501   7.718   2.257  1.00  0.00     0.049 A 
ATOM     26  C   UNL     1      -2.393   4.106   6.176  1.00  0.00     0.074 A 
ATOM     27  C   UNL     1      -0.912   9.031   2.386  1.00  0.00     0.029 A 
ATOM     28  N   UNL     1      -1.069   7.015   3.314  1.00  0.00    -0.354 N 
ATOM     29  N   UNL     1      -2.020   5.049   5.339  1.00  0.00    -0.248 NA
ATOM     30  C   UNL     1      -3.205   4.583   7.301  1.00  0.00     0.031 C 
ATOM     31  C   UNL     1      -1.677   9.133   3.555  1.00  0.00     0.029 A 
ATOM     32  C   UNL     1      -1.799   7.872   4.120  1.00  0.00     0.049 A 
ATOM     33  H   UNL     1      -0.968   6.048   3.467  1.00  0.00     0.167 HD
ATOM     34  C   UNL     1      -2.598   6.223   5.809  1.00  0.00     0.074 A 
ATOM     35  C   UNL     1      -3.348   5.864   6.997  1.00  0.00     0.031 C 
ATOM     36  C   UNL     1      -2.530   7.482   5.303  1.00  0.00     0.034 A 
BRANCH  23  37
ATOM     37  C   UNL     1       0.931   7.979   0.156  1.00  0.00     0.023 A 
ATOM     38  C   UNL     1       0.586   7.721  -1.185  1.00  0.00     0.031 A 
ATOM     39  C   UNL     1       1.876   8.983   0.416  1.00  0.00     0.131 A 
ATOM     40  C   UNL     1       1.234   8.412  -2.219  1.00  0.00     0.055 A 
ATOM     41  C   UNL     1       2.469   9.713  -0.616  1.00  0.00     0.041 A 
ATOM     42  F   UNL     1       2.263   9.247   1.673  1.00  0.00    -0.206 F 
ATOM     43  C   UNL     1       2.160   9.420  -1.943  1.00  0.00     0.022 A 
BRANCH  40  44
ATOM     44  S   UNL     1       0.942   7.885  -3.931  1.00  0.00     0.124 S 
ATOM     45  O   UNL     1       1.460   6.516  -3.911  1.00  0.00    -0.237 OA
ATOM     46  O   UNL     1      -0.498   8.019  -4.066  1.00  0.00    -0.237 OA
ATOM     47  O   UNL     1       1.736   8.830  -4.719  1.00  0.00    -0.744 OA
ENDBRANCH  40  44
ENDBRANCH  23  37
BRANCH  24  48
ATOM     48  C   UNL     1      -2.635   1.696   7.161  1.00  0.00     0.023 A 
ATOM     49  C   UNL     1      -4.004   1.537   7.427  1.00  0.00     0.031 A 
ATOM     50  C   UNL     1      -1.723   1.003   7.980  1.00  0.00     0.131 A 
ATOM     51  C   UNL     1      -4.421   0.752   8.516  1.00  0.00     0.055 A 
ATOM     52  C   UNL     1      -2.143   0.190   9.034  1.00  0.00     0.041 A 
ATOM     53  F   UNL     1      -0.402   1.113   7.767  1.00  0.00    -0.206 F 
ATOM     54  C   UNL     1      -3.500   0.074   9.318  1.00  0.00     0.022 A 
BRANCH  51  55
ATOM     55  S   UNL     1      -6.187   0.706   8.933  1.00  0.00     0.124 S 
ATOM     56  O   UNL     1      -6.516   2.125   9.010  1.00  0.00    -0.237 OA
ATOM     57  O   UNL     1      -6.743  -0.020   7.796  1.00  0.00    -0.237 OA
ATOM     58  O   UNL     1      -6.218  -0.011  10.205  1.00  0.00    -0.744 OA
ENDBRANCH  51  55
ENDBRANCH  24  48
BRANCH  36  59
ATOM     59  C   UNL     1      -3.328   8.538   6.022  1.00  0.00     0.023 A 
ATOM     60  C   UNL     1      -3.003   8.939   7.328  1.00  0.00     0.031 A 
ATOM     61  C   UNL     1      -4.446   9.123   5.403  1.00  0.00     0.131 A 
ATOM     62  C   UNL     1      -3.832   9.845   8.003  1.00  0.00     0.055 A 
ATOM     63  C   UNL     1      -5.228  10.076   6.056  1.00  0.00     0.041 A 
ATOM     64  F   UNL     1      -4.799   8.774   4.156  1.00  0.00    -0.206 F 
ATOM     65  C   UNL     1      -4.932  10.429   7.370  1.00  0.00     0.022 A 
BRANCH  62  66
ATOM     66  S   UNL     1      -3.512  10.165   9.758  1.00  0.00     0.124 S 
ATOM     67  O   UNL     1      -3.632   8.830  10.335  1.00  0.00    -0.237 OA
ATOM     68  O   UNL     1      -2.167  10.730   9.733  1.00  0.00    -0.237 OA
ATOM     69  O   UNL     1      -4.570  11.101  10.134  1.00  0.00    -0.744 OA
ENDBRANCH  62  66
ENDBRANCH  36  59
ENDBRANCH  10  11
ENDBRANCH   3   5
ENDBRANCH   2   3
ENDBRANCH   1   2
BRANCH   1  70
ATOM     70  C   UNL     1       0.638  -3.566  -0.707  1.00  0.00     0.274 C 
BRANCH  70  71
ATOM     71  O   UNL     1       1.150  -2.976   0.493  1.00  0.00    -0.462 OA
BRANCH  71  72
ATOM     72  C   UNL     1       2.337  -3.484   0.909  1.00  0.00     0.311 C 
ATOM     73  O   UNL     1       3.006  -4.287   0.260  1.00  0.00    -0.252 OA
BRANCH  72  74
ATOM     74  C   UNL     1       2.794  -2.937   2.238  1.00  0.00     0.127 C 
ATOM     75  C   UNL     1       1.773  -2.183   3.069  1.00  0.00     0.028 C 
ATOM     76  C   UNL     1       3.397  -4.039   3.116  1.00  0.00     0.130 C 
ATOM     77  C   UNL     1       2.428  -1.564   4.298  1.00  0.00     0.101 C 
ATOM     78  N   UNL     1       4.152  -3.380   4.201  1.00  0.00    -0.332 N 
ATOM     79  C   UNL     1       3.644  -2.276   4.880  1.00  0.00     0.223 C 
ATOM     80  O   UNL     1       4.182  -1.816   5.889  1.00  0.00    -0.275 OA
BRANCH  76  81
ATOM     81  C   UNL     1       2.396  -5.090   3.626  1.00  0.00    -0.025 A 
ATOM     82  C   UNL     1       2.055  -5.220   4.983  1.00  0.00     0.006 A 
ATOM     83  C   UNL     1       1.773  -5.971   2.721  1.00  0.00     0.006 A 
ATOM     84  C   UNL     1       1.133  -6.179   5.412  1.00  0.00     0.000 A 
ATOM     85  C   UNL     1       0.826  -6.907   3.144  1.00  0.00     0.000 A 
ATOM     86  C   UNL     1       0.510  -7.015   4.492  1.00  0.00     0.000 A 
ENDBRANCH  76  81
BRANCH  78  87
ATOM     87  C   UNL     1       5.473  -3.932   4.541  1.00  0.00     0.085 C 
ATOM     88  C   UNL     1       6.598  -2.904   4.322  1.00  0.00     0.025 C 
ATOM     89  C   UNL     1       5.542  -4.559   5.939  1.00  0.00     0.025 C 
ATOM     90  C   UNL     1       7.969  -3.518   4.592  1.00  0.00     0.002 C 
ATOM     91  C   UNL     1       6.918  -5.173   6.189  1.00  0.00     0.002 C 
ATOM     92  C   UNL     1       8.035  -4.155   5.978  1.00  0.00     0.000 C 
ENDBRANCH  78  87
ENDBRANCH  72  74
ENDBRANCH  71  72
ENDBRANCH  70  71
ENDBRANCH   1  70
TORSDOF 16
