REMARK SMILES C[C@@H](CCC(=O)OCCOC(=O)c1ccc(-c2c3nc(c(-c4cc(S(=O)(=O)[O-])ccc4F)c4ccc([nH]4)c(-c4cc(S(=O)(=O)[O-])ccc4F)c4nc(c(-c5cc(S(=O)(=O)[O-])ccc5F)c5ccc2[nH]5)C=C4)C=C3)cc1)[C@@H]1CC[C@@H]2[C@H]3CC[C@@H]4CC(=O)CC[C@]4(C)[C@@H]3CC(=O)[C@]21C
REMARK SMILES IDX 8 1 7 2 5 3 6 4 4 5 3 6 2 7 1 8 76 9 77 10 95 11 78 12 79 13
REMARK SMILES IDX 93 14 96 15 80 16 92 17 94 18 81 19 91 20 82 21 89 22 83 23
REMARK SMILES IDX 88 24 90 25 84 26 87 27 85 28 86 29 9 30 10 31 11 32 12 33
REMARK SMILES IDX 13 34 14 35 75 36 15 37 74 38 16 39 17 40 18 41 68 42 19 43
REMARK SMILES IDX 73 44 67 45 69 46 20 47 72 48 66 49 65 50 21 52 53 53 33 54
REMARK SMILES IDX 52 55 34 56 37 57 51 58 70 59 35 60 36 61 50 63 71 64 38 65
REMARK SMILES IDX 22 66 23 67 31 68 24 69 30 70 32 71 29 72 25 73 26 74 27 75
REMARK SMILES IDX 28 76 54 77 55 78 63 79 56 80 62 81 64 82 61 83 57 84 58 85
REMARK SMILES IDX 59 86 60 87 39 88 40 89 48 90 41 91 47 92 49 93 46 94 42 95
REMARK SMILES IDX 43 96 44 97 45 98
REMARK H PARENT 69 51 37 62
REMARK Flexibility Score: inf
ROOT
ATOM      1  C   UNL     1      -2.901   2.985   1.125  1.00  0.00     0.274 C 
ENDROOT
BRANCH   1   2
ATOM      2  O   UNL     1      -1.639   2.283   1.115  1.00  0.00    -0.462 OA
BRANCH   2   3
ATOM      3  C   UNL     1      -0.492   2.961   0.940  1.00  0.00     0.305 C 
ATOM      4  O   UNL     1      -0.455   4.116   0.524  1.00  0.00    -0.252 OA
BRANCH   3   5
ATOM      5  C   UNL     1       0.798   2.184   1.262  1.00  0.00     0.123 C 
BRANCH   5   6
ATOM      6  C   UNL     1       0.974   0.790   1.946  1.00  0.00     0.015 C 
BRANCH   6   7
ATOM      7  C   UNL     1       0.560  -0.565   1.264  1.00  0.00    -0.010 C 
ATOM      8  C   UNL     1       0.676  -0.405  -0.263  1.00  0.00     0.008 C 
BRANCH   7   9
ATOM      9  C   UNL     1      -0.831  -1.188   1.638  1.00  0.00     0.005 C 
ATOM     10  C   UNL     1      -1.807  -0.081   2.056  1.00  0.00     0.005 C 
ATOM     11  C   UNL     1      -1.079  -2.257   2.771  1.00  0.00     0.032 C 
ATOM     12  C   UNL     1      -2.693  -0.574   3.158  1.00  0.00     0.005 C 
ATOM     13  C   UNL     1      -2.612  -2.033   2.900  1.00  0.00     0.006 C 
ATOM     14  C   UNL     1      -1.054  -3.755   2.488  1.00  0.00     0.139 C 
ATOM     15  C   UNL     1      -0.189  -2.004   3.993  1.00  0.00     0.020 C 
ATOM     16  C   UNL     1      -3.468  -2.792   3.879  1.00  0.00    -0.003 C 
ATOM     17  C   UNL     1      -1.697  -4.638   3.592  1.00  0.00     0.080 C 
ATOM     18  O   UNL     1      -0.583  -4.228   1.456  1.00  0.00    -0.299 OA
ATOM     19  C   UNL     1      -4.956  -2.537   3.524  1.00  0.00     0.004 C 
ATOM     20  C   UNL     1      -3.190  -4.291   3.805  1.00  0.00     0.006 C 
ATOM     21  C   UNL     1      -5.946  -3.386   4.296  1.00  0.00     0.005 C 
ATOM     22  C   UNL     1      -4.024  -5.005   4.945  1.00  0.00    -0.025 C 
ATOM     23  C   UNL     1      -5.513  -4.857   4.493  1.00  0.00     0.002 C 
ATOM     24  C   UNL     1      -3.860  -4.443   6.402  1.00  0.00     0.015 C 
ATOM     25  C   UNL     1      -3.597  -6.487   5.001  1.00  0.00     0.012 C 
ATOM     26  C   UNL     1      -6.469  -5.554   5.451  1.00  0.00     0.079 C 
ATOM     27  C   UNL     1      -5.132  -4.237   7.253  1.00  0.00     0.076 C 
ATOM     28  C   UNL     1      -6.416  -4.911   6.808  1.00  0.00     0.133 C 
ATOM     29  O   UNL     1      -7.418  -4.907   7.527  1.00  0.00    -0.300 OA
ENDBRANCH   7   9
ENDBRANCH   6   7
ENDBRANCH   5   6
ENDBRANCH   3   5
ENDBRANCH   2   3
ENDBRANCH   1   2
BRANCH   1  30
ATOM     30  C   UNL     1      -3.838   2.493   2.264  1.00  0.00     0.275 C 
BRANCH  30  31
ATOM     31  O   UNL     1      -3.277   2.221   3.579  1.00  0.00    -0.458 OA
BRANCH  31  32
ATOM     32  C   UNL     1      -2.277   3.008   4.026  1.00  0.00     0.338 C 
ATOM     33  O   UNL     1      -1.870   4.011   3.472  1.00  0.00    -0.246 OA
BRANCH  32  34
ATOM     34  C   UNL     1      -1.618   2.489   5.256  1.00  0.00     0.060 A 
ATOM     35  C   UNL     1      -0.230   2.655   5.318  1.00  0.00     0.016 A 
ATOM     36  C   UNL     1      -2.312   2.070   6.398  1.00  0.00     0.016 A 
ATOM     37  C   UNL     1       0.445   2.549   6.534  1.00  0.00     0.010 A 
ATOM     38  C   UNL     1      -1.638   2.022   7.638  1.00  0.00     0.010 A 
ATOM     39  C   UNL     1      -0.273   2.352   7.724  1.00  0.00    -0.014 A 
BRANCH  39  40
ATOM     40  C   UNL     1       0.374   2.791   9.002  1.00  0.00     0.031 A 
ATOM     41  C   UNL     1       0.837   1.830  10.055  1.00  0.00     0.074 A 
ATOM     42  C   UNL     1       0.598   4.115   9.165  1.00  0.00     0.049 A 
ATOM     43  N   UNL     1       1.477   2.077  11.171  1.00  0.00    -0.248 NA
ATOM     44  C   UNL     1       0.543   0.412   9.828  1.00  0.00     0.031 C 
ATOM     45  C   UNL     1       0.211   5.151   8.200  1.00  0.00     0.029 A 
ATOM     46  N   UNL     1       1.230   4.822  10.160  1.00  0.00    -0.354 N 
ATOM     47  C   UNL     1       1.663   0.847  11.792  1.00  0.00     0.074 A 
ATOM     48  C   UNL     1       1.038  -0.141  10.929  1.00  0.00     0.031 C 
ATOM     49  C   UNL     1       0.669   6.340   8.616  1.00  0.00     0.029 A 
ATOM     50  C   UNL     1       1.311   6.177   9.914  1.00  0.00     0.049 A 
ATOM     51  H   UNL     1       1.591   4.400  10.973  1.00  0.00     0.167 HD
ATOM     52  C   UNL     1       2.291   0.574  12.967  1.00  0.00     0.034 A 
ATOM     53  C   UNL     1       1.824   7.184  10.649  1.00  0.00     0.034 A 
ATOM     54  C   UNL     1       2.891   1.579  13.821  1.00  0.00     0.049 A 
ATOM     55  C   UNL     1       2.449   6.857  11.980  1.00  0.00     0.074 A 
ATOM     56  C   UNL     1       3.562   1.403  15.021  1.00  0.00     0.029 A 
ATOM     57  N   UNL     1       2.880   2.950  13.581  1.00  0.00    -0.354 N 
ATOM     58  N   UNL     1       2.624   5.684  12.543  1.00  0.00    -0.248 NA
ATOM     59  C   UNL     1       2.946   7.988  12.771  1.00  0.00     0.031 C 
ATOM     60  C   UNL     1       3.873   2.663  15.546  1.00  0.00     0.029 A 
ATOM     61  C   UNL     1       3.491   3.628  14.629  1.00  0.00     0.049 A 
ATOM     62  H   UNL     1       2.494   3.378  12.783  1.00  0.00     0.167 HD
ATOM     63  C   UNL     1       3.283   5.937  13.743  1.00  0.00     0.074 A 
ATOM     64  C   UNL     1       3.491   7.369  13.808  1.00  0.00     0.031 C 
ATOM     65  C   UNL     1       3.682   5.060  14.700  1.00  0.00     0.034 A 
BRANCH  52  66
ATOM     66  C   UNL     1       2.298  -0.867  13.434  1.00  0.00     0.023 A 
ATOM     67  C   UNL     1       2.922  -1.888  12.696  1.00  0.00     0.031 A 
ATOM     68  C   UNL     1       1.639  -1.230  14.624  1.00  0.00     0.131 A 
ATOM     69  C   UNL     1       2.797  -3.226  13.105  1.00  0.00     0.055 A 
ATOM     70  C   UNL     1       1.599  -2.552  15.074  1.00  0.00     0.041 A 
ATOM     71  F   UNL     1       1.007  -0.307  15.365  1.00  0.00    -0.206 F 
ATOM     72  C   UNL     1       2.164  -3.562  14.303  1.00  0.00     0.022 A 
BRANCH  69  73
ATOM     73  S   UNL     1       3.318  -4.532  11.958  1.00  0.00     0.124 S 
ATOM     74  O   UNL     1       2.524  -4.218  10.772  1.00  0.00    -0.237 OA
ATOM     75  O   UNL     1       4.753  -4.301  11.845  1.00  0.00    -0.237 OA
ATOM     76  O   UNL     1       2.935  -5.764  12.644  1.00  0.00    -0.744 OA
ENDBRANCH  69  73
ENDBRANCH  52  66
BRANCH  53  77
ATOM     77  C   UNL     1       1.740   8.599  10.173  1.00  0.00     0.023 A 
ATOM     78  C   UNL     1       2.896   9.367   9.955  1.00  0.00     0.031 A 
ATOM     79  C   UNL     1       0.493   9.223   9.980  1.00  0.00     0.131 A 
ATOM     80  C   UNL     1       2.781  10.722   9.605  1.00  0.00     0.055 A 
ATOM     81  C   UNL     1       0.386  10.552   9.566  1.00  0.00     0.041 A 
ATOM     82  F   UNL     1      -0.647   8.543  10.182  1.00  0.00    -0.206 F 
ATOM     83  C   UNL     1       1.535  11.314   9.390  1.00  0.00     0.022 A 
BRANCH  80  84
ATOM     84  S   UNL     1       4.286  11.734   9.534  1.00  0.00     0.124 S 
ATOM     85  O   UNL     1       4.817  11.570  10.882  1.00  0.00    -0.237 OA
ATOM     86  O   UNL     1       5.038  11.086   8.465  1.00  0.00    -0.237 OA
ATOM     87  O   UNL     1       3.784  13.070   9.219  1.00  0.00    -0.744 OA
ENDBRANCH  80  84
ENDBRANCH  53  77
BRANCH  65  88
ATOM     88  C   UNL     1       4.437   5.636  15.879  1.00  0.00     0.023 A 
ATOM     89  C   UNL     1       3.846   6.549  16.771  1.00  0.00     0.031 A 
ATOM     90  C   UNL     1       5.788   5.298  16.084  1.00  0.00     0.131 A 
ATOM     91  C   UNL     1       4.621   7.149  17.775  1.00  0.00     0.055 A 
ATOM     92  C   UNL     1       6.532   5.840  17.133  1.00  0.00     0.041 A 
ATOM     93  F   UNL     1       6.411   4.439  15.261  1.00  0.00    -0.206 F 
ATOM     94  C   UNL     1       5.955   6.786  17.975  1.00  0.00     0.022 A 
BRANCH  91  95
ATOM     95  S   UNL     1       3.901   8.512  18.734  1.00  0.00     0.124 S 
ATOM     96  O   UNL     1       3.522   9.453  17.684  1.00  0.00    -0.237 OA
ATOM     97  O   UNL     1       2.798   7.855  19.429  1.00  0.00    -0.237 OA
ATOM     98  O   UNL     1       5.002   8.948  19.591  1.00  0.00    -0.744 OA
ENDBRANCH  91  95
ENDBRANCH  65  88
ENDBRANCH  39  40
ENDBRANCH  32  34
ENDBRANCH  31  32
ENDBRANCH  30  31
ENDBRANCH   1  30
TORSDOF 17
