REMARK SMILES Cc1cc(C)cc(Oc2nc3ccccn3c(=O)c2/C=C2\SC(=S)N(CCC(=O)OCCOC(=O)c3ccc(-c4c5nc(c(-c6cc(S(=O)(=O)[O-])ccc6F)c6ccc([nH]6)c(-c6cc(S(=O)(=O)[O-])ccc6F)c6nc(c(-c7cc(S(=O)(=O)[O-])ccc7F)c7ccc4[nH]7)C=C6)C=C5)cc3)C2=O)c1
REMARK SMILES IDX 31 1 30 2 28 3 29 4 27 5 26 6 25 7 20 8 21 9 22 10 99 11
REMARK SMILES IDX 23 12 100 13 24 14 19 15 9 16 10 17 11 18 17 19 12 20 16 21
REMARK SMILES IDX 18 22 13 23 15 24 14 25 8 26 7 27 1 28 2 29 3 30 101 31 4 32
REMARK SMILES IDX 5 33 6 34 32 35 33 36 34 37 35 38 36 39 37 40 98 41 38 42
REMARK SMILES IDX 97 43 39 44 40 45 41 46 91 47 42 48 96 49 90 50 92 51 43 52
REMARK SMILES IDX 95 53 89 54 88 55 44 57 76 58 56 59 75 60 57 61 60 62 74 63
REMARK SMILES IDX 93 64 58 65 59 66 73 68 94 69 61 70 45 71 46 72 54 73 47 74
REMARK SMILES IDX 53 75 55 76 52 77 48 78 49 79 50 80 51 81 77 82 78 83 86 84
REMARK SMILES IDX 79 85 85 86 87 87 84 88 80 89 81 90 82 91 83 92 62 93 63 94
REMARK SMILES IDX 71 95 64 96 70 97 72 98 69 99 65 100 66 101 67 102 68 103
REMARK H PARENT 92 56 60 67
REMARK Flexibility Score: inf
ROOT
ATOM      1  C   UNL     1      -0.637  -0.135   4.077  1.00  0.00     0.274 C 
ENDROOT
BRANCH   1   2
ATOM      2  O   UNL     1       0.641   0.403   3.684  1.00  0.00    -0.462 OA
BRANCH   2   3
ATOM      3  C   UNL     1       0.875   1.705   3.974  1.00  0.00     0.307 C 
ATOM      4  O   UNL     1       0.035   2.497   4.378  1.00  0.00    -0.252 OA
BRANCH   3   5
ATOM      5  C   UNL     1       2.300   2.105   3.672  1.00  0.00     0.144 C 
BRANCH   5   6
ATOM      6  C   UNL     1       3.363   1.183   4.279  1.00  0.00     0.139 C 
BRANCH   6   7
ATOM      7  N   UNL     1       3.674   0.052   3.401  1.00  0.00    -0.292 N 
ATOM      8  C   UNL     1       2.299  -2.985   2.165  1.00  0.00     0.041 C 
ATOM      9  C   UNL     1       3.180  -2.008   2.422  1.00  0.00     0.081 C 
ATOM     10  S   UNL     1       4.484  -1.440   1.461  1.00  0.00    -0.054 SA
ATOM     11  C   UNL     1       3.025  -1.149   3.607  1.00  0.00     0.266 C 
ATOM     12  C   UNL     1       4.558   0.086   2.342  1.00  0.00     0.148 C 
ATOM     13  O   UNL     1       2.391  -1.496   4.588  1.00  0.00    -0.268 OA
ATOM     14  S   UNL     1       5.548   1.337   1.855  1.00  0.00    -0.052 S 
BRANCH   8  15
ATOM     15  C   UNL     1       2.367  -3.853   1.010  1.00  0.00     0.104 A 
ATOM     16  C   UNL     1       1.488  -3.862  -0.013  1.00  0.00     0.234 A 
ATOM     17  N   UNL     1       1.616  -4.681  -1.108  1.00  0.00    -0.194 NA
ATOM     18  C   UNL     1       2.658  -5.447  -1.185  1.00  0.00     0.143 A 
ATOM     19  C   UNL     1       3.509  -4.809   0.952  1.00  0.00     0.269 A 
ATOM     20  C   UNL     1       2.835  -6.308  -2.391  1.00  0.00     0.048 A 
ATOM     21  N   UNL     1       3.639  -5.535  -0.214  1.00  0.00    -0.267 N 
ATOM     22  O   UNL     1       4.258  -4.935   1.924  1.00  0.00    -0.268 OA
ATOM     23  C   UNL     1       3.914  -7.093  -2.499  1.00  0.00     0.005 A 
ATOM     24  C   UNL     1       4.738  -6.372  -0.364  1.00  0.00     0.096 A 
ATOM     25  C   UNL     1       4.903  -7.126  -1.456  1.00  0.00     0.019 A 
BRANCH  16  26
ATOM     26  O   UNL     1       0.296  -3.137   0.035  1.00  0.00    -0.438 OA
BRANCH  26  27
ATOM     27  C   UNL     1       0.264  -1.767  -0.106  1.00  0.00     0.130 A 
ATOM     28  C   UNL     1       2.390   1.334  -0.706  1.00  0.00     0.044 C 
ATOM     29  C   UNL     1       1.211   0.441  -0.456  1.00  0.00    -0.047 A 
ATOM     30  C   UNL     1      -0.045   1.012  -0.215  1.00  0.00     0.007 A 
ATOM     31  C   UNL     1       1.349  -0.956  -0.434  1.00  0.00     0.050 A 
ATOM     32  C   UNL     1      -1.162   0.208   0.032  1.00  0.00    -0.047 A 
ATOM     33  C   UNL     1      -2.507   0.843   0.230  1.00  0.00     0.044 C 
ATOM     34  C   UNL     1      -0.992  -1.181   0.103  1.00  0.00     0.050 A 
ENDBRANCH  26  27
ENDBRANCH  16  26
ENDBRANCH   8  15
ENDBRANCH   6   7
ENDBRANCH   5   6
ENDBRANCH   3   5
ENDBRANCH   2   3
ENDBRANCH   1   2
BRANCH   1  35
ATOM     35  C   UNL     1      -0.594  -0.713   5.493  1.00  0.00     0.275 C 
BRANCH  35  36
ATOM     36  O   UNL     1      -0.406   0.344   6.448  1.00  0.00    -0.458 OA
BRANCH  36  37
ATOM     37  C   UNL     1       0.707   0.274   7.211  1.00  0.00     0.338 C 
ATOM     38  O   UNL     1       1.555  -0.596   7.246  1.00  0.00    -0.246 OA
BRANCH  37  39
ATOM     39  C   UNL     1       0.755   1.460   8.067  1.00  0.00     0.060 A 
ATOM     40  C   UNL     1       1.311   2.647   7.585  1.00  0.00     0.016 A 
ATOM     41  C   UNL     1       0.312   1.350   9.385  1.00  0.00     0.016 A 
ATOM     42  C   UNL     1       1.432   3.742   8.436  1.00  0.00     0.010 A 
ATOM     43  C   UNL     1       0.410   2.455  10.226  1.00  0.00     0.010 A 
ATOM     44  C   UNL     1       0.979   3.652   9.760  1.00  0.00    -0.014 A 
BRANCH  44  45
ATOM     45  C   UNL     1       1.122   4.797  10.686  1.00  0.00     0.031 A 
ATOM     46  C   UNL     1       2.141   4.734  11.785  1.00  0.00     0.074 A 
ATOM     47  C   UNL     1       0.313   5.863  10.550  1.00  0.00     0.049 A 
ATOM     48  N   UNL     1       2.322   5.545  12.794  1.00  0.00    -0.248 NA
ATOM     49  C   UNL     1       3.075   3.599  11.745  1.00  0.00     0.031 C 
ATOM     50  C   UNL     1      -0.678   6.039   9.487  1.00  0.00     0.029 A 
ATOM     51  N   UNL     1       0.184   6.990  11.318  1.00  0.00    -0.354 N 
ATOM     52  C   UNL     1       3.386   5.017  13.516  1.00  0.00     0.074 A 
ATOM     53  C   UNL     1       3.788   3.799  12.844  1.00  0.00     0.031 C 
ATOM     54  C   UNL     1      -1.317   7.205   9.674  1.00  0.00     0.029 A 
ATOM     55  C   UNL     1      -0.825   7.826  10.900  1.00  0.00     0.049 A 
ATOM     56  H   UNL     1       0.758   7.184  12.094  1.00  0.00     0.167 HD
ATOM     57  C   UNL     1       3.973   5.511  14.634  1.00  0.00     0.034 A 
ATOM     58  C   UNL     1      -1.319   8.943  11.467  1.00  0.00     0.034 A 
ATOM     59  C   UNL     1       3.537   6.718  15.295  1.00  0.00     0.049 A 
ATOM     60  C   UNL     1      -0.713   9.421  12.762  1.00  0.00     0.074 A 
ATOM     61  C   UNL     1       4.032   7.303  16.448  1.00  0.00     0.029 A 
ATOM     62  N   UNL     1       2.494   7.527  14.859  1.00  0.00    -0.354 N 
ATOM     63  N   UNL     1       0.271   8.896  13.457  1.00  0.00    -0.248 NA
ATOM     64  C   UNL     1      -1.283  10.640  13.348  1.00  0.00     0.031 C 
ATOM     65  C   UNL     1       3.257   8.433  16.736  1.00  0.00     0.029 A 
ATOM     66  C   UNL     1       2.320   8.593  15.728  1.00  0.00     0.049 A 
ATOM     67  H   UNL     1       1.957   7.367  14.049  1.00  0.00     0.167 HD
ATOM     68  C   UNL     1       0.456   9.741  14.547  1.00  0.00     0.074 A 
ATOM     69  C   UNL     1      -0.509  10.813  14.410  1.00  0.00     0.031 C 
ATOM     70  C   UNL     1       1.345   9.646  15.569  1.00  0.00     0.034 A 
BRANCH  57  71
ATOM     71  C   UNL     1       5.106   4.714  15.229  1.00  0.00     0.023 A 
ATOM     72  C   UNL     1       6.323   4.540  14.545  1.00  0.00     0.031 A 
ATOM     73  C   UNL     1       4.959   4.089  16.480  1.00  0.00     0.131 A 
ATOM     74  C   UNL     1       7.318   3.710  15.085  1.00  0.00     0.055 A 
ATOM     75  C   UNL     1       5.980   3.322  17.045  1.00  0.00     0.041 A 
ATOM     76  F   UNL     1       3.812   4.200  17.168  1.00  0.00    -0.206 F 
ATOM     77  C   UNL     1       7.163   3.118  16.341  1.00  0.00     0.022 A 
BRANCH  74  78
ATOM     78  S   UNL     1       8.765   3.313  14.067  1.00  0.00     0.124 S 
ATOM     79  O   UNL     1       8.147   2.656  12.918  1.00  0.00    -0.237 OA
ATOM     80  O   UNL     1       9.345   4.627  13.816  1.00  0.00    -0.237 OA
ATOM     81  O   UNL     1       9.558   2.435  14.925  1.00  0.00    -0.744 OA
ENDBRANCH  74  78
ENDBRANCH  57  71
BRANCH  58  82
ATOM     82  C   UNL     1      -2.470   9.662  10.851  1.00  0.00     0.023 A 
ATOM     83  C   UNL     1      -2.330  10.976  10.380  1.00  0.00     0.031 A 
ATOM     84  C   UNL     1      -3.740   9.063  10.770  1.00  0.00     0.131 A 
ATOM     85  C   UNL     1      -3.451  11.666   9.891  1.00  0.00     0.055 A 
ATOM     86  C   UNL     1      -4.840   9.735  10.233  1.00  0.00     0.041 A 
ATOM     87  F   UNL     1      -3.929   7.807  11.206  1.00  0.00    -0.206 F 
ATOM     88  C   UNL     1      -4.701  11.050   9.804  1.00  0.00     0.022 A 
BRANCH  85  89
ATOM     89  S   UNL     1      -3.269  13.418   9.460  1.00  0.00     0.124 S 
ATOM     90  O   UNL     1      -2.747  13.979  10.702  1.00  0.00    -0.237 OA
ATOM     91  O   UNL     1      -2.335  13.358   8.341  1.00  0.00    -0.237 OA
ATOM     92  O   UNL     1      -4.628  13.826   9.114  1.00  0.00    -0.744 OA
ENDBRANCH  85  89
ENDBRANCH  58  82
BRANCH  70  93
ATOM     93  C   UNL     1       1.339  10.766  16.576  1.00  0.00     0.023 A 
ATOM     94  C   UNL     1       0.272  10.948  17.473  1.00  0.00     0.031 A 
ATOM     95  C   UNL     1       2.409  11.677  16.620  1.00  0.00     0.131 A 
ATOM     96  C   UNL     1       0.273  12.049  18.341  1.00  0.00     0.055 A 
ATOM     97  C   UNL     1       2.429  12.740  17.523  1.00  0.00     0.041 A 
ATOM     98  F   UNL     1       3.451  11.547  15.784  1.00  0.00    -0.206 F 
ATOM     99  C   UNL     1       1.351  12.938  18.381  1.00  0.00     0.022 A 
BRANCH  96 100
ATOM    100  S   UNL     1      -1.192  12.352  19.365  1.00  0.00     0.124 S 
ATOM    101  O   UNL     1      -2.236  12.525  18.360  1.00  0.00    -0.237 OA
ATOM    102  O   UNL     1      -1.273  11.134  20.165  1.00  0.00    -0.237 OA
ATOM    103  O   UNL     1      -0.845  13.560  20.113  1.00  0.00    -0.744 OA
ENDBRANCH  96 100
ENDBRANCH  70  93
ENDBRANCH  44  45
ENDBRANCH  37  39
ENDBRANCH  36  37
ENDBRANCH  35  36
ENDBRANCH   1  35
TORSDOF 19
