REMARK SMILES Cn1c(C(=O)OCCOC(=O)c2ccc(-c3c4nc(c(-c5cc(S(=O)(=O)[O-])ccc5F)c5ccc([nH]5)c(-c5cc(S(=O)(=O)[O-])ccc5F)c5nc(c(-c6cc(S(=O)(=O)[O-])ccc6F)c6ccc3[nH]6)C=C5)C=C4)cc2)cc2cc(OCc3ccccc3)ccc21
REMARK SMILES IDX 7 1 6 2 4 3 5 4 3 5 1 6 2 7 89 8 75 9 76 10 88 11 77 12
REMARK SMILES IDX 87 13 78 14 79 15 80 16 81 17 82 18 86 19 83 20 85 21 84 22
REMARK SMILES IDX 8 23 9 24 10 25 11 26 12 27 13 28 74 29 14 30 73 31 15 32
REMARK SMILES IDX 16 33 17 34 67 35 18 36 72 37 66 38 68 39 19 40 71 41 65 42
REMARK SMILES IDX 64 43 20 45 52 46 32 47 51 48 33 49 36 50 50 51 69 52 34 53
REMARK SMILES IDX 35 54 49 56 70 57 37 58 21 59 22 60 30 61 23 62 29 63 31 64
REMARK SMILES IDX 28 65 24 66 25 67 26 68 27 69 53 70 54 71 62 72 55 73 61 74
REMARK SMILES IDX 63 75 60 76 56 77 57 78 58 79 59 80 38 81 39 82 47 83 40 84
REMARK SMILES IDX 46 85 48 86 45 87 41 88 42 89 43 90 44 91
REMARK H PARENT 68 44 36 55
REMARK Flexibility Score: inf
ROOT
ATOM      1  C   UNL     1       5.612  -0.993  -0.064  1.00  0.00     0.275 C 
ENDROOT
BRANCH   1   2
ATOM      2  O   UNL     1       4.266  -0.480  -0.003  1.00  0.00    -0.457 OA
BRANCH   2   3
ATOM      3  C   UNL     1       3.361  -1.079  -0.827  1.00  0.00     0.355 C 
ATOM      4  O   UNL     1       3.630  -1.993  -1.594  1.00  0.00    -0.244 OA
BRANCH   3   5
ATOM      5  C   UNL     1       2.022  -0.566  -0.612  1.00  0.00     0.128 A 
ATOM      6  C   UNL     1       2.429   1.893  -0.130  1.00  0.00     0.150 C 
ATOM      7  N   UNL     1       1.608   0.715  -0.301  1.00  0.00    -0.338 N 
ATOM      8  C   UNL     1       0.222   0.777  -0.263  1.00  0.00     0.049 A 
ATOM      9  C   UNL     1       0.858  -1.319  -0.731  1.00  0.00     0.044 A 
ATOM     10  C   UNL     1      -0.259  -0.517  -0.421  1.00  0.00     0.004 A 
ATOM     11  C   UNL     1      -0.651   1.859  -0.107  1.00  0.00     0.031 A 
ATOM     12  C   UNL     1      -1.639  -0.770  -0.305  1.00  0.00     0.056 A 
ATOM     13  C   UNL     1      -2.026   1.593  -0.074  1.00  0.00     0.048 A 
ATOM     14  C   UNL     1      -2.526   0.294  -0.125  1.00  0.00     0.120 A 
BRANCH  14  15
ATOM     15  O   UNL     1      -3.837  -0.078   0.004  1.00  0.00    -0.489 OA
BRANCH  15  16
ATOM     16  C   UNL     1      -4.857   0.924  -0.029  1.00  0.00     0.265 C 
BRANCH  16  17
ATOM     17  C   UNL     1      -4.951   1.735   1.246  1.00  0.00    -0.011 A 
ATOM     18  C   UNL     1      -5.059   1.101   2.490  1.00  0.00     0.007 A 
ATOM     19  C   UNL     1      -4.885   3.136   1.200  1.00  0.00     0.007 A 
ATOM     20  C   UNL     1      -5.050   1.853   3.666  1.00  0.00     0.000 A 
ATOM     21  C   UNL     1      -4.850   3.884   2.376  1.00  0.00     0.000 A 
ATOM     22  C   UNL     1      -4.929   3.240   3.609  1.00  0.00     0.000 A 
ENDBRANCH  16  17
ENDBRANCH  15  16
ENDBRANCH  14  15
ENDBRANCH   3   5
ENDBRANCH   2   3
ENDBRANCH   1   2
BRANCH   1  23
ATOM     23  C   UNL     1       5.936  -1.860   1.153  1.00  0.00     0.275 C 
BRANCH  23  24
ATOM     24  O   UNL     1       5.153  -3.067   1.142  1.00  0.00    -0.458 OA
BRANCH  24  25
ATOM     25  C   UNL     1       4.119  -3.086   2.016  1.00  0.00     0.338 C 
ATOM     26  O   UNL     1       3.824  -2.224   2.826  1.00  0.00    -0.246 OA
BRANCH  25  27
ATOM     27  C   UNL     1       3.299  -4.283   1.783  1.00  0.00     0.060 A 
ATOM     28  C   UNL     1       2.288  -4.193   0.834  1.00  0.00     0.016 A 
ATOM     29  C   UNL     1       3.414  -5.422   2.572  1.00  0.00     0.016 A 
ATOM     30  C   UNL     1       1.331  -5.194   0.715  1.00  0.00     0.010 A 
ATOM     31  C   UNL     1       2.502  -6.473   2.392  1.00  0.00     0.010 A 
ATOM     32  C   UNL     1       1.430  -6.358   1.484  1.00  0.00    -0.014 A 
BRANCH  32  33
ATOM     33  C   UNL     1       0.386  -7.420   1.369  1.00  0.00     0.031 A 
ATOM     34  C   UNL     1      -0.419  -7.817   2.580  1.00  0.00     0.074 A 
ATOM     35  C   UNL     1       0.136  -8.009   0.182  1.00  0.00     0.049 A 
ATOM     36  N   UNL     1      -1.243  -8.822   2.738  1.00  0.00    -0.248 NA
ATOM     37  C   UNL     1      -0.260  -6.979   3.777  1.00  0.00     0.031 C 
ATOM     38  C   UNL     1       0.788  -7.673  -1.085  1.00  0.00     0.029 A 
ATOM     39  N   UNL     1      -0.740  -9.013  -0.158  1.00  0.00    -0.354 N 
ATOM     40  C   UNL     1      -1.663  -8.767   4.064  1.00  0.00     0.074 A 
ATOM     41  C   UNL     1      -0.980  -7.642   4.669  1.00  0.00     0.031 C 
ATOM     42  C   UNL     1       0.270  -8.430  -2.064  1.00  0.00     0.029 A 
ATOM     43  C   UNL     1      -0.675  -9.376  -1.484  1.00  0.00     0.049 A 
ATOM     44  H   UNL     1      -1.355  -9.432   0.486  1.00  0.00     0.167 HD
ATOM     45  C   UNL     1      -2.537  -9.579   4.712  1.00  0.00     0.034 A 
ATOM     46  C   UNL     1      -1.265 -10.388  -2.153  1.00  0.00     0.034 A 
ATOM     47  C   UNL     1      -3.232 -10.676   4.078  1.00  0.00     0.049 A 
ATOM     48  C   UNL     1      -2.168 -11.327  -1.396  1.00  0.00     0.074 A 
ATOM     49  C   UNL     1      -4.147 -11.554   4.635  1.00  0.00     0.029 A 
ATOM     50  N   UNL     1      -3.093 -11.047   2.745  1.00  0.00    -0.354 N 
ATOM     51  N   UNL     1      -2.511 -11.302  -0.129  1.00  0.00    -0.248 NA
ATOM     52  C   UNL     1      -2.755 -12.437  -2.157  1.00  0.00     0.031 C 
ATOM     53  C   UNL     1      -4.501 -12.497   3.663  1.00  0.00     0.029 A 
ATOM     54  C   UNL     1      -3.877 -12.159   2.473  1.00  0.00     0.049 A 
ATOM     55  H   UNL     1      -2.521 -10.587   2.090  1.00  0.00     0.167 HD
ATOM     56  C   UNL     1      -3.374 -12.379   0.052  1.00  0.00     0.074 A 
ATOM     57  C   UNL     1      -3.512 -13.020  -1.240  1.00  0.00     0.031 C 
ATOM     58  C   UNL     1      -3.996 -12.800   1.183  1.00  0.00     0.034 A 
BRANCH  45  59
ATOM     59  C   UNL     1      -2.733  -9.352   6.195  1.00  0.00     0.023 A 
ATOM     60  C   UNL     1      -3.269  -8.158   6.708  1.00  0.00     0.031 A 
ATOM     61  C   UNL     1      -2.338 -10.341   7.115  1.00  0.00     0.131 A 
ATOM     62  C   UNL     1      -3.320  -7.953   8.097  1.00  0.00     0.055 A 
ATOM     63  C   UNL     1      -2.474 -10.165   8.494  1.00  0.00     0.041 A 
ATOM     64  F   UNL     1      -1.798 -11.495   6.690  1.00  0.00    -0.206 F 
ATOM     65  C   UNL     1      -2.951  -8.958   8.993  1.00  0.00     0.022 A 
BRANCH  62  66
ATOM     66  S   UNL     1      -3.724  -6.295   8.716  1.00  0.00     0.124 S 
ATOM     67  O   UNL     1      -2.690  -5.483   8.080  1.00  0.00    -0.237 OA
ATOM     68  O   UNL     1      -5.084  -6.099   8.227  1.00  0.00    -0.237 OA
ATOM     69  O   UNL     1      -3.596  -6.429  10.165  1.00  0.00    -0.744 OA
ENDBRANCH  62  66
ENDBRANCH  45  59
BRANCH  46  70
ATOM     70  C   UNL     1      -0.966 -10.614  -3.598  1.00  0.00     0.023 A 
ATOM     71  C   UNL     1      -1.976 -10.542  -4.571  1.00  0.00     0.031 A 
ATOM     72  C   UNL     1       0.334 -10.946  -4.024  1.00  0.00     0.131 A 
ATOM     73  C   UNL     1      -1.678 -10.834  -5.912  1.00  0.00     0.055 A 
ATOM     74  C   UNL     1       0.638 -11.173  -5.367  1.00  0.00     0.041 A 
ATOM     75  F   UNL     1       1.337 -11.038  -3.137  1.00  0.00    -0.206 F 
ATOM     76  C   UNL     1      -0.375 -11.130  -6.319  1.00  0.00     0.022 A 
BRANCH  73  77
ATOM     77  S   UNL     1      -3.038 -10.910  -7.109  1.00  0.00     0.124 S 
ATOM     78  O   UNL     1      -3.889 -11.941  -6.527  1.00  0.00    -0.237 OA
ATOM     79  O   UNL     1      -3.558  -9.547  -7.065  1.00  0.00    -0.237 OA
ATOM     80  O   UNL     1      -2.373 -11.281  -8.357  1.00  0.00    -0.744 OA
ENDBRANCH  73  77
ENDBRANCH  46  70
BRANCH  58  81
ATOM     81  C   UNL     1      -4.923 -13.985   1.053  1.00  0.00     0.023 A 
ATOM     82  C   UNL     1      -4.446 -15.268   0.733  1.00  0.00     0.031 A 
ATOM     83  C   UNL     1      -6.308 -13.821   1.234  1.00  0.00     0.131 A 
ATOM     84  C   UNL     1      -5.352 -16.323   0.544  1.00  0.00     0.055 A 
ATOM     85  C   UNL     1      -7.198 -14.888   1.109  1.00  0.00     0.041 A 
ATOM     86  F   UNL     1      -6.820 -12.617   1.535  1.00  0.00    -0.206 F 
ATOM     87  C   UNL     1      -6.723 -16.146   0.749  1.00  0.00     0.022 A 
BRANCH  84  88
ATOM     88  S   UNL     1      -4.726 -17.910  -0.074  1.00  0.00     0.124 S 
ATOM     89  O   UNL     1      -4.109 -17.521  -1.338  1.00  0.00    -0.237 OA
ATOM     90  O   UNL     1      -3.810 -18.319   0.985  1.00  0.00    -0.237 OA
ATOM     91  O   UNL     1      -5.931 -18.729  -0.200  1.00  0.00    -0.744 OA
ENDBRANCH  84  88
ENDBRANCH  58  81
ENDBRANCH  32  33
ENDBRANCH  25  27
ENDBRANCH  24  25
ENDBRANCH  23  24
ENDBRANCH   1  23
TORSDOF 17
