REMARK SMILES O=C(OCCOC(=O)[C@@H]1C=C[C@@H]([NH+]2CC3(CCOCC3)C2)C1)c1ccc(-c2c3nc(c(-c4cc(S(=O)(=O)[O-])ccc4F)c4ccc([nH]4)c(-c4cc(S(=O)(=O)[O-])ccc4F)c4nc(c(-c5cc(S(=O)(=O)[O-])ccc5F)c5ccc2[nH]5)C=C4)C=C3)cc1
REMARK SMILES IDX 4 1 3 2 2 3 1 4 23 5 24 6 85 7 25 8 84 9 26 10 27 11 28 12
REMARK SMILES IDX 78 13 29 14 83 15 77 16 79 17 30 18 82 19 76 20 75 21 31 23
REMARK SMILES IDX 63 24 43 25 62 26 44 27 47 28 61 29 80 30 45 31 46 32 60 34
REMARK SMILES IDX 81 35 48 36 32 37 33 38 41 39 34 40 40 41 42 42 39 43 35 44
REMARK SMILES IDX 36 45 37 46 38 47 64 48 65 49 73 50 66 51 72 52 74 53 71 54
REMARK SMILES IDX 67 55 68 56 69 57 70 58 49 59 50 60 58 61 51 62 57 63 59 64
REMARK SMILES IDX 56 65 52 66 53 67 54 68 55 69 5 70 6 71 7 72 8 73 9 74 10 75
REMARK SMILES IDX 22 76 11 77 12 78 13 79 14 80 21 81 15 83 16 84 20 85 17 86
REMARK SMILES IDX 19 87 18 88
REMARK H PARENT 79 22 47 33 13 82
REMARK Flexibility Score: inf
ROOT
ATOM      1  C   UNL     1       5.978  -0.510  -4.830  1.00  0.00     0.275 C 
ENDROOT
BRANCH   1   2
ATOM      2  O   UNL     1       5.766   0.389  -3.742  1.00  0.00    -0.458 OA
BRANCH   2   3
ATOM      3  C   UNL     1       4.659   1.094  -3.427  1.00  0.00     0.338 C 
ATOM      4  O   UNL     1       4.718   1.821  -2.434  1.00  0.00    -0.246 OA
BRANCH   3   5
ATOM      5  C   UNL     1       3.337   0.986  -4.138  1.00  0.00     0.060 A 
ATOM      6  C   UNL     1       3.046   0.409  -5.383  1.00  0.00     0.016 A 
ATOM      7  C   UNL     1       2.257   1.514  -3.425  1.00  0.00     0.016 A 
ATOM      8  C   UNL     1       1.722   0.270  -5.853  1.00  0.00     0.010 A 
ATOM      9  C   UNL     1       0.953   1.351  -3.879  1.00  0.00     0.010 A 
ATOM     10  C   UNL     1       0.647   0.690  -5.077  1.00  0.00    -0.014 A 
BRANCH  10  11
ATOM     11  C   UNL     1      -0.796   0.449  -5.411  1.00  0.00     0.031 A 
ATOM     12  C   UNL     1      -1.770   1.595  -5.270  1.00  0.00     0.074 A 
ATOM     13  C   UNL     1      -1.282  -0.804  -5.556  1.00  0.00     0.049 A 
ATOM     14  N   UNL     1      -3.063   1.578  -5.069  1.00  0.00    -0.248 NA
ATOM     15  C   UNL     1      -1.171   2.936  -5.231  1.00  0.00     0.031 C 
ATOM     16  C   UNL     1      -0.494  -2.038  -5.596  1.00  0.00     0.029 A 
ATOM     17  N   UNL     1      -2.584  -1.253  -5.595  1.00  0.00    -0.354 N 
ATOM     18  C   UNL     1      -3.415   2.900  -4.814  1.00  0.00     0.074 A 
ATOM     19  C   UNL     1      -2.176   3.647  -4.749  1.00  0.00     0.031 C 
ATOM     20  C   UNL     1      -1.320  -3.097  -5.582  1.00  0.00     0.029 A 
ATOM     21  C   UNL     1      -2.697  -2.626  -5.524  1.00  0.00     0.049 A 
ATOM     22  H   UNL     1      -3.361  -0.652  -5.666  1.00  0.00     0.167 HD
ATOM     23  C   UNL     1      -4.650   3.458  -4.712  1.00  0.00     0.034 A 
ATOM     24  C   UNL     1      -3.780  -3.419  -5.402  1.00  0.00     0.034 A 
ATOM     25  C   UNL     1      -5.872   2.716  -4.893  1.00  0.00     0.049 A 
ATOM     26  C   UNL     1      -5.149  -2.797  -5.395  1.00  0.00     0.074 A 
ATOM     27  C   UNL     1      -7.170   3.189  -4.992  1.00  0.00     0.029 A 
ATOM     28  N   UNL     1      -5.943   1.336  -5.027  1.00  0.00    -0.354 N 
ATOM     29  N   UNL     1      -5.481  -1.534  -5.274  1.00  0.00    -0.248 NA
ATOM     30  C   UNL     1      -6.289  -3.708  -5.569  1.00  0.00     0.031 C 
ATOM     31  C   UNL     1      -8.025   2.095  -5.172  1.00  0.00     0.029 A 
ATOM     32  C   UNL     1      -7.256   0.944  -5.228  1.00  0.00     0.049 A 
ATOM     33  H   UNL     1      -5.172   0.725  -4.986  1.00  0.00     0.167 HD
ATOM     34  C   UNL     1      -6.862  -1.492  -5.439  1.00  0.00     0.074 A 
ATOM     35  C   UNL     1      -7.303  -2.857  -5.631  1.00  0.00     0.031 C 
ATOM     36  C   UNL     1      -7.683  -0.413  -5.461  1.00  0.00     0.034 A 
BRANCH  23  37
ATOM     37  C   UNL     1      -4.716   4.947  -4.450  1.00  0.00     0.023 A 
ATOM     38  C   UNL     1      -4.067   5.861  -5.299  1.00  0.00     0.031 A 
ATOM     39  C   UNL     1      -5.354   5.461  -3.308  1.00  0.00     0.131 A 
ATOM     40  C   UNL     1      -3.919   7.198  -4.910  1.00  0.00     0.055 A 
ATOM     41  C   UNL     1      -5.316   6.824  -2.995  1.00  0.00     0.041 A 
ATOM     42  F   UNL     1      -5.999   4.646  -2.458  1.00  0.00    -0.206 F 
ATOM     43  C   UNL     1      -4.566   7.696  -3.780  1.00  0.00     0.022 A 
BRANCH  40  44
ATOM     44  S   UNL     1      -2.686   8.202  -5.784  1.00  0.00     0.124 S 
ATOM     45  O   UNL     1      -1.451   7.494  -5.453  1.00  0.00    -0.237 OA
ATOM     46  O   UNL     1      -3.120   8.101  -7.174  1.00  0.00    -0.237 OA
ATOM     47  O   UNL     1      -2.826   9.522  -5.178  1.00  0.00    -0.744 OA
ENDBRANCH  40  44
ENDBRANCH  23  37
BRANCH  24  48
ATOM     48  C   UNL     1      -3.636  -4.898  -5.326  1.00  0.00     0.023 A 
ATOM     49  C   UNL     1      -3.932  -5.700  -6.438  1.00  0.00     0.031 A 
ATOM     50  C   UNL     1      -3.264  -5.531  -4.129  1.00  0.00     0.131 A 
ATOM     51  C   UNL     1      -3.908  -7.097  -6.318  1.00  0.00     0.055 A 
ATOM     52  C   UNL     1      -3.208  -6.923  -4.024  1.00  0.00     0.041 A 
ATOM     53  F   UNL     1      -2.959  -4.803  -3.044  1.00  0.00    -0.206 F 
ATOM     54  C   UNL     1      -3.545  -7.715  -5.119  1.00  0.00     0.022 A 
BRANCH  51  55
ATOM     55  S   UNL     1      -4.428  -8.094  -7.741  1.00  0.00     0.124 S 
ATOM     56  O   UNL     1      -5.790  -7.619  -7.956  1.00  0.00    -0.237 OA
ATOM     57  O   UNL     1      -3.449  -7.708  -8.752  1.00  0.00    -0.237 OA
ATOM     58  O   UNL     1      -4.312  -9.467  -7.257  1.00  0.00    -0.744 OA
ENDBRANCH  51  55
ENDBRANCH  24  48
BRANCH  36  59
ATOM     59  C   UNL     1      -9.118  -0.651  -5.848  1.00  0.00     0.023 A 
ATOM     60  C   UNL     1     -10.027  -1.312  -5.006  1.00  0.00     0.031 A 
ATOM     61  C   UNL     1      -9.571  -0.213  -7.106  1.00  0.00     0.131 A 
ATOM     62  C   UNL     1     -11.334  -1.557  -5.454  1.00  0.00     0.055 A 
ATOM     63  C   UNL     1     -10.885  -0.416  -7.525  1.00  0.00     0.041 A 
ATOM     64  F   UNL     1      -8.738   0.419  -7.949  1.00  0.00    -0.206 F 
ATOM     65  C   UNL     1     -11.772  -1.101  -6.701  1.00  0.00     0.022 A 
BRANCH  62  66
ATOM     66  S   UNL     1     -12.443  -2.543  -4.411  1.00  0.00     0.124 S 
ATOM     67  O   UNL     1     -11.731  -3.814  -4.331  1.00  0.00    -0.237 OA
ATOM     68  O   UNL     1     -12.490  -1.761  -3.179  1.00  0.00    -0.237 OA
ATOM     69  O   UNL     1     -13.691  -2.575  -5.171  1.00  0.00    -0.744 OA
ENDBRANCH  62  66
ENDBRANCH  36  59
ENDBRANCH  10  11
ENDBRANCH   3   5
ENDBRANCH   2   3
ENDBRANCH   1   2
BRANCH   1  70
ATOM     70  C   UNL     1       5.455  -1.929  -4.593  1.00  0.00     0.274 C 
BRANCH  70  71
ATOM     71  O   UNL     1       4.240  -2.026  -3.821  1.00  0.00    -0.462 OA
BRANCH  71  72
ATOM     72  C   UNL     1       4.421  -2.348  -2.506  1.00  0.00     0.313 C 
ATOM     73  O   UNL     1       5.519  -2.362  -1.954  1.00  0.00    -0.252 OA
BRANCH  72  74
ATOM     74  C   UNL     1       3.146  -2.777  -1.776  1.00  0.00     0.128 C 
ATOM     75  C   UNL     1       2.333  -3.816  -2.476  1.00  0.00    -0.010 C 
ATOM     76  C   UNL     1       2.138  -1.661  -1.463  1.00  0.00     0.089 C 
ATOM     77  C   UNL     1       1.068  -3.422  -2.644  1.00  0.00     0.033 C 
ATOM     78  C   UNL     1       0.813  -2.012  -2.184  1.00  0.00     0.208 C 
BRANCH  78  79
ATOM     79  N   UNL     1      -0.509  -1.944  -1.555  1.00  0.00    -0.328 N 
ATOM     80  C   UNL     1      -1.253  -0.721  -1.902  1.00  0.00     0.275 C 
ATOM     81  C   UNL     1      -0.630  -1.642  -0.128  1.00  0.00     0.275 C 
ATOM     82  H   UNL     1      -0.804  -2.876  -1.846  1.00  0.00     0.348 HD
ATOM     83  C   UNL     1      -1.103  -0.196  -0.452  1.00  0.00     0.073 C 
ATOM     84  C   UNL     1      -2.440   0.217   0.184  1.00  0.00     0.047 C 
ATOM     85  C   UNL     1      -0.022   0.855  -0.154  1.00  0.00     0.047 C 
ATOM     86  C   UNL     1      -2.775   1.651  -0.216  1.00  0.00     0.161 C 
ATOM     87  C   UNL     1      -0.523   2.268  -0.435  1.00  0.00     0.161 C 
ATOM     88  O   UNL     1      -1.740   2.519   0.261  1.00  0.00    -0.381 OA
ENDBRANCH  78  79
ENDBRANCH  72  74
ENDBRANCH  71  72
ENDBRANCH  70  71
ENDBRANCH   1  70
TORSDOF 15
