REMARK SMILES O=C(OCCOC(=O)[C@@H]1CC2(CC[NH+](C(=O)C3(c4ccccc4F)CC3)CC2)C[NH2+]1)c1ccc(-c2c3nc(c(-c4cc(S(=O)(=O)[O-])ccc4F)c4ccc([nH]4)c(-c4cc(S(=O)(=O)[O-])ccc4F)c4nc(c(-c5cc(S(=O)(=O)[O-])ccc5F)c5ccc2[nH]5)C=C4)C=C3)cc1
REMARK SMILES IDX 4 1 3 2 2 3 1 4 31 5 32 6 93 7 33 8 92 9 34 10 35 11 36 12
REMARK SMILES IDX 86 13 37 14 91 15 85 16 87 17 38 18 90 19 84 20 83 21 39 23
REMARK SMILES IDX 71 24 51 25 70 26 52 27 55 28 69 29 88 30 53 31 54 32 68 34
REMARK SMILES IDX 89 35 56 36 40 37 41 38 49 39 42 40 48 41 50 42 47 43 43 44
REMARK SMILES IDX 44 45 45 46 46 47 72 48 73 49 81 50 74 51 80 52 82 53 79 54
REMARK SMILES IDX 75 55 76 56 77 57 78 58 57 59 58 60 66 61 59 62 65 63 67 64
REMARK SMILES IDX 64 65 60 66 61 67 62 68 63 69 5 70 6 71 7 72 8 73 9 74 10 75
REMARK SMILES IDX 30 76 11 77 29 78 12 81 28 82 13 83 27 84 14 85 15 87 16 88
REMARK SMILES IDX 17 89 25 90 26 91 18 92 19 93 23 94 20 95 22 96 24 97 21 98
REMARK H PARENT 87 22 55 33 30 79 30 80 14 86
REMARK Flexibility Score: inf
ROOT
ATOM      1  C   UNL     1       4.608  -2.478   0.227  1.00  0.00     0.275 C 
ENDROOT
BRANCH   1   2
ATOM      2  O   UNL     1       5.059  -1.282   0.881  1.00  0.00    -0.458 OA
BRANCH   2   3
ATOM      3  C   UNL     1       4.707  -0.070   0.413  1.00  0.00     0.338 C 
ATOM      4  O   UNL     1       3.915   0.645   1.015  1.00  0.00    -0.246 OA
BRANCH   3   5
ATOM      5  C   UNL     1       5.415   0.411  -0.813  1.00  0.00     0.060 A 
ATOM      6  C   UNL     1       5.919  -0.389  -1.841  1.00  0.00     0.016 A 
ATOM      7  C   UNL     1       5.407   1.786  -1.006  1.00  0.00     0.016 A 
ATOM      8  C   UNL     1       6.267   0.172  -3.083  1.00  0.00     0.010 A 
ATOM      9  C   UNL     1       5.646   2.325  -2.269  1.00  0.00     0.010 A 
ATOM     10  C   UNL     1       6.056   1.530  -3.344  1.00  0.00    -0.014 A 
BRANCH  10  11
ATOM     11  C   UNL     1       6.277   2.168  -4.681  1.00  0.00     0.031 A 
ATOM     12  C   UNL     1       7.035   3.479  -4.753  1.00  0.00     0.074 A 
ATOM     13  C   UNL     1       5.747   1.659  -5.816  1.00  0.00     0.049 A 
ATOM     14  N   UNL     1       7.031   4.389  -5.693  1.00  0.00    -0.248 NA
ATOM     15  C   UNL     1       7.835   3.850  -3.576  1.00  0.00     0.031 C 
ATOM     16  C   UNL     1       4.954   0.431  -5.938  1.00  0.00     0.029 A 
ATOM     17  N   UNL     1       5.822   2.116  -7.112  1.00  0.00    -0.354 N 
ATOM     18  C   UNL     1       7.698   5.492  -5.160  1.00  0.00     0.074 A 
ATOM     19  C   UNL     1       8.122   5.119  -3.831  1.00  0.00     0.031 C 
ATOM     20  C   UNL     1       4.717   0.180  -7.238  1.00  0.00     0.029 A 
ATOM     21  C   UNL     1       5.282   1.256  -8.042  1.00  0.00     0.049 A 
ATOM     22  H   UNL     1       6.226   2.981  -7.352  1.00  0.00     0.167 HD
ATOM     23  C   UNL     1       7.913   6.701  -5.738  1.00  0.00     0.034 A 
ATOM     24  C   UNL     1       5.277   1.322  -9.389  1.00  0.00     0.034 A 
ATOM     25  C   UNL     1       7.688   6.944  -7.141  1.00  0.00     0.049 A 
ATOM     26  C   UNL     1       5.878   2.530 -10.062  1.00  0.00     0.074 A 
ATOM     27  C   UNL     1       7.878   8.108  -7.869  1.00  0.00     0.029 A 
ATOM     28  N   UNL     1       7.340   5.960  -8.049  1.00  0.00    -0.354 N 
ATOM     29  N   UNL     1       6.302   3.643  -9.513  1.00  0.00    -0.248 NA
ATOM     30  C   UNL     1       6.021   2.488 -11.525  1.00  0.00     0.031 C 
ATOM     31  C   UNL     1       7.681   7.816  -9.223  1.00  0.00     0.029 A 
ATOM     32  C   UNL     1       7.413   6.463  -9.332  1.00  0.00     0.049 A 
ATOM     33  H   UNL     1       7.079   5.040  -7.816  1.00  0.00     0.167 HD
ATOM     34  C   UNL     1       6.786   4.418 -10.561  1.00  0.00     0.074 A 
ATOM     35  C   UNL     1       6.623   3.643 -11.771  1.00  0.00     0.031 C 
ATOM     36  C   UNL     1       7.304   5.667 -10.522  1.00  0.00     0.034 A 
BRANCH  23  37
ATOM     37  C   UNL     1       8.409   7.852  -4.898  1.00  0.00     0.023 A 
ATOM     38  C   UNL     1       9.665   7.856  -4.279  1.00  0.00     0.031 A 
ATOM     39  C   UNL     1       7.606   9.004  -4.759  1.00  0.00     0.131 A 
ATOM     40  C   UNL     1      10.064   8.964  -3.514  1.00  0.00     0.055 A 
ATOM     41  C   UNL     1       8.028  10.123  -4.042  1.00  0.00     0.041 A 
ATOM     42  F   UNL     1       6.394   9.063  -5.334  1.00  0.00    -0.206 F 
ATOM     43  C   UNL     1       9.262  10.103  -3.404  1.00  0.00     0.022 A 
BRANCH  40  44
ATOM     44  S   UNL     1      11.586   8.839  -2.537  1.00  0.00     0.124 S 
ATOM     45  O   UNL     1      11.428   7.533  -1.901  1.00  0.00    -0.237 OA
ATOM     46  O   UNL     1      12.620   8.935  -3.559  1.00  0.00    -0.237 OA
ATOM     47  O   UNL     1      11.495   9.975  -1.622  1.00  0.00    -0.744 OA
ENDBRANCH  40  44
ENDBRANCH  23  37
BRANCH  24  48
ATOM     48  C   UNL     1       4.799   0.180 -10.213  1.00  0.00     0.023 A 
ATOM     49  C   UNL     1       5.734  -0.600 -10.913  1.00  0.00     0.031 A 
ATOM     50  C   UNL     1       3.438  -0.120 -10.369  1.00  0.00     0.131 A 
ATOM     51  C   UNL     1       5.299  -1.602 -11.790  1.00  0.00     0.055 A 
ATOM     52  C   UNL     1       3.009  -1.150 -11.212  1.00  0.00     0.041 A 
ATOM     53  F   UNL     1       2.507   0.584  -9.706  1.00  0.00    -0.206 F 
ATOM     54  C   UNL     1       3.941  -1.888 -11.940  1.00  0.00     0.022 A 
BRANCH  51  55
ATOM     55  S   UNL     1       6.541  -2.473 -12.782  1.00  0.00     0.124 S 
ATOM     56  O   UNL     1       7.119  -1.381 -13.557  1.00  0.00    -0.237 OA
ATOM     57  O   UNL     1       7.397  -3.054 -11.753  1.00  0.00    -0.237 OA
ATOM     58  O   UNL     1       5.750  -3.435 -13.547  1.00  0.00    -0.744 OA
ENDBRANCH  51  55
ENDBRANCH  24  48
BRANCH  36  59
ATOM     59  C   UNL     1       7.823   6.258 -11.798  1.00  0.00     0.023 A 
ATOM     60  C   UNL     1       6.958   6.686 -12.814  1.00  0.00     0.031 A 
ATOM     61  C   UNL     1       9.206   6.445 -11.967  1.00  0.00     0.131 A 
ATOM     62  C   UNL     1       7.488   7.253 -13.980  1.00  0.00     0.055 A 
ATOM     63  C   UNL     1       9.726   7.043 -13.114  1.00  0.00     0.041 A 
ATOM     64  F   UNL     1      10.069   6.057 -11.014  1.00  0.00    -0.206 F 
ATOM     65  C   UNL     1       8.865   7.445 -14.132  1.00  0.00     0.022 A 
BRANCH  62  66
ATOM     66  S   UNL     1       6.349   7.705 -15.315  1.00  0.00     0.124 S 
ATOM     67  O   UNL     1       5.742   6.420 -15.645  1.00  0.00    -0.237 OA
ATOM     68  O   UNL     1       5.473   8.674 -14.663  1.00  0.00    -0.237 OA
ATOM     69  O   UNL     1       7.228   8.260 -16.343  1.00  0.00    -0.744 OA
ENDBRANCH  62  66
ENDBRANCH  36  59
ENDBRANCH  10  11
ENDBRANCH   3   5
ENDBRANCH   2   3
ENDBRANCH   1   2
BRANCH   1  70
ATOM     70  C   UNL     1       3.231  -2.489  -0.456  1.00  0.00     0.274 C 
BRANCH  70  71
ATOM     71  O   UNL     1       2.971  -1.397  -1.362  1.00  0.00    -0.458 OA
BRANCH  71  72
ATOM     72  C   UNL     1       1.757  -0.782  -1.197  1.00  0.00     0.364 C 
ATOM     73  O   UNL     1       0.979  -1.026  -0.276  1.00  0.00    -0.245 OA
BRANCH  72  74
ATOM     74  C   UNL     1       1.380   0.144  -2.380  1.00  0.00     0.294 C 
ATOM     75  C   UNL     1       2.148   1.457  -2.495  1.00  0.00     0.090 C 
ATOM     76  N   UNL     1      -0.057   0.498  -2.262  1.00  0.00    -0.334 N 
ATOM     77  C   UNL     1       1.184   2.604  -2.144  1.00  0.00     0.036 C 
ATOM     78  C   UNL     1      -0.197   1.951  -2.303  1.00  0.00     0.268 C 
ATOM     79  H   UNL     1      -0.424   0.144  -1.379  1.00  0.00     0.347 HD
ATOM     80  H   UNL     1      -0.577   0.082  -3.034  1.00  0.00     0.347 HD
ATOM     81  C   UNL     1       1.303   3.819  -3.087  1.00  0.00     0.075 C 
ATOM     82  C   UNL     1       1.366   3.134  -0.709  1.00  0.00     0.075 C 
ATOM     83  C   UNL     1       2.600   4.611  -2.933  1.00  0.00     0.271 C 
ATOM     84  C   UNL     1       2.564   4.057  -0.502  1.00  0.00     0.271 C 
ATOM     85  N   UNL     1       2.908   5.003  -1.562  1.00  0.00    -0.271 N 
ATOM     86  H   UNL     1       3.564   5.517  -1.036  1.00  0.00     0.356 HD
BRANCH  85  87
ATOM     87  C   UNL     1       4.131   5.685  -1.319  1.00  0.00     0.322 C 
ATOM     88  O   UNL     1       5.005   5.140  -0.635  1.00  0.00    -0.230 OA
BRANCH  87  89
ATOM     89  C   UNL     1       4.379   7.125  -1.764  1.00  0.00     0.113 C 
ATOM     90  C   UNL     1       4.306   7.532  -3.232  1.00  0.00     0.028 C 
ATOM     91  C   UNL     1       3.230   7.976  -2.291  1.00  0.00     0.028 C 
BRANCH  89  92
ATOM     92  C   UNL     1       5.487   7.831  -0.942  1.00  0.00     0.007 A 
ATOM     93  C   UNL     1       6.838   7.727  -1.321  1.00  0.00     0.008 A 
ATOM     94  C   UNL     1       5.230   8.500   0.262  1.00  0.00     0.127 A 
ATOM     95  C   UNL     1       7.874   8.236  -0.532  1.00  0.00     0.001 A 
ATOM     96  C   UNL     1       6.255   9.027   1.055  1.00  0.00     0.039 A 
ATOM     97  F   UNL     1       3.965   8.629   0.693  1.00  0.00    -0.207 F 
ATOM     98  C   UNL     1       7.583   8.888   0.659  1.00  0.00     0.003 A 
ENDBRANCH  89  92
ENDBRANCH  87  89
ENDBRANCH  85  87
ENDBRANCH  72  74
ENDBRANCH  71  72
ENDBRANCH  70  71
ENDBRANCH   1  70
TORSDOF 17
