REMARK SMILES Cc1ccccc1N[C@H](C(=O)OCCOC(=O)c1ccc(-c2c3nc(c(-c4cc(S(=O)(=O)[O-])ccc4F)c4ccc([nH]4)c(-c4cc(S(=O)(=O)[O-])ccc4F)c4nc(c(-c5cc(S(=O)(=O)[O-])ccc5F)c5ccc2[nH]5)C=C4)C=C3)cc1)c1ccccc1
REMARK SMILES IDX 14 1 13 2 12 3 10 4 11 5 9 6 8 7 7 9 1 10 2 11 3 12 4 13
REMARK SMILES IDX 6 14 5 15 81 16 82 17 86 18 83 19 85 20 84 21 15 22 16 23
REMARK SMILES IDX 17 24 18 25 19 26 80 27 20 28 79 29 21 30 22 31 23 32 73 33
REMARK SMILES IDX 24 34 78 35 72 36 74 37 25 38 77 39 71 40 70 41 26 43 58 44
REMARK SMILES IDX 38 45 57 46 39 47 42 48 56 49 75 50 40 51 41 52 55 54 76 55
REMARK SMILES IDX 43 56 27 57 28 58 36 59 29 60 35 61 37 62 34 63 30 64 31 65
REMARK SMILES IDX 32 66 33 67 59 68 60 69 68 70 61 71 67 72 69 73 66 74 62 75
REMARK SMILES IDX 63 76 64 77 65 78 44 79 45 80 53 81 46 82 52 83 54 84 51 85
REMARK SMILES IDX 47 86 48 87 49 88 50 89
REMARK H PARENT 8 8 74 42 42 53
REMARK Flexibility Score: inf
ROOT
ATOM      1  C   UNL     1       2.439  -0.119   2.285  1.00  0.00     0.275 C 
ENDROOT
BRANCH   1   2
ATOM      2  C   UNL     1       3.341   1.132   2.138  1.00  0.00     0.274 C 
BRANCH   2   3
ATOM      3  O   UNL     1       2.728   2.390   1.777  1.00  0.00    -0.460 OA
BRANCH   3   4
ATOM      4  C   UNL     1       1.586   2.860   2.329  1.00  0.00     0.333 C 
ATOM      5  O   UNL     1       1.006   2.295   3.252  1.00  0.00    -0.249 OA
BRANCH   4   6
ATOM      6  C   UNL     1       1.018   4.130   1.556  1.00  0.00     0.221 C 
BRANCH   6   7
ATOM      7  N   UNL     1      -0.423   4.206   1.948  1.00  0.00    -0.368 N 
ATOM      8  H   UNL     1      -0.823   3.313   2.059  1.00  0.00     0.161 HD
BRANCH   7   9
ATOM      9  C   UNL     1      -1.324   5.205   2.191  1.00  0.00     0.038 A 
ATOM     10  C   UNL     1      -2.327   3.962   4.197  1.00  0.00     0.046 C 
ATOM     11  C   UNL     1      -2.062   5.208   3.392  1.00  0.00    -0.028 A 
ATOM     12  C   UNL     1      -2.604   6.413   3.871  1.00  0.00     0.005 A 
ATOM     13  C   UNL     1      -2.548   7.569   3.101  1.00  0.00     0.000 A 
ATOM     14  C   UNL     1      -1.477   6.304   1.346  1.00  0.00     0.026 A 
ATOM     15  C   UNL     1      -2.056   7.493   1.804  1.00  0.00     0.002 A 
ENDBRANCH   7   9
ENDBRANCH   6   7
BRANCH   6  16
ATOM     16  C   UNL     1       1.983   5.339   1.543  1.00  0.00    -0.015 A 
ATOM     17  C   UNL     1       1.612   6.683   1.641  1.00  0.00     0.006 A 
ATOM     18  C   UNL     1       3.349   5.140   1.224  1.00  0.00     0.006 A 
ATOM     19  C   UNL     1       2.511   7.746   1.460  1.00  0.00     0.000 A 
ATOM     20  C   UNL     1       4.274   6.186   1.106  1.00  0.00     0.000 A 
ATOM     21  C   UNL     1       3.853   7.495   1.235  1.00  0.00     0.000 A 
ENDBRANCH   6  16
ENDBRANCH   4   6
ENDBRANCH   3   4
ENDBRANCH   2   3
ENDBRANCH   1   2
BRANCH   1  22
ATOM     22  O   UNL     1       1.746  -0.542   1.090  1.00  0.00    -0.458 OA
BRANCH  22  23
ATOM     23  C   UNL     1       0.566   0.050   0.766  1.00  0.00     0.338 C 
ATOM     24  O   UNL     1      -0.461   0.031   1.446  1.00  0.00    -0.246 OA
BRANCH  23  25
ATOM     25  C   UNL     1       0.795   0.981  -0.365  1.00  0.00     0.060 A 
ATOM     26  C   UNL     1      -0.187   1.830  -0.908  1.00  0.00     0.016 A 
ATOM     27  C   UNL     1       2.128   1.200  -0.672  1.00  0.00     0.016 A 
ATOM     28  C   UNL     1       0.203   2.860  -1.784  1.00  0.00     0.010 A 
ATOM     29  C   UNL     1       2.503   2.411  -1.158  1.00  0.00     0.010 A 
ATOM     30  C   UNL     1       1.565   3.135  -1.899  1.00  0.00    -0.014 A 
BRANCH  30  31
ATOM     31  C   UNL     1       2.280   3.831  -2.962  1.00  0.00     0.031 A 
ATOM     32  C   UNL     1       2.698   5.231  -2.841  1.00  0.00     0.074 A 
ATOM     33  C   UNL     1       2.994   2.912  -3.667  1.00  0.00     0.049 A 
ATOM     34  N   UNL     1       3.751   5.670  -3.423  1.00  0.00    -0.248 NA
ATOM     35  C   UNL     1       2.018   6.254  -2.057  1.00  0.00     0.031 C 
ATOM     36  C   UNL     1       4.307   2.955  -4.289  1.00  0.00     0.029 A 
ATOM     37  N   UNL     1       2.582   1.600  -3.916  1.00  0.00    -0.354 N 
ATOM     38  C   UNL     1       3.989   6.958  -3.021  1.00  0.00     0.074 A 
ATOM     39  C   UNL     1       2.876   7.285  -2.165  1.00  0.00     0.031 C 
ATOM     40  C   UNL     1       4.414   1.899  -5.124  1.00  0.00     0.029 A 
ATOM     41  C   UNL     1       3.117   1.237  -5.153  1.00  0.00     0.049 A 
ATOM     42  H   UNL     1       2.022   1.039  -3.331  1.00  0.00     0.167 HD
ATOM     43  C   UNL     1       5.139   7.531  -3.476  1.00  0.00     0.034 A 
ATOM     44  C   UNL     1       2.196   1.257  -6.167  1.00  0.00     0.034 A 
ATOM     45  C   UNL     1       5.586   6.804  -4.670  1.00  0.00     0.049 A 
ATOM     46  C   UNL     1       2.364   2.517  -7.018  1.00  0.00     0.074 A 
ATOM     47  C   UNL     1       6.497   5.810  -4.971  1.00  0.00     0.029 A 
ATOM     48  N   UNL     1       4.724   6.859  -5.747  1.00  0.00    -0.354 N 
ATOM     49  N   UNL     1       3.238   3.465  -6.786  1.00  0.00    -0.248 NA
ATOM     50  C   UNL     1       1.549   2.814  -8.188  1.00  0.00     0.031 C 
ATOM     51  C   UNL     1       6.030   5.160  -6.172  1.00  0.00     0.029 A 
ATOM     52  C   UNL     1       4.876   5.796  -6.609  1.00  0.00     0.049 A 
ATOM     53  H   UNL     1       4.069   7.581  -5.884  1.00  0.00     0.167 HD
ATOM     54  C   UNL     1       3.102   4.484  -7.679  1.00  0.00     0.074 A 
ATOM     55  C   UNL     1       2.012   4.028  -8.538  1.00  0.00     0.031 C 
ATOM     56  C   UNL     1       3.867   5.624  -7.656  1.00  0.00     0.034 A 
BRANCH  43  57
ATOM     57  C   UNL     1       5.894   8.698  -2.904  1.00  0.00     0.023 A 
ATOM     58  C   UNL     1       7.119   9.050  -3.509  1.00  0.00     0.031 A 
ATOM     59  C   UNL     1       5.582   9.393  -1.722  1.00  0.00     0.131 A 
ATOM     60  C   UNL     1       7.991   9.984  -2.923  1.00  0.00     0.055 A 
ATOM     61  C   UNL     1       6.454  10.321  -1.130  1.00  0.00     0.041 A 
ATOM     62  F   UNL     1       4.429   9.207  -1.075  1.00  0.00    -0.206 F 
ATOM     63  C   UNL     1       7.675  10.609  -1.721  1.00  0.00     0.022 A 
BRANCH  60  64
ATOM     64  S   UNL     1       9.566  10.337  -3.745  1.00  0.00     0.124 S 
ATOM     65  O   UNL     1      10.194   9.021  -3.790  1.00  0.00    -0.237 OA
ATOM     66  O   UNL     1       9.126  10.888  -5.022  1.00  0.00    -0.237 OA
ATOM     67  O   UNL     1      10.209  11.296  -2.848  1.00  0.00    -0.744 OA
ENDBRANCH  60  64
ENDBRANCH  43  57
BRANCH  44  68
ATOM     68  C   UNL     1       0.893   0.628  -5.673  1.00  0.00     0.023 A 
ATOM     69  C   UNL     1       1.002  -0.657  -5.067  1.00  0.00     0.031 A 
ATOM     70  C   UNL     1      -0.235   1.391  -5.325  1.00  0.00     0.131 A 
ATOM     71  C   UNL     1       0.133  -1.044  -4.028  1.00  0.00     0.055 A 
ATOM     72  C   UNL     1      -1.160   0.947  -4.359  1.00  0.00     0.041 A 
ATOM     73  F   UNL     1      -0.395   2.635  -5.800  1.00  0.00    -0.206 F 
ATOM     74  C   UNL     1      -0.955  -0.252  -3.674  1.00  0.00     0.022 A 
BRANCH  71  75
ATOM     75  S   UNL     1       0.640  -2.421  -2.943  1.00  0.00     0.124 S 
ATOM     76  O   UNL     1       0.415  -3.583  -3.796  1.00  0.00    -0.237 OA
ATOM     77  O   UNL     1       2.036  -2.092  -2.662  1.00  0.00    -0.237 OA
ATOM     78  O   UNL     1      -0.254  -2.303  -1.794  1.00  0.00    -0.744 OA
ENDBRANCH  71  75
ENDBRANCH  44  68
BRANCH  56  79
ATOM     79  C   UNL     1       3.658   6.716  -8.674  1.00  0.00     0.023 A 
ATOM     80  C   UNL     1       3.435   6.381 -10.012  1.00  0.00     0.031 A 
ATOM     81  C   UNL     1       3.694   8.098  -8.374  1.00  0.00     0.131 A 
ATOM     82  C   UNL     1       3.106   7.369 -10.945  1.00  0.00     0.055 A 
ATOM     83  C   UNL     1       3.528   9.087  -9.344  1.00  0.00     0.041 A 
ATOM     84  F   UNL     1       3.819   8.558  -7.122  1.00  0.00    -0.206 F 
ATOM     85  C   UNL     1       3.196   8.725 -10.638  1.00  0.00     0.022 A 
BRANCH  82  86
ATOM     86  S   UNL     1       2.375   6.831 -12.505  1.00  0.00     0.124 S 
ATOM     87  O   UNL     1       3.312   5.812 -12.966  1.00  0.00    -0.237 OA
ATOM     88  O   UNL     1       1.075   6.338 -12.055  1.00  0.00    -0.237 OA
ATOM     89  O   UNL     1       2.336   8.053 -13.303  1.00  0.00    -0.744 OA
ENDBRANCH  82  86
ENDBRANCH  56  79
ENDBRANCH  30  31
ENDBRANCH  23  25
ENDBRANCH  22  23
ENDBRANCH   1  22
TORSDOF 17
