REMARK SMILES O=C(OCCOC(=O)[C@@H]([NH2+]CC1CC1)c1cccc(C2CC2)c1)c1ccc(-c2c3nc(c(-c4cc(S(=O)(=O)[O-])ccc4F)c4ccc([nH]4)c(-c4cc(S(=O)(=O)[O-])ccc4F)c4nc(c(-c5cc(S(=O)(=O)[O-])ccc5F)c5ccc2[nH]5)C=C4)C=C3)cc1
REMARK SMILES IDX 4 1 3 2 2 3 1 4 24 5 25 6 86 7 26 8 85 9 27 10 28 11 29 12
REMARK SMILES IDX 79 13 30 14 84 15 78 16 80 17 31 18 83 19 77 20 76 21 32 23
REMARK SMILES IDX 64 24 44 25 63 26 45 27 48 28 62 29 81 30 46 31 47 32 61 34
REMARK SMILES IDX 82 35 49 36 33 37 34 38 42 39 35 40 41 41 43 42 40 43 36 44
REMARK SMILES IDX 37 45 38 46 39 47 65 48 66 49 74 50 67 51 73 52 75 53 72 54
REMARK SMILES IDX 68 55 69 56 70 57 71 58 50 59 51 60 59 61 52 62 58 63 60 64
REMARK SMILES IDX 57 65 53 66 54 67 55 68 56 69 5 70 6 71 7 72 8 73 9 74 10 75
REMARK SMILES IDX 11 78 12 79 13 80 14 81 15 82 16 83 23 84 17 85 19 86 18 87
REMARK SMILES IDX 20 88 21 89 22 90
REMARK H PARENT 80 22 48 33 10 76 10 77
REMARK Flexibility Score: inf
ROOT
ATOM      1  C   UNL     1       4.130   1.318   0.875  1.00  0.00     0.275 C 
ENDROOT
BRANCH   1   2
ATOM      2  O   UNL     1       3.283   1.251  -0.278  1.00  0.00    -0.458 OA
BRANCH   2   3
ATOM      3  C   UNL     1       3.243   0.334  -1.272  1.00  0.00     0.338 C 
ATOM      4  O   UNL     1       2.376   0.479  -2.136  1.00  0.00    -0.246 OA
BRANCH   3   5
ATOM      5  C   UNL     1       4.104  -0.896  -1.350  1.00  0.00     0.060 A 
ATOM      6  C   UNL     1       5.254  -1.181  -0.605  1.00  0.00     0.016 A 
ATOM      7  C   UNL     1       3.653  -1.890  -2.235  1.00  0.00     0.016 A 
ATOM      8  C   UNL     1       5.845  -2.452  -0.625  1.00  0.00     0.010 A 
ATOM      9  C   UNL     1       4.234  -3.160  -2.249  1.00  0.00     0.010 A 
ATOM     10  C   UNL     1       5.310  -3.471  -1.407  1.00  0.00    -0.014 A 
BRANCH  10  11
ATOM     11  C   UNL     1       5.918  -4.828  -1.428  1.00  0.00     0.031 A 
ATOM     12  C   UNL     1       6.513  -5.316  -2.717  1.00  0.00     0.074 A 
ATOM     13  C   UNL     1       5.918  -5.622  -0.336  1.00  0.00     0.049 A 
ATOM     14  N   UNL     1       7.015  -6.485  -3.015  1.00  0.00    -0.248 NA
ATOM     15  C   UNL     1       6.502  -4.360  -3.836  1.00  0.00     0.031 C 
ATOM     16  C   UNL     1       5.357  -5.275   0.972  1.00  0.00     0.029 A 
ATOM     17  N   UNL     1       6.399  -6.898  -0.153  1.00  0.00    -0.354 N 
ATOM     18  C   UNL     1       7.376  -6.399  -4.354  1.00  0.00     0.074 A 
ATOM     19  C   UNL     1       6.921  -5.115  -4.836  1.00  0.00     0.031 C 
ATOM     20  C   UNL     1       5.530  -6.308   1.817  1.00  0.00     0.029 A 
ATOM     21  C   UNL     1       6.183  -7.404   1.112  1.00  0.00     0.049 A 
ATOM     22  H   UNL     1       6.858  -7.405  -0.861  1.00  0.00     0.167 HD
ATOM     23  C   UNL     1       8.084  -7.279  -5.102  1.00  0.00     0.034 A 
ATOM     24  C   UNL     1       6.471  -8.617   1.631  1.00  0.00     0.034 A 
ATOM     25  C   UNL     1       8.555  -8.542  -4.606  1.00  0.00     0.049 A 
ATOM     26  C   UNL     1       7.190  -9.620   0.756  1.00  0.00     0.074 A 
ATOM     27  C   UNL     1       9.299  -9.506  -5.259  1.00  0.00     0.029 A 
ATOM     28  N   UNL     1       8.322  -9.016  -3.321  1.00  0.00    -0.354 N 
ATOM     29  N   UNL     1       7.578  -9.500  -0.494  1.00  0.00    -0.248 NA
ATOM     30  C   UNL     1       7.534 -10.912   1.367  1.00  0.00     0.031 C 
ATOM     31  C   UNL     1       9.480 -10.582  -4.382  1.00  0.00     0.029 A 
ATOM     32  C   UNL     1       8.898 -10.264  -3.164  1.00  0.00     0.049 A 
ATOM     33  H   UNL     1       7.821  -8.534  -2.623  1.00  0.00     0.167 HD
ATOM     34  C   UNL     1       8.262 -10.675  -0.795  1.00  0.00     0.074 A 
ATOM     35  C   UNL     1       8.229 -11.492   0.400  1.00  0.00     0.031 C 
ATOM     36  C   UNL     1       8.873 -11.044  -1.950  1.00  0.00     0.034 A 
BRANCH  23  37
ATOM     37  C   UNL     1       8.373  -6.864  -6.522  1.00  0.00     0.023 A 
ATOM     38  C   UNL     1       9.138  -5.714  -6.794  1.00  0.00     0.031 A 
ATOM     39  C   UNL     1       7.780  -7.535  -7.602  1.00  0.00     0.131 A 
ATOM     40  C   UNL     1       9.183  -5.199  -8.096  1.00  0.00     0.055 A 
ATOM     41  C   UNL     1       7.913  -7.071  -8.912  1.00  0.00     0.041 A 
ATOM     42  F   UNL     1       7.023  -8.625  -7.399  1.00  0.00    -0.206 F 
ATOM     43  C   UNL     1       8.597  -5.883  -9.162  1.00  0.00     0.022 A 
BRANCH  40  44
ATOM     44  S   UNL     1       9.853  -3.530  -8.335  1.00  0.00     0.124 S 
ATOM     45  O   UNL     1       8.899  -2.721  -7.576  1.00  0.00    -0.237 OA
ATOM     46  O   UNL     1      11.189  -3.637  -7.772  1.00  0.00    -0.237 OA
ATOM     47  O   UNL     1       9.797  -3.345  -9.787  1.00  0.00    -0.744 OA
ENDBRANCH  40  44
ENDBRANCH  23  37
BRANCH  24  48
ATOM     48  C   UNL     1       6.079  -8.985   3.027  1.00  0.00     0.023 A 
ATOM     49  C   UNL     1       7.046  -9.303   3.998  1.00  0.00     0.031 A 
ATOM     50  C   UNL     1       4.726  -9.136   3.380  1.00  0.00     0.131 A 
ATOM     51  C   UNL     1       6.650  -9.822   5.243  1.00  0.00     0.055 A 
ATOM     52  C   UNL     1       4.336  -9.603   4.638  1.00  0.00     0.041 A 
ATOM     53  F   UNL     1       3.757  -8.851   2.496  1.00  0.00    -0.206 F 
ATOM     54  C   UNL     1       5.301  -9.968   5.572  1.00  0.00     0.022 A 
BRANCH  51  55
ATOM     55  S   UNL     1       7.928 -10.423   6.386  1.00  0.00     0.124 S 
ATOM     56  O   UNL     1       8.645 -11.382   5.554  1.00  0.00    -0.237 OA
ATOM     57  O   UNL     1       8.643  -9.194   6.712  1.00  0.00    -0.237 OA
ATOM     58  O   UNL     1       7.157 -11.003   7.484  1.00  0.00    -0.744 OA
ENDBRANCH  51  55
ENDBRANCH  24  48
BRANCH  36  59
ATOM     59  C   UNL     1       9.630 -12.347  -1.941  1.00  0.00     0.023 A 
ATOM     60  C   UNL     1       8.976 -13.586  -1.854  1.00  0.00     0.031 A 
ATOM     61  C   UNL     1      11.034 -12.339  -2.037  1.00  0.00     0.131 A 
ATOM     62  C   UNL     1       9.730 -14.768  -1.819  1.00  0.00     0.055 A 
ATOM     63  C   UNL     1      11.774 -13.520  -2.061  1.00  0.00     0.041 A 
ATOM     64  F   UNL     1      11.706 -11.179  -2.122  1.00  0.00    -0.206 F 
ATOM     65  C   UNL     1      11.122 -14.744  -1.941  1.00  0.00     0.022 A 
BRANCH  62  66
ATOM     66  S   UNL     1       8.870 -16.340  -1.543  1.00  0.00     0.124 S 
ATOM     67  O   UNL     1       8.258 -16.125  -0.236  1.00  0.00    -0.237 OA
ATOM     68  O   UNL     1       7.950 -16.398  -2.675  1.00  0.00    -0.237 OA
ATOM     69  O   UNL     1       9.946 -17.329  -1.570  1.00  0.00    -0.744 OA
ENDBRANCH  62  66
ENDBRANCH  36  59
ENDBRANCH  10  11
ENDBRANCH   3   5
ENDBRANCH   2   3
ENDBRANCH   1   2
BRANCH   1  70
ATOM     70  C   UNL     1       3.681   0.420   2.029  1.00  0.00     0.274 C 
BRANCH  70  71
ATOM     71  O   UNL     1       3.261  -0.892   1.618  1.00  0.00    -0.457 OA
BRANCH  71  72
ATOM     72  C   UNL     1       1.955  -1.238   1.866  1.00  0.00     0.369 C 
ATOM     73  O   UNL     1       1.112  -0.455   2.296  1.00  0.00    -0.245 OA
BRANCH  72  74
ATOM     74  C   UNL     1       1.671  -2.761   1.625  1.00  0.00     0.324 C 
BRANCH  74  75
ATOM     75  N   UNL     1       2.143  -3.104   0.268  1.00  0.00    -0.330 N 
ATOM     76  H   UNL     1       3.161  -3.035   0.280  1.00  0.00     0.347 HD
ATOM     77  H   UNL     1       1.649  -2.448  -0.336  1.00  0.00     0.347 HD
BRANCH  75  78
ATOM     78  C   UNL     1       1.810  -4.409  -0.285  1.00  0.00     0.264 C 
BRANCH  78  79
ATOM     79  C   UNL     1       0.354  -4.538  -0.601  1.00  0.00     0.044 C 
ATOM     80  C   UNL     1      -0.205  -3.997  -1.895  1.00  0.00     0.010 C 
ATOM     81  C   UNL     1      -0.079  -5.482  -1.696  1.00  0.00     0.010 C 
ENDBRANCH  78  79
ENDBRANCH  75  78
ENDBRANCH  74  75
BRANCH  74  82
ATOM     82  C   UNL     1       2.204  -3.644   2.759  1.00  0.00     0.021 A 
ATOM     83  C   UNL     1       1.843  -4.997   2.842  1.00  0.00     0.010 A 
ATOM     84  C   UNL     1       2.994  -3.135   3.807  1.00  0.00     0.014 A 
ATOM     85  C   UNL     1       2.327  -5.820   3.856  1.00  0.00     0.001 A 
ATOM     86  C   UNL     1       3.415  -3.913   4.905  1.00  0.00    -0.044 A 
ATOM     87  C   UNL     1       3.102  -5.279   4.876  1.00  0.00     0.004 A 
BRANCH  86  88
ATOM     88  C   UNL     1       4.097  -3.326   6.123  1.00  0.00     0.019 C 
ATOM     89  C   UNL     1       4.508  -1.882   6.273  1.00  0.00     0.009 C 
ATOM     90  C   UNL     1       3.268  -2.369   6.960  1.00  0.00     0.009 C 
ENDBRANCH  86  88
ENDBRANCH  74  82
ENDBRANCH  72  74
ENDBRANCH  71  72
ENDBRANCH  70  71
ENDBRANCH   1  70
TORSDOF 19
