REMARK SMILES COC(=O)Cc1nc(NC(=O)[C@H]2CC[C@@H]2C(=O)OCCOC(=O)c2ccc(-c3c4nc(c(-c5cc(S(=O)(=O)[O-])ccc5F)c5ccc([nH]5)c(-c5cc(S(=O)(=O)[O-])ccc5F)c5nc(c(-c6cc(S(=O)(=O)[O-])ccc6F)c6ccc3[nH]6)C=C5)C=C4)cc2)sc1C
REMARK SMILES IDX 19 1 18 2 16 3 17 4 15 5 12 6 13 7 14 8 10 9 9 10 11 12 8 13
REMARK SMILES IDX 6 14 7 15 88 16 87 17 89 18 5 19 3 20 4 21 2 22 1 23 20 24
REMARK SMILES IDX 21 25 22 26 23 27 24 28 25 29 86 30 26 31 85 32 27 33 28 34
REMARK SMILES IDX 29 35 79 36 30 37 84 38 78 39 80 40 31 41 83 42 77 43 76 44
REMARK SMILES IDX 32 46 64 47 44 48 63 49 45 50 48 51 62 52 81 53 46 54 47 55
REMARK SMILES IDX 61 57 82 58 49 59 33 60 34 61 42 62 35 63 41 64 43 65 40 66
REMARK SMILES IDX 36 67 37 68 38 69 39 70 65 71 66 72 74 73 67 74 73 75 75 76
REMARK SMILES IDX 72 77 68 78 69 79 70 80 71 81 50 82 51 83 59 84 52 85 58 86
REMARK SMILES IDX 60 87 57 88 53 89 54 90 55 91 56 92
REMARK H PARENT 9 11 80 45 48 56
REMARK Flexibility Score: inf
ROOT
ATOM      1  C   UNL     1       4.957 -10.037  -0.230  1.00  0.00     0.274 C 
ENDROOT
BRANCH   1   2
ATOM      2  O   UNL     1       4.318  -9.577  -1.442  1.00  0.00    -0.462 OA
BRANCH   2   3
ATOM      3  C   UNL     1       2.958  -9.691  -1.504  1.00  0.00     0.309 C 
ATOM      4  O   UNL     1       2.296 -10.219  -0.613  1.00  0.00    -0.252 OA
BRANCH   3   5
ATOM      5  C   UNL     1       2.373  -9.124  -2.825  1.00  0.00     0.111 C 
ATOM      6  C   UNL     1       2.618  -7.630  -3.230  1.00  0.00     0.093 C 
ATOM      7  C   UNL     1       1.131  -7.338  -2.895  1.00  0.00     0.015 C 
ATOM      8  C   UNL     1       0.851  -8.837  -2.833  1.00  0.00     0.017 C 
BRANCH   6   9
ATOM      9  C   UNL     1       3.013  -7.378  -4.717  1.00  0.00     0.230 C 
ATOM     10  N   UNL     1       4.303  -7.356  -5.179  1.00  0.00    -0.302 N 
ATOM     11  H   UNL     1       4.357  -7.227  -6.154  1.00  0.00     0.172 HD
ATOM     12  O   UNL     1       2.148  -7.256  -5.603  1.00  0.00    -0.274 OA
BRANCH  10  13
ATOM     13  C   UNL     1       5.525  -7.473  -4.592  1.00  0.00     0.189 A 
ATOM     14  C   UNL     1       7.702  -7.896  -4.501  1.00  0.00     0.068 A 
ATOM     15  N   UNL     1       6.599  -7.678  -5.317  1.00  0.00    -0.224 NA
ATOM     16  C   UNL     1       7.437  -7.768  -3.146  1.00  0.00     0.027 A 
ATOM     17  S   UNL     1       5.802  -7.307  -2.936  1.00  0.00    -0.102 S 
ATOM     18  C   UNL     1       8.308  -7.957  -1.957  1.00  0.00     0.058 C 
BRANCH  14  19
ATOM     19  C   UNL     1       9.015  -8.204  -5.141  1.00  0.00     0.180 C 
BRANCH  19  20
ATOM     20  C   UNL     1       8.911  -9.154  -6.308  1.00  0.00     0.311 C 
ATOM     21  O   UNL     1       9.449  -8.959  -7.393  1.00  0.00    -0.252 OA
BRANCH  20  22
ATOM     22  O   UNL     1       8.255 -10.301  -5.968  1.00  0.00    -0.469 OA
ATOM     23  C   UNL     1       8.127 -11.232  -7.042  1.00  0.00     0.282 C 
ENDBRANCH  20  22
ENDBRANCH  19  20
ENDBRANCH  14  19
ENDBRANCH  10  13
ENDBRANCH   6   9
ENDBRANCH   3   5
ENDBRANCH   2   3
ENDBRANCH   1   2
BRANCH   1  24
ATOM     24  C   UNL     1       5.297  -8.857   0.676  1.00  0.00     0.275 C 
BRANCH  24  25
ATOM     25  O   UNL     1       4.079  -8.197   1.045  1.00  0.00    -0.458 OA
BRANCH  25  26
ATOM     26  C   UNL     1       4.106  -6.844   1.052  1.00  0.00     0.338 C 
ATOM     27  O   UNL     1       5.080  -6.131   0.884  1.00  0.00    -0.246 OA
BRANCH  26  28
ATOM     28  C   UNL     1       2.740  -6.344   1.311  1.00  0.00     0.060 A 
ATOM     29  C   UNL     1       1.637  -6.954   0.710  1.00  0.00     0.016 A 
ATOM     30  C   UNL     1       2.558  -5.223   2.119  1.00  0.00     0.016 A 
ATOM     31  C   UNL     1       0.361  -6.416   0.867  1.00  0.00     0.010 A 
ATOM     32  C   UNL     1       1.265  -4.739   2.349  1.00  0.00     0.010 A 
ATOM     33  C   UNL     1       0.153  -5.317   1.709  1.00  0.00    -0.014 A 
BRANCH  33  34
ATOM     34  C   UNL     1      -1.214  -4.759   1.910  1.00  0.00     0.031 A 
ATOM     35  C   UNL     1      -1.490  -3.317   1.576  1.00  0.00     0.074 A 
ATOM     36  C   UNL     1      -2.199  -5.532   2.412  1.00  0.00     0.049 A 
ATOM     37  N   UNL     1      -2.519  -2.574   1.891  1.00  0.00    -0.248 NA
ATOM     38  C   UNL     1      -0.456  -2.614   0.802  1.00  0.00     0.031 C 
ATOM     39  C   UNL     1      -2.079  -6.956   2.736  1.00  0.00     0.029 A 
ATOM     40  N   UNL     1      -3.496  -5.228   2.748  1.00  0.00    -0.354 N 
ATOM     41  C   UNL     1      -2.229  -1.299   1.414  1.00  0.00     0.074 A 
ATOM     42  C   UNL     1      -0.925  -1.374   0.787  1.00  0.00     0.031 C 
ATOM     43  C   UNL     1      -3.253  -7.403   3.205  1.00  0.00     0.029 A 
ATOM     44  C   UNL     1      -4.181  -6.284   3.306  1.00  0.00     0.049 A 
ATOM     45  H   UNL     1      -3.897  -4.341   2.603  1.00  0.00     0.167 HD
ATOM     46  C   UNL     1      -2.979  -0.173   1.505  1.00  0.00     0.034 A 
ATOM     47  C   UNL     1      -5.395  -6.337   3.890  1.00  0.00     0.034 A 
ATOM     48  C   UNL     1      -4.299  -0.135   2.090  1.00  0.00     0.049 A 
ATOM     49  C   UNL     1      -6.205  -5.072   3.990  1.00  0.00     0.074 A 
ATOM     50  C   UNL     1      -5.161   0.942   2.207  1.00  0.00     0.029 A 
ATOM     51  N   UNL     1      -4.953  -1.226   2.648  1.00  0.00    -0.354 N 
ATOM     52  N   UNL     1      -5.893  -3.860   3.591  1.00  0.00    -0.248 NA
ATOM     53  C   UNL     1      -7.522  -5.179   4.628  1.00  0.00     0.031 C 
ATOM     54  C   UNL     1      -6.310   0.515   2.883  1.00  0.00     0.029 A 
ATOM     55  C   UNL     1      -6.196  -0.843   3.130  1.00  0.00     0.049 A 
ATOM     56  H   UNL     1      -4.587  -2.139   2.695  1.00  0.00     0.167 HD
ATOM     57  C   UNL     1      -6.982  -3.062   3.926  1.00  0.00     0.074 A 
ATOM     58  C   UNL     1      -7.966  -3.934   4.534  1.00  0.00     0.031 C 
ATOM     59  C   UNL     1      -7.154  -1.726   3.751  1.00  0.00     0.034 A 
BRANCH  46  60
ATOM     60  C   UNL     1      -2.362   1.119   1.025  1.00  0.00     0.023 A 
ATOM     61  C   UNL     1      -2.052   1.352  -0.326  1.00  0.00     0.031 A 
ATOM     62  C   UNL     1      -2.059   2.134   1.953  1.00  0.00     0.131 A 
ATOM     63  C   UNL     1      -1.402   2.540  -0.700  1.00  0.00     0.055 A 
ATOM     64  C   UNL     1      -1.480   3.343   1.564  1.00  0.00     0.041 A 
ATOM     65  F   UNL     1      -2.311   1.960   3.260  1.00  0.00    -0.206 F 
ATOM     66  C   UNL     1      -1.136   3.546   0.232  1.00  0.00     0.022 A 
BRANCH  63  67
ATOM     67  S   UNL     1      -0.795   2.702  -2.401  1.00  0.00     0.124 S 
ATOM     68  O   UNL     1       0.125   1.570  -2.495  1.00  0.00    -0.237 OA
ATOM     69  O   UNL     1      -2.020   2.596  -3.185  1.00  0.00    -0.237 OA
ATOM     70  O   UNL     1      -0.157   4.017  -2.415  1.00  0.00    -0.744 OA
ENDBRANCH  63  67
ENDBRANCH  46  60
BRANCH  47  71
ATOM     71  C   UNL     1      -5.880  -7.609   4.499  1.00  0.00     0.023 A 
ATOM     72  C   UNL     1      -7.011  -8.272   4.000  1.00  0.00     0.031 A 
ATOM     73  C   UNL     1      -5.225  -8.168   5.613  1.00  0.00     0.131 A 
ATOM     74  C   UNL     1      -7.471  -9.439   4.631  1.00  0.00     0.055 A 
ATOM     75  C   UNL     1      -5.655  -9.357   6.203  1.00  0.00     0.041 A 
ATOM     76  F   UNL     1      -4.139  -7.573   6.131  1.00  0.00    -0.206 F 
ATOM     77  C   UNL     1      -6.792  -9.994   5.718  1.00  0.00     0.022 A 
BRANCH  74  78
ATOM     78  S   UNL     1      -9.021 -10.187   4.056  1.00  0.00     0.124 S 
ATOM     79  O   UNL     1      -9.961  -9.083   4.212  1.00  0.00    -0.237 OA
ATOM     80  O   UNL     1      -8.687 -10.557   2.684  1.00  0.00    -0.237 OA
ATOM     81  O   UNL     1      -9.218 -11.309   4.971  1.00  0.00    -0.744 OA
ENDBRANCH  74  78
ENDBRANCH  47  71
BRANCH  59  82
ATOM     82  C   UNL     1      -8.473  -1.152   4.198  1.00  0.00     0.023 A 
ATOM     83  C   UNL     1      -8.812  -1.064   5.559  1.00  0.00     0.031 A 
ATOM     84  C   UNL     1      -9.412  -0.716   3.248  1.00  0.00     0.131 A 
ATOM     85  C   UNL     1     -10.083  -0.602   5.932  1.00  0.00     0.055 A 
ATOM     86  C   UNL     1     -10.655  -0.207   3.627  1.00  0.00     0.041 A 
ATOM     87  F   UNL     1      -9.136  -0.781   1.936  1.00  0.00    -0.206 F 
ATOM     88  C   UNL     1     -11.001  -0.161   4.974  1.00  0.00     0.022 A 
BRANCH  85  89
ATOM     89  S   UNL     1     -10.556  -0.668   7.681  1.00  0.00     0.124 S 
ATOM     90  O   UNL     1     -10.428  -2.091   7.977  1.00  0.00    -0.237 OA
ATOM     91  O   UNL     1      -9.567   0.205   8.306  1.00  0.00    -0.237 OA
ATOM     92  O   UNL     1     -11.925  -0.154   7.686  1.00  0.00    -0.744 OA
ENDBRANCH  85  89
ENDBRANCH  59  82
ENDBRANCH  33  34
ENDBRANCH  26  28
ENDBRANCH  25  26
ENDBRANCH  24  25
ENDBRANCH   1  24
TORSDOF 19
