REMARK SMILES Cc1ncnc(OCCC(=O)OCCOC(=O)c2ccc(-c3c4nc(c(-c5cc(S(=O)(=O)[O-])ccc5F)c5ccc([nH]5)c(-c5cc(S(=O)(=O)[O-])ccc5F)c5nc(c(-c6cc(S(=O)(=O)[O-])ccc6F)c6ccc3[nH]6)C=C5)C=C4)cc2)c1C
REMARK SMILES IDX 13 1 12 2 10 3 11 4 9 5 8 6 7 7 6 8 1 9 2 10 3 11 81 12 4 13
REMARK SMILES IDX 82 14 5 15 14 16 15 17 16 18 17 19 18 20 19 21 80 22 20 23
REMARK SMILES IDX 79 24 21 25 22 26 23 27 73 28 24 29 78 30 72 31 74 32 25 33
REMARK SMILES IDX 77 34 71 35 70 36 26 38 58 39 38 40 57 41 39 42 42 43 56 44
REMARK SMILES IDX 75 45 40 46 41 47 55 49 76 50 43 51 27 52 28 53 36 54 29 55
REMARK SMILES IDX 35 56 37 57 34 58 30 59 31 60 32 61 33 62 59 63 60 64 68 65
REMARK SMILES IDX 61 66 67 67 69 68 66 69 62 70 63 71 64 72 65 73 44 74 45 75
REMARK SMILES IDX 53 76 46 77 52 78 54 79 51 80 47 81 48 82 49 83 50 84
REMARK H PARENT 74 37 42 48
REMARK Flexibility Score: inf
ROOT
ATOM      1  C   UNL     1      -1.561  -0.740   0.945  1.00  0.00     0.274 C 
ENDROOT
BRANCH   1   2
ATOM      2  O   UNL     1      -1.808  -1.574  -0.202  1.00  0.00    -0.462 OA
BRANCH   2   3
ATOM      3  C   UNL     1      -2.988  -1.390  -0.844  1.00  0.00     0.309 C 
ATOM      4  O   UNL     1      -3.816  -0.534  -0.561  1.00  0.00    -0.252 OA
BRANCH   3   5
ATOM      5  C   UNL     1      -3.212  -2.426  -1.917  1.00  0.00     0.164 C 
BRANCH   5   6
ATOM      6  C   UNL     1      -2.139  -2.416  -2.997  1.00  0.00     0.243 C 
BRANCH   6   7
ATOM      7  O   UNL     1      -1.217  -3.515  -2.938  1.00  0.00    -0.477 OA
BRANCH   7   8
ATOM      8  C   UNL     1      -0.284  -3.441  -1.940  1.00  0.00     0.219 A 
ATOM      9  C   UNL     1       2.598  -1.491  -0.514  1.00  0.00     0.067 C 
ATOM     10  C   UNL     1       1.547  -2.523  -0.801  1.00  0.00     0.047 A 
ATOM     11  N   UNL     1       1.437  -3.484   0.146  1.00  0.00    -0.241 NA
ATOM     12  C   UNL     1       0.743  -2.503  -1.937  1.00  0.00     0.032 A 
ATOM     13  C   UNL     1       0.480  -4.401  -0.036  1.00  0.00     0.226 A 
ATOM     14  C   UNL     1       0.939  -1.535  -3.058  1.00  0.00     0.052 C 
ATOM     15  N   UNL     1      -0.415  -4.417  -1.025  1.00  0.00    -0.202 NA
ENDBRANCH   7   8
ENDBRANCH   6   7
ENDBRANCH   5   6
ENDBRANCH   3   5
ENDBRANCH   2   3
ENDBRANCH   1   2
BRANCH   1  16
ATOM     16  C   UNL     1      -0.711   0.468   0.575  1.00  0.00     0.275 C 
BRANCH  16  17
ATOM     17  O   UNL     1      -1.400   1.272  -0.394  1.00  0.00    -0.458 OA
BRANCH  17  18
ATOM     18  C   UNL     1      -0.646   1.731  -1.415  1.00  0.00     0.338 C 
ATOM     19  O   UNL     1       0.546   1.526  -1.602  1.00  0.00    -0.246 OA
BRANCH  18  20
ATOM     20  C   UNL     1      -1.449   2.644  -2.242  1.00  0.00     0.060 A 
ATOM     21  C   UNL     1      -2.730   2.305  -2.696  1.00  0.00     0.016 A 
ATOM     22  C   UNL     1      -0.888   3.885  -2.551  1.00  0.00     0.016 A 
ATOM     23  C   UNL     1      -3.458   3.228  -3.450  1.00  0.00     0.010 A 
ATOM     24  C   UNL     1      -1.631   4.816  -3.266  1.00  0.00     0.010 A 
ATOM     25  C   UNL     1      -2.924   4.499  -3.710  1.00  0.00    -0.014 A 
BRANCH  25  26
ATOM     26  C   UNL     1      -3.725   5.572  -4.342  1.00  0.00     0.031 A 
ATOM     27  C   UNL     1      -3.383   6.062  -5.716  1.00  0.00     0.074 A 
ATOM     28  C   UNL     1      -4.670   6.179  -3.599  1.00  0.00     0.049 A 
ATOM     29  N   UNL     1      -3.805   7.128  -6.342  1.00  0.00    -0.248 NA
ATOM     30  C   UNL     1      -2.424   5.251  -6.480  1.00  0.00     0.031 C 
ATOM     31  C   UNL     1      -5.068   5.770  -2.249  1.00  0.00     0.029 A 
ATOM     32  N   UNL     1      -5.442   7.281  -3.854  1.00  0.00    -0.354 N 
ATOM     33  C   UNL     1      -3.156   7.128  -7.572  1.00  0.00     0.074 A 
ATOM     34  C   UNL     1      -2.296   5.963  -7.592  1.00  0.00     0.031 C 
ATOM     35  C   UNL     1      -6.008   6.611  -1.794  1.00  0.00     0.029 A 
ATOM     36  C   UNL     1      -6.239   7.646  -2.794  1.00  0.00     0.049 A 
ATOM     37  H   UNL     1      -5.428   7.764  -4.711  1.00  0.00     0.167 HD
ATOM     38  C   UNL     1      -3.271   8.027  -8.581  1.00  0.00     0.034 A 
ATOM     39  C   UNL     1      -7.042   8.715  -2.634  1.00  0.00     0.034 A 
ATOM     40  C   UNL     1      -4.118   9.194  -8.512  1.00  0.00     0.049 A 
ATOM     41  C   UNL     1      -7.131   9.712  -3.752  1.00  0.00     0.074 A 
ATOM     42  C   UNL     1      -4.296  10.194  -9.452  1.00  0.00     0.029 A 
ATOM     43  N   UNL     1      -4.932   9.517  -7.431  1.00  0.00    -0.354 N 
ATOM     44  N   UNL     1      -6.479   9.727  -4.892  1.00  0.00    -0.248 NA
ATOM     45  C   UNL     1      -8.060  10.832  -3.568  1.00  0.00     0.031 C 
ATOM     46  C   UNL     1      -5.184  11.140  -8.923  1.00  0.00     0.029 A 
ATOM     47  C   UNL     1      -5.607  10.702  -7.678  1.00  0.00     0.049 A 
ATOM     48  H   UNL     1      -5.016   8.981  -6.610  1.00  0.00     0.167 HD
ATOM     49  C   UNL     1      -6.931  10.851  -5.572  1.00  0.00     0.074 A 
ATOM     50  C   UNL     1      -7.916  11.484  -4.714  1.00  0.00     0.031 C 
ATOM     51  C   UNL     1      -6.570  11.315  -6.794  1.00  0.00     0.034 A 
BRANCH  38  52
ATOM     52  C   UNL     1      -2.429   7.801  -9.813  1.00  0.00     0.023 A 
ATOM     53  C   UNL     1      -2.653   6.707 -10.668  1.00  0.00     0.031 A 
ATOM     54  C   UNL     1      -1.381   8.682 -10.133  1.00  0.00     0.131 A 
ATOM     55  C   UNL     1      -1.808   6.492 -11.768  1.00  0.00     0.055 A 
ATOM     56  C   UNL     1      -0.584   8.499 -11.266  1.00  0.00     0.041 A 
ATOM     57  F   UNL     1      -1.106   9.733  -9.344  1.00  0.00    -0.206 F 
ATOM     58  C   UNL     1      -0.789   7.394 -12.086  1.00  0.00     0.022 A 
BRANCH  55  59
ATOM     59  S   UNL     1      -2.001   4.969 -12.735  1.00  0.00     0.124 S 
ATOM     60  O   UNL     1      -1.609   3.953 -11.761  1.00  0.00    -0.237 OA
ATOM     61  O   UNL     1      -3.414   4.996 -13.094  1.00  0.00    -0.237 OA
ATOM     62  O   UNL     1      -1.072   5.149 -13.849  1.00  0.00    -0.744 OA
ENDBRANCH  55  59
ENDBRANCH  38  52
BRANCH  39  63
ATOM     63  C   UNL     1      -7.806   8.876  -1.369  1.00  0.00     0.023 A 
ATOM     64  C   UNL     1      -9.190   8.654  -1.338  1.00  0.00     0.031 A 
ATOM     65  C   UNL     1      -7.155   9.185  -0.162  1.00  0.00     0.131 A 
ATOM     66  C   UNL     1      -9.884   8.745  -0.122  1.00  0.00     0.055 A 
ATOM     67  C   UNL     1      -7.844   9.245   1.051  1.00  0.00     0.041 A 
ATOM     68  F   UNL     1      -5.828   9.387  -0.139  1.00  0.00    -0.206 F 
ATOM     69  C   UNL     1      -9.218   9.025   1.075  1.00  0.00     0.022 A 
BRANCH  66  70
ATOM     70  S   UNL     1     -11.679   8.485  -0.124  1.00  0.00     0.124 S 
ATOM     71  O   UNL     1     -12.139   9.589  -0.959  1.00  0.00    -0.237 OA
ATOM     72  O   UNL     1     -11.793   7.151  -0.703  1.00  0.00    -0.237 OA
ATOM     73  O   UNL     1     -12.038   8.579   1.290  1.00  0.00    -0.744 OA
ENDBRANCH  66  70
ENDBRANCH  39  63
BRANCH  51  74
ATOM     74  C   UNL     1      -7.275  12.551  -7.277  1.00  0.00     0.023 A 
ATOM     75  C   UNL     1      -6.991  13.815  -6.735  1.00  0.00     0.031 A 
ATOM     76  C   UNL     1      -8.241  12.458  -8.293  1.00  0.00     0.131 A 
ATOM     77  C   UNL     1      -7.701  14.937  -7.184  1.00  0.00     0.055 A 
ATOM     78  C   UNL     1      -8.913  13.584  -8.767  1.00  0.00     0.041 A 
ATOM     79  F   UNL     1      -8.544  11.270  -8.840  1.00  0.00    -0.206 F 
ATOM     80  C   UNL     1      -8.650  14.832  -8.206  1.00  0.00     0.022 A 
BRANCH  77  81
ATOM     81  S   UNL     1      -7.405  16.534  -6.379  1.00  0.00     0.124 S 
ATOM     82  O   UNL     1      -7.878  16.279  -5.022  1.00  0.00    -0.237 OA
ATOM     83  O   UNL     1      -5.963  16.701  -6.531  1.00  0.00    -0.237 OA
ATOM     84  O   UNL     1      -8.220  17.466  -7.156  1.00  0.00    -0.744 OA
ENDBRANCH  77  81
ENDBRANCH  51  74
ENDBRANCH  25  26
ENDBRANCH  18  20
ENDBRANCH  17  18
ENDBRANCH  16  17
ENDBRANCH   1  16
TORSDOF 17
