REMARK SMILES CCCc1cc(OC(F)(F)F)cc2c1O[C@@H](C(F)(F)F)C(C(=O)OCCOC(=O)c1ccc(-c3c4nc(c(-c5cc(S(=O)(=O)[O-])ccc5F)c5ccc([nH]5)c(-c5cc(S(=O)(=O)[O-])ccc5F)c5nc(c(-c6cc(S(=O)(=O)[O-])ccc6F)c6ccc3[nH]6)C=C5)C=C4)cc1)=C2
REMARK SMILES IDX 26 1 25 2 24 3 22 4 23 5 21 6 4 7 5 8 14 9 6 10 13 11 15 12
REMARK SMILES IDX 12 13 93 14 16 15 3 16 2 17 1 18 7 19 8 20 9 21 10 22 11 23
REMARK SMILES IDX 17 24 18 25 19 26 20 27 27 28 28 29 29 30 30 31 31 32 92 33
REMARK SMILES IDX 32 34 91 35 33 36 34 37 35 38 85 39 36 40 90 41 84 42 86 43
REMARK SMILES IDX 37 44 89 45 83 46 82 47 38 49 70 50 50 51 69 52 51 53 54 54
REMARK SMILES IDX 68 55 87 56 52 57 53 58 67 60 88 61 55 62 39 63 40 64 48 65
REMARK SMILES IDX 41 66 47 67 49 68 46 69 42 70 43 71 44 72 45 73 71 74 72 75
REMARK SMILES IDX 80 76 73 77 79 78 81 79 78 80 74 81 75 82 76 83 77 84 56 85
REMARK SMILES IDX 57 86 65 87 58 88 64 89 66 90 63 91 59 92 60 93 61 94 62 95
REMARK H PARENT 86 48 54 59
REMARK Flexibility Score: inf
ROOT
ATOM      1  C   UNL     1       2.365  -6.575  -4.130  1.00  0.00     0.275 C 
ENDROOT
BRANCH   1   2
ATOM      2  C   UNL     1       0.942  -6.014  -4.051  1.00  0.00     0.275 C 
BRANCH   2   3
ATOM      3  O   UNL     1       0.953  -4.574  -3.966  1.00  0.00    -0.459 OA
BRANCH   3   4
ATOM      4  C   UNL     1       0.174  -4.044  -2.992  1.00  0.00     0.338 C 
ATOM      5  O   UNL     1      -0.558  -4.654  -2.234  1.00  0.00    -0.246 OA
BRANCH   4   6
ATOM      6  C   UNL     1       0.329  -2.581  -2.929  1.00  0.00     0.087 C 
ATOM      7  C   UNL     1       0.378   1.561  -2.345  1.00  0.00    -0.002 A 
ATOM      8  C   UNL     1       0.066   2.402  -3.432  1.00  0.00     0.054 A 
ATOM      9  C   UNL     1       0.290   0.176  -2.539  1.00  0.00     0.131 A 
ATOM     10  C   UNL     1      -0.305   1.875  -4.674  1.00  0.00     0.130 A 
ATOM     11  C   UNL     1      -0.029  -0.371  -3.792  1.00  0.00     0.021 A 
ATOM     12  O   UNL     1       0.458  -0.622  -1.446  1.00  0.00    -0.475 OA
ATOM     13  C   UNL     1      -0.320   0.487  -4.854  1.00  0.00     0.058 A 
ATOM     14  C   UNL     1      -0.104  -1.825  -3.950  1.00  0.00     0.027 C 
ATOM     15  C   UNL     1       0.917  -1.969  -1.684  1.00  0.00     0.316 C 
BRANCH   7  16
ATOM     16  C   UNL     1       0.936   2.185  -1.077  1.00  0.00     0.039 C 
BRANCH  16  17
ATOM     17  C   UNL     1       0.186   1.988   0.248  1.00  0.00     0.001 C 
ATOM     18  C   UNL     1       0.581   0.747   1.038  1.00  0.00     0.004 C 
ENDBRANCH  16  17
ENDBRANCH   7  16
BRANCH  10  19
ATOM     19  O   UNL     1      -0.651   2.595  -5.783  1.00  0.00    -0.406 OA
BRANCH  19  20
ATOM     20  C   UNL     1      -0.870   3.987  -5.622  1.00  0.00     0.573 C 
ATOM     21  F   UNL     1      -1.788   4.236  -4.663  1.00  0.00    -0.132 F 
ATOM     22  F   UNL     1       0.279   4.631  -5.330  1.00  0.00    -0.132 F 
ATOM     23  F   UNL     1      -1.345   4.485  -6.787  1.00  0.00    -0.132 F 
ENDBRANCH  19  20
ENDBRANCH  10  19
BRANCH  15  24
ATOM     24  C   UNL     1       0.781  -2.769  -0.376  1.00  0.00     0.430 C 
ATOM     25  F   UNL     1       1.338  -3.998  -0.482  1.00  0.00    -0.167 F 
ATOM     26  F   UNL     1       1.441  -2.149   0.633  1.00  0.00    -0.167 F 
ATOM     27  F   UNL     1      -0.504  -2.915   0.011  1.00  0.00    -0.167 F 
ENDBRANCH  15  24
ENDBRANCH   4   6
ENDBRANCH   3   4
ENDBRANCH   2   3
ENDBRANCH   1   2
BRANCH   1  28
ATOM     28  O   UNL     1       3.128  -6.245  -2.951  1.00  0.00    -0.458 OA
BRANCH  28  29
ATOM     29  C   UNL     1       3.916  -5.149  -3.081  1.00  0.00     0.338 C 
ATOM     30  O   UNL     1       4.062  -4.480  -4.093  1.00  0.00    -0.246 OA
BRANCH  29  31
ATOM     31  C   UNL     1       4.435  -4.718  -1.768  1.00  0.00     0.060 A 
ATOM     32  C   UNL     1       4.204  -3.385  -1.427  1.00  0.00     0.016 A 
ATOM     33  C   UNL     1       5.172  -5.535  -0.909  1.00  0.00     0.016 A 
ATOM     34  C   UNL     1       4.615  -2.875  -0.199  1.00  0.00     0.010 A 
ATOM     35  C   UNL     1       5.658  -5.001   0.299  1.00  0.00     0.010 A 
ATOM     36  C   UNL     1       5.371  -3.671   0.666  1.00  0.00    -0.014 A 
BRANCH  36  37
ATOM     37  C   UNL     1       5.988  -3.024   1.853  1.00  0.00     0.031 A 
ATOM     38  C   UNL     1       7.355  -2.412   1.712  1.00  0.00     0.074 A 
ATOM     39  C   UNL     1       5.305  -2.876   3.004  1.00  0.00     0.049 A 
ATOM     40  N   UNL     1       8.093  -1.804   2.604  1.00  0.00    -0.248 NA
ATOM     41  C   UNL     1       7.958  -2.480   0.372  1.00  0.00     0.031 C 
ATOM     42  C   UNL     1       3.927  -3.309   3.228  1.00  0.00     0.029 A 
ATOM     43  N   UNL     1       5.676  -2.306   4.199  1.00  0.00    -0.354 N 
ATOM     44  C   UNL     1       9.250  -1.415   1.937  1.00  0.00     0.074 A 
ATOM     45  C   UNL     1       9.120  -1.876   0.570  1.00  0.00     0.031 C 
ATOM     46  C   UNL     1       3.574  -3.001   4.489  1.00  0.00     0.029 A 
ATOM     47  C   UNL     1       4.711  -2.392   5.177  1.00  0.00     0.049 A 
ATOM     48  H   UNL     1       6.550  -1.876   4.341  1.00  0.00     0.167 HD
ATOM     49  C   UNL     1      10.321  -0.737   2.420  1.00  0.00     0.034 A 
ATOM     50  C   UNL     1       4.755  -2.049   6.482  1.00  0.00     0.034 A 
ATOM     51  C   UNL     1      10.451  -0.310   3.792  1.00  0.00     0.049 A 
ATOM     52  C   UNL     1       6.020  -1.427   7.035  1.00  0.00     0.074 A 
ATOM     53  C   UNL     1      11.514   0.340   4.396  1.00  0.00     0.029 A 
ATOM     54  N   UNL     1       9.494  -0.501   4.782  1.00  0.00    -0.354 N 
ATOM     55  N   UNL     1       7.130  -1.107   6.408  1.00  0.00    -0.248 NA
ATOM     56  C   UNL     1       6.033  -1.113   8.470  1.00  0.00     0.031 C 
ATOM     57  C   UNL     1      11.235   0.467   5.761  1.00  0.00     0.029 A 
ATOM     58  C   UNL     1       9.956  -0.012   5.995  1.00  0.00     0.049 A 
ATOM     59  H   UNL     1       8.615  -0.923   4.642  1.00  0.00     0.167 HD
ATOM     60  C   UNL     1       7.952  -0.515   7.367  1.00  0.00     0.074 A 
ATOM     61  C   UNL     1       7.205  -0.512   8.607  1.00  0.00     0.031 C 
ATOM     62  C   UNL     1       9.207  -0.012   7.231  1.00  0.00     0.034 A 
BRANCH  49  63
ATOM     63  C   UNL     1      11.470  -0.501   1.470  1.00  0.00     0.023 A 
ATOM     64  C   UNL     1      11.339   0.306   0.326  1.00  0.00     0.031 A 
ATOM     65  C   UNL     1      12.706  -1.137   1.689  1.00  0.00     0.131 A 
ATOM     66  C   UNL     1      12.398   0.396  -0.591  1.00  0.00     0.055 A 
ATOM     67  C   UNL     1      13.783  -0.974   0.817  1.00  0.00     0.041 A 
ATOM     68  F   UNL     1      12.881  -1.943   2.748  1.00  0.00    -0.206 F 
ATOM     69  C   UNL     1      13.628  -0.216  -0.339  1.00  0.00     0.022 A 
BRANCH  66  70
ATOM     70  S   UNL     1      12.095   1.192  -2.192  1.00  0.00     0.124 S 
ATOM     71  O   UNL     1      10.994   0.388  -2.718  1.00  0.00    -0.237 OA
ATOM     72  O   UNL     1      11.761   2.559  -1.808  1.00  0.00    -0.237 OA
ATOM     73  O   UNL     1      13.364   1.035  -2.900  1.00  0.00    -0.744 OA
ENDBRANCH  66  70
ENDBRANCH  49  63
BRANCH  50  74
ATOM     74  C   UNL     1       3.606  -2.345   7.392  1.00  0.00     0.023 A 
ATOM     75  C   UNL     1       2.948  -1.328   8.104  1.00  0.00     0.031 A 
ATOM     76  C   UNL     1       3.215  -3.675   7.641  1.00  0.00     0.131 A 
ATOM     77  C   UNL     1       1.980  -1.659   9.068  1.00  0.00     0.055 A 
ATOM     78  C   UNL     1       2.207  -3.994   8.552  1.00  0.00     0.041 A 
ATOM     79  F   UNL     1       3.819  -4.691   7.004  1.00  0.00    -0.206 F 
ATOM     80  C   UNL     1       1.595  -2.983   9.285  1.00  0.00     0.022 A 
BRANCH  77  81
ATOM     81  S   UNL     1       1.314  -0.341  10.125  1.00  0.00     0.124 S 
ATOM     82  O   UNL     1       2.526   0.178  10.748  1.00  0.00    -0.237 OA
ATOM     83  O   UNL     1       0.668   0.532   9.152  1.00  0.00    -0.237 OA
ATOM     84  O   UNL     1       0.405  -1.051  11.023  1.00  0.00    -0.744 OA
ENDBRANCH  77  81
ENDBRANCH  50  74
BRANCH  62  85
ATOM     85  C   UNL     1       9.824   0.652   8.443  1.00  0.00     0.023 A 
ATOM     86  C   UNL     1      10.115  -0.057   9.623  1.00  0.00     0.031 A 
ATOM     87  C   UNL     1      10.109   2.031   8.420  1.00  0.00     0.131 A 
ATOM     88  C   UNL     1      10.605   0.625  10.748  1.00  0.00     0.055 A 
ATOM     89  C   UNL     1      10.666   2.689   9.517  1.00  0.00     0.041 A 
ATOM     90  F   UNL     1       9.851   2.764   7.325  1.00  0.00    -0.206 F 
ATOM     91  C   UNL     1      10.900   1.990  10.697  1.00  0.00     0.022 A 
BRANCH  88  92
ATOM     92  S   UNL     1      10.738  -0.269  12.322  1.00  0.00     0.124 S 
ATOM     93  O   UNL     1       9.379  -0.768  12.503  1.00  0.00    -0.237 OA
ATOM     94  O   UNL     1      11.752  -1.275  12.024  1.00  0.00    -0.237 OA
ATOM     95  O   UNL     1      11.151   0.764  13.270  1.00  0.00    -0.744 OA
ENDBRANCH  88  92
ENDBRANCH  62  85
ENDBRANCH  36  37
ENDBRANCH  29  31
ENDBRANCH  28  29
ENDBRANCH   1  28
TORSDOF 19
