REMARK SMILES CCC[C@@H](C(=O)OCCOC(=O)c1ccc(-c2c3nc(c(-c4cc(S(=O)(=O)[O-])ccc4F)c4ccc([nH]4)c(-c4cc(S(=O)(=O)[O-])ccc4F)c4nc(c(-c5cc(S(=O)(=O)[O-])ccc5F)c5ccc2[nH]5)C=C4)C=C3)cc1)n1nc(/C=C/c2ccc(OC)cc2)ccc1=O
REMARK SMILES IDX 8 1 7 2 5 3 6 4 4 5 3 6 2 7 1 8 76 9 77 10 91 11 78 12 90 13
REMARK SMILES IDX 92 14 89 15 79 16 80 17 81 18 82 19 88 20 83 21 87 22 84 23
REMARK SMILES IDX 85 24 86 25 9 26 10 27 11 28 12 29 13 30 14 31 75 32 15 33
REMARK SMILES IDX 74 34 16 35 17 36 18 37 68 38 19 39 73 40 67 41 69 42 20 43
REMARK SMILES IDX 72 44 66 45 65 46 21 48 53 49 33 50 52 51 34 52 37 53 51 54
REMARK SMILES IDX 70 55 35 56 36 57 50 59 71 60 38 61 22 62 23 63 31 64 24 65
REMARK SMILES IDX 30 66 32 67 29 68 25 69 26 70 27 71 28 72 54 73 55 74 63 75
REMARK SMILES IDX 56 76 62 77 64 78 61 79 57 80 58 81 59 82 60 83 39 84 40 85
REMARK SMILES IDX 48 86 41 87 47 88 49 89 46 90 42 91 43 92 44 93 45 94
REMARK H PARENT 69 47 37 58
REMARK Flexibility Score: inf
ROOT
ATOM      1  C   UNL     1      -2.877  -1.653   1.152  1.00  0.00     0.274 C 
ENDROOT
BRANCH   1   2
ATOM      2  O   UNL     1      -1.469  -1.765   0.851  1.00  0.00    -0.460 OA
BRANCH   2   3
ATOM      3  C   UNL     1      -0.625  -2.146   1.851  1.00  0.00     0.331 C 
ATOM      4  O   UNL     1      -0.995  -2.364   3.001  1.00  0.00    -0.250 OA
BRANCH   3   5
ATOM      5  C   UNL     1       0.851  -2.169   1.401  1.00  0.00     0.221 C 
BRANCH   5   6
ATOM      6  C   UNL     1       1.118  -2.019  -0.119  1.00  0.00     0.039 C 
BRANCH   6   7
ATOM      7  C   UNL     1       0.693  -0.726  -0.819  1.00  0.00    -0.001 C 
ATOM      8  C   UNL     1       1.097   0.544  -0.102  1.00  0.00     0.004 C 
ENDBRANCH   6   7
ENDBRANCH   5   6
BRANCH   5   9
ATOM      9  N   UNL     1       1.503  -3.399   1.909  1.00  0.00    -0.215 N 
ATOM     10  N   UNL     1       2.448  -3.265   2.929  1.00  0.00    -0.169 NA
ATOM     11  C   UNL     1       1.171  -4.617   1.327  1.00  0.00     0.267 A 
ATOM     12  C   UNL     1       3.074  -4.343   3.308  1.00  0.00     0.084 A 
ATOM     13  C   UNL     1       1.994  -5.771   1.702  1.00  0.00     0.075 A 
ATOM     14  O   UNL     1       0.277  -4.772   0.499  1.00  0.00    -0.268 OA
ATOM     15  C   UNL     1       2.935  -5.654   2.632  1.00  0.00     0.036 A 
BRANCH  12  16
ATOM     16  C   UNL     1       4.048  -4.316   4.446  1.00  0.00     0.031 C 
ATOM     17  C   UNL     1       4.317  -5.418   5.168  1.00  0.00     0.010 C 
BRANCH  17  18
ATOM     18  C   UNL     1       5.352  -5.525   6.196  1.00  0.00    -0.025 A 
ATOM     19  C   UNL     1       6.327  -6.520   6.045  1.00  0.00     0.012 A 
ATOM     20  C   UNL     1       5.354  -4.739   7.348  1.00  0.00     0.012 A 
ATOM     21  C   UNL     1       7.317  -6.692   7.012  1.00  0.00     0.047 A 
ATOM     22  C   UNL     1       6.342  -4.925   8.325  1.00  0.00     0.047 A 
ATOM     23  C   UNL     1       7.342  -5.883   8.148  1.00  0.00     0.118 A 
BRANCH  23  24
ATOM     24  O   UNL     1       8.387  -6.127   8.996  1.00  0.00    -0.497 OA
ATOM     25  C   UNL     1       8.479  -5.291  10.142  1.00  0.00     0.278 C 
ENDBRANCH  23  24
ENDBRANCH  17  18
ENDBRANCH  12  16
ENDBRANCH   5   9
ENDBRANCH   3   5
ENDBRANCH   2   3
ENDBRANCH   1   2
BRANCH   1  26
ATOM     26  C   UNL     1      -3.639  -2.804   0.498  1.00  0.00     0.275 C 
BRANCH  26  27
ATOM     27  O   UNL     1      -3.326  -3.999   1.225  1.00  0.00    -0.458 OA
BRANCH  27  28
ATOM     28  C   UNL     1      -3.140  -5.130   0.502  1.00  0.00     0.338 C 
ATOM     29  O   UNL     1      -3.422  -5.293  -0.671  1.00  0.00    -0.246 OA
BRANCH  28  30
ATOM     30  C   UNL     1      -2.518  -6.159   1.378  1.00  0.00     0.060 A 
ATOM     31  C   UNL     1      -1.726  -5.772   2.455  1.00  0.00     0.016 A 
ATOM     32  C   UNL     1      -2.613  -7.515   1.064  1.00  0.00     0.016 A 
ATOM     33  C   UNL     1      -0.923  -6.707   3.106  1.00  0.00     0.010 A 
ATOM     34  C   UNL     1      -1.906  -8.469   1.822  1.00  0.00     0.010 A 
ATOM     35  C   UNL     1      -0.994  -8.079   2.821  1.00  0.00    -0.014 A 
BRANCH  35  36
ATOM     36  C   UNL     1      -0.058  -9.050   3.501  1.00  0.00     0.031 A 
ATOM     37  C   UNL     1       0.692 -10.103   2.703  1.00  0.00     0.074 A 
ATOM     38  C   UNL     1       0.218  -8.960   4.824  1.00  0.00     0.049 A 
ATOM     39  N   UNL     1       1.368 -11.142   3.133  1.00  0.00    -0.248 NA
ATOM     40  C   UNL     1       0.672  -9.981   1.238  1.00  0.00     0.031 C 
ATOM     41  C   UNL     1      -0.355  -7.983   5.750  1.00  0.00     0.029 A 
ATOM     42  N   UNL     1       1.089  -9.676   5.619  1.00  0.00    -0.354 N 
ATOM     43  C   UNL     1       1.774 -11.840   1.997  1.00  0.00     0.074 A 
ATOM     44  C   UNL     1       1.274 -11.100   0.859  1.00  0.00     0.031 C 
ATOM     45  C   UNL     1       0.261  -8.074   6.936  1.00  0.00     0.029 A 
ATOM     46  C   UNL     1       1.137  -9.237   6.926  1.00  0.00     0.049 A 
ATOM     47  H   UNL     1       1.625 -10.431   5.285  1.00  0.00     0.167 HD
ATOM     48  C   UNL     1       2.491 -12.991   1.910  1.00  0.00     0.034 A 
ATOM     49  C   UNL     1       1.739  -9.742   8.024  1.00  0.00     0.034 A 
ATOM     50  C   UNL     1       3.061 -13.686   3.042  1.00  0.00     0.049 A 
ATOM     51  C   UNL     1       2.491 -11.042   7.911  1.00  0.00     0.074 A 
ATOM     52  C   UNL     1       3.782 -14.870   3.054  1.00  0.00     0.029 A 
ATOM     53  N   UNL     1       3.007 -13.251   4.359  1.00  0.00    -0.354 N 
ATOM     54  N   UNL     1       2.724 -11.772   6.846  1.00  0.00    -0.248 NA
ATOM     55  C   UNL     1       3.027 -11.604   9.157  1.00  0.00     0.031 C 
ATOM     56  C   UNL     1       4.118 -15.175   4.378  1.00  0.00     0.029 A 
ATOM     57  C   UNL     1       3.672 -14.146   5.187  1.00  0.00     0.049 A 
ATOM     58  H   UNL     1       2.561 -12.427   4.662  1.00  0.00     0.167 HD
ATOM     59  C   UNL     1       3.424 -12.887   7.301  1.00  0.00     0.074 A 
ATOM     60  C   UNL     1       3.623 -12.703   8.723  1.00  0.00     0.031 C 
ATOM     61  C   UNL     1       3.845 -13.976   6.609  1.00  0.00     0.034 A 
BRANCH  48  62
ATOM     62  C   UNL     1       2.654 -13.617   0.543  1.00  0.00     0.023 A 
ATOM     63  C   UNL     1       3.414 -13.020  -0.477  1.00  0.00     0.031 A 
ATOM     64  C   UNL     1       2.040 -14.854   0.266  1.00  0.00     0.131 A 
ATOM     65  C   UNL     1       3.499 -13.634  -1.737  1.00  0.00     0.055 A 
ATOM     66  C   UNL     1       2.190 -15.496  -0.965  1.00  0.00     0.041 A 
ATOM     67  F   UNL     1       1.287 -15.465   1.194  1.00  0.00    -0.206 F 
ATOM     68  C   UNL     1       2.914 -14.880  -1.980  1.00  0.00     0.022 A 
BRANCH  65  69
ATOM     69  S   UNL     1       4.291 -12.729  -3.095  1.00  0.00     0.124 S 
ATOM     70  O   UNL     1       3.470 -11.522  -3.162  1.00  0.00    -0.237 OA
ATOM     71  O   UNL     1       5.651 -12.549  -2.602  1.00  0.00    -0.237 OA
ATOM     72  O   UNL     1       4.154 -13.632  -4.236  1.00  0.00    -0.744 OA
ENDBRANCH  65  69
ENDBRANCH  48  62
BRANCH  49  73
ATOM     73  C   UNL     1       1.541  -9.103   9.364  1.00  0.00     0.023 A 
ATOM     74  C   UNL     1       2.627  -8.656  10.135  1.00  0.00     0.031 A 
ATOM     75  C   UNL     1       0.253  -9.002   9.925  1.00  0.00     0.131 A 
ATOM     76  C   UNL     1       2.406  -8.165  11.434  1.00  0.00     0.055 A 
ATOM     77  C   UNL     1       0.032  -8.438  11.181  1.00  0.00     0.041 A 
ATOM     78  F   UNL     1      -0.822  -9.440   9.249  1.00  0.00    -0.206 F 
ATOM     79  C   UNL     1       1.115  -8.031  11.950  1.00  0.00     0.022 A 
BRANCH  76  80
ATOM     80  S   UNL     1       3.837  -7.830  12.500  1.00  0.00     0.124 S 
ATOM     81  O   UNL     1       4.540  -9.107  12.466  1.00  0.00    -0.237 OA
ATOM     82  O   UNL     1       4.484  -6.720  11.808  1.00  0.00    -0.237 OA
ATOM     83  O   UNL     1       3.230  -7.488  13.785  1.00  0.00    -0.744 OA
ENDBRANCH  76  80
ENDBRANCH  49  73
BRANCH  61  84
ATOM     84  C   UNL     1       4.585 -15.033   7.394  1.00  0.00     0.023 A 
ATOM     85  C   UNL     1       3.950 -15.772   8.410  1.00  0.00     0.031 A 
ATOM     86  C   UNL     1       5.955 -15.258   7.174  1.00  0.00     0.131 A 
ATOM     87  C   UNL     1       4.700 -16.639   9.219  1.00  0.00     0.055 A 
ATOM     88  C   UNL     1       6.682 -16.172   7.939  1.00  0.00     0.041 A 
ATOM     89  F   UNL     1       6.615 -14.580   6.222  1.00  0.00    -0.206 F 
ATOM     90  C   UNL     1       6.059 -16.854   8.981  1.00  0.00     0.022 A 
BRANCH  87  91
ATOM     91  S   UNL     1       3.903 -17.380  10.672  1.00  0.00     0.124 S 
ATOM     92  O   UNL     1       3.429 -16.203  11.392  1.00  0.00    -0.237 OA
ATOM     93  O   UNL     1       2.872 -18.217  10.068  1.00  0.00    -0.237 OA
ATOM     94  O   UNL     1       4.990 -18.110  11.323  1.00  0.00    -0.744 OA
ENDBRANCH  87  91
ENDBRANCH  61  84
ENDBRANCH  35  36
ENDBRANCH  28  30
ENDBRANCH  27  28
ENDBRANCH  26  27
ENDBRANCH   1  26
TORSDOF 20
