REMARK SMILES CCOc1cc(C[NH+]2CCC3(CC2)[C@H](C(=O)OCCOC(=O)c2ccc(-c4c5nc(c(-c6cc(S(=O)(=O)[O-])ccc6F)c6ccc([nH]6)c(-c6cc(S(=O)(=O)[O-])ccc6F)c6nc(c(-c7cc(S(=O)(=O)[O-])ccc7F)c7ccc4[nH]7)C=C6)C=C5)cc2)CC(=O)N3C)ccc1OC
REMARK SMILES IDX 18 1 17 2 15 3 16 4 14 5 8 6 9 7 13 8 10 10 12 11 11 12
REMARK SMILES IDX 89 13 86 14 87 15 90 16 88 17 7 18 6 19 4 20 5 21 93 22
REMARK SMILES IDX 92 23 91 24 3 25 2 26 1 27 94 28 95 29 19 30 20 31 21 32
REMARK SMILES IDX 22 33 23 34 24 35 85 36 25 37 84 38 26 39 27 40 28 41 78 42
REMARK SMILES IDX 29 43 83 44 77 45 79 46 30 47 82 48 76 49 75 50 31 52 63 53
REMARK SMILES IDX 43 54 62 55 44 56 47 57 61 58 80 59 45 60 46 61 60 63 81 64
REMARK SMILES IDX 48 65 32 66 33 67 41 68 34 69 40 70 42 71 39 72 35 73 36 74
REMARK SMILES IDX 37 75 38 76 64 77 65 78 73 79 66 80 72 81 74 82 71 83 67 84
REMARK SMILES IDX 68 85 69 86 70 87 49 88 50 89 58 90 51 91 57 92 59 93 56 94
REMARK SMILES IDX 52 95 53 96 54 97 55 98
REMARK H PARENT 8 9 79 51 47 62
REMARK Flexibility Score: inf
ROOT
ATOM      1  C   UNL     1       4.780  -3.243  -0.818  1.00  0.00     0.274 C 
ENDROOT
BRANCH   1   2
ATOM      2  O   UNL     1       4.025  -2.918  -2.024  1.00  0.00    -0.462 OA
BRANCH   2   3
ATOM      3  C   UNL     1       2.793  -3.523  -2.139  1.00  0.00     0.311 C 
ATOM      4  O   UNL     1       2.466  -4.477  -1.438  1.00  0.00    -0.252 OA
BRANCH   3   5
ATOM      5  C   UNL     1       1.797  -2.773  -3.068  1.00  0.00     0.134 C 
ATOM      6  N   UNL     1       3.188  -0.745  -6.617  1.00  0.00    -0.331 N 
ATOM      7  C   UNL     1       3.881  -1.983  -6.285  1.00  0.00     0.265 C 
ATOM      8  C   UNL     1       1.748  -0.872  -6.510  1.00  0.00     0.265 C 
ATOM      9  H   UNL     1       3.414  -0.650  -7.606  1.00  0.00     0.348 HD
ATOM     10  C   UNL     1       3.466  -2.682  -4.985  1.00  0.00     0.091 C 
ATOM     11  C   UNL     1       1.227  -1.440  -5.186  1.00  0.00     0.091 C 
ATOM     12  C   UNL     1       1.972  -2.687  -4.618  1.00  0.00     0.067 C 
ATOM     13  N   UNL     1       1.204  -3.870  -5.043  1.00  0.00    -0.339 N 
ATOM     14  C   UNL     1       0.382  -3.334  -2.895  1.00  0.00     0.118 C 
ATOM     15  C   UNL     1       0.225  -4.218  -4.100  1.00  0.00     0.223 C 
ATOM     16  C   UNL     1       0.940  -4.183  -6.431  1.00  0.00     0.147 C 
ATOM     17  O   UNL     1      -0.694  -5.004  -4.268  1.00  0.00    -0.275 OA
BRANCH   6  18
ATOM     18  C   UNL     1       3.763   0.562  -6.225  1.00  0.00     0.299 C 
BRANCH  18  19
ATOM     19  C   UNL     1       3.683   0.877  -4.746  1.00  0.00     0.010 A 
ATOM     20  C   UNL     1       2.219   0.891  -2.785  1.00  0.00     0.161 A 
ATOM     21  C   UNL     1       2.490   1.295  -4.109  1.00  0.00     0.060 A 
ATOM     22  C   UNL     1       3.187   0.163  -2.110  1.00  0.00     0.160 A 
ATOM     23  C   UNL     1       4.456   0.049  -2.690  1.00  0.00     0.051 A 
ATOM     24  C   UNL     1       4.739   0.433  -3.978  1.00  0.00     0.013 A 
BRANCH  20  25
ATOM     25  O   UNL     1       0.914   0.790  -2.375  1.00  0.00    -0.490 OA
BRANCH  25  26
ATOM     26  C   UNL     1       0.303   1.999  -1.926  1.00  0.00     0.226 C 
ATOM     27  C   UNL     1      -0.403   1.695  -0.608  1.00  0.00     0.049 C 
ENDBRANCH  25  26
ENDBRANCH  20  25
BRANCH  22  28
ATOM     28  O   UNL     1       3.063  -0.612  -0.990  1.00  0.00    -0.493 OA
ATOM     29  C   UNL     1       1.862  -0.716  -0.243  1.00  0.00     0.278 C 
ENDBRANCH  22  28
ENDBRANCH  18  19
ENDBRANCH   6  18
ENDBRANCH   3   5
ENDBRANCH   2   3
ENDBRANCH   1   2
BRANCH   1  30
ATOM     30  C   UNL     1       6.206  -2.617  -0.750  1.00  0.00     0.275 C 
BRANCH  30  31
ATOM     31  O   UNL     1       6.335  -1.172  -0.606  1.00  0.00    -0.458 OA
BRANCH  31  32
ATOM     32  C   UNL     1       5.872  -0.559   0.518  1.00  0.00     0.338 C 
ATOM     33  O   UNL     1       5.494  -1.136   1.514  1.00  0.00    -0.246 OA
BRANCH  32  34
ATOM     34  C   UNL     1       5.620   0.908   0.242  1.00  0.00     0.060 A 
ATOM     35  C   UNL     1       4.331   1.322   0.520  1.00  0.00     0.016 A 
ATOM     36  C   UNL     1       6.450   1.824  -0.417  1.00  0.00     0.016 A 
ATOM     37  C   UNL     1       3.824   2.495  -0.048  1.00  0.00     0.010 A 
ATOM     38  C   UNL     1       5.983   3.147  -0.724  1.00  0.00     0.010 A 
ATOM     39  C   UNL     1       4.642   3.523  -0.524  1.00  0.00    -0.014 A 
BRANCH  39  40
ATOM     40  C   UNL     1       4.043   4.926  -0.640  1.00  0.00     0.031 A 
ATOM     41  C   UNL     1       4.363   5.912  -1.757  1.00  0.00     0.074 A 
ATOM     42  C   UNL     1       3.143   5.351   0.292  1.00  0.00     0.049 A 
ATOM     43  N   UNL     1       4.112   7.203  -1.812  1.00  0.00    -0.248 NA
ATOM     44  C   UNL     1       5.028   5.397  -2.960  1.00  0.00     0.031 C 
ATOM     45  C   UNL     1       2.642   4.561   1.424  1.00  0.00     0.029 A 
ATOM     46  N   UNL     1       2.460   6.545   0.443  1.00  0.00    -0.354 N 
ATOM     47  C   UNL     1       4.638   7.669  -3.017  1.00  0.00     0.074 A 
ATOM     48  C   UNL     1       5.203   6.505  -3.677  1.00  0.00     0.031 C 
ATOM     49  C   UNL     1       1.657   5.209   2.044  1.00  0.00     0.029 A 
ATOM     50  C   UNL     1       1.646   6.573   1.560  1.00  0.00     0.049 A 
ATOM     51  H   UNL     1       2.545   7.300  -0.183  1.00  0.00     0.167 HD
ATOM     52  C   UNL     1       4.663   8.939  -3.511  1.00  0.00     0.034 A 
ATOM     53  C   UNL     1       1.055   7.569   2.249  1.00  0.00     0.034 A 
ATOM     54  C   UNL     1       4.058  10.092  -2.864  1.00  0.00     0.049 A 
ATOM     55  C   UNL     1       1.227   8.977   1.776  1.00  0.00     0.074 A 
ATOM     56  C   UNL     1       4.046  11.414  -3.292  1.00  0.00     0.029 A 
ATOM     57  N   UNL     1       3.358  10.075  -1.665  1.00  0.00    -0.354 N 
ATOM     58  N   UNL     1       1.845   9.410   0.706  1.00  0.00    -0.248 NA
ATOM     59  C   UNL     1       0.644  10.030   2.614  1.00  0.00     0.031 C 
ATOM     60  C   UNL     1       3.424  12.200  -2.315  1.00  0.00     0.029 A 
ATOM     61  C   UNL     1       2.954  11.362  -1.321  1.00  0.00     0.049 A 
ATOM     62  H   UNL     1       3.174   9.267  -1.133  1.00  0.00     0.167 HD
ATOM     63  C   UNL     1       1.707  10.792   0.733  1.00  0.00     0.074 A 
ATOM     64  C   UNL     1       0.926  11.114   1.909  1.00  0.00     0.031 C 
ATOM     65  C   UNL     1       2.192  11.705  -0.143  1.00  0.00     0.034 A 
BRANCH  52  66
ATOM     66  C   UNL     1       5.449   9.204  -4.784  1.00  0.00     0.023 A 
ATOM     67  C   UNL     1       5.063   8.710  -6.042  1.00  0.00     0.031 A 
ATOM     68  C   UNL     1       6.593  10.028  -4.732  1.00  0.00     0.131 A 
ATOM     69  C   UNL     1       5.837   9.006  -7.180  1.00  0.00     0.055 A 
ATOM     70  C   UNL     1       7.314  10.379  -5.876  1.00  0.00     0.041 A 
ATOM     71  F   UNL     1       7.022  10.525  -3.561  1.00  0.00    -0.206 F 
ATOM     72  C   UNL     1       6.943   9.857  -7.109  1.00  0.00     0.022 A 
BRANCH  69  73
ATOM     73  S   UNL     1       5.454   8.166  -8.744  1.00  0.00     0.124 S 
ATOM     74  O   UNL     1       5.526   6.761  -8.351  1.00  0.00    -0.237 OA
ATOM     75  O   UNL     1       4.124   8.675  -9.058  1.00  0.00    -0.237 OA
ATOM     76  O   UNL     1       6.519   8.608  -9.642  1.00  0.00    -0.744 OA
ENDBRANCH  69  73
ENDBRANCH  52  66
BRANCH  53  77
ATOM     77  C   UNL     1       0.383   7.282   3.556  1.00  0.00     0.023 A 
ATOM     78  C   UNL     1      -0.972   7.574   3.759  1.00  0.00     0.031 A 
ATOM     79  C   UNL     1       1.105   6.734   4.638  1.00  0.00     0.131 A 
ATOM     80  C   UNL     1      -1.552   7.348   5.017  1.00  0.00     0.055 A 
ATOM     81  C   UNL     1       0.502   6.429   5.857  1.00  0.00     0.041 A 
ATOM     82  F   UNL     1       2.412   6.449   4.511  1.00  0.00    -0.206 F 
ATOM     83  C   UNL     1      -0.834   6.751   6.056  1.00  0.00     0.022 A 
BRANCH  80  84
ATOM     84  S   UNL     1      -3.235   7.952   5.312  1.00  0.00     0.124 S 
ATOM     85  O   UNL     1      -3.099   9.369   4.997  1.00  0.00    -0.237 OA
ATOM     86  O   UNL     1      -4.011   7.155   4.368  1.00  0.00    -0.237 OA
ATOM     87  O   UNL     1      -3.463   7.643   6.723  1.00  0.00    -0.744 OA
ENDBRANCH  80  84
ENDBRANCH  53  77
BRANCH  65  88
ATOM     88  C   UNL     1       1.825  13.147   0.115  1.00  0.00     0.023 A 
ATOM     89  C   UNL     1       2.271  13.831   1.261  1.00  0.00     0.031 A 
ATOM     90  C   UNL     1       0.957  13.823  -0.760  1.00  0.00     0.131 A 
ATOM     91  C   UNL     1       1.789  15.119   1.539  1.00  0.00     0.055 A 
ATOM     92  C   UNL     1       0.539  15.132  -0.515  1.00  0.00     0.041 A 
ATOM     93  F   UNL     1       0.486  13.216  -1.861  1.00  0.00    -0.206 F 
ATOM     94  C   UNL     1       0.941  15.781   0.648  1.00  0.00     0.022 A 
BRANCH  91  95
ATOM     95  S   UNL     1       2.184  15.869   3.143  1.00  0.00     0.124 S 
ATOM     96  O   UNL     1       1.631  14.893   4.077  1.00  0.00    -0.237 OA
ATOM     97  O   UNL     1       3.640  15.955   3.098  1.00  0.00    -0.237 OA
ATOM     98  O   UNL     1       1.487  17.153   3.103  1.00  0.00    -0.744 OA
ENDBRANCH  91  95
ENDBRANCH  65  88
ENDBRANCH  39  40
ENDBRANCH  32  34
ENDBRANCH  31  32
ENDBRANCH  30  31
ENDBRANCH   1  30
TORSDOF 19
