REMARK SMILES CC(C)(C)[C@@H]1CC(C(=O)OCCOC(=O)c2ccc(-c3c4nc(c(-c5cc(S(=O)(=O)[O-])ccc5F)c5ccc([nH]5)c(-c5cc(S(=O)(=O)[O-])ccc5F)c5nc(c(-c6cc(S(=O)(=O)[O-])ccc6F)c6ccc3[nH]6)C=C5)C=C4)cc2)C[C@@H](C(C)(C)C)C1
REMARK SMILES IDX 12 1 11 2 10 3 8 4 9 5 7 6 5 7 6 8 85 9 80 10 79 11 2 12
REMARK SMILES IDX 1 13 3 14 4 15 81 16 82 17 83 18 84 19 13 20 14 21 15 22
REMARK SMILES IDX 16 23 17 24 78 25 18 26 77 27 19 28 20 29 21 30 71 31 22 32
REMARK SMILES IDX 76 33 70 34 72 35 23 36 75 37 69 38 68 39 24 41 56 42 36 43
REMARK SMILES IDX 55 44 37 45 40 46 54 47 73 48 38 49 39 50 53 52 74 53 41 54
REMARK SMILES IDX 25 55 26 56 34 57 27 58 33 59 35 60 32 61 28 62 29 63 30 64
REMARK SMILES IDX 31 65 57 66 58 67 66 68 59 69 65 70 67 71 64 72 60 73 61 74
REMARK SMILES IDX 62 75 63 76 42 77 43 78 51 79 44 80 50 81 52 82 49 83 45 84
REMARK SMILES IDX 46 85 47 86 48 87
REMARK H PARENT 72 40 40 51
REMARK Flexibility Score: inf
ROOT
ATOM      1  C   UNL     1       6.979  -1.613  -3.763  1.00  0.00     0.275 C 
ENDROOT
BRANCH   1   2
ATOM      2  C   UNL     1       6.763  -0.145  -3.384  1.00  0.00     0.274 C 
BRANCH   2   3
ATOM      3  O   UNL     1       5.395   0.097  -3.004  1.00  0.00    -0.462 OA
BRANCH   3   4
ATOM      4  C   UNL     1       4.621   0.692  -3.946  1.00  0.00     0.309 C 
ATOM      5  O   UNL     1       5.040   1.126  -5.014  1.00  0.00    -0.252 OA
BRANCH   4   6
ATOM      6  C   UNL     1       3.146   0.730  -3.584  1.00  0.00     0.100 C 
ATOM      7  C   UNL     1       1.201   0.040  -2.128  1.00  0.00    -0.005 C 
ATOM      8  C   UNL     1       2.743   0.090  -2.254  1.00  0.00     0.019 C 
ATOM      9  C   UNL     1       0.603   1.461  -2.317  1.00  0.00     0.008 C 
ATOM     10  C   UNL     1       1.085   2.231  -3.574  1.00  0.00    -0.005 C 
ATOM     11  C   UNL     1       2.622   2.157  -3.662  1.00  0.00     0.019 C 
BRANCH   7  12
ATOM     12  C   UNL     1       0.685  -0.701  -0.837  1.00  0.00    -0.035 C 
ATOM     13  C   UNL     1       1.132  -0.010   0.462  1.00  0.00     0.011 C 
ATOM     14  C   UNL     1       1.204  -2.157  -0.815  1.00  0.00     0.011 C 
ATOM     15  C   UNL     1      -0.859  -0.774  -0.843  1.00  0.00     0.011 C 
ENDBRANCH   7  12
BRANCH  10  16
ATOM     16  C   UNL     1       0.271   1.939  -4.906  1.00  0.00    -0.035 C 
ATOM     17  C   UNL     1       1.032   2.417  -6.161  1.00  0.00     0.011 C 
ATOM     18  C   UNL     1      -0.118   0.467  -5.135  1.00  0.00     0.011 C 
ATOM     19  C   UNL     1      -1.054   2.741  -4.847  1.00  0.00     0.011 C 
ENDBRANCH  10  16
ENDBRANCH   4   6
ENDBRANCH   3   4
ENDBRANCH   2   3
ENDBRANCH   1   2
BRANCH   1  20
ATOM     20  O   UNL     1       6.251  -1.980  -4.949  1.00  0.00    -0.458 OA
BRANCH  20  21
ATOM     21  C   UNL     1       5.037  -2.537  -4.724  1.00  0.00     0.338 C 
ATOM     22  O   UNL     1       4.509  -2.745  -3.645  1.00  0.00    -0.246 OA
BRANCH  21  23
ATOM     23  C   UNL     1       4.372  -2.818  -6.003  1.00  0.00     0.060 A 
ATOM     24  C   UNL     1       3.336  -1.980  -6.417  1.00  0.00     0.016 A 
ATOM     25  C   UNL     1       4.684  -3.968  -6.726  1.00  0.00     0.016 A 
ATOM     26  C   UNL     1       2.573  -2.305  -7.534  1.00  0.00     0.010 A 
ATOM     27  C   UNL     1       3.942  -4.275  -7.871  1.00  0.00     0.010 A 
ATOM     28  C   UNL     1       2.868  -3.457  -8.270  1.00  0.00    -0.014 A 
BRANCH  28  29
ATOM     29  C   UNL     1       2.033  -3.834  -9.437  1.00  0.00     0.031 A 
ATOM     30  C   UNL     1       1.171  -5.061  -9.368  1.00  0.00     0.074 A 
ATOM     31  C   UNL     1       2.072  -3.092 -10.558  1.00  0.00     0.049 A 
ATOM     32  N   UNL     1       0.515  -5.670 -10.322  1.00  0.00    -0.248 NA
ATOM     33  C   UNL     1       1.047  -5.695  -8.048  1.00  0.00     0.031 C 
ATOM     34  C   UNL     1       2.840  -1.857 -10.726  1.00  0.00     0.029 A 
ATOM     35  N   UNL     1       1.473  -3.284 -11.777  1.00  0.00    -0.354 N 
ATOM     36  C   UNL     1      -0.069  -6.783  -9.729  1.00  0.00     0.074 A 
ATOM     37  C   UNL     1       0.326  -6.769  -8.335  1.00  0.00     0.031 C 
ATOM     38  C   UNL     1       2.685  -1.415 -11.984  1.00  0.00     0.029 A 
ATOM     39  C   UNL     1       1.861  -2.366 -12.724  1.00  0.00     0.049 A 
ATOM     40  H   UNL     1       0.829  -4.006 -11.957  1.00  0.00     0.167 HD
ATOM     41  C   UNL     1      -0.858  -7.728 -10.300  1.00  0.00     0.034 A 
ATOM     42  C   UNL     1       1.631  -2.326 -14.051  1.00  0.00     0.034 A 
ATOM     43  C   UNL     1      -1.250  -7.709 -11.689  1.00  0.00     0.049 A 
ATOM     44  C   UNL     1       0.799  -3.410 -14.680  1.00  0.00     0.074 A 
ATOM     45  C   UNL     1      -2.081  -8.585 -12.366  1.00  0.00     0.029 A 
ATOM     46  N   UNL     1      -0.828  -6.767 -12.621  1.00  0.00    -0.354 N 
ATOM     47  N   UNL     1       0.260  -4.466 -14.116  1.00  0.00    -0.248 NA
ATOM     48  C   UNL     1       0.548  -3.300 -16.122  1.00  0.00     0.031 C 
ATOM     49  C   UNL     1      -2.110  -8.211 -13.715  1.00  0.00     0.029 A 
ATOM     50  C   UNL     1      -1.352  -7.061 -13.870  1.00  0.00     0.049 A 
ATOM     51  H   UNL     1      -0.242  -6.001 -12.422  1.00  0.00     0.167 HD
ATOM     52  C   UNL     1      -0.408  -5.140 -15.133  1.00  0.00     0.074 A 
ATOM     53  C   UNL     1      -0.210  -4.366 -16.343  1.00  0.00     0.031 C 
ATOM     54  C   UNL     1      -1.127  -6.290 -15.071  1.00  0.00     0.034 A 
BRANCH  41  55
ATOM     55  C   UNL     1      -1.283  -8.889  -9.433  1.00  0.00     0.023 A 
ATOM     56  C   UNL     1      -2.100  -8.717  -8.302  1.00  0.00     0.031 A 
ATOM     57  C   UNL     1      -0.811 -10.184  -9.712  1.00  0.00     0.131 A 
ATOM     58  C   UNL     1      -2.348  -9.802  -7.446  1.00  0.00     0.055 A 
ATOM     59  C   UNL     1      -1.128 -11.276  -8.901  1.00  0.00     0.041 A 
ATOM     60  F   UNL     1      -0.010 -10.408 -10.766  1.00  0.00    -0.206 F 
ATOM     61  C   UNL     1      -1.886 -11.085  -7.750  1.00  0.00     0.022 A 
BRANCH  58  62
ATOM     62  S   UNL     1      -3.141  -9.480  -5.846  1.00  0.00     0.124 S 
ATOM     63  O   UNL     1      -2.257  -8.465  -5.275  1.00  0.00    -0.237 OA
ATOM     64  O   UNL     1      -4.469  -9.024  -6.239  1.00  0.00    -0.237 OA
ATOM     65  O   UNL     1      -3.098 -10.778  -5.175  1.00  0.00    -0.744 OA
ENDBRANCH  58  62
ENDBRANCH  41  55
BRANCH  42  66
ATOM     66  C   UNL     1       2.269  -1.265 -14.876  1.00  0.00     0.023 A 
ATOM     67  C   UNL     1       1.512  -0.247 -15.473  1.00  0.00     0.031 A 
ATOM     68  C   UNL     1       3.664  -1.254 -15.065  1.00  0.00     0.131 A 
ATOM     69  C   UNL     1       2.153   0.732 -16.249  1.00  0.00     0.055 A 
ATOM     70  C   UNL     1       4.300  -0.257 -15.803  1.00  0.00     0.041 A 
ATOM     71  F   UNL     1       4.431  -2.204 -14.507  1.00  0.00    -0.206 F 
ATOM     72  C   UNL     1       3.542   0.742 -16.406  1.00  0.00     0.022 A 
BRANCH  69  73
ATOM     73  S   UNL     1       1.140   1.984 -17.082  1.00  0.00     0.124 S 
ATOM     74  O   UNL     1       0.328   1.163 -17.975  1.00  0.00    -0.237 OA
ATOM     75  O   UNL     1       0.437   2.602 -15.963  1.00  0.00    -0.237 OA
ATOM     76  O   UNL     1       2.126   2.837 -17.742  1.00  0.00    -0.744 OA
ENDBRANCH  69  73
ENDBRANCH  42  66
BRANCH  54  77
ATOM     77  C   UNL     1      -1.783  -6.753 -16.345  1.00  0.00     0.023 A 
ATOM     78  C   UNL     1      -1.036  -7.284 -17.411  1.00  0.00     0.031 A 
ATOM     79  C   UNL     1      -3.179  -6.664 -16.490  1.00  0.00     0.131 A 
ATOM     80  C   UNL     1      -1.686  -7.673 -18.592  1.00  0.00     0.055 A 
ATOM     81  C   UNL     1      -3.825  -7.094 -17.649  1.00  0.00     0.041 A 
ATOM     82  F   UNL     1      -3.936  -6.162 -15.502  1.00  0.00    -0.206 F 
ATOM     83  C   UNL     1      -3.077  -7.595 -18.711  1.00  0.00     0.022 A 
BRANCH  80  84
ATOM     84  S   UNL     1      -0.687  -8.234 -19.998  1.00  0.00     0.124 S 
ATOM     85  O   UNL     1       0.102  -7.045 -20.302  1.00  0.00    -0.237 OA
ATOM     86  O   UNL     1       0.048  -9.360 -19.432  1.00  0.00    -0.237 OA
ATOM     87  O   UNL     1      -1.684  -8.590 -21.006  1.00  0.00    -0.744 OA
ENDBRANCH  80  84
ENDBRANCH  54  77
ENDBRANCH  28  29
ENDBRANCH  21  23
ENDBRANCH  20  21
ENDBRANCH   1  20
TORSDOF 16
