REMARK SMILES O=C(CSc1ccc2ccccc2n1)NCc1ccc(C(=O)OCCOC(=O)c2ccc(-c3c4nc(c(-c5cc(S(=O)(=O)[O-])ccc5F)c5ccc([nH]5)c(-c5cc(S(=O)(=O)[O-])ccc5F)c5nc(c(-c6cc(S(=O)(=O)[O-])ccc6F)c6ccc3[nH]6)C=C5)C=C4)cc2)cc1
REMARK SMILES IDX 24 1 23 2 21 3 22 4 20 5 17 6 18 7 93 8 19 9 92 10 16 11
REMARK SMILES IDX 15 12 1 13 2 14 3 16 4 17 5 18 6 19 14 20 7 21 13 22 8 23
REMARK SMILES IDX 12 24 9 25 11 26 10 27 25 28 26 29 27 30 28 31 29 32 30 33
REMARK SMILES IDX 91 34 31 35 90 36 32 37 33 38 34 39 84 40 35 41 89 42 83 43
REMARK SMILES IDX 85 44 36 45 88 46 82 47 81 48 37 50 69 51 49 52 68 53 50 54
REMARK SMILES IDX 53 55 67 56 86 57 51 58 52 59 66 61 87 62 54 63 38 64 39 65
REMARK SMILES IDX 47 66 40 67 46 68 48 69 45 70 41 71 42 72 43 73 44 74 70 75
REMARK SMILES IDX 71 76 79 77 72 78 78 79 80 80 77 81 73 82 74 83 75 84 76 85
REMARK SMILES IDX 55 86 56 87 64 88 57 89 63 90 65 91 62 92 58 93 59 94 60 95
REMARK SMILES IDX 61 96
REMARK H PARENT 15 15 85 49 53 60
REMARK Flexibility Score: inf
ROOT
ATOM      1  C   UNL     1       3.235   8.307   4.592  1.00  0.00     0.275 C 
ENDROOT
BRANCH   1   2
ATOM      2  O   UNL     1       3.019   7.446   3.455  1.00  0.00    -0.458 OA
BRANCH   2   3
ATOM      3  C   UNL     1       3.731   6.291   3.467  1.00  0.00     0.338 C 
ATOM      4  O   UNL     1       4.564   5.958   4.294  1.00  0.00    -0.246 OA
BRANCH   3   5
ATOM      5  C   UNL     1       3.296   5.399   2.370  1.00  0.00     0.060 A 
ATOM      6  C   UNL     1       2.565   3.596   0.343  1.00  0.00    -0.029 A 
ATOM      7  C   UNL     1       2.829   3.140   1.640  1.00  0.00     0.006 A 
ATOM      8  C   UNL     1       2.634   4.976   0.083  1.00  0.00     0.006 A 
ATOM      9  C   UNL     1       3.234   4.028   2.630  1.00  0.00     0.016 A 
ATOM     10  C   UNL     1       2.987   5.878   1.095  1.00  0.00     0.016 A 
BRANCH   6  11
ATOM     11  C   UNL     1       2.168   2.626  -0.742  1.00  0.00     0.151 C 
BRANCH  11  12
ATOM     12  N   UNL     1       2.801   1.336  -0.567  1.00  0.00    -0.351 N 
ATOM     13  O   UNL     1       0.871   0.116  -0.703  1.00  0.00    -0.274 OA
ATOM     14  C   UNL     1       2.087   0.156  -0.552  1.00  0.00     0.230 C 
ATOM     15  H   UNL     1       3.779   1.300  -0.455  1.00  0.00     0.163 HD
BRANCH  14  16
ATOM     16  C   UNL     1       2.928  -1.092  -0.327  1.00  0.00     0.176 C 
BRANCH  16  17
ATOM     17  S   UNL     1       4.222  -1.243  -1.608  1.00  0.00    -0.096 SA
BRANCH  17  18
ATOM     18  C   UNL     1       3.164  -1.370  -3.033  1.00  0.00     0.097 A 
ATOM     19  C   UNL     1       2.745  -0.221  -3.689  1.00  0.00     0.036 A 
ATOM     20  N   UNL     1       2.813  -2.612  -3.422  1.00  0.00    -0.241 NA
ATOM     21  C   UNL     1       1.886  -0.350  -4.771  1.00  0.00     0.013 A 
ATOM     22  C   UNL     1       1.995  -2.738  -4.482  1.00  0.00     0.072 A 
ATOM     23  C   UNL     1       1.495  -1.624  -5.190  1.00  0.00     0.000 A 
ATOM     24  C   UNL     1       1.620  -4.004  -4.911  1.00  0.00     0.029 A 
ATOM     25  C   UNL     1       0.636  -1.802  -6.287  1.00  0.00     0.010 A 
ATOM     26  C   UNL     1       0.773  -4.187  -6.010  1.00  0.00     0.002 A 
ATOM     27  C   UNL     1       0.278  -3.084  -6.697  1.00  0.00     0.001 A 
ENDBRANCH  17  18
ENDBRANCH  16  17
ENDBRANCH  14  16
ENDBRANCH  11  12
ENDBRANCH   6  11
ENDBRANCH   3   5
ENDBRANCH   2   3
ENDBRANCH   1   2
BRANCH   1  28
ATOM     28  C   UNL     1       2.142   8.101   5.641  1.00  0.00     0.275 C 
BRANCH  28  29
ATOM     29  O   UNL     1       2.196   6.752   6.133  1.00  0.00    -0.458 OA
BRANCH  29  30
ATOM     30  C   UNL     1       1.003   6.197   6.458  1.00  0.00     0.338 C 
ATOM     31  O   UNL     1      -0.080   6.756   6.459  1.00  0.00    -0.246 OA
BRANCH  30  32
ATOM     32  C   UNL     1       1.191   4.773   6.828  1.00  0.00     0.060 A 
ATOM     33  C   UNL     1       2.116   3.979   6.152  1.00  0.00     0.016 A 
ATOM     34  C   UNL     1       0.374   4.195   7.798  1.00  0.00     0.016 A 
ATOM     35  C   UNL     1       2.154   2.598   6.363  1.00  0.00     0.010 A 
ATOM     36  C   UNL     1       0.492   2.828   8.087  1.00  0.00     0.010 A 
ATOM     37  C   UNL     1       1.350   1.997   7.342  1.00  0.00    -0.014 A 
BRANCH  37  38
ATOM     38  C   UNL     1       1.353   0.511   7.544  1.00  0.00     0.031 A 
ATOM     39  C   UNL     1       0.056  -0.264   7.475  1.00  0.00     0.074 A 
ATOM     40  C   UNL     1       2.500  -0.164   7.776  1.00  0.00     0.049 A 
ATOM     41  N   UNL     1      -0.195  -1.502   7.823  1.00  0.00    -0.248 NA
ATOM     42  C   UNL     1      -1.119   0.463   6.973  1.00  0.00     0.031 C 
ATOM     43  C   UNL     1       3.838   0.427   7.836  1.00  0.00     0.029 A 
ATOM     44  N   UNL     1       2.725  -1.503   7.996  1.00  0.00    -0.354 N 
ATOM     45  C   UNL     1      -1.567  -1.677   7.656  1.00  0.00     0.074 A 
ATOM     46  C   UNL     1      -2.091  -0.413   7.181  1.00  0.00     0.031 C 
ATOM     47  C   UNL     1       4.744  -0.546   8.021  1.00  0.00     0.029 A 
ATOM     48  C   UNL     1       4.051  -1.818   8.196  1.00  0.00     0.049 A 
ATOM     49  H   UNL     1       2.005  -2.174   8.010  1.00  0.00     0.167 HD
ATOM     50  C   UNL     1      -2.320  -2.785   7.878  1.00  0.00     0.034 A 
ATOM     51  C   UNL     1       4.646  -2.982   8.528  1.00  0.00     0.034 A 
ATOM     52  C   UNL     1      -1.779  -4.063   8.278  1.00  0.00     0.049 A 
ATOM     53  C   UNL     1       3.794  -4.200   8.769  1.00  0.00     0.074 A 
ATOM     54  C   UNL     1      -2.451  -5.254   8.501  1.00  0.00     0.029 A 
ATOM     55  N   UNL     1      -0.433  -4.326   8.494  1.00  0.00    -0.354 N 
ATOM     56  N   UNL     1       2.490  -4.323   8.693  1.00  0.00    -0.248 NA
ATOM     57  C   UNL     1       4.495  -5.430   9.162  1.00  0.00     0.031 C 
ATOM     58  C   UNL     1      -1.520  -6.221   8.898  1.00  0.00     0.029 A 
ATOM     59  C   UNL     1      -0.258  -5.652   8.863  1.00  0.00     0.049 A 
ATOM     60  H   UNL     1       0.292  -3.667   8.399  1.00  0.00     0.167 HD
ATOM     61  C   UNL     1       2.216  -5.645   9.031  1.00  0.00     0.074 A 
ATOM     62  C   UNL     1       3.491  -6.286   9.278  1.00  0.00     0.031 C 
ATOM     63  C   UNL     1       1.017  -6.272   9.134  1.00  0.00     0.034 A 
BRANCH  50  64
ATOM     64  C   UNL     1      -3.820  -2.645   7.755  1.00  0.00     0.023 A 
ATOM     65  C   UNL     1      -4.454  -2.362   6.533  1.00  0.00     0.031 A 
ATOM     66  C   UNL     1      -4.629  -2.770   8.900  1.00  0.00     0.131 A 
ATOM     67  C   UNL     1      -5.840  -2.143   6.498  1.00  0.00     0.055 A 
ATOM     68  C   UNL     1      -6.017  -2.629   8.845  1.00  0.00     0.041 A 
ATOM     69  F   UNL     1      -4.080  -3.022  10.100  1.00  0.00    -0.206 F 
ATOM     70  C   UNL     1      -6.629  -2.298   7.641  1.00  0.00     0.022 A 
BRANCH  67  71
ATOM     71  S   UNL     1      -6.583  -1.512   4.967  1.00  0.00     0.124 S 
ATOM     72  O   UNL     1      -5.846  -0.266   4.774  1.00  0.00    -0.237 OA
ATOM     73  O   UNL     1      -6.298  -2.580   4.016  1.00  0.00    -0.237 OA
ATOM     74  O   UNL     1      -7.993  -1.345   5.313  1.00  0.00    -0.744 OA
ENDBRANCH  67  71
ENDBRANCH  50  64
BRANCH  51  75
ATOM     75  C   UNL     1       6.123  -3.042   8.729  1.00  0.00     0.023 A 
ATOM     76  C   UNL     1       6.940  -3.817   7.891  1.00  0.00     0.031 A 
ATOM     77  C   UNL     1       6.735  -2.348   9.789  1.00  0.00     0.131 A 
ATOM     78  C   UNL     1       8.319  -3.903   8.143  1.00  0.00     0.055 A 
ATOM     79  C   UNL     1       8.113  -2.395  10.004  1.00  0.00     0.041 A 
ATOM     80  F   UNL     1       5.999  -1.595  10.622  1.00  0.00    -0.206 F 
ATOM     81  C   UNL     1       8.912  -3.184   9.184  1.00  0.00     0.022 A 
BRANCH  78  82
ATOM     82  S   UNL     1       9.322  -5.024   7.130  1.00  0.00     0.124 S 
ATOM     83  O   UNL     1       8.683  -6.310   7.387  1.00  0.00    -0.237 OA
ATOM     84  O   UNL     1       9.138  -4.471   5.793  1.00  0.00    -0.237 OA
ATOM     85  O   UNL     1      10.666  -4.873   7.684  1.00  0.00    -0.744 OA
ENDBRANCH  78  82
ENDBRANCH  51  75
BRANCH  63  86
ATOM     86  C   UNL     1       1.046  -7.732   9.511  1.00  0.00     0.023 A 
ATOM     87  C   UNL     1       1.431  -8.151  10.797  1.00  0.00     0.031 A 
ATOM     88  C   UNL     1       0.720  -8.716   8.562  1.00  0.00     0.131 A 
ATOM     89  C   UNL     1       1.535  -9.521  11.083  1.00  0.00     0.055 A 
ATOM     90  C   UNL     1       0.776 -10.076   8.867  1.00  0.00     0.041 A 
ATOM     91  F   UNL     1       0.348  -8.370   7.319  1.00  0.00    -0.206 F 
ATOM     92  C   UNL     1       1.198 -10.486  10.130  1.00  0.00     0.022 A 
BRANCH  89  93
ATOM     93  S   UNL     1       2.203 -10.028  12.691  1.00  0.00     0.124 S 
ATOM     94  O   UNL     1       3.520  -9.399  12.685  1.00  0.00    -0.237 OA
ATOM     95  O   UNL     1       1.232  -9.466  13.624  1.00  0.00    -0.237 OA
ATOM     96  O   UNL     1       2.214 -11.488  12.614  1.00  0.00    -0.744 OA
ENDBRANCH  89  93
ENDBRANCH  63  86
ENDBRANCH  37  38
ENDBRANCH  30  32
ENDBRANCH  29  30
ENDBRANCH  28  29
ENDBRANCH   1  28
TORSDOF 19
