REMARK SMILES CNC(=O)c1ccc(NC(=O)CC2(CC(=O)OCCOC(=O)c3ccc(-c4c5nc(c(-c6cc(S(=O)(=O)[O-])ccc6F)c6ccc([nH]6)c(-c6cc(S(=O)(=O)[O-])ccc6F)c6nc(c(-c7cc(S(=O)(=O)[O-])ccc7F)c7ccc4[nH]7)C=C6)C=C5)cc3)CCCCC2)cc1Cl
REMARK SMILES IDX 18 1 17 2 15 3 16 4 14 5 13 6 86 7 90 8 87 9 89 10 88 11
REMARK SMILES IDX 12 12 10 13 9 14 11 16 8 17 5 18 6 19 92 20 7 21 91 22 93 23
REMARK SMILES IDX 3 24 1 25 2 26 4 28 19 29 20 30 21 31 22 32 23 33 24 34
REMARK SMILES IDX 85 35 25 36 84 37 26 38 27 39 28 40 78 41 29 42 83 43 77 44
REMARK SMILES IDX 79 45 30 46 82 47 76 48 75 49 31 51 63 52 43 53 62 54 44 55
REMARK SMILES IDX 47 56 61 57 80 58 45 59 46 60 60 62 81 63 48 64 32 65 33 66
REMARK SMILES IDX 41 67 34 68 40 69 42 70 39 71 35 72 36 73 37 74 38 75 64 76
REMARK SMILES IDX 65 77 73 78 66 79 72 80 74 81 71 82 67 83 68 84 69 85 70 86
REMARK SMILES IDX 49 87 50 88 58 89 51 90 57 91 59 92 56 93 52 94 53 95 54 96
REMARK SMILES IDX 55 97
REMARK H PARENT 9 15 2 27 79 50 47 61
REMARK Flexibility Score: inf
ROOT
ATOM      1  C   UNL     1       1.302  -4.785  -0.951  1.00  0.00     0.274 C 
ENDROOT
BRANCH   1   2
ATOM      2  O   UNL     1       0.096  -5.406  -0.424  1.00  0.00    -0.462 OA
BRANCH   2   3
ATOM      3  C   UNL     1      -0.877  -5.726  -1.299  1.00  0.00     0.306 C 
ATOM      4  O   UNL     1      -0.702  -5.665  -2.513  1.00  0.00    -0.252 OA
BRANCH   3   5
ATOM      5  C   UNL     1      -2.164  -6.323  -0.697  1.00  0.00     0.130 C 
BRANCH   5   6
ATOM      6  C   UNL     1      -3.003  -6.011   0.631  1.00  0.00    -0.011 C 
ATOM      7  C   UNL     1      -4.112  -7.147   0.641  1.00  0.00     0.008 C 
ATOM      8  C   UNL     1      -3.846  -4.709   0.630  1.00  0.00     0.008 C 
ATOM      9  C   UNL     1      -5.123  -7.051  -0.517  1.00  0.00     0.001 C 
ATOM     10  C   UNL     1      -4.799  -4.545  -0.542  1.00  0.00     0.001 C 
ATOM     11  C   UNL     1      -5.796  -5.686  -0.602  1.00  0.00     0.000 C 
BRANCH   6  12
ATOM     12  C   UNL     1      -2.158  -6.173   1.955  1.00  0.00     0.108 C 
BRANCH  12  13
ATOM     13  C   UNL     1      -2.340  -5.267   3.214  1.00  0.00     0.224 C 
ATOM     14  N   UNL     1      -2.031  -3.931   3.335  1.00  0.00    -0.326 N 
ATOM     15  H   UNL     1      -2.164  -3.580   4.245  1.00  0.00     0.169 HD
ATOM     16  O   UNL     1      -2.812  -5.781   4.241  1.00  0.00    -0.275 OA
BRANCH  14  17
ATOM     17  C   UNL     1      -1.563  -2.965   2.429  1.00  0.00     0.042 A 
ATOM     18  C   UNL     1      -1.114  -1.123   0.357  1.00  0.00     0.058 A 
ATOM     19  C   UNL     1      -0.936  -2.474   0.146  1.00  0.00     0.017 A 
ATOM     20  C   UNL     1      -1.451  -0.667   1.631  1.00  0.00     0.055 A 
ATOM     21  C   UNL     1      -1.061  -3.348   1.212  1.00  0.00     0.027 A 
ATOM     22  C   UNL     1      -1.691  -1.595   2.671  1.00  0.00     0.047 A 
ATOM     23  Cl  UNL     1      -1.622   1.016   1.960  1.00  0.00    -0.083 Cl
BRANCH  18  24
ATOM     24  C   UNL     1      -0.869  -0.305  -0.838  1.00  0.00     0.252 C 
ATOM     25  C   UNL     1       1.454   0.287  -0.048  1.00  0.00     0.143 C 
ATOM     26  N   UNL     1       0.377   0.239  -1.007  1.00  0.00    -0.355 N 
ATOM     27  H   UNL     1       0.558   0.644  -1.886  1.00  0.00     0.163 HD
ATOM     28  O   UNL     1      -1.711  -0.262  -1.728  1.00  0.00    -0.269 OA
ENDBRANCH  18  24
ENDBRANCH  14  17
ENDBRANCH  12  13
ENDBRANCH   6  12
ENDBRANCH   5   6
ENDBRANCH   3   5
ENDBRANCH   2   3
ENDBRANCH   1   2
BRANCH   1  29
ATOM     29  C   UNL     1       2.296  -4.569   0.197  1.00  0.00     0.275 C 
BRANCH  29  30
ATOM     30  O   UNL     1       2.725  -5.859   0.648  1.00  0.00    -0.458 OA
BRANCH  30  31
ATOM     31  C   UNL     1       1.908  -6.419   1.570  1.00  0.00     0.338 C 
ATOM     32  O   UNL     1       1.133  -5.849   2.323  1.00  0.00    -0.246 OA
BRANCH  31  33
ATOM     33  C   UNL     1       1.946  -7.862   1.332  1.00  0.00     0.060 A 
ATOM     34  C   UNL     1       0.910  -8.465   0.607  1.00  0.00     0.016 A 
ATOM     35  C   UNL     1       3.037  -8.595   1.781  1.00  0.00     0.016 A 
ATOM     36  C   UNL     1       0.959  -9.825   0.329  1.00  0.00     0.010 A 
ATOM     37  C   UNL     1       3.092  -9.952   1.488  1.00  0.00     0.010 A 
ATOM     38  C   UNL     1       2.055 -10.573   0.767  1.00  0.00    -0.014 A 
BRANCH  38  39
ATOM     39  C   UNL     1       2.128 -12.030   0.532  1.00  0.00     0.031 A 
ATOM     40  C   UNL     1       2.015 -12.951   1.707  1.00  0.00     0.074 A 
ATOM     41  C   UNL     1       2.375 -12.494  -0.706  1.00  0.00     0.049 A 
ATOM     42  N   UNL     1       2.290 -14.223   1.792  1.00  0.00    -0.248 NA
ATOM     43  C   UNL     1       1.556 -12.341   2.964  1.00  0.00     0.031 C 
ATOM     44  C   UNL     1       2.454 -11.673  -1.915  1.00  0.00     0.029 A 
ATOM     45  N   UNL     1       2.635 -13.765  -1.145  1.00  0.00    -0.354 N 
ATOM     46  C   UNL     1       2.071 -14.565   3.122  1.00  0.00     0.074 A 
ATOM     47  C   UNL     1       1.672 -13.354   3.809  1.00  0.00     0.031 C 
ATOM     48  C   UNL     1       2.757 -12.461  -2.959  1.00  0.00     0.029 A 
ATOM     49  C   UNL     1       2.965 -13.823  -2.479  1.00  0.00     0.049 A 
ATOM     50  H   UNL     1       2.591 -14.558  -0.564  1.00  0.00     0.167 HD
ATOM     51  C   UNL     1       2.199 -15.781   3.706  1.00  0.00     0.034 A 
ATOM     52  C   UNL     1       3.431 -14.851  -3.214  1.00  0.00     0.034 A 
ATOM     53  C   UNL     1       2.611 -16.959   2.981  1.00  0.00     0.049 A 
ATOM     54  C   UNL     1       3.638 -16.178  -2.530  1.00  0.00     0.074 A 
ATOM     55  C   UNL     1       2.769 -18.251   3.448  1.00  0.00     0.029 A 
ATOM     56  N   UNL     1       2.943 -16.983   1.629  1.00  0.00    -0.354 N 
ATOM     57  N   UNL     1       3.446 -16.497  -1.269  1.00  0.00    -0.248 NA
ATOM     58  C   UNL     1       4.120 -17.284  -3.365  1.00  0.00     0.031 C 
ATOM     59  C   UNL     1       3.269 -19.035   2.403  1.00  0.00     0.029 A 
ATOM     60  C   UNL     1       3.336 -18.259   1.256  1.00  0.00     0.049 A 
ATOM     61  H   UNL     1       2.904 -16.207   1.026  1.00  0.00     0.167 HD
ATOM     62  C   UNL     1       3.752 -17.850  -1.167  1.00  0.00     0.074 A 
ATOM     63  C   UNL     1       4.130 -18.286  -2.498  1.00  0.00     0.031 C 
ATOM     64  C   UNL     1       3.718 -18.663  -0.079  1.00  0.00     0.034 A 
BRANCH  51  65
ATOM     65  C   UNL     1       1.955 -15.866   5.194  1.00  0.00     0.023 A 
ATOM     66  C   UNL     1       0.712 -15.538   5.765  1.00  0.00     0.031 A 
ATOM     67  C   UNL     1       3.000 -16.224   6.065  1.00  0.00     0.131 A 
ATOM     68  C   UNL     1       0.572 -15.487   7.160  1.00  0.00     0.055 A 
ATOM     69  C   UNL     1       2.827 -16.261   7.451  1.00  0.00     0.041 A 
ATOM     70  F   UNL     1       4.218 -16.521   5.587  1.00  0.00    -0.206 F 
ATOM     71  C   UNL     1       1.612 -15.873   8.007  1.00  0.00     0.022 A 
BRANCH  68  72
ATOM     72  S   UNL     1      -0.932 -14.743   7.852  1.00  0.00     0.124 S 
ATOM     73  O   UNL     1      -0.899 -13.409   7.258  1.00  0.00    -0.237 OA
ATOM     74  O   UNL     1      -1.978 -15.634   7.363  1.00  0.00    -0.237 OA
ATOM     75  O   UNL     1      -0.701 -14.781   9.294  1.00  0.00    -0.744 OA
ENDBRANCH  68  72
ENDBRANCH  51  65
BRANCH  52  76
ATOM     76  C   UNL     1       3.769 -14.657  -4.653  1.00  0.00     0.023 A 
ATOM     77  C   UNL     1       3.071 -15.345  -5.657  1.00  0.00     0.031 A 
ATOM     78  C   UNL     1       4.807 -13.794  -5.049  1.00  0.00     0.131 A 
ATOM     79  C   UNL     1       3.441 -15.189  -7.001  1.00  0.00     0.055 A 
ATOM     80  C   UNL     1       5.134 -13.597  -6.392  1.00  0.00     0.041 A 
ATOM     81  F   UNL     1       5.509 -13.109  -4.131  1.00  0.00    -0.206 F 
ATOM     82  C   UNL     1       4.456 -14.307  -7.377  1.00  0.00     0.022 A 
BRANCH  79  83
ATOM     83  S   UNL     1       2.627 -16.221  -8.250  1.00  0.00     0.124 S 
ATOM     84  O   UNL     1       2.930 -17.564  -7.769  1.00  0.00    -0.237 OA
ATOM     85  O   UNL     1       1.236 -15.796  -8.133  1.00  0.00    -0.237 OA
ATOM     86  O   UNL     1       3.291 -15.838  -9.494  1.00  0.00    -0.744 OA
ENDBRANCH  79  83
ENDBRANCH  52  76
BRANCH  64  87
ATOM     87  C   UNL     1       4.046 -20.119  -0.306  1.00  0.00     0.023 A 
ATOM     88  C   UNL     1       5.329 -20.541  -0.692  1.00  0.00     0.031 A 
ATOM     89  C   UNL     1       3.049 -21.097  -0.139  1.00  0.00     0.131 A 
ATOM     90  C   UNL     1       5.566 -21.898  -0.957  1.00  0.00     0.055 A 
ATOM     91  C   UNL     1       3.310 -22.453  -0.334  1.00  0.00     0.041 A 
ATOM     92  F   UNL     1       1.803 -20.749   0.223  1.00  0.00    -0.206 F 
ATOM     93  C   UNL     1       4.571 -22.859  -0.759  1.00  0.00     0.022 A 
BRANCH  90  94
ATOM     94  S   UNL     1       7.164 -22.378  -1.667  1.00  0.00     0.124 S 
ATOM     95  O   UNL     1       7.199 -21.587  -2.893  1.00  0.00    -0.237 OA
ATOM     96  O   UNL     1       8.103 -21.980  -0.624  1.00  0.00    -0.237 OA
ATOM     97  O   UNL     1       7.031 -23.821  -1.864  1.00  0.00    -0.744 OA
ENDBRANCH  90  94
ENDBRANCH  64  87
ENDBRANCH  38  39
ENDBRANCH  31  33
ENDBRANCH  30  31
ENDBRANCH  29  30
ENDBRANCH   1  29
TORSDOF 19
