REMARK SMILES O=C(OCCOC(=O)c1cc(NC(=S)NC(=O)c2ccccc2F)ccc1Cl)c1ccc(-c2c3nc(c(-c4cc(S(=O)(=O)[O-])ccc4F)c4ccc([nH]4)c(-c4cc(S(=O)(=O)[O-])ccc4F)c4nc(c(-c5cc(S(=O)(=O)[O-])ccc5F)c5ccc2[nH]5)C=C4)C=C3)cc1
REMARK SMILES IDX 5 1 4 2 3 3 2 4 1 5 29 6 30 7 91 8 31 9 90 10 32 11 33 12
REMARK SMILES IDX 34 13 84 14 35 15 89 16 83 17 85 18 36 19 88 20 82 21 81 22
REMARK SMILES IDX 37 24 69 25 49 26 68 27 50 28 53 29 67 30 86 31 51 32 52 33
REMARK SMILES IDX 66 35 87 36 54 37 38 38 39 39 47 40 40 41 46 42 48 43 45 44
REMARK SMILES IDX 41 45 42 46 43 47 44 48 70 49 71 50 79 51 72 52 78 53 80 54
REMARK SMILES IDX 77 55 73 56 74 57 75 58 76 59 55 60 56 61 64 62 57 63 63 64
REMARK SMILES IDX 65 65 62 66 58 67 59 68 60 69 61 70 6 71 7 72 8 73 9 74
REMARK SMILES IDX 10 75 27 76 11 77 26 78 28 79 25 80 12 81 13 83 14 84 15 85
REMARK SMILES IDX 16 86 17 88 18 89 19 90 23 91 20 92 22 93 24 94 21 95
REMARK H PARENT 85 23 53 34 12 82 15 87
REMARK Flexibility Score: inf
ROOT
ATOM      1  C   UNL     1       3.035   1.676   1.141  1.00  0.00     0.275 C 
ENDROOT
BRANCH   1   2
ATOM      2  C   UNL     1       4.386   1.687   0.421  1.00  0.00     0.275 C 
BRANCH   2   3
ATOM      3  O   UNL     1       4.292   1.288  -0.964  1.00  0.00    -0.458 OA
BRANCH   3   4
ATOM      4  C   UNL     1       3.941   0.030  -1.324  1.00  0.00     0.338 C 
ATOM      5  O   UNL     1       3.159  -0.179  -2.242  1.00  0.00    -0.246 OA
BRANCH   4   6
ATOM      6  C   UNL     1       4.596  -1.095  -0.612  1.00  0.00     0.060 A 
ATOM      7  C   UNL     1       5.922  -1.038  -0.165  1.00  0.00     0.016 A 
ATOM      8  C   UNL     1       3.864  -2.272  -0.451  1.00  0.00     0.016 A 
ATOM      9  C   UNL     1       6.482  -2.124   0.518  1.00  0.00     0.010 A 
ATOM     10  C   UNL     1       4.430  -3.354   0.221  1.00  0.00     0.010 A 
ATOM     11  C   UNL     1       5.733  -3.286   0.727  1.00  0.00    -0.014 A 
BRANCH  11  12
ATOM     12  C   UNL     1       6.304  -4.465   1.420  1.00  0.00     0.031 A 
ATOM     13  C   UNL     1       6.689  -5.678   0.631  1.00  0.00     0.074 A 
ATOM     14  C   UNL     1       6.408  -4.486   2.761  1.00  0.00     0.049 A 
ATOM     15  N   UNL     1       7.295  -6.762   1.041  1.00  0.00    -0.248 NA
ATOM     16  C   UNL     1       6.347  -5.674  -0.798  1.00  0.00     0.031 C 
ATOM     17  C   UNL     1       6.014  -3.398   3.651  1.00  0.00     0.029 A 
ATOM     18  N   UNL     1       6.846  -5.467   3.613  1.00  0.00    -0.354 N 
ATOM     19  C   UNL     1       7.488  -7.528  -0.099  1.00  0.00     0.074 A 
ATOM     20  C   UNL     1       6.805  -6.855  -1.183  1.00  0.00     0.031 C 
ATOM     21  C   UNL     1       6.163  -3.792   4.927  1.00  0.00     0.029 A 
ATOM     22  C   UNL     1       6.714  -5.144   4.941  1.00  0.00     0.049 A 
ATOM     23  H   UNL     1       7.220  -6.323   3.301  1.00  0.00     0.167 HD
ATOM     24  C   UNL     1       8.241  -8.645  -0.244  1.00  0.00     0.034 A 
ATOM     25  C   UNL     1       7.027  -5.848   6.046  1.00  0.00     0.034 A 
ATOM     26  C   UNL     1       8.878  -9.328   0.848  1.00  0.00     0.049 A 
ATOM     27  C   UNL     1       7.755  -7.154   5.896  1.00  0.00     0.074 A 
ATOM     28  C   UNL     1       9.718 -10.427   0.817  1.00  0.00     0.029 A 
ATOM     29  N   UNL     1       8.716  -8.987   2.184  1.00  0.00    -0.354 N 
ATOM     30  N   UNL     1       8.069  -7.796   4.795  1.00  0.00    -0.248 NA
ATOM     31  C   UNL     1       8.225  -7.801   7.128  1.00  0.00     0.031 C 
ATOM     32  C   UNL     1      10.030 -10.774   2.139  1.00  0.00     0.029 A 
ATOM     33  C   UNL     1       9.415  -9.868   2.990  1.00  0.00     0.049 A 
ATOM     34  H   UNL     1       8.181  -8.228   2.511  1.00  0.00     0.167 HD
ATOM     35  C   UNL     1       8.833  -8.886   5.197  1.00  0.00     0.074 A 
ATOM     36  C   UNL     1       8.893  -8.842   6.645  1.00  0.00     0.031 C 
ATOM     37  C   UNL     1       9.463  -9.811   4.431  1.00  0.00     0.034 A 
BRANCH  24  38
ATOM     38  C   UNL     1       8.429  -9.133  -1.654  1.00  0.00     0.023 A 
ATOM     39  C   UNL     1       9.110  -8.332  -2.590  1.00  0.00     0.031 A 
ATOM     40  C   UNL     1       7.868 -10.340  -2.095  1.00  0.00     0.131 A 
ATOM     41  C   UNL     1       9.128  -8.698  -3.941  1.00  0.00     0.055 A 
ATOM     42  C   UNL     1       7.955 -10.736  -3.432  1.00  0.00     0.041 A 
ATOM     43  F   UNL     1       7.195 -11.132  -1.246  1.00  0.00    -0.206 F 
ATOM     44  C   UNL     1       8.571  -9.905  -4.367  1.00  0.00     0.022 A 
BRANCH  41  45
ATOM     45  S   UNL     1       9.763  -7.502  -5.147  1.00  0.00     0.124 S 
ATOM     46  O   UNL     1       8.798  -6.414  -5.018  1.00  0.00    -0.237 OA
ATOM     47  O   UNL     1      11.105  -7.227  -4.646  1.00  0.00    -0.237 OA
ATOM     48  O   UNL     1       9.708  -8.232  -6.412  1.00  0.00    -0.744 OA
ENDBRANCH  41  45
ENDBRANCH  24  38
BRANCH  25  49
ATOM     49  C   UNL     1       6.690  -5.299   7.383  1.00  0.00     0.023 A 
ATOM     50  C   UNL     1       7.653  -4.654   8.171  1.00  0.00     0.031 A 
ATOM     51  C   UNL     1       5.374  -5.385   7.870  1.00  0.00     0.131 A 
ATOM     52  C   UNL     1       7.289  -4.131   9.421  1.00  0.00     0.055 A 
ATOM     53  C   UNL     1       5.015  -4.855   9.110  1.00  0.00     0.041 A 
ATOM     54  F   UNL     1       4.414  -5.966   7.132  1.00  0.00    -0.206 F 
ATOM     55  C   UNL     1       5.976  -4.225   9.895  1.00  0.00     0.022 A 
BRANCH  52  56
ATOM     56  S   UNL     1       8.555  -3.301  10.421  1.00  0.00     0.124 S 
ATOM     57  O   UNL     1       9.455  -4.404  10.735  1.00  0.00    -0.237 OA
ATOM     58  O   UNL     1       9.064  -2.298   9.493  1.00  0.00    -0.237 OA
ATOM     59  O   UNL     1       7.797  -2.769  11.552  1.00  0.00    -0.744 OA
ENDBRANCH  52  56
ENDBRANCH  25  49
BRANCH  37  60
ATOM     60  C   UNL     1      10.332 -10.813   5.137  1.00  0.00     0.023 A 
ATOM     61  C   UNL     1       9.788 -11.922   5.802  1.00  0.00     0.031 A 
ATOM     62  C   UNL     1      11.731 -10.672   5.095  1.00  0.00     0.131 A 
ATOM     63  C   UNL     1      10.645 -12.845   6.420  1.00  0.00     0.055 A 
ATOM     64  C   UNL     1      12.578 -11.611   5.681  1.00  0.00     0.041 A 
ATOM     65  F   UNL     1      12.292  -9.626   4.466  1.00  0.00    -0.206 F 
ATOM     66  C   UNL     1      12.035 -12.705   6.349  1.00  0.00     0.022 A 
BRANCH  63  67
ATOM     67  S   UNL     1       9.925 -14.246   7.318  1.00  0.00     0.124 S 
ATOM     68  O   UNL     1       9.407 -13.598   8.518  1.00  0.00    -0.237 OA
ATOM     69  O   UNL     1       8.923 -14.748   6.383  1.00  0.00    -0.237 OA
ATOM     70  O   UNL     1      11.066 -15.135   7.534  1.00  0.00    -0.744 OA
ENDBRANCH  63  67
ENDBRANCH  37  60
ENDBRANCH  11  12
ENDBRANCH   4   6
ENDBRANCH   3   4
ENDBRANCH   2   3
ENDBRANCH   1   2
BRANCH   1  71
ATOM     71  O   UNL     1       2.657   0.338   1.528  1.00  0.00    -0.458 OA
BRANCH  71  72
ATOM     72  C   UNL     1       1.798   0.310   2.609  1.00  0.00     0.339 C 
ATOM     73  O   UNL     1       1.312   1.318   3.106  1.00  0.00    -0.246 OA
BRANCH  72  74
ATOM     74  C   UNL     1       1.703  -1.362   3.254  1.00  0.00     0.080 A 
ATOM     75  C   UNL     1       0.024  -2.562   3.301  1.00  0.00     0.043 A 
ATOM     76  C   UNL     1       2.972  -1.321   3.433  1.00  0.00     0.055 A 
ATOM     77  C   UNL     1      -0.725  -3.617   3.465  1.00  0.00     0.041 A 
ATOM     78  C   UNL     1       2.234  -2.307   3.768  1.00  0.00     0.023 A 
ATOM     79  Cl  UNL     1       3.974  -0.394   4.445  1.00  0.00    -0.083 Cl
ATOM     80  C   UNL     1       0.505  -3.396   3.751  1.00  0.00     0.028 A 
BRANCH  77  81
ATOM     81  N   UNL     1      -1.351  -4.195   2.343  1.00  0.00    -0.332 N 
ATOM     82  H   UNL     1      -1.860  -4.999   2.595  1.00  0.00     0.169 HD
BRANCH  81  83
ATOM     83  C   UNL     1      -1.446  -3.952   1.010  1.00  0.00     0.177 C 
ATOM     84  S   UNL     1      -2.286  -5.089   0.102  1.00  0.00    -0.040 S 
BRANCH  83  85
ATOM     85  N   UNL     1      -1.032  -2.819   0.348  1.00  0.00    -0.299 N 
ATOM     86  C   UNL     1      -0.372  -1.619   0.624  1.00  0.00     0.260 C 
ATOM     87  H   UNL     1      -1.272  -2.869  -0.605  1.00  0.00     0.172 HD
ATOM     88  O   UNL     1      -0.564  -0.586   0.001  1.00  0.00    -0.269 OA
BRANCH  86  89
ATOM     89  C   UNL     1       0.517  -1.629   1.782  1.00  0.00     0.075 A 
ATOM     90  C   UNL     1      -0.049  -0.729   3.489  1.00  0.00     0.017 A 
ATOM     91  C   UNL     1       1.600  -3.263   1.952  1.00  0.00     0.135 A 
ATOM     92  C   UNL     1       0.581  -1.637   5.120  1.00  0.00     0.001 A 
ATOM     93  C   UNL     1       2.205  -4.179   3.586  1.00  0.00     0.040 A 
ATOM     94  F   UNL     1       1.677  -4.014   0.835  1.00  0.00    -0.206 F 
ATOM     95  C   UNL     1       1.634  -3.287   5.285  1.00  0.00     0.003 A 
ENDBRANCH  86  89
ENDBRANCH  83  85
ENDBRANCH  81  83
ENDBRANCH  77  81
ENDBRANCH  72  74
ENDBRANCH  71  72
ENDBRANCH   1  71
TORSDOF 18
