REMARK SMILES C[N@@H+]1[C@H]2CC[C@@H]1[C@@H](C(=O)OCCOC(=O)c1ccc(-c3c4nc(c(-c5cc(S(=O)(=O)[O-])ccc5F)c5ccc([nH]5)c(-c5cc(S(=O)(=O)[O-])ccc5F)c5nc(c(-c6cc(S(=O)(=O)[O-])ccc6F)c6ccc3[nH]6)C=C5)C=C4)cc1)[C@@H](OC(=O)c1ccccc1)C2
REMARK SMILES IDX 11 1 10 2 8 3 9 4 7 5 1 6 2 7 3 8 6 9 4 11 89 12 5 13 79 14
REMARK SMILES IDX 80 15 81 16 82 17 83 18 84 19 88 20 85 21 87 22 86 23 12 24
REMARK SMILES IDX 13 25 14 26 15 27 16 28 17 29 78 30 18 31 77 32 19 33 20 34
REMARK SMILES IDX 21 35 71 36 22 37 76 38 70 39 72 40 23 41 75 42 69 43 68 44
REMARK SMILES IDX 24 46 56 47 36 48 55 49 37 50 40 51 54 52 73 53 38 54 39 55
REMARK SMILES IDX 53 57 74 58 41 59 25 60 26 61 34 62 27 63 33 64 35 65 32 66
REMARK SMILES IDX 28 67 29 68 30 69 31 70 57 71 58 72 66 73 59 74 65 75 67 76
REMARK SMILES IDX 64 77 60 78 61 79 62 80 63 81 42 82 43 83 51 84 44 85 50 86
REMARK SMILES IDX 52 87 49 88 45 89 46 90 47 91 48 92
REMARK H PARENT 2 10 72 45 40 56
REMARK Flexibility Score: inf
ROOT
ATOM      1  C   UNL     1      -2.900  -3.271   1.335  1.00  0.00     0.274 C 
ENDROOT
BRANCH   1   2
ATOM      2  O   UNL     1      -1.814  -2.586   0.670  1.00  0.00    -0.462 OA
BRANCH   2   3
ATOM      3  C   UNL     1      -1.164  -1.665   1.420  1.00  0.00     0.318 C 
ATOM      4  O   UNL     1      -1.489  -1.380   2.572  1.00  0.00    -0.252 OA
BRANCH   3   5
ATOM      5  C   UNL     1       0.006  -0.972   0.750  1.00  0.00     0.198 C 
ATOM      6  C   UNL     1      -2.410   0.449  -0.638  1.00  0.00     0.333 C 
ATOM      7  N   UNL     1      -1.063   0.966  -0.502  1.00  0.00    -0.332 N 
ATOM      8  C   UNL     1      -0.153   0.707  -1.619  1.00  0.00     0.188 C 
ATOM      9  C   UNL     1      -0.305   0.547   0.686  1.00  0.00     0.202 C 
ATOM     10  H   UNL     1      -1.312   1.953  -0.442  1.00  0.00     0.348 HD
ATOM     11  C   UNL     1       1.096   1.430  -1.095  1.00  0.00     0.071 C 
ATOM     12  C   UNL     1       0.076  -0.804  -1.830  1.00  0.00     0.111 C 
ATOM     13  C   UNL     1       0.977   1.357   0.435  1.00  0.00     0.072 C 
ATOM     14  C   UNL     1       0.623  -1.488  -0.570  1.00  0.00     0.203 C 
BRANCH  14  15
ATOM     15  O   UNL     1       0.868  -2.913  -0.600  1.00  0.00    -0.457 OA
BRANCH  15  16
ATOM     16  C   UNL     1       0.209  -3.788  -1.392  1.00  0.00     0.338 C 
ATOM     17  O   UNL     1      -0.618  -3.525  -2.249  1.00  0.00    -0.246 OA
BRANCH  16  18
ATOM     18  C   UNL     1       0.565  -5.195  -1.033  1.00  0.00     0.060 A 
ATOM     19  C   UNL     1      -0.335  -6.208  -1.395  1.00  0.00     0.015 A 
ATOM     20  C   UNL     1       1.696  -5.526  -0.273  1.00  0.00     0.015 A 
ATOM     21  C   UNL     1      -0.138  -7.520  -0.955  1.00  0.00     0.001 A 
ATOM     22  C   UNL     1       1.882  -6.837   0.179  1.00  0.00     0.001 A 
ATOM     23  C   UNL     1       0.961  -7.829  -0.156  1.00  0.00     0.000 A 
ENDBRANCH  16  18
ENDBRANCH  15  16
ENDBRANCH  14  15
ENDBRANCH   3   5
ENDBRANCH   2   3
ENDBRANCH   1   2
BRANCH   1  24
ATOM     24  C   UNL     1      -2.499  -4.634   1.925  1.00  0.00     0.275 C 
BRANCH  24  25
ATOM     25  O   UNL     1      -1.645  -4.549   3.086  1.00  0.00    -0.458 OA
BRANCH  25  26
ATOM     26  C   UNL     1      -0.347  -4.378   2.771  1.00  0.00     0.338 C 
ATOM     27  O   UNL     1       0.106  -4.246   1.644  1.00  0.00    -0.246 OA
BRANCH  26  28
ATOM     28  C   UNL     1       0.559  -4.263   3.904  1.00  0.00     0.060 A 
ATOM     29  C   UNL     1       1.283  -3.071   4.011  1.00  0.00     0.016 A 
ATOM     30  C   UNL     1       0.883  -5.377   4.677  1.00  0.00     0.016 A 
ATOM     31  C   UNL     1       2.345  -2.984   4.896  1.00  0.00     0.010 A 
ATOM     32  C   UNL     1       1.934  -5.277   5.591  1.00  0.00     0.010 A 
ATOM     33  C   UNL     1       2.665  -4.082   5.702  1.00  0.00    -0.014 A 
BRANCH  33  34
ATOM     34  C   UNL     1       3.716  -3.937   6.730  1.00  0.00     0.031 A 
ATOM     35  C   UNL     1       5.057  -4.576   6.554  1.00  0.00     0.074 A 
ATOM     36  C   UNL     1       3.423  -3.208   7.822  1.00  0.00     0.049 A 
ATOM     37  N   UNL     1       6.043  -4.666   7.407  1.00  0.00    -0.248 NA
ATOM     38  C   UNL     1       5.327  -5.194   5.248  1.00  0.00     0.031 C 
ATOM     39  C   UNL     1       2.159  -2.498   8.041  1.00  0.00     0.029 A 
ATOM     40  N   UNL     1       4.153  -2.946   8.947  1.00  0.00    -0.354 N 
ATOM     41  C   UNL     1       7.052  -5.361   6.751  1.00  0.00     0.074 A 
ATOM     42  C   UNL     1       6.549  -5.679   5.429  1.00  0.00     0.031 C 
ATOM     43  C   UNL     1       2.203  -1.884   9.232  1.00  0.00     0.029 A 
ATOM     44  C   UNL     1       3.463  -2.214   9.884  1.00  0.00     0.049 A 
ATOM     45  H   UNL     1       5.081  -3.250   9.074  1.00  0.00     0.167 HD
ATOM     46  C   UNL     1       8.278  -5.700   7.222  1.00  0.00     0.034 A 
ATOM     47  C   UNL     1       3.792  -1.890  11.147  1.00  0.00     0.034 A 
ATOM     48  C   UNL     1       8.733  -5.381   8.556  1.00  0.00     0.049 A 
ATOM     49  C   UNL     1       5.122  -2.352  11.674  1.00  0.00     0.074 A 
ATOM     50  C   UNL     1       9.937  -5.700   9.162  1.00  0.00     0.029 A 
ATOM     51  N   UNL     1       7.996  -4.668   9.496  1.00  0.00    -0.354 N 
ATOM     52  N   UNL     1       6.047  -3.059  11.066  1.00  0.00    -0.248 NA
ATOM     53  C   UNL     1       5.449  -1.978  13.053  1.00  0.00     0.031 C 
ATOM     54  C   UNL     1       9.905  -5.226  10.480  1.00  0.00     0.029 A 
ATOM     55  C   UNL     1       8.708  -4.556  10.680  1.00  0.00     0.049 A 
ATOM     56  H   UNL     1       7.098  -4.296   9.342  1.00  0.00     0.167 HD
ATOM     57  C   UNL     1       7.077  -3.202  11.987  1.00  0.00     0.074 A 
ATOM     58  C   UNL     1       6.663  -2.492  13.183  1.00  0.00     0.031 C 
ATOM     59  C   UNL     1       8.258  -3.858  11.862  1.00  0.00     0.034 A 
BRANCH  46  60
ATOM     60  C   UNL     1       9.171  -6.508   6.314  1.00  0.00     0.023 A 
ATOM     61  C   UNL     1       9.700  -5.974   5.125  1.00  0.00     0.031 A 
ATOM     62  C   UNL     1       9.479  -7.843   6.629  1.00  0.00     0.131 A 
ATOM     63  C   UNL     1      10.460  -6.788   4.269  1.00  0.00     0.055 A 
ATOM     64  C   UNL     1      10.291  -8.628   5.806  1.00  0.00     0.041 A 
ATOM     65  F   UNL     1       8.984  -8.414   7.738  1.00  0.00    -0.206 F 
ATOM     66  C   UNL     1      10.777  -8.104   4.612  1.00  0.00     0.022 A 
BRANCH  63  67
ATOM     67  S   UNL     1      10.931  -6.139   2.641  1.00  0.00     0.124 S 
ATOM     68  O   UNL     1       9.627  -5.880   2.037  1.00  0.00    -0.237 OA
ATOM     69  O   UNL     1      11.722  -4.964   2.986  1.00  0.00    -0.237 OA
ATOM     70  O   UNL     1      11.681  -7.240   2.037  1.00  0.00    -0.744 OA
ENDBRANCH  63  67
ENDBRANCH  46  60
BRANCH  47  71
ATOM     71  C   UNL     1       2.829  -1.149  12.004  1.00  0.00     0.023 A 
ATOM     72  C   UNL     1       3.113   0.146  12.459  1.00  0.00     0.031 A 
ATOM     73  C   UNL     1       1.608  -1.734  12.388  1.00  0.00     0.131 A 
ATOM     74  C   UNL     1       2.202   0.804  13.299  1.00  0.00     0.055 A 
ATOM     75  C   UNL     1       0.684  -1.058  13.184  1.00  0.00     0.041 A 
ATOM     76  F   UNL     1       1.287  -2.971  11.973  1.00  0.00    -0.206 F 
ATOM     77  C   UNL     1       0.984   0.216  13.654  1.00  0.00     0.022 A 
BRANCH  74  78
ATOM     78  S   UNL     1       2.665   2.417  13.985  1.00  0.00     0.124 S 
ATOM     79  O   UNL     1       3.934   2.112  14.637  1.00  0.00    -0.237 OA
ATOM     80  O   UNL     1       2.743   3.243  12.785  1.00  0.00    -0.237 OA
ATOM     81  O   UNL     1       1.560   2.733  14.887  1.00  0.00    -0.744 OA
ENDBRANCH  74  78
ENDBRANCH  47  71
BRANCH  59  82
ATOM     82  C   UNL     1       9.180  -3.793  13.049  1.00  0.00     0.023 A 
ATOM     83  C   UNL     1       8.884  -4.471  14.244  1.00  0.00     0.031 A 
ATOM     84  C   UNL     1      10.341  -3.003  12.998  1.00  0.00     0.131 A 
ATOM     85  C   UNL     1       9.710  -4.297  15.364  1.00  0.00     0.055 A 
ATOM     86  C   UNL     1      11.187  -2.876  14.100  1.00  0.00     0.041 A 
ATOM     87  F   UNL     1      10.663  -2.335  11.879  1.00  0.00    -0.206 F 
ATOM     88  C   UNL     1      10.866  -3.514  15.295  1.00  0.00     0.022 A 
BRANCH  85  89
ATOM     89  S   UNL     1       9.204  -5.038  16.940  1.00  0.00     0.124 S 
ATOM     90  O   UNL     1       7.913  -4.400  17.174  1.00  0.00    -0.237 OA
ATOM     91  O   UNL     1       9.163  -6.461  16.617  1.00  0.00    -0.237 OA
ATOM     92  O   UNL     1      10.268  -4.643  17.861  1.00  0.00    -0.744 OA
ENDBRANCH  85  89
ENDBRANCH  59  82
ENDBRANCH  33  34
ENDBRANCH  26  28
ENDBRANCH  25  26
ENDBRANCH  24  25
ENDBRANCH   1  24
TORSDOF 17
