REMARK SMILES NS(=O)(=O)c1ccc(-n2nc(C(=O)OCCOC(=O)c3ccc(-c4c5nc(c(-c6cc(S(=O)(=O)[O-])ccc6F)c6ccc([nH]6)c(-c6cc(S(=O)(=O)[O-])ccc6F)c6nc(c(-c7cc(S(=O)(=O)[O-])ccc7F)c7ccc4[nH]7)C=C6)C=C5)cc3)cc2-c2ccc(Cl)s2)cc1
REMARK SMILES IDX 15 1 14 2 12 3 13 4 11 5 9 6 10 7 84 8 83 9 8 10 5 11 6 12
REMARK SMILES IDX 92 13 7 14 91 15 2 16 3 17 4 18 1 19 85 22 86 23 90 24 87 25
REMARK SMILES IDX 88 26 89 27 16 28 17 29 18 30 19 31 20 32 21 33 82 34 22 35
REMARK SMILES IDX 81 36 23 37 24 38 25 39 75 40 26 41 80 42 74 43 76 44 27 45
REMARK SMILES IDX 79 46 73 47 72 48 28 50 60 51 40 52 59 53 41 54 44 55 58 56
REMARK SMILES IDX 77 57 42 58 43 59 57 61 78 62 45 63 29 64 30 65 38 66 31 67
REMARK SMILES IDX 37 68 39 69 36 70 32 71 33 72 34 73 35 74 61 75 62 76 70 77
REMARK SMILES IDX 63 78 69 79 71 80 68 81 64 82 65 83 66 84 67 85 46 86 47 87
REMARK SMILES IDX 55 88 48 89 54 90 56 91 53 92 49 93 50 94 51 95 52 96
REMARK H PARENT 1 20 1 21 76 49 44 60
REMARK Flexibility Score: inf
ROOT
ATOM      1  C   UNL     1       0.750   7.910   9.526  1.00  0.00     0.275 C 
ENDROOT
BRANCH   1   2
ATOM      2  O   UNL     1       1.338   6.920   8.667  1.00  0.00    -0.457 OA
BRANCH   2   3
ATOM      3  C   UNL     1       0.507   6.383   7.714  1.00  0.00     0.358 C 
ATOM      4  O   UNL     1      -0.713   6.506   7.725  1.00  0.00    -0.244 OA
BRANCH   3   5
ATOM      5  C   UNL     1       1.260   5.652   6.684  1.00  0.00     0.171 A 
ATOM      6  N   UNL     1       1.702   4.610   4.862  1.00  0.00    -0.231 N 
ATOM      7  N   UNL     1       0.739   5.334   5.482  1.00  0.00    -0.160 NA
ATOM      8  C   UNL     1       2.839   4.477   5.641  1.00  0.00     0.085 A 
ATOM      9  C   UNL     1       2.595   5.191   6.791  1.00  0.00     0.068 A 
BRANCH   6  10
ATOM     10  C   UNL     1       1.387   3.917   3.670  1.00  0.00     0.065 A 
ATOM     11  C   UNL     1       0.836   2.543   1.320  1.00  0.00     0.082 A 
ATOM     12  C   UNL     1       1.258   1.836   2.449  1.00  0.00     0.024 A 
ATOM     13  C   UNL     1       0.677   3.934   1.363  1.00  0.00     0.024 A 
ATOM     14  C   UNL     1       1.550   2.527   3.622  1.00  0.00     0.030 A 
ATOM     15  C   UNL     1       0.922   4.625   2.554  1.00  0.00     0.030 A 
BRANCH  11  16
ATOM     16  S   UNL     1       0.525   1.697  -0.200  1.00  0.00     0.238 S 
ATOM     17  O   UNL     1       1.263   2.335  -1.259  1.00  0.00    -0.207 OA
ATOM     18  O   UNL     1      -0.888   1.399  -0.284  1.00  0.00    -0.207 OA
BRANCH  16  19
ATOM     19  N   UNL     1       1.276   0.197  -0.005  1.00  0.00    -0.225 NA
ATOM     20  H   UNL     1       1.143  -0.362  -0.848  1.00  0.00     0.137 HD
ATOM     21  H   UNL     1       0.865  -0.287   0.793  1.00  0.00     0.137 HD
ENDBRANCH  16  19
ENDBRANCH  11  16
ENDBRANCH   6  10
BRANCH   8  22
ATOM     22  C   UNL     1       4.020   3.743   5.297  1.00  0.00     0.054 A 
ATOM     23  C   UNL     1       4.585   2.726   6.043  1.00  0.00     0.024 A 
ATOM     24  S   UNL     1       4.920   4.056   3.872  1.00  0.00    -0.122 S 
ATOM     25  C   UNL     1       5.731   2.164   5.408  1.00  0.00     0.033 A 
ATOM     26  C   UNL     1       6.002   2.805   4.227  1.00  0.00     0.094 A 
ATOM     27  Cl  UNL     1       7.284   2.446   3.144  1.00  0.00    -0.072 Cl
ENDBRANCH   8  22
ENDBRANCH   3   5
ENDBRANCH   2   3
ENDBRANCH   1   2
BRANCH   1  28
ATOM     28  C   UNL     1       0.810   9.297   8.901  1.00  0.00     0.275 C 
BRANCH  28  29
ATOM     29  O   UNL     1      -0.075   9.401   7.789  1.00  0.00    -0.458 OA
BRANCH  29  30
ATOM     30  C   UNL     1       0.496   9.188   6.579  1.00  0.00     0.338 C 
ATOM     31  O   UNL     1       1.562   8.631   6.370  1.00  0.00    -0.246 OA
BRANCH  30  32
ATOM     32  C   UNL     1      -0.248   9.941   5.565  1.00  0.00     0.060 A 
ATOM     33  C   UNL     1       0.195   9.851   4.244  1.00  0.00     0.016 A 
ATOM     34  C   UNL     1      -1.151  10.933   5.976  1.00  0.00     0.016 A 
ATOM     35  C   UNL     1      -0.117  10.882   3.381  1.00  0.00     0.010 A 
ATOM     36  C   UNL     1      -1.446  11.967   5.120  1.00  0.00     0.010 A 
ATOM     37  C   UNL     1      -0.861  11.972   3.859  1.00  0.00    -0.014 A 
BRANCH  37  38
ATOM     38  C   UNL     1      -1.190  13.044   2.940  1.00  0.00     0.031 A 
ATOM     39  C   UNL     1      -2.198  12.593   1.960  1.00  0.00     0.074 A 
ATOM     40  C   UNL     1      -0.728  14.306   3.040  1.00  0.00     0.049 A 
ATOM     41  N   UNL     1      -1.970  12.152   0.768  1.00  0.00    -0.248 NA
ATOM     42  C   UNL     1      -3.567  12.329   2.438  1.00  0.00     0.031 C 
ATOM     43  C   UNL     1       0.042  14.896   4.139  1.00  0.00     0.029 A 
ATOM     44  N   UNL     1      -0.911  15.364   2.198  1.00  0.00    -0.354 N 
ATOM     45  C   UNL     1      -3.227  11.883   0.244  1.00  0.00     0.074 A 
ATOM     46  C   UNL     1      -4.093  11.717   1.375  1.00  0.00     0.031 C 
ATOM     47  C   UNL     1       0.068  16.244   4.001  1.00  0.00     0.029 A 
ATOM     48  C   UNL     1      -0.544  16.601   2.729  1.00  0.00     0.049 A 
ATOM     49  H   UNL     1      -1.274  15.263   1.289  1.00  0.00     0.167 HD
ATOM     50  C   UNL     1      -3.501  12.221  -1.046  1.00  0.00     0.034 A 
ATOM     51  C   UNL     1      -0.738  17.825   2.163  1.00  0.00     0.034 A 
ATOM     52  C   UNL     1      -2.271  12.522  -1.749  1.00  0.00     0.049 A 
ATOM     53  C   UNL     1      -0.844  17.597   0.702  1.00  0.00     0.074 A 
ATOM     54  C   UNL     1      -1.204  11.817  -2.260  1.00  0.00     0.029 A 
ATOM     55  N   UNL     1      -1.867  13.827  -1.606  1.00  0.00    -0.354 N 
ATOM     56  N   UNL     1       0.148  17.136  -0.012  1.00  0.00    -0.248 NA
ATOM     57  C   UNL     1      -2.159  17.475   0.085  1.00  0.00     0.031 C 
ATOM     58  C   UNL     1      -0.094  12.717  -2.251  1.00  0.00     0.029 A 
ATOM     59  C   UNL     1      -0.518  13.966  -1.798  1.00  0.00     0.049 A 
ATOM     60  H   UNL     1      -2.473  14.572  -1.391  1.00  0.00     0.167 HD
ATOM     61  C   UNL     1      -0.446  16.296  -0.934  1.00  0.00     0.074 A 
ATOM     62  C   UNL     1      -1.855  16.676  -0.943  1.00  0.00     0.031 C 
ATOM     63  C   UNL     1       0.185  15.162  -1.360  1.00  0.00     0.034 A 
BRANCH  50  64
ATOM     64  C   UNL     1      -4.819  12.808  -1.528  1.00  0.00     0.023 A 
ATOM     65  C   UNL     1      -4.896  13.166  -2.890  1.00  0.00     0.031 A 
ATOM     66  C   UNL     1      -5.861  13.306  -0.709  1.00  0.00     0.131 A 
ATOM     67  C   UNL     1      -5.898  14.036  -3.357  1.00  0.00     0.055 A 
ATOM     68  C   UNL     1      -6.881  14.132  -1.189  1.00  0.00     0.041 A 
ATOM     69  F   UNL     1      -5.915  13.109   0.611  1.00  0.00    -0.206 F 
ATOM     70  C   UNL     1      -6.890  14.524  -2.513  1.00  0.00     0.022 A 
BRANCH  67  71
ATOM     71  S   UNL     1      -5.804  14.638  -5.063  1.00  0.00     0.124 S 
ATOM     72  O   UNL     1      -4.486  15.261  -5.088  1.00  0.00    -0.237 OA
ATOM     73  O   UNL     1      -5.952  13.402  -5.825  1.00  0.00    -0.237 OA
ATOM     74  O   UNL     1      -6.933  15.562  -5.156  1.00  0.00    -0.744 OA
ENDBRANCH  67  71
ENDBRANCH  50  64
BRANCH  51  75
ATOM     75  C   UNL     1      -1.199  19.082   2.828  1.00  0.00     0.023 A 
ATOM     76  C   UNL     1      -1.061  20.371   2.256  1.00  0.00     0.031 A 
ATOM     77  C   UNL     1      -2.048  18.984   3.953  1.00  0.00     0.131 A 
ATOM     78  C   UNL     1      -1.764  21.477   2.801  1.00  0.00     0.055 A 
ATOM     79  C   UNL     1      -2.746  20.075   4.478  1.00  0.00     0.041 A 
ATOM     80  F   UNL     1      -2.298  17.797   4.530  1.00  0.00    -0.206 F 
ATOM     81  C   UNL     1      -2.615  21.325   3.896  1.00  0.00     0.022 A 
BRANCH  78  82
ATOM     82  S   UNL     1      -1.641  23.140   2.049  1.00  0.00     0.124 S 
ATOM     83  O   UNL     1      -0.244  23.485   2.283  1.00  0.00    -0.237 OA
ATOM     84  O   UNL     1      -2.027  22.889   0.665  1.00  0.00    -0.237 OA
ATOM     85  O   UNL     1      -2.603  23.934   2.816  1.00  0.00    -0.744 OA
ENDBRANCH  78  82
ENDBRANCH  51  75
BRANCH  63  86
ATOM     86  C   UNL     1       1.693  15.129  -1.299  1.00  0.00     0.023 A 
ATOM     87  C   UNL     1       2.480  15.204  -0.129  1.00  0.00     0.031 A 
ATOM     88  C   UNL     1       2.358  14.970  -2.528  1.00  0.00     0.131 A 
ATOM     89  C   UNL     1       3.886  15.120  -0.227  1.00  0.00     0.055 A 
ATOM     90  C   UNL     1       3.743  14.864  -2.618  1.00  0.00     0.041 A 
ATOM     91  F   UNL     1       1.661  14.893  -3.674  1.00  0.00    -0.206 F 
ATOM     92  C   UNL     1       4.513  14.944  -1.466  1.00  0.00     0.022 A 
BRANCH  89  93
ATOM     93  S   UNL     1       4.940  15.276   1.253  1.00  0.00     0.124 S 
ATOM     94  O   UNL     1       4.407  16.452   1.930  1.00  0.00    -0.237 OA
ATOM     95  O   UNL     1       4.727  13.999   1.928  1.00  0.00    -0.237 OA
ATOM     96  O   UNL     1       6.284  15.451   0.697  1.00  0.00    -0.744 OA
ENDBRANCH  89  93
ENDBRANCH  63  86
ENDBRANCH  37  38
ENDBRANCH  30  32
ENDBRANCH  29  30
ENDBRANCH  28  29
ENDBRANCH   1  28
TORSDOF 18
