REMARK SMILES O=C(CCc1cc2n(n1)CCCN(S(=O)(=O)CCC(F)(F)F)C2)OCCOC(=O)c1ccc(-c2c3nc(c(-c4cc(S(=O)(=O)[O-])ccc4F)c4ccc([nH]4)c(-c4cc(S(=O)(=O)[O-])ccc4F)c4nc(c(-c5cc(S(=O)(=O)[O-])ccc5F)c5ccc2[nH]5)C=C4)C=C3)cc1
REMARK SMILES IDX 1 1 2 2 3 3 4 4 5 5 6 6 9 7 7 8 8 9 23 10 13 11 12 12 14 14
REMARK SMILES IDX 15 15 16 16 17 17 18 18 19 19 20 20 21 21 22 22 10 23 11 24
REMARK SMILES IDX 24 26 25 27 26 28 27 29 28 30 29 31 30 32 31 33 92 34 32 35
REMARK SMILES IDX 91 36 33 37 34 38 35 39 85 40 36 41 90 42 84 43 86 44 37 45
REMARK SMILES IDX 89 46 83 47 82 48 38 50 70 51 50 52 69 53 51 54 54 55 68 56
REMARK SMILES IDX 87 57 52 58 53 59 67 61 88 62 55 63 39 64 40 65 48 66 41 67
REMARK SMILES IDX 47 68 49 69 46 70 42 71 43 72 44 73 45 74 71 75 72 76 80 77
REMARK SMILES IDX 73 78 79 79 81 80 78 81 74 82 75 83 76 84 77 85 56 86 57 87
REMARK SMILES IDX 65 88 58 89 64 90 66 91 63 92 59 93 60 94 61 95 62 96
REMARK H PARENT 86 49 54 60
REMARK Flexibility Score: 90.00
ROOT
ATOM      1  O   UNL     1       1.305   0.910   1.705  1.00  0.00    -0.252 OA
ATOM      2  C   UNL     1       2.071   0.462   0.855  1.00  0.00     0.306 C 
ENDROOT
BRANCH   2   3
ATOM      3  C   UNL     1       3.082   1.359   0.169  1.00  0.00     0.129 C 
BRANCH   3   4
ATOM      4  C   UNL     1       4.138   1.940   1.105  1.00  0.00     0.070 C 
BRANCH   4   5
ATOM      5  C   UNL     1       5.330   1.056   1.323  1.00  0.00     0.063 A 
ATOM      6  C   UNL     1       5.833   0.007   0.514  1.00  0.00     0.050 A 
ATOM      7  N   UNL     1       6.057   1.169   2.442  1.00  0.00    -0.178 NA
ATOM      8  C   UNL     1       6.579  -0.756   1.389  1.00  0.00     0.054 A 
ATOM      9  N   UNL     1       6.923   0.142   2.358  1.00  0.00    -0.268 N 
BRANCH   8  10
ATOM     10  C   UNL     1       6.972  -2.193   1.366  1.00  0.00     0.157 C 
BRANCH  10  11
ATOM     11  N   UNL     1       6.726  -2.918   2.661  1.00  0.00    -0.196 NA
BRANCH  11  12
ATOM     12  C   UNL     1       6.666  -2.117   3.908  1.00  0.00     0.104 CG0
ATOM     13  G   UNL     1       7.960  -1.327   4.079  1.00  0.00     0.000 G0
ENDBRANCH  11  12
BRANCH  11  14
ATOM     14  S   UNL     1       5.724  -4.272   2.561  1.00  0.00     0.214 S 
ATOM     15  O   UNL     1       4.379  -3.826   2.850  1.00  0.00    -0.212 OA
ATOM     16  O   UNL     1       6.021  -4.978   1.334  1.00  0.00    -0.212 OA
BRANCH  14  17
ATOM     17  C   UNL     1       6.240  -5.334   3.908  1.00  0.00     0.163 C 
BRANCH  17  18
ATOM     18  C   UNL     1       7.563  -6.056   3.710  1.00  0.00     0.133 C 
BRANCH  18  19
ATOM     19  C   UNL     1       8.765  -5.150   3.631  1.00  0.00     0.390 C 
ATOM     20  F   UNL     1       8.759  -4.256   4.644  1.00  0.00    -0.171 F 
ATOM     21  F   UNL     1       9.900  -5.878   3.753  1.00  0.00    -0.171 F 
ATOM     22  F   UNL     1       8.847  -4.483   2.469  1.00  0.00    -0.171 F 
ENDBRANCH  18  19
ENDBRANCH  17  18
ENDBRANCH  14  17
ENDBRANCH  11  14
ENDBRANCH  10  11
ENDBRANCH   8  10
BRANCH   9  23
ATOM     23  C   UNL     1       7.971   0.001   3.340  1.00  0.00     0.146 C 
BRANCH  23  24
ATOM     24  C   UNL     1       7.960  -1.327   4.079  1.00  0.00     0.040 CG0
ATOM     25  G   UNL     1       6.666  -2.117   3.908  1.00  0.00     0.000 G0
ENDBRANCH  23  24
ENDBRANCH   9  23
ENDBRANCH   4   5
ENDBRANCH   3   4
ENDBRANCH   2   3
BRANCH   2  26
ATOM     26  O   UNL     1       1.912  -0.795   0.373  1.00  0.00    -0.462 OA
BRANCH  26  27
ATOM     27  C   UNL     1       3.003  -1.732   0.369  1.00  0.00     0.274 C 
BRANCH  27  28
ATOM     28  C   UNL     1       3.424  -2.192  -1.028  1.00  0.00     0.275 C 
BRANCH  28  29
ATOM     29  O   UNL     1       3.650  -1.101  -1.916  1.00  0.00    -0.458 OA
BRANCH  29  30
ATOM     30  C   UNL     1       2.526  -0.635  -2.525  1.00  0.00     0.338 C 
ATOM     31  O   UNL     1       1.391  -0.993  -2.327  1.00  0.00    -0.246 OA
BRANCH  30  32
ATOM     32  C   UNL     1       2.920   0.364  -3.537  1.00  0.00     0.060 A 
ATOM     33  C   UNL     1       1.912   0.800  -4.398  1.00  0.00     0.016 A 
ATOM     34  C   UNL     1       4.262   0.729  -3.734  1.00  0.00     0.016 A 
ATOM     35  C   UNL     1       2.275   1.427  -5.571  1.00  0.00     0.010 A 
ATOM     36  C   UNL     1       4.622   1.365  -4.904  1.00  0.00     0.010 A 
ATOM     37  C   UNL     1       3.634   1.621  -5.848  1.00  0.00    -0.014 A 
BRANCH  37  38
ATOM     38  C   UNL     1       3.978   2.104  -7.171  1.00  0.00     0.031 A 
ATOM     39  C   UNL     1       3.571   3.503  -7.433  1.00  0.00     0.074 A 
ATOM     40  C   UNL     1       4.629   1.340  -8.069  1.00  0.00     0.049 A 
ATOM     41  N   UNL     1       2.686   3.925  -8.272  1.00  0.00    -0.248 NA
ATOM     42  C   UNL     1       4.109   4.547  -6.550  1.00  0.00     0.031 C 
ATOM     43  C   UNL     1       5.289   0.047  -7.869  1.00  0.00     0.029 A 
ATOM     44  N   UNL     1       4.899   1.621  -9.371  1.00  0.00    -0.354 N 
ATOM     45  C   UNL     1       2.684   5.311  -8.164  1.00  0.00     0.074 A 
ATOM     46  C   UNL     1       3.459   5.623  -6.992  1.00  0.00     0.031 C 
ATOM     47  C   UNL     1       6.063  -0.231  -8.946  1.00  0.00     0.029 A 
ATOM     48  C   UNL     1       5.838   0.785  -9.962  1.00  0.00     0.049 A 
ATOM     49  H   UNL     1       4.464   2.359  -9.856  1.00  0.00     0.167 HD
ATOM     50  C   UNL     1       2.195   6.101  -9.157  1.00  0.00     0.034 A 
ATOM     51  C   UNL     1       6.426   0.956 -11.177  1.00  0.00     0.034 A 
ATOM     52  C   UNL     1       1.300   5.365 -10.018  1.00  0.00     0.049 A 
ATOM     53  C   UNL     1       5.526   1.836 -11.966  1.00  0.00     0.074 A 
ATOM     54  C   UNL     1       0.097   4.716  -9.812  1.00  0.00     0.029 A 
ATOM     55  N   UNL     1       1.788   4.861 -11.203  1.00  0.00    -0.354 N 
ATOM     56  N   UNL     1       4.329   1.476 -12.344  1.00  0.00    -0.248 NA
ATOM     57  C   UNL     1       5.743   3.274 -11.901  1.00  0.00     0.031 C 
ATOM     58  C   UNL     1       0.190   3.517 -10.579  1.00  0.00     0.029 A 
ATOM     59  C   UNL     1       1.403   3.541 -11.272  1.00  0.00     0.049 A 
ATOM     60  H   UNL     1       2.313   5.353 -11.874  1.00  0.00     0.167 HD
ATOM     61  C   UNL     1       3.533   2.594 -12.146  1.00  0.00     0.074 A 
ATOM     62  C   UNL     1       4.476   3.696 -11.955  1.00  0.00     0.031 C 
ATOM     63  C   UNL     1       2.197   2.486 -11.879  1.00  0.00     0.034 A 
BRANCH  50  64
ATOM     64  C   UNL     1       2.751   7.459  -9.509  1.00  0.00     0.023 A 
ATOM     65  C   UNL     1       2.106   8.204 -10.514  1.00  0.00     0.031 A 
ATOM     66  C   UNL     1       4.017   7.941  -9.101  1.00  0.00     0.131 A 
ATOM     67  C   UNL     1       2.735   9.317 -11.102  1.00  0.00     0.055 A 
ATOM     68  C   UNL     1       4.608   9.085  -9.641  1.00  0.00     0.041 A 
ATOM     69  F   UNL     1       4.796   7.283  -8.235  1.00  0.00    -0.206 F 
ATOM     70  C   UNL     1       3.979   9.767 -10.666  1.00  0.00     0.022 A 
BRANCH  67  71
ATOM     71  S   UNL     1       1.978  10.074 -12.564  1.00  0.00     0.124 S 
ATOM     72  O   UNL     1       1.782   8.918 -13.432  1.00  0.00    -0.237 OA
ATOM     73  O   UNL     1       0.771  10.671 -12.002  1.00  0.00    -0.237 OA
ATOM     74  O   UNL     1       2.991  11.025 -13.016  1.00  0.00    -0.744 OA
ENDBRANCH  67  71
ENDBRANCH  50  64
BRANCH  51  75
ATOM     75  C   UNL     1       7.868   0.748 -11.494  1.00  0.00     0.023 A 
ATOM     76  C   UNL     1       8.356   0.581 -12.808  1.00  0.00     0.031 A 
ATOM     77  C   UNL     1       8.834   0.956 -10.482  1.00  0.00     0.131 A 
ATOM     78  C   UNL     1       9.750   0.619 -13.060  1.00  0.00     0.055 A 
ATOM     79  C   UNL     1      10.206   0.992 -10.737  1.00  0.00     0.041 A 
ATOM     80  F   UNL     1       8.470   1.216  -9.216  1.00  0.00    -0.206 F 
ATOM     81  C   UNL     1      10.670   0.831 -12.031  1.00  0.00     0.022 A 
BRANCH  78  82
ATOM     82  S   UNL     1      10.392   0.472 -14.761  1.00  0.00     0.124 S 
ATOM     83  O   UNL     1      10.054  -0.905 -15.103  1.00  0.00    -0.237 OA
ATOM     84  O   UNL     1       9.657   1.515 -15.466  1.00  0.00    -0.237 OA
ATOM     85  O   UNL     1      11.825   0.731 -14.609  1.00  0.00    -0.744 OA
ENDBRANCH  78  82
ENDBRANCH  51  75
BRANCH  63  86
ATOM     86  C   UNL     1       1.539   1.122 -12.027  1.00  0.00     0.023 A 
ATOM     87  C   UNL     1       1.936  -0.049 -11.337  1.00  0.00     0.031 A 
ATOM     88  C   UNL     1       0.376   1.045 -12.814  1.00  0.00     0.131 A 
ATOM     89  C   UNL     1       1.182  -1.235 -11.461  1.00  0.00     0.055 A 
ATOM     90  C   UNL     1      -0.381  -0.123 -12.914  1.00  0.00     0.041 A 
ATOM     91  F   UNL     1      -0.071   2.125 -13.476  1.00  0.00    -0.206 F 
ATOM     92  C   UNL     1       0.023  -1.270 -12.242  1.00  0.00     0.022 A 
BRANCH  89  93
ATOM     93  S   UNL     1       1.704  -2.768 -10.621  1.00  0.00     0.124 S 
ATOM     94  O   UNL     1       3.120  -2.875 -10.954  1.00  0.00    -0.237 OA
ATOM     95  O   UNL     1       1.395  -2.485  -9.223  1.00  0.00    -0.237 OA
ATOM     96  O   UNL     1       0.858  -3.796 -11.232  1.00  0.00    -0.744 OA
ENDBRANCH  89  93
ENDBRANCH  63  86
ENDBRANCH  37  38
ENDBRANCH  30  32
ENDBRANCH  29  30
ENDBRANCH  28  29
ENDBRANCH  27  28
ENDBRANCH  26  27
ENDBRANCH   2  26
TORSDOF 20
