REMARK SMILES CC1(C)[C@H](C(=O)Nc2ccccc2C(=O)Nc2nccs2)[C@H]1C(=O)OCCOC(=O)c1ccc(-c2c3nc(c(-c4cc(S(=O)(=O)[O-])ccc4F)c4ccc([nH]4)c(-c4cc(S(=O)(=O)[O-])ccc4F)c4nc(c(-c5cc(S(=O)(=O)[O-])ccc5F)c5ccc2[nH]5)C=C4)C=C3)cc1
REMARK SMILES IDX 26 1 25 2 23 3 24 4 22 5 1 6 2 7 3 8 4 9 5 10 6 11 7 12 8 14
REMARK SMILES IDX 9 15 13 16 10 17 12 18 11 19 14 20 15 21 16 22 17 24 18 25
REMARK SMILES IDX 21 26 19 27 20 28 27 29 28 30 29 31 30 32 31 33 32 34 93 35
REMARK SMILES IDX 33 36 92 37 34 38 35 39 36 40 86 41 37 42 91 43 85 44 87 45
REMARK SMILES IDX 38 46 90 47 84 48 83 49 39 51 71 52 51 53 70 54 52 55 55 56
REMARK SMILES IDX 69 57 88 58 53 59 54 60 68 62 89 63 56 64 40 65 41 66 49 67
REMARK SMILES IDX 42 68 48 69 50 70 47 71 43 72 44 73 45 74 46 75 72 76 73 77
REMARK SMILES IDX 81 78 74 79 80 80 82 81 79 82 75 83 76 84 77 85 78 86 57 87
REMARK SMILES IDX 58 88 66 89 59 90 65 91 67 92 64 93 60 94 61 95 62 96 63 97
REMARK H PARENT 7 13 16 23 87 50 55 61
REMARK Flexibility Score: inf
ROOT
ATOM      1  C   UNL     1      -1.925  -3.641   2.855  1.00  0.00     0.274 C 
ENDROOT
BRANCH   1   2
ATOM      2  O   UNL     1      -1.167  -2.826   1.951  1.00  0.00    -0.462 OA
BRANCH   2   3
ATOM      3  C   UNL     1      -1.917  -2.005   1.173  1.00  0.00     0.310 C 
ATOM      4  O   UNL     1      -3.104  -2.122   0.944  1.00  0.00    -0.252 OA
BRANCH   3   5
ATOM      5  C   UNL     1      -1.197  -0.765   0.865  1.00  0.00     0.118 C 
ATOM      6  C   UNL     1       0.972  -1.720  -0.167  1.00  0.00     0.013 C 
ATOM      7  C   UNL     1       0.142  -0.534   0.277  1.00  0.00    -0.009 C 
ATOM      8  C   UNL     1       0.970   0.504   0.994  1.00  0.00     0.013 C 
ATOM      9  C   UNL     1      -1.103  -0.253  -0.571  1.00  0.00     0.100 C 
BRANCH   9  10
ATOM     10  C   UNL     1      -2.169   0.769  -0.742  1.00  0.00     0.228 C 
ATOM     11  O   UNL     1      -3.286   0.358  -1.061  1.00  0.00    -0.274 OA
ATOM     12  N   UNL     1      -2.051   2.092  -0.456  1.00  0.00    -0.325 N 
ATOM     13  H   UNL     1      -2.921   2.510  -0.261  1.00  0.00     0.169 HD
BRANCH  12  14
ATOM     14  C   UNL     1      -0.993   3.003  -0.370  1.00  0.00     0.054 A 
ATOM     15  C   UNL     1      -1.274   4.088   0.489  1.00  0.00     0.027 A 
ATOM     16  C   UNL     1       0.248   2.956  -1.023  1.00  0.00     0.063 A 
ATOM     17  C   UNL     1      -0.298   5.017   0.837  1.00  0.00     0.002 A 
ATOM     18  C   UNL     1       1.234   3.894  -0.639  1.00  0.00     0.016 A 
ATOM     19  C   UNL     1       0.972   4.899   0.297  1.00  0.00     0.001 A 
BRANCH  16  20
ATOM     20  C   UNL     1       0.694   1.985  -2.062  1.00  0.00     0.259 C 
ATOM     21  O   UNL     1       1.858   1.570  -2.014  1.00  0.00    -0.269 OA
ATOM     22  N   UNL     1      -0.086   1.481  -3.066  1.00  0.00    -0.298 N 
ATOM     23  H   UNL     1       0.287   0.703  -3.540  1.00  0.00     0.172 HD
BRANCH  22  24
ATOM     24  C   UNL     1      -1.302   1.899  -3.505  1.00  0.00     0.189 A 
ATOM     25  N   UNL     1      -1.974   2.982  -3.221  1.00  0.00    -0.229 NA
ATOM     26  S   UNL     1      -2.065   0.772  -4.543  1.00  0.00    -0.105 S 
ATOM     27  C   UNL     1      -3.246   2.870  -3.754  1.00  0.00     0.125 A 
ATOM     28  C   UNL     1      -3.494   1.716  -4.469  1.00  0.00     0.088 A 
ENDBRANCH  22  24
ENDBRANCH  16  20
ENDBRANCH  12  14
ENDBRANCH   9  10
ENDBRANCH   3   5
ENDBRANCH   2   3
ENDBRANCH   1   2
BRANCH   1  29
ATOM     29  C   UNL     1      -1.619  -3.200   4.285  1.00  0.00     0.275 C 
BRANCH  29  30
ATOM     30  O   UNL     1      -1.990  -1.818   4.503  1.00  0.00    -0.458 OA
BRANCH  30  31
ATOM     31  C   UNL     1      -0.947  -0.958   4.593  1.00  0.00     0.338 C 
ATOM     32  O   UNL     1       0.236  -1.226   4.453  1.00  0.00    -0.246 OA
BRANCH  31  33
ATOM     33  C   UNL     1      -1.394   0.407   4.928  1.00  0.00     0.060 A 
ATOM     34  C   UNL     1      -1.964   1.216   3.951  1.00  0.00     0.016 A 
ATOM     35  C   UNL     1      -1.044   0.957   6.161  1.00  0.00     0.016 A 
ATOM     36  C   UNL     1      -2.033   2.594   4.141  1.00  0.00     0.010 A 
ATOM     37  C   UNL     1      -1.256   2.322   6.400  1.00  0.00     0.010 A 
ATOM     38  C   UNL     1      -1.701   3.174   5.373  1.00  0.00    -0.014 A 
BRANCH  38  39
ATOM     39  C   UNL     1      -1.797   4.655   5.566  1.00  0.00     0.031 A 
ATOM     40  C   UNL     1      -0.608   5.445   6.064  1.00  0.00     0.074 A 
ATOM     41  C   UNL     1      -2.943   5.310   5.281  1.00  0.00     0.049 A 
ATOM     42  N   UNL     1      -0.546   6.692   6.460  1.00  0.00    -0.248 NA
ATOM     43  C   UNL     1       0.674   4.731   6.147  1.00  0.00     0.031 C 
ATOM     44  C   UNL     1      -4.167   4.692   4.762  1.00  0.00     0.029 A 
ATOM     45  N   UNL     1      -3.269   6.642   5.376  1.00  0.00    -0.354 N 
ATOM     46  C   UNL     1       0.759   6.892   6.903  1.00  0.00     0.074 A 
ATOM     47  C   UNL     1       1.451   5.631   6.733  1.00  0.00     0.031 C 
ATOM     48  C   UNL     1      -5.082   5.644   4.532  1.00  0.00     0.029 A 
ATOM     49  C   UNL     1      -4.560   6.925   4.990  1.00  0.00     0.049 A 
ATOM     50  H   UNL     1      -2.638   7.329   5.690  1.00  0.00     0.167 HD
ATOM     51  C   UNL     1       1.327   8.020   7.404  1.00  0.00     0.034 A 
ATOM     52  C   UNL     1      -5.271   8.069   5.042  1.00  0.00     0.034 A 
ATOM     53  C   UNL     1       0.642   9.287   7.517  1.00  0.00     0.049 A 
ATOM     54  C   UNL     1      -4.628   9.302   5.615  1.00  0.00     0.074 A 
ATOM     55  C   UNL     1       1.130  10.493   7.994  1.00  0.00     0.029 A 
ATOM     56  N   UNL     1      -0.672   9.520   7.135  1.00  0.00    -0.354 N 
ATOM     57  N   UNL     1      -3.415   9.452   6.094  1.00  0.00    -0.248 NA
ATOM     58  C   UNL     1      -5.454  10.514   5.666  1.00  0.00     0.031 C 
ATOM     59  C   UNL     1       0.098  11.437   7.950  1.00  0.00     0.029 A 
ATOM     60  C   UNL     1      -1.015  10.842   7.380  1.00  0.00     0.049 A 
ATOM     61  H   UNL     1      -1.274   8.845   6.746  1.00  0.00     0.167 HD
ATOM     62  C   UNL     1      -3.330  10.783   6.492  1.00  0.00     0.074 A 
ATOM     63  C   UNL     1      -4.604  11.395   6.174  1.00  0.00     0.031 C 
ATOM     64  C   UNL     1      -2.293  11.438   7.071  1.00  0.00     0.034 A 
BRANCH  51  65
ATOM     65  C   UNL     1       2.743   7.917   7.923  1.00  0.00     0.023 A 
ATOM     66  C   UNL     1       3.832   7.631   7.082  1.00  0.00     0.031 A 
ATOM     67  C   UNL     1       3.002   8.083   9.297  1.00  0.00     0.131 A 
ATOM     68  C   UNL     1       5.112   7.447   7.630  1.00  0.00     0.055 A 
ATOM     69  C   UNL     1       4.291   7.979   9.825  1.00  0.00     0.041 A 
ATOM     70  F   UNL     1       2.002   8.340  10.154  1.00  0.00    -0.206 F 
ATOM     71  C   UNL     1       5.353   7.643   8.992  1.00  0.00     0.022 A 
BRANCH  68  72
ATOM     72  S   UNL     1       6.430   6.808   6.560  1.00  0.00     0.124 S 
ATOM     73  O   UNL     1       5.854   5.543   6.109  1.00  0.00    -0.237 OA
ATOM     74  O   UNL     1       6.549   7.852   5.550  1.00  0.00    -0.237 OA
ATOM     75  O   UNL     1       7.572   6.677   7.463  1.00  0.00    -0.744 OA
ENDBRANCH  68  72
ENDBRANCH  51  65
BRANCH  52  76
ATOM     76  C   UNL     1      -6.695   8.088   4.599  1.00  0.00     0.023 A 
ATOM     77  C   UNL     1      -7.102   8.860   3.501  1.00  0.00     0.031 A 
ATOM     78  C   UNL     1      -7.676   7.351   5.288  1.00  0.00     0.131 A 
ATOM     79  C   UNL     1      -8.459   8.903   3.142  1.00  0.00     0.055 A 
ATOM     80  C   UNL     1      -9.014   7.354   4.894  1.00  0.00     0.041 A 
ATOM     81  F   UNL     1      -7.340   6.596   6.346  1.00  0.00    -0.206 F 
ATOM     82  C   UNL     1      -9.414   8.143   3.820  1.00  0.00     0.022 A 
BRANCH  79  83
ATOM     83  S   UNL     1      -8.970  10.027   1.814  1.00  0.00     0.124 S 
ATOM     84  O   UNL     1      -8.525  11.317   2.329  1.00  0.00    -0.237 OA
ATOM     85  O   UNL     1      -8.229   9.502   0.672  1.00  0.00    -0.237 OA
ATOM     86  O   UNL     1     -10.419   9.844   1.752  1.00  0.00    -0.744 OA
ENDBRANCH  79  83
ENDBRANCH  52  76
BRANCH  64  87
ATOM     87  C   UNL     1      -2.491  12.907   7.351  1.00  0.00     0.023 A 
ATOM     88  C   UNL     1      -3.400  13.358   8.324  1.00  0.00     0.031 A 
ATOM     89  C   UNL     1      -1.786  13.868   6.606  1.00  0.00     0.131 A 
ATOM     90  C   UNL     1      -3.623  14.734   8.486  1.00  0.00     0.055 A 
ATOM     91  C   UNL     1      -1.971  15.236   6.809  1.00  0.00     0.041 A 
ATOM     92  F   UNL     1      -0.909  13.491   5.661  1.00  0.00    -0.206 F 
ATOM     93  C   UNL     1      -2.905  15.675   7.744  1.00  0.00     0.022 A 
BRANCH  90  94
ATOM     94  S   UNL     1      -4.938  15.277   9.612  1.00  0.00     0.124 S 
ATOM     95  O   UNL     1      -6.110  14.611   9.053  1.00  0.00    -0.237 OA
ATOM     96  O   UNL     1      -4.472  14.774  10.900  1.00  0.00    -0.237 OA
ATOM     97  O   UNL     1      -4.927  16.732   9.475  1.00  0.00    -0.744 OA
ENDBRANCH  90  94
ENDBRANCH  64  87
ENDBRANCH  38  39
ENDBRANCH  31  33
ENDBRANCH  30  31
ENDBRANCH  29  30
ENDBRANCH   1  29
TORSDOF 18
