REMARK SMILES Cc1ccc(C)c(-c2cc(C(=O)OCCOC(=O)c3ccc(-c4c5nc(c(-c6cc(S(=O)(=O)[O-])ccc6F)c6ccc([nH]6)c(-c6cc(S(=O)(=O)[O-])ccc6F)c6nc(c(-c7cc(S(=O)(=O)[O-])ccc7F)c7ccc4[nH]7)C=C6)C=C5)cc3)c3cc(C)ccc3n2)c1
REMARK SMILES IDX 15 1 14 2 13 3 11 4 12 5 10 6 8 7 9 8 89 9 88 10 82 11 87 12
REMARK SMILES IDX 83 13 86 14 84 15 85 16 7 17 1 18 2 19 3 20 90 21 4 22 5 23
REMARK SMILES IDX 6 24 16 25 17 26 18 27 19 28 20 29 81 30 21 31 80 32 22 33
REMARK SMILES IDX 23 34 24 35 74 36 25 37 79 38 73 39 75 40 26 41 78 42 72 43
REMARK SMILES IDX 71 44 27 46 59 47 39 48 58 49 40 50 43 51 57 52 76 53 41 54
REMARK SMILES IDX 42 55 56 57 77 58 44 59 28 60 29 61 37 62 30 63 36 64 38 65
REMARK SMILES IDX 35 66 31 67 32 68 33 69 34 70 60 71 61 72 69 73 62 74 68 75
REMARK SMILES IDX 70 76 67 77 63 78 64 79 65 80 66 81 45 82 46 83 54 84 47 85
REMARK SMILES IDX 53 86 55 87 52 88 48 89 49 90 50 91 51 92
REMARK H PARENT 75 45 43 56
REMARK Flexibility Score: inf
ROOT
ATOM      1  C   UNL     1       0.320   8.607  -3.362  1.00  0.00     0.275 C 
ENDROOT
BRANCH   1   2
ATOM      2  C   UNL     1      -0.913   8.578  -4.266  1.00  0.00     0.275 C 
BRANCH   2   3
ATOM      3  O   UNL     1      -1.916   7.830  -3.571  1.00  0.00    -0.458 OA
BRANCH   3   4
ATOM      4  C   UNL     1      -1.786   6.329  -3.576  1.00  0.00     0.339 C 
ATOM      5  O   UNL     1      -1.181   6.199  -4.679  1.00  0.00    -0.246 OA
BRANCH   4   6
ATOM      6  C   UNL     1      -2.442   4.963  -2.034  1.00  0.00     0.071 A 
ATOM      7  C   UNL     1      -1.921   2.688  -0.662  1.00  0.00     0.072 A 
ATOM      8  C   UNL     1      -2.013   3.461  -1.848  1.00  0.00     0.045 A 
ATOM      9  N   UNL     1      -2.460   3.109   0.469  1.00  0.00    -0.248 NA
ATOM     10  C   UNL     1      -3.161   4.221   0.482  1.00  0.00     0.072 A 
ATOM     11  C   UNL     1      -3.268   5.206  -0.586  1.00  0.00     0.015 A 
ATOM     12  C   UNL     1      -3.762   4.304   1.741  1.00  0.00     0.029 A 
ATOM     13  C   UNL     1      -4.139   6.275  -0.011  1.00  0.00     0.014 A 
ATOM     14  C   UNL     1      -4.563   5.351   2.152  1.00  0.00     0.005 A 
ATOM     15  C   UNL     1      -4.763   6.367   1.261  1.00  0.00    -0.050 A 
ATOM     16  C   UNL     1      -5.587   7.571   1.607  1.00  0.00     0.044 C 
BRANCH   7  17
ATOM     17  C   UNL     1      -1.134   1.418  -0.487  1.00  0.00     0.003 A 
ATOM     18  C   UNL     1       2.575   0.367  -0.054  1.00  0.00     0.044 C 
ATOM     19  C   UNL     1       1.076   0.315  -0.161  1.00  0.00    -0.050 A 
ATOM     20  C   UNL     1       0.449  -0.922  -0.033  1.00  0.00     0.004 A 
ATOM     21  C   UNL     1       0.285   1.467  -0.395  1.00  0.00     0.014 A 
ATOM     22  C   UNL     1      -0.937  -0.998  -0.067  1.00  0.00     0.004 A 
ATOM     23  C   UNL     1      -1.735   0.156  -0.252  1.00  0.00    -0.042 A 
ATOM     24  C   UNL     1      -3.222  -0.056  -0.160  1.00  0.00     0.045 C 
ENDBRANCH   7  17
ENDBRANCH   4   6
ENDBRANCH   3   4
ENDBRANCH   2   3
ENDBRANCH   1   2
BRANCH   1  25
ATOM     25  O   UNL     1       1.037   7.339  -3.243  1.00  0.00    -0.458 OA
BRANCH  25  26
ATOM     26  C   UNL     1       0.886   6.528  -2.155  1.00  0.00     0.338 C 
ATOM     27  O   UNL     1       1.784   6.208  -1.395  1.00  0.00    -0.246 OA
BRANCH  26  28
ATOM     28  C   UNL     1      -0.434   5.860  -2.119  1.00  0.00     0.060 A 
ATOM     29  C   UNL     1      -0.729   4.596  -3.392  1.00  0.00     0.016 A 
ATOM     30  C   UNL     1      -1.777   6.941  -1.600  1.00  0.00     0.016 A 
ATOM     31  C   UNL     1      -2.397   4.464  -4.195  1.00  0.00     0.010 A 
ATOM     32  C   UNL     1      -3.405   6.839  -2.472  1.00  0.00     0.010 A 
ATOM     33  C   UNL     1      -3.691   5.658  -3.804  1.00  0.00    -0.014 A 
BRANCH  33  34
ATOM     34  C   UNL     1      -4.730   6.220  -4.789  1.00  0.00     0.031 A 
ATOM     35  C   UNL     1      -6.060   6.072  -4.148  1.00  0.00     0.074 A 
ATOM     36  C   UNL     1      -4.676   7.051  -5.891  1.00  0.00     0.049 A 
ATOM     37  N   UNL     1      -6.805   5.016  -4.207  1.00  0.00    -0.248 NA
ATOM     38  C   UNL     1      -6.469   7.024  -3.096  1.00  0.00     0.031 C 
ATOM     39  C   UNL     1      -3.531   7.630  -6.609  1.00  0.00     0.029 A 
ATOM     40  N   UNL     1      -5.726   7.625  -6.617  1.00  0.00    -0.354 N 
ATOM     41  C   UNL     1      -7.890   5.323  -3.405  1.00  0.00     0.074 A 
ATOM     42  C   UNL     1      -7.411   6.307  -2.481  1.00  0.00     0.031 C 
ATOM     43  C   UNL     1      -3.932   8.590  -7.495  1.00  0.00     0.029 A 
ATOM     44  C   UNL     1      -5.388   8.647  -7.549  1.00  0.00     0.049 A 
ATOM     45  H   UNL     1      -6.658   7.335  -6.489  1.00  0.00     0.167 HD
ATOM     46  C   UNL     1      -9.168   5.078  -3.803  1.00  0.00     0.034 A 
ATOM     47  C   UNL     1      -6.211   9.418  -8.361  1.00  0.00     0.034 A 
ATOM     48  C   UNL     1      -9.185   4.274  -5.009  1.00  0.00     0.049 A 
ATOM     49  C   UNL     1      -7.471   8.655  -8.502  1.00  0.00     0.074 A 
ATOM     50  C   UNL     1      -8.625   3.063  -5.374  1.00  0.00     0.029 A 
ATOM     51  N   UNL     1      -9.484   4.908  -6.197  1.00  0.00    -0.354 N 
ATOM     52  N   UNL     1      -7.541   7.513  -9.123  1.00  0.00    -0.248 NA
ATOM     53  C   UNL     1      -8.509   8.902  -7.515  1.00  0.00     0.031 C 
ATOM     54  C   UNL     1      -8.145   3.265  -6.702  1.00  0.00     0.029 A 
ATOM     55  C   UNL     1      -8.540   4.534  -7.125  1.00  0.00     0.049 A 
ATOM     56  H   UNL     1     -10.239   5.521  -6.352  1.00  0.00     0.167 HD
ATOM     57  C   UNL     1      -8.300   6.716  -8.285  1.00  0.00     0.074 A 
ATOM     58  C   UNL     1      -8.931   7.645  -7.344  1.00  0.00     0.031 C 
ATOM     59  C   UNL     1      -8.105   5.367  -8.230  1.00  0.00     0.034 A 
BRANCH  46  60
ATOM     60  C   UNL     1     -10.379   5.861  -3.343  1.00  0.00     0.023 A 
ATOM     61  C   UNL     1     -11.634   5.353  -3.716  1.00  0.00     0.031 A 
ATOM     62  C   UNL     1     -10.390   7.157  -2.771  1.00  0.00     0.131 A 
ATOM     63  C   UNL     1     -12.794   6.135  -3.593  1.00  0.00     0.055 A 
ATOM     64  C   UNL     1     -11.557   7.899  -2.577  1.00  0.00     0.041 A 
ATOM     65  F   UNL     1      -9.280   7.833  -2.455  1.00  0.00    -0.206 F 
ATOM     66  C   UNL     1     -12.767   7.401  -3.017  1.00  0.00     0.022 A 
BRANCH  63  67
ATOM     67  S   UNL     1     -14.314   5.530  -4.362  1.00  0.00     0.124 S 
ATOM     68  O   UNL     1     -13.877   5.306  -5.736  1.00  0.00    -0.237 OA
ATOM     69  O   UNL     1     -14.594   4.337  -3.571  1.00  0.00    -0.237 OA
ATOM     70  O   UNL     1     -15.249   6.637  -4.176  1.00  0.00    -0.744 OA
ENDBRANCH  63  67
ENDBRANCH  46  60
BRANCH  47  71
ATOM     71  C   UNL     1      -6.169  10.883  -8.813  1.00  0.00     0.023 A 
ATOM     72  C   UNL     1      -6.940  11.476  -9.877  1.00  0.00     0.031 A 
ATOM     73  C   UNL     1      -5.561  11.805  -7.939  1.00  0.00     0.131 A 
ATOM     74  C   UNL     1      -7.054  12.902 -10.010  1.00  0.00     0.055 A 
ATOM     75  C   UNL     1      -5.697  13.197  -8.063  1.00  0.00     0.041 A 
ATOM     76  F   UNL     1      -4.886  11.376  -6.863  1.00  0.00    -0.206 F 
ATOM     77  C   UNL     1      -6.444  13.752  -9.090  1.00  0.00     0.022 A 
BRANCH  74  78
ATOM     78  S   UNL     1      -8.040  13.728 -11.341  1.00  0.00     0.124 S 
ATOM     79  O   UNL     1      -7.346  13.318 -12.556  1.00  0.00    -0.237 OA
ATOM     80  O   UNL     1      -9.377  13.184 -11.139  1.00  0.00    -0.237 OA
ATOM     81  O   UNL     1      -7.918  15.155 -11.030  1.00  0.00    -0.744 OA
ENDBRANCH  74  78
ENDBRANCH  47  71
BRANCH  59  82
ATOM     82  C   UNL     1      -7.223   4.718  -9.287  1.00  0.00     0.023 A 
ATOM     83  C   UNL     1      -5.862   5.028  -9.530  1.00  0.00     0.031 A 
ATOM     84  C   UNL     1      -7.775   3.636  -9.994  1.00  0.00     0.131 A 
ATOM     85  C   UNL     1      -5.114   4.260 -10.449  1.00  0.00     0.055 A 
ATOM     86  C   UNL     1      -7.025   2.861 -10.877  1.00  0.00     0.041 A 
ATOM     87  F   UNL     1      -9.057   3.285  -9.803  1.00  0.00    -0.206 F 
ATOM     88  C   UNL     1      -5.691   3.171 -11.109  1.00  0.00     0.022 A 
BRANCH  85  89
ATOM     89  S   UNL     1      -3.370   4.662 -10.810  1.00  0.00     0.124 S 
ATOM     90  O   UNL     1      -3.421   6.071 -11.182  1.00  0.00    -0.237 OA
ATOM     91  O   UNL     1      -2.703   4.354  -9.548  1.00  0.00    -0.237 OA
ATOM     92  O   UNL     1      -3.030   3.755 -11.909  1.00  0.00    -0.744 OA
ENDBRANCH  85  89
ENDBRANCH  59  82
ENDBRANCH  33  34
ENDBRANCH  26  28
ENDBRANCH  25  26
ENDBRANCH   1  25
TORSDOF 15
