REMARK SMILES O=C(OCCOC(=O)c1ccc(-c2c3nc(c(-c4cc(S(=O)(=O)[O-])ccc4F)c4ccc([nH]4)c(-c4cc(S(=O)(=O)[O-])ccc4F)c4nc(c(-c5cc(S(=O)(=O)[O-])ccc5F)c5ccc2[nH]5)C=C4)C=C3)cc1)C(=O)/C(=C/c1cnn(Cc2ccccc2Cl)c1)c1ccc2ccccc2n1
REMARK SMILES IDX 4 1 3 2 2 3 1 4 72 5 73 6 74 7 75 8 89 9 90 10 98 11 91 12
REMARK SMILES IDX 97 13 92 14 96 15 93 16 95 17 94 18 76 19 77 20 88 21 78 22
REMARK SMILES IDX 79 23 80 24 81 25 82 26 86 27 83 28 85 29 87 30 84 31 5 32
REMARK SMILES IDX 6 33 7 34 8 35 9 36 10 37 71 38 11 39 70 40 12 41 13 42
REMARK SMILES IDX 14 43 64 44 15 45 69 46 63 47 65 48 16 49 68 50 62 51 61 52
REMARK SMILES IDX 17 54 49 55 29 56 48 57 30 58 33 59 47 60 66 61 31 62 32 63
REMARK SMILES IDX 46 65 67 66 34 67 18 68 19 69 27 70 20 71 26 72 28 73 25 74
REMARK SMILES IDX 21 75 22 76 23 77 24 78 50 79 51 80 59 81 52 82 58 83 60 84
REMARK SMILES IDX 57 85 53 86 54 87 55 88 56 89 35 90 36 91 44 92 37 93 43 94
REMARK SMILES IDX 45 95 42 96 38 97 39 98 40 99 41 100
REMARK H PARENT 65 53 33 64
REMARK Flexibility Score: inf
ROOT
ATOM      1  C   UNL     1       3.822  -0.612   1.258  1.00  0.00     0.275 C 
ENDROOT
BRANCH   1   2
ATOM      2  O   UNL     1       3.109   0.407   0.511  1.00  0.00    -0.456 OA
BRANCH   2   3
ATOM      3  C   UNL     1       3.263   1.164  -0.575  1.00  0.00     0.379 C 
ATOM      4  O   UNL     1       2.417   2.032  -0.786  1.00  0.00    -0.242 OA
BRANCH   3   5
ATOM      5  C   UNL     1       4.363   1.020  -1.664  1.00  0.00     0.272 C 
ATOM      6  O   UNL     1       3.940   0.990  -2.824  1.00  0.00    -0.281 OA
BRANCH   5   7
ATOM      7  C   UNL     1       5.899   0.919  -1.426  1.00  0.00     0.056 C 
ATOM      8  C   UNL     1       6.160   1.065  -0.064  1.00  0.00     0.026 C 
BRANCH   7   9
ATOM      9  C   UNL     1       6.551   0.307  -2.876  1.00  0.00     0.075 A 
ATOM     10  C   UNL     1       6.379  -1.038  -2.816  1.00  0.00     0.030 A 
ATOM     11  N   UNL     1       7.768   0.661  -3.516  1.00  0.00    -0.248 NA
ATOM     12  C   UNL     1       7.316  -1.513  -1.953  1.00  0.00     0.012 A 
ATOM     13  C   UNL     1       8.961   0.061  -3.132  1.00  0.00     0.071 A 
ATOM     14  C   UNL     1       8.429  -0.678  -1.820  1.00  0.00     0.000 A 
ATOM     15  C   UNL     1      10.704   0.634  -3.186  1.00  0.00     0.029 A 
ATOM     16  C   UNL     1       9.191  -0.315  -0.295  1.00  0.00     0.010 A 
ATOM     17  C   UNL     1      11.726   0.824  -1.679  1.00  0.00     0.002 A 
ATOM     18  C   UNL     1      10.924   0.428  -0.095  1.00  0.00     0.001 A 
ENDBRANCH   7   9
BRANCH   8  19
ATOM     19  C   UNL     1       7.171   0.716   0.967  1.00  0.00     0.013 A 
ATOM     20  C   UNL     1       8.147   1.553   1.594  1.00  0.00     0.143 A 
ATOM     21  C   UNL     1       7.392  -0.494   1.668  1.00  0.00     0.117 A 
ATOM     22  N   UNL     1       9.070   0.881   2.329  1.00  0.00    -0.181 NA
ATOM     23  N   UNL     1       8.785  -0.440   2.094  1.00  0.00    -0.268 N 
BRANCH  23  24
ATOM     24  C   UNL     1       9.995  -1.509   1.657  1.00  0.00     0.181 C 
BRANCH  24  25
ATOM     25  C   UNL     1      10.612  -1.916  -0.036  1.00  0.00    -0.008 A 
ATOM     26  C   UNL     1      11.139  -3.210  -0.004  1.00  0.00     0.007 A 
ATOM     27  C   UNL     1      10.563  -0.942  -1.514  1.00  0.00     0.046 A 
ATOM     28  C   UNL     1      11.706  -3.710  -1.168  1.00  0.00     0.000 A 
ATOM     29  C   UNL     1      11.188  -1.686  -2.596  1.00  0.00     0.021 A 
ATOM     30  Cl  UNL     1       9.610   1.366  -1.454  1.00  0.00    -0.084 Cl
ATOM     31  C   UNL     1      11.747  -2.981  -2.381  1.00  0.00     0.002 A 
ENDBRANCH  24  25
ENDBRANCH  23  24
ENDBRANCH   8  19
ENDBRANCH   5   7
ENDBRANCH   3   5
ENDBRANCH   2   3
ENDBRANCH   1   2
BRANCH   1  32
ATOM     32  C   UNL     1       4.115  -1.940   0.571  1.00  0.00     0.275 C 
BRANCH  32  33
ATOM     33  O   UNL     1       3.765  -1.931  -0.803  1.00  0.00    -0.458 OA
BRANCH  33  34
ATOM     34  C   UNL     1       2.440  -2.140  -1.007  1.00  0.00     0.338 C 
ATOM     35  O   UNL     1       1.607  -2.381  -0.151  1.00  0.00    -0.246 OA
BRANCH  34  36
ATOM     36  C   UNL     1       2.147  -1.868  -2.420  1.00  0.00     0.060 A 
ATOM     37  C   UNL     1       1.003  -1.123  -2.710  1.00  0.00     0.016 A 
ATOM     38  C   UNL     1       2.985  -2.332  -3.439  1.00  0.00     0.016 A 
ATOM     39  C   UNL     1       0.663  -0.884  -4.037  1.00  0.00     0.010 A 
ATOM     40  C   UNL     1       2.653  -2.070  -4.767  1.00  0.00     0.010 A 
ATOM     41  C   UNL     1       1.470  -1.377  -5.074  1.00  0.00    -0.014 A 
BRANCH  41  42
ATOM     42  C   UNL     1       1.010  -1.261  -6.478  1.00  0.00     0.031 A 
ATOM     43  C   UNL     1       0.484  -2.481  -7.181  1.00  0.00     0.074 A 
ATOM     44  C   UNL     1       1.016  -0.068  -7.100  1.00  0.00     0.049 A 
ATOM     45  N   UNL     1       0.027  -2.604  -8.400  1.00  0.00    -0.248 NA
ATOM     46  C   UNL     1       0.476  -3.732  -6.406  1.00  0.00     0.031 C 
ATOM     47  C   UNL     1       1.466   1.190  -6.505  1.00  0.00     0.029 A 
ATOM     48  N   UNL     1       0.621   0.279  -8.368  1.00  0.00    -0.354 N 
ATOM     49  C   UNL     1      -0.331  -3.940  -8.539  1.00  0.00     0.074 A 
ATOM     50  C   UNL     1       0.017  -4.598  -7.297  1.00  0.00     0.031 C 
ATOM     51  C   UNL     1       1.303   2.176  -7.403  1.00  0.00     0.029 A 
ATOM     52  C   UNL     1       0.788   1.614  -8.651  1.00  0.00     0.049 A 
ATOM     53  H   UNL     1       0.254  -0.367  -9.014  1.00  0.00     0.167 HD
ATOM     54  C   UNL     1      -0.911  -4.555  -9.598  1.00  0.00     0.034 A 
ATOM     55  C   UNL     1       0.571   2.299  -9.792  1.00  0.00     0.034 A 
ATOM     56  C   UNL     1      -1.235  -3.888 -10.836  1.00  0.00     0.049 A 
ATOM     57  C   UNL     1       0.034   1.564 -10.998  1.00  0.00     0.074 A 
ATOM     58  C   UNL     1      -1.829  -4.420 -11.967  1.00  0.00     0.029 A 
ATOM     59  N   UNL     1      -0.978  -2.552 -11.116  1.00  0.00    -0.354 N 
ATOM     60  N   UNL     1      -0.308   0.301 -11.116  1.00  0.00    -0.248 NA
ATOM     61  C   UNL     1      -0.152   2.350 -12.225  1.00  0.00     0.031 C 
ATOM     62  C   UNL     1      -1.841  -3.436 -12.960  1.00  0.00     0.029 A 
ATOM     63  C   UNL     1      -1.360  -2.256 -12.416  1.00  0.00     0.049 A 
ATOM     64  H   UNL     1      -0.583  -1.909 -10.483  1.00  0.00     0.167 HD
ATOM     65  C   UNL     1      -0.789   0.156 -12.416  1.00  0.00     0.074 A 
ATOM     66  C   UNL     1      -0.703   1.461 -13.037  1.00  0.00     0.031 C 
ATOM     67  C   UNL     1      -1.266  -0.954 -13.036  1.00  0.00     0.034 A 
BRANCH  54  68
ATOM     68  C   UNL     1      -1.185  -6.035  -9.480  1.00  0.00     0.023 A 
ATOM     69  C   UNL     1      -2.069  -6.551  -8.517  1.00  0.00     0.031 A 
ATOM     70  C   UNL     1      -0.540  -6.947 -10.335  1.00  0.00     0.131 A 
ATOM     71  C   UNL     1      -2.228  -7.939  -8.385  1.00  0.00     0.055 A 
ATOM     72  C   UNL     1      -0.774  -8.320 -10.260  1.00  0.00     0.041 A 
ATOM     73  F   UNL     1       0.338  -6.518 -11.255  1.00  0.00    -0.206 F 
ATOM     74  C   UNL     1      -1.611  -8.825  -9.270  1.00  0.00     0.022 A 
BRANCH  71  75
ATOM     75  S   UNL     1      -3.120  -8.575  -6.940  1.00  0.00     0.124 S 
ATOM     76  O   UNL     1      -2.349  -8.000  -5.840  1.00  0.00    -0.237 OA
ATOM     77  O   UNL     1      -4.461  -8.035  -7.132  1.00  0.00    -0.237 OA
ATOM     78  O   UNL     1      -3.005 -10.025  -7.077  1.00  0.00    -0.744 OA
ENDBRANCH  71  75
ENDBRANCH  54  68
BRANCH  55  79
ATOM     79  C   UNL     1       0.891   3.755  -9.875  1.00  0.00     0.023 A 
ATOM     80  C   UNL     1      -0.101   4.702 -10.175  1.00  0.00     0.031 A 
ATOM     81  C   UNL     1       2.214   4.212  -9.730  1.00  0.00     0.131 A 
ATOM     82  C   UNL     1       0.253   6.046 -10.377  1.00  0.00     0.055 A 
ATOM     83  C   UNL     1       2.548   5.561  -9.859  1.00  0.00     0.041 A 
ATOM     84  F   UNL     1       3.207   3.349  -9.463  1.00  0.00    -0.206 F 
ATOM     85  C   UNL     1       1.566   6.485 -10.200  1.00  0.00     0.022 A 
BRANCH  82  86
ATOM     86  S   UNL     1      -1.008   7.191 -11.002  1.00  0.00     0.124 S 
ATOM     87  O   UNL     1      -1.399   6.547 -12.251  1.00  0.00    -0.237 OA
ATOM     88  O   UNL     1      -1.999   7.170  -9.931  1.00  0.00    -0.237 OA
ATOM     89  O   UNL     1      -0.281   8.450 -11.150  1.00  0.00    -0.744 OA
ENDBRANCH  82  86
ENDBRANCH  55  79
BRANCH  67  90
ATOM     90  C   UNL     1      -1.792  -0.796 -14.445  1.00  0.00     0.023 A 
ATOM     91  C   UNL     1      -0.963  -0.419 -15.516  1.00  0.00     0.031 A 
ATOM     92  C   UNL     1      -3.153  -1.029 -14.720  1.00  0.00     0.131 A 
ATOM     93  C   UNL     1      -1.513  -0.226 -16.794  1.00  0.00     0.055 A 
ATOM     94  C   UNL     1      -3.678  -0.913 -16.007  1.00  0.00     0.041 A 
ATOM     95  F   UNL     1      -3.998  -1.384 -13.738  1.00  0.00    -0.206 F 
ATOM     96  C   UNL     1      -2.859  -0.494 -17.051  1.00  0.00     0.022 A 
BRANCH  93  97
ATOM     97  S   UNL     1      -0.470   0.494 -18.092  1.00  0.00     0.124 S 
ATOM     98  O   UNL     1      -0.055   1.753 -17.483  1.00  0.00    -0.237 OA
ATOM     99  O   UNL     1       0.574  -0.513 -18.250  1.00  0.00    -0.237 OA
ATOM    100  O   UNL     1      -1.380   0.625 -19.229  1.00  0.00    -0.744 OA
ENDBRANCH  93  97
ENDBRANCH  67  90
ENDBRANCH  41  42
ENDBRANCH  34  36
ENDBRANCH  33  34
ENDBRANCH  32  33
ENDBRANCH   1  32
TORSDOF 19
