REMARK SMILES Cc1ccc(Nc2c(F)cccc2Cl)c(CC(=O)OCCOC(=O)c2ccc(-c3c4nc(c(-c5cc(S(=O)(=O)[O-])ccc5F)c5ccc([nH]5)c(-c5cc(S(=O)(=O)[O-])ccc5F)c5nc(c(-c6cc(S(=O)(=O)[O-])ccc6F)c6ccc3[nH]6)C=C5)C=C4)cc2)c1
REMARK SMILES IDX 20 1 19 2 17 3 18 4 16 5 15 6 1 7 2 8 3 9 88 10 4 11 5 12
REMARK SMILES IDX 6 13 7 15 8 16 13 17 9 18 10 19 12 20 14 21 11 22 21 23
REMARK SMILES IDX 22 24 23 25 24 26 25 27 26 28 87 29 27 30 86 31 28 32 29 33
REMARK SMILES IDX 30 34 80 35 31 36 85 37 79 38 81 39 32 40 84 41 78 42 77 43
REMARK SMILES IDX 33 45 65 46 45 47 64 48 46 49 49 50 63 51 82 52 47 53 48 54
REMARK SMILES IDX 62 56 83 57 50 58 34 59 35 60 43 61 36 62 42 63 44 64 41 65
REMARK SMILES IDX 37 66 38 67 39 68 40 69 66 70 67 71 75 72 68 73 74 74 76 75
REMARK SMILES IDX 73 76 69 77 70 78 71 79 72 80 51 81 52 82 60 83 53 84 59 85
REMARK SMILES IDX 61 86 58 87 54 88 55 89 56 90 57 91
REMARK H PARENT 6 14 81 44 49 55
REMARK Flexibility Score: inf
ROOT
ATOM      1  C   UNL     1      -2.154   0.954  -3.650  1.00  0.00     0.274 C 
ENDROOT
BRANCH   1   2
ATOM      2  O   UNL     1      -1.831   0.821  -2.274  1.00  0.00    -0.462 OA
BRANCH   2   3
ATOM      3  C   UNL     1      -1.012   1.745  -1.707  1.00  0.00     0.310 C 
ATOM      4  O   UNL     1      -0.355   2.573  -2.293  1.00  0.00    -0.252 OA
BRANCH   3   5
ATOM      5  C   UNL     1      -1.033   1.530  -0.205  1.00  0.00     0.160 C 
BRANCH   5   6
ATOM      6  C   UNL     1      -0.391   0.203   0.102  1.00  0.00    -0.013 A 
ATOM      7  C   UNL     1       3.247  -0.878   0.160  1.00  0.00     0.044 C 
ATOM      8  C   UNL     1       1.754  -0.938   0.216  1.00  0.00    -0.051 A 
ATOM      9  C   UNL     1       1.078  -2.158   0.188  1.00  0.00     0.005 A 
ATOM     10  C   UNL     1       1.012   0.236   0.207  1.00  0.00     0.009 A 
ATOM     11  C   UNL     1      -0.319  -2.199   0.133  1.00  0.00     0.026 A 
ATOM     12  C   UNL     1      -1.084  -1.030   0.066  1.00  0.00     0.042 A 
BRANCH  12  13
ATOM     13  N   UNL     1      -2.471  -1.120  -0.159  1.00  0.00    -0.352 N 
ATOM     14  H   UNL     1      -2.889  -0.302  -0.513  1.00  0.00     0.167 HD
BRANCH  13  15
ATOM     15  C   UNL     1      -3.358  -2.208   0.046  1.00  0.00     0.094 A 
ATOM     16  C   UNL     1      -3.668  -2.632   1.344  1.00  0.00     0.148 A 
ATOM     17  C   UNL     1      -4.123  -2.758  -0.999  1.00  0.00     0.067 A 
ATOM     18  F   UNL     1      -2.971  -2.162   2.390  1.00  0.00    -0.205 F 
ATOM     19  C   UNL     1      -4.689  -3.551   1.596  1.00  0.00     0.041 A 
ATOM     20  C   UNL     1      -5.204  -3.612  -0.747  1.00  0.00     0.023 A 
ATOM     21  Cl  UNL     1      -3.651  -2.601  -2.650  1.00  0.00    -0.082 Cl
ATOM     22  C   UNL     1      -5.484  -4.016   0.553  1.00  0.00     0.005 A 
ENDBRANCH  13  15
ENDBRANCH  12  13
ENDBRANCH   5   6
ENDBRANCH   3   5
ENDBRANCH   2   3
ENDBRANCH   1   2
BRANCH   1  23
ATOM     23  C   UNL     1      -3.605   0.490  -3.849  1.00  0.00     0.275 C 
BRANCH  23  24
ATOM     24  O   UNL     1      -4.428   0.318  -2.631  1.00  0.00    -0.458 OA
BRANCH  24  25
ATOM     25  C   UNL     1      -4.648   1.145  -1.564  1.00  0.00     0.338 C 
ATOM     26  O   UNL     1      -4.902   0.709  -0.445  1.00  0.00    -0.246 OA
BRANCH  25  27
ATOM     27  C   UNL     1      -4.324   2.565  -1.736  1.00  0.00     0.060 A 
ATOM     28  C   UNL     1      -3.796   3.353  -0.695  1.00  0.00     0.016 A 
ATOM     29  C   UNL     1      -4.352   3.035  -3.024  1.00  0.00     0.016 A 
ATOM     30  C   UNL     1      -3.165   4.552  -1.012  1.00  0.00     0.010 A 
ATOM     31  C   UNL     1      -3.431   3.972  -3.364  1.00  0.00     0.010 A 
ATOM     32  C   UNL     1      -2.956   4.822  -2.365  1.00  0.00    -0.014 A 
BRANCH  32  33
ATOM     33  C   UNL     1      -2.584   6.111  -2.922  1.00  0.00     0.031 A 
ATOM     34  C   UNL     1      -1.222   6.617  -2.769  1.00  0.00     0.074 A 
ATOM     35  C   UNL     1      -3.601   6.680  -3.616  1.00  0.00     0.049 A 
ATOM     36  N   UNL     1      -0.920   7.794  -2.346  1.00  0.00    -0.248 NA
ATOM     37  C   UNL     1      -0.044   5.785  -3.030  1.00  0.00     0.031 C 
ATOM     38  C   UNL     1      -3.683   7.836  -4.478  1.00  0.00     0.029 A 
ATOM     39  N   UNL     1      -4.932   6.255  -3.541  1.00  0.00    -0.354 N 
ATOM     40  C   UNL     1       0.394   7.988  -2.723  1.00  0.00     0.074 A 
ATOM     41  C   UNL     1       0.952   6.670  -2.899  1.00  0.00     0.031 C 
ATOM     42  C   UNL     1      -4.983   8.201  -4.576  1.00  0.00     0.029 A 
ATOM     43  C   UNL     1      -5.780   7.327  -3.717  1.00  0.00     0.049 A 
ATOM     44  H   UNL     1      -5.220   5.327  -3.385  1.00  0.00     0.167 HD
ATOM     45  C   UNL     1       0.781   9.196  -3.223  1.00  0.00     0.034 A 
ATOM     46  C   UNL     1      -6.528   7.657  -2.623  1.00  0.00     0.034 A 
ATOM     47  C   UNL     1      -0.391  10.049  -3.410  1.00  0.00     0.049 A 
ATOM     48  C   UNL     1      -5.952   8.907  -2.005  1.00  0.00     0.074 A 
ATOM     49  C   UNL     1      -1.144  10.336  -4.537  1.00  0.00     0.029 A 
ATOM     50  N   UNL     1      -1.166  10.405  -2.317  1.00  0.00    -0.354 N 
ATOM     51  N   UNL     1      -4.711   9.289  -2.150  1.00  0.00    -0.248 NA
ATOM     52  C   UNL     1      -6.759   9.867  -1.269  1.00  0.00     0.031 C 
ATOM     53  C   UNL     1      -2.410  10.810  -4.106  1.00  0.00     0.029 A 
ATOM     54  C   UNL     1      -2.425  10.804  -2.722  1.00  0.00     0.049 A 
ATOM     55  H   UNL     1      -0.862  10.378  -1.382  1.00  0.00     0.167 HD
ATOM     56  C   UNL     1      -4.561  10.548  -1.640  1.00  0.00     0.074 A 
ATOM     57  C   UNL     1      -5.872  10.860  -1.088  1.00  0.00     0.031 C 
ATOM     58  C   UNL     1      -3.392  11.252  -1.737  1.00  0.00     0.034 A 
BRANCH  45  59
ATOM     59  C   UNL     1       2.102   9.459  -3.904  1.00  0.00     0.023 A 
ATOM     60  C   UNL     1       2.168  10.402  -4.950  1.00  0.00     0.031 A 
ATOM     61  C   UNL     1       3.324   8.861  -3.543  1.00  0.00     0.131 A 
ATOM     62  C   UNL     1       3.367  10.674  -5.628  1.00  0.00     0.055 A 
ATOM     63  C   UNL     1       4.521   9.111  -4.235  1.00  0.00     0.041 A 
ATOM     64  F   UNL     1       3.411   8.038  -2.486  1.00  0.00    -0.206 F 
ATOM     65  C   UNL     1       4.546  10.019  -5.288  1.00  0.00     0.022 A 
BRANCH  62  66
ATOM     66  S   UNL     1       3.357  11.927  -6.940  1.00  0.00     0.124 S 
ATOM     67  O   UNL     1       2.462  11.331  -7.927  1.00  0.00    -0.237 OA
ATOM     68  O   UNL     1       2.853  13.105  -6.243  1.00  0.00    -0.237 OA
ATOM     69  O   UNL     1       4.760  12.005  -7.346  1.00  0.00    -0.744 OA
ENDBRANCH  62  66
ENDBRANCH  45  59
BRANCH  46  70
ATOM     70  C   UNL     1      -7.076   6.454  -1.883  1.00  0.00     0.023 A 
ATOM     71  C   UNL     1      -7.785   5.491  -2.648  1.00  0.00     0.031 A 
ATOM     72  C   UNL     1      -6.672   6.061  -0.599  1.00  0.00     0.131 A 
ATOM     73  C   UNL     1      -7.935   4.166  -2.200  1.00  0.00     0.055 A 
ATOM     74  C   UNL     1      -6.894   4.754  -0.121  1.00  0.00     0.041 A 
ATOM     75  F   UNL     1      -5.976   6.894   0.186  1.00  0.00    -0.206 F 
ATOM     76  C   UNL     1      -7.493   3.789  -0.934  1.00  0.00     0.022 A 
BRANCH  73  77
ATOM     77  S   UNL     1      -8.424   2.882  -3.397  1.00  0.00     0.124 S 
ATOM     78  O   UNL     1      -9.874   2.851  -3.244  1.00  0.00    -0.237 OA
ATOM     79  O   UNL     1      -7.923   3.416  -4.662  1.00  0.00    -0.237 OA
ATOM     80  O   UNL     1      -7.707   1.700  -2.929  1.00  0.00    -0.744 OA
ENDBRANCH  73  77
ENDBRANCH  46  70
BRANCH  58  81
ATOM     81  C   UNL     1      -3.078  12.508  -0.969  1.00  0.00     0.023 A 
ATOM     82  C   UNL     1      -3.806  12.886   0.159  1.00  0.00     0.031 A 
ATOM     83  C   UNL     1      -1.968  13.327  -1.294  1.00  0.00     0.131 A 
ATOM     84  C   UNL     1      -3.530  14.085   0.823  1.00  0.00     0.055 A 
ATOM     85  C   UNL     1      -1.610  14.448  -0.545  1.00  0.00     0.041 A 
ATOM     86  F   UNL     1      -1.176  13.076  -2.346  1.00  0.00    -0.206 F 
ATOM     87  C   UNL     1      -2.414  14.854   0.506  1.00  0.00     0.022 A 
BRANCH  84  88
ATOM     88  S   UNL     1      -4.758  14.669   2.011  1.00  0.00     0.124 S 
ATOM     89  O   UNL     1      -5.938  14.824   1.162  1.00  0.00    -0.237 OA
ATOM     90  O   UNL     1      -4.812  13.573   2.972  1.00  0.00    -0.237 OA
ATOM     91  O   UNL     1      -4.184  15.915   2.511  1.00  0.00    -0.744 OA
ENDBRANCH  84  88
ENDBRANCH  58  81
ENDBRANCH  32  33
ENDBRANCH  25  27
ENDBRANCH  24  25
ENDBRANCH  23  24
ENDBRANCH   1  23
TORSDOF 17
