REMARK SMILES O=C(OCCOC(=O)[C@H]1CC[C@@H](C(F)F)[NH2+]1)c1ccc(-c2c3nc(c(-c4cc(S(=O)(=O)[O-])ccc4F)c4ccc([nH]4)c(-c4cc(S(=O)(=O)[O-])ccc4F)c4nc(c(-c5cc(S(=O)(=O)[O-])ccc5F)c5ccc2[nH]5)C=C4)C=C3)cc1
REMARK SMILES IDX 4 1 3 2 2 3 1 4 17 5 18 6 79 7 19 8 78 9 20 10 21 11 22 12
REMARK SMILES IDX 72 13 23 14 77 15 71 16 73 17 24 18 76 19 70 20 69 21 25 23
REMARK SMILES IDX 57 24 37 25 56 26 38 27 41 28 55 29 74 30 39 31 40 32 54 34
REMARK SMILES IDX 75 35 42 36 26 37 27 38 35 39 28 40 34 41 36 42 33 43 29 44
REMARK SMILES IDX 30 45 31 46 32 47 58 48 59 49 67 50 60 51 66 52 68 53 65 54
REMARK SMILES IDX 61 55 62 56 63 57 64 58 43 59 44 60 52 61 45 62 51 63 53 64
REMARK SMILES IDX 50 65 46 66 47 67 48 68 49 69 5 70 6 71 7 72 8 73 9 74 10 75
REMARK SMILES IDX 16 76 11 77 12 78 13 81 14 82 15 83
REMARK H PARENT 73 22 41 33 16 79 16 80
REMARK Flexibility Score: inf
ROOT
ATOM      1  C   UNL     1      -1.952   1.248   1.929  1.00  0.00     0.275 C 
ENDROOT
BRANCH   1   2
ATOM      2  O   UNL     1      -1.705   2.093   3.058  1.00  0.00    -0.458 OA
BRANCH   2   3
ATOM      3  C   UNL     1      -0.689   2.064   3.950  1.00  0.00     0.338 C 
ATOM      4  O   UNL     1      -0.633   2.980   4.773  1.00  0.00    -0.246 OA
BRANCH   3   5
ATOM      5  C   UNL     1       0.416   1.045   3.954  1.00  0.00     0.060 A 
ATOM      6  C   UNL     1       0.463  -0.187   3.295  1.00  0.00     0.016 A 
ATOM      7  C   UNL     1       1.553   1.415   4.683  1.00  0.00     0.016 A 
ATOM      8  C   UNL     1       1.627  -0.972   3.292  1.00  0.00     0.010 A 
ATOM      9  C   UNL     1       2.741   0.690   4.600  1.00  0.00     0.010 A 
ATOM     10  C   UNL     1       2.788  -0.530   3.926  1.00  0.00    -0.014 A 
BRANCH  10  11
ATOM     11  C   UNL     1       3.998  -1.389   4.021  1.00  0.00     0.031 A 
ATOM     12  C   UNL     1       4.487  -1.791   5.392  1.00  0.00     0.074 A 
ATOM     13  C   UNL     1       4.661  -1.778   2.913  1.00  0.00     0.049 A 
ATOM     14  N   UNL     1       5.511  -2.532   5.726  1.00  0.00    -0.248 NA
ATOM     15  C   UNL     1       3.766  -1.224   6.544  1.00  0.00     0.031 C 
ATOM     16  C   UNL     1       4.341  -1.374   1.540  1.00  0.00     0.029 A 
ATOM     17  N   UNL     1       5.738  -2.615   2.762  1.00  0.00    -0.354 N 
ATOM     18  C   UNL     1       5.561  -2.483   7.117  1.00  0.00     0.074 A 
ATOM     19  C   UNL     1       4.575  -1.521   7.542  1.00  0.00     0.031 C 
ATOM     20  C   UNL     1       5.165  -2.010   0.688  1.00  0.00     0.029 A 
ATOM     21  C   UNL     1       6.078  -2.856   1.448  1.00  0.00     0.049 A 
ATOM     22  H   UNL     1       6.224  -3.007   3.523  1.00  0.00     0.167 HD
ATOM     23  C   UNL     1       6.295  -3.233   7.974  1.00  0.00     0.034 A 
ATOM     24  C   UNL     1       6.998  -3.697   0.931  1.00  0.00     0.034 A 
ATOM     25  C   UNL     1       7.228  -4.228   7.524  1.00  0.00     0.049 A 
ATOM     26  C   UNL     1       7.794  -4.553   1.892  1.00  0.00     0.074 A 
ATOM     27  C   UNL     1       7.996  -5.103   8.266  1.00  0.00     0.029 A 
ATOM     28  N   UNL     1       7.509  -4.480   6.185  1.00  0.00    -0.354 N 
ATOM     29  N   UNL     1       7.751  -4.582   3.206  1.00  0.00    -0.248 NA
ATOM     30  C   UNL     1       8.735  -5.511   1.300  1.00  0.00     0.031 C 
ATOM     31  C   UNL     1       8.779  -5.850   7.377  1.00  0.00     0.029 A 
ATOM     32  C   UNL     1       8.450  -5.487   6.079  1.00  0.00     0.049 A 
ATOM     33  H   UNL     1       7.099  -4.009   5.424  1.00  0.00     0.167 HD
ATOM     34  C   UNL     1       8.623  -5.596   3.593  1.00  0.00     0.074 A 
ATOM     35  C   UNL     1       9.166  -6.159   2.372  1.00  0.00     0.031 C 
ATOM     36  C   UNL     1       8.950  -6.031   4.839  1.00  0.00     0.034 A 
BRANCH  23  37
ATOM     37  C   UNL     1       6.082  -2.985   9.451  1.00  0.00     0.023 A 
ATOM     38  C   UNL     1       4.809  -3.125  10.040  1.00  0.00     0.031 A 
ATOM     39  C   UNL     1       7.119  -2.479  10.251  1.00  0.00     0.131 A 
ATOM     40  C   UNL     1       4.572  -2.628  11.330  1.00  0.00     0.055 A 
ATOM     41  C   UNL     1       6.900  -2.088  11.576  1.00  0.00     0.041 A 
ATOM     42  F   UNL     1       8.352  -2.311   9.749  1.00  0.00    -0.206 F 
ATOM     43  C   UNL     1       5.615  -2.133  12.113  1.00  0.00     0.022 A 
BRANCH  40  44
ATOM     44  S   UNL     1       2.850  -2.446  11.877  1.00  0.00     0.124 S 
ATOM     45  O   UNL     1       2.322  -1.516  10.879  1.00  0.00    -0.237 OA
ATOM     46  O   UNL     1       2.348  -3.807  11.810  1.00  0.00    -0.237 OA
ATOM     47  O   UNL     1       2.978  -1.890  13.227  1.00  0.00    -0.744 OA
ENDBRANCH  40  44
ENDBRANCH  23  37
BRANCH  24  48
ATOM     48  C   UNL     1       7.179  -3.838  -0.546  1.00  0.00     0.023 A 
ATOM     49  C   UNL     1       6.887  -5.051  -1.196  1.00  0.00     0.031 A 
ATOM     50  C   UNL     1       7.696  -2.789  -1.325  1.00  0.00     0.131 A 
ATOM     51  C   UNL     1       7.168  -5.205  -2.564  1.00  0.00     0.055 A 
ATOM     52  C   UNL     1       7.931  -2.932  -2.697  1.00  0.00     0.041 A 
ATOM     53  F   UNL     1       7.981  -1.603  -0.764  1.00  0.00    -0.206 F 
ATOM     54  C   UNL     1       7.681  -4.151  -3.321  1.00  0.00     0.022 A 
BRANCH  51  55
ATOM     55  S   UNL     1       6.930  -6.837  -3.324  1.00  0.00     0.124 S 
ATOM     56  O   UNL     1       7.780  -7.680  -2.491  1.00  0.00    -0.237 OA
ATOM     57  O   UNL     1       5.491  -7.030  -3.177  1.00  0.00    -0.237 OA
ATOM     58  O   UNL     1       7.394  -6.644  -4.697  1.00  0.00    -0.744 OA
ENDBRANCH  51  55
ENDBRANCH  24  48
BRANCH  36  59
ATOM     59  C   UNL     1       9.887  -7.206   4.928  1.00  0.00     0.023 A 
ATOM     60  C   UNL     1      11.229  -7.111   4.529  1.00  0.00     0.031 A 
ATOM     61  C   UNL     1       9.427  -8.436   5.432  1.00  0.00     0.131 A 
ATOM     62  C   UNL     1      12.053  -8.242   4.586  1.00  0.00     0.055 A 
ATOM     63  C   UNL     1      10.269  -9.540   5.550  1.00  0.00     0.041 A 
ATOM     64  F   UNL     1       8.151  -8.578   5.827  1.00  0.00    -0.206 F 
ATOM     65  C   UNL     1      11.588  -9.451   5.113  1.00  0.00     0.022 A 
BRANCH  62  66
ATOM     66  S   UNL     1      13.716  -8.138   3.872  1.00  0.00     0.124 S 
ATOM     67  O   UNL     1      13.430  -7.753   2.494  1.00  0.00    -0.237 OA
ATOM     68  O   UNL     1      14.348  -7.117   4.701  1.00  0.00    -0.237 OA
ATOM     69  O   UNL     1      14.246  -9.490   4.041  1.00  0.00    -0.744 OA
ENDBRANCH  62  66
ENDBRANCH  36  59
ENDBRANCH  10  11
ENDBRANCH   3   5
ENDBRANCH   2   3
ENDBRANCH   1   2
BRANCH   1  70
ATOM     70  C   UNL     1      -1.097   1.562   0.701  1.00  0.00     0.274 C 
BRANCH  70  71
ATOM     71  O   UNL     1       0.290   1.817   0.987  1.00  0.00    -0.458 OA
BRANCH  71  72
ATOM     72  C   UNL     1       0.705   3.114   0.831  1.00  0.00     0.364 C 
ATOM     73  O   UNL     1      -0.040   4.039   0.523  1.00  0.00    -0.245 OA
BRANCH  72  74
ATOM     74  C   UNL     1       2.235   3.247   0.993  1.00  0.00     0.294 C 
ATOM     75  C   UNL     1       2.712   4.677   0.747  1.00  0.00     0.084 C 
ATOM     76  N   UNL     1       2.651   2.947   2.377  1.00  0.00    -0.327 N 
ATOM     77  C   UNL     1       2.860   5.257   2.140  1.00  0.00     0.078 C 
ATOM     78  C   UNL     1       3.432   4.085   2.913  1.00  0.00     0.251 C 
ATOM     79  H   UNL     1       3.227   2.105   2.384  1.00  0.00     0.347 HD
ATOM     80  H   UNL     1       1.825   2.797   2.956  1.00  0.00     0.347 HD
BRANCH  78  81
ATOM     81  C   UNL     1       3.370   4.330   4.429  1.00  0.00     0.399 C 
ATOM     82  F   UNL     1       4.065   3.366   5.085  1.00  0.00    -0.204 F 
ATOM     83  F   UNL     1       3.993   5.503   4.726  1.00  0.00    -0.204 F 
ENDBRANCH  78  81
ENDBRANCH  72  74
ENDBRANCH  71  72
ENDBRANCH  70  71
ENDBRANCH   1  70
TORSDOF 15
