REMARK SMILES Cc1cc(C(=O)OCCOC(=O)c2ccc(-c3c4nc(c(-c5cc(S(=O)(=O)[O-])ccc5F)c5ccc([nH]5)c(-c5cc(S(=O)(=O)[O-])ccc5F)c5nc(c(-c6cc(S(=O)(=O)[O-])ccc6F)c6ccc3[nH]6)C=C5)C=C4)cc2)ccc1NS(=O)(=O)c1ccc(C#N)cc1C
REMARK SMILES IDX 8 1 7 2 5 3 6 4 4 5 1 6 2 7 3 8 78 9 77 10 76 11 79 12 80 14
REMARK SMILES IDX 81 15 82 16 83 17 84 18 90 19 85 20 89 21 91 22 86 23 87 24
REMARK SMILES IDX 88 25 9 26 10 27 11 28 12 29 13 30 14 31 75 32 15 33 74 34
REMARK SMILES IDX 16 35 17 36 18 37 68 38 19 39 73 40 67 41 69 42 20 43 72 44
REMARK SMILES IDX 66 45 65 46 21 48 53 49 33 50 52 51 34 52 37 53 51 54 70 55
REMARK SMILES IDX 35 56 36 57 50 59 71 60 38 61 22 62 23 63 31 64 24 65 30 66
REMARK SMILES IDX 32 67 29 68 25 69 26 70 27 71 28 72 54 73 55 74 63 75 56 76
REMARK SMILES IDX 62 77 64 78 61 79 57 80 58 81 59 82 60 83 39 84 40 85 48 86
REMARK SMILES IDX 41 87 47 88 49 89 46 90 42 91 43 92 44 93 45 94
REMARK H PARENT 79 13 69 47 37 58
REMARK Flexibility Score: inf
ROOT
ATOM      1  C   UNL     1      -3.998  -2.725  -1.910  1.00  0.00     0.275 C 
ENDROOT
BRANCH   1   2
ATOM      2  O   UNL     1      -2.822  -1.948  -2.188  1.00  0.00    -0.458 OA
BRANCH   2   3
ATOM      3  C   UNL     1      -2.442  -1.152  -1.164  1.00  0.00     0.338 C 
ATOM      4  O   UNL     1      -3.045  -0.961  -0.116  1.00  0.00    -0.246 OA
BRANCH   3   5
ATOM      5  C   UNL     1      -1.294  -0.299  -1.503  1.00  0.00     0.060 A 
ATOM      6  C   UNL     1       2.203   0.285  -0.136  1.00  0.00     0.046 C 
ATOM      7  C   UNL     1       0.834   0.560  -0.698  1.00  0.00    -0.026 A 
ATOM      8  C   UNL     1      -0.016  -0.519  -0.977  1.00  0.00     0.021 A 
ATOM      9  C   UNL     1       0.314   1.847  -0.876  1.00  0.00     0.052 A 
ATOM     10  C   UNL     1      -0.797   2.032  -1.706  1.00  0.00     0.028 A 
ATOM     11  C   UNL     1      -1.637   0.959  -1.975  1.00  0.00     0.018 A 
BRANCH   9  12
ATOM     12  N   UNL     1       0.759   2.876   0.007  1.00  0.00    -0.279 N 
ATOM     13  H   UNL     1       1.567   2.699   0.541  1.00  0.00     0.180 HD
BRANCH  12  14
ATOM     14  S   UNL     1       0.015   4.362   0.203  1.00  0.00     0.262 S 
ATOM     15  O   UNL     1       0.560   4.941   1.412  1.00  0.00    -0.201 OA
ATOM     16  O   UNL     1       0.137   5.041  -1.073  1.00  0.00    -0.201 OA
BRANCH  14  17
ATOM     17  C   UNL     1      -1.752   4.117   0.500  1.00  0.00     0.090 A 
ATOM     18  C   UNL     1      -2.254   2.860   0.879  1.00  0.00     0.024 A 
ATOM     19  C   UNL     1      -2.651   5.144   0.141  1.00  0.00    -0.029 A 
ATOM     20  C   UNL     1      -3.622   2.572   0.742  1.00  0.00     0.021 A 
ATOM     21  C   UNL     1      -4.020   4.837   0.017  1.00  0.00     0.024 A 
ATOM     22  C   UNL     1      -2.255   6.581  -0.067  1.00  0.00     0.046 C 
ATOM     23  C   UNL     1      -4.500   3.548   0.270  1.00  0.00     0.052 A 
BRANCH  23  24
ATOM     24  C   UNL     1      -5.884   3.246   0.004  1.00  0.00     0.099 C 
ATOM     25  N   UNL     1      -6.986   3.044  -0.267  1.00  0.00    -0.192 NA
ENDBRANCH  23  24
ENDBRANCH  14  17
ENDBRANCH  12  14
ENDBRANCH   9  12
ENDBRANCH   3   5
ENDBRANCH   2   3
ENDBRANCH   1   2
BRANCH   1  26
ATOM     26  C   UNL     1      -3.967  -4.111  -2.580  1.00  0.00     0.275 C 
BRANCH  26  27
ATOM     27  O   UNL     1      -2.757  -4.915  -2.573  1.00  0.00    -0.458 OA
BRANCH  27  28
ATOM     28  C   UNL     1      -1.631  -4.502  -1.937  1.00  0.00     0.338 C 
ATOM     29  O   UNL     1      -0.652  -4.062  -2.524  1.00  0.00    -0.246 OA
BRANCH  28  30
ATOM     30  C   UNL     1      -1.801  -4.403  -0.473  1.00  0.00     0.060 A 
ATOM     31  C   UNL     1      -0.885  -3.618   0.241  1.00  0.00     0.016 A 
ATOM     32  C   UNL     1      -2.994  -4.824   0.103  1.00  0.00     0.016 A 
ATOM     33  C   UNL     1      -1.202  -3.141   1.497  1.00  0.00     0.010 A 
ATOM     34  C   UNL     1      -3.409  -4.201   1.243  1.00  0.00     0.010 A 
ATOM     35  C   UNL     1      -2.473  -3.445   1.966  1.00  0.00    -0.014 A 
BRANCH  35  36
ATOM     36  C   UNL     1      -2.786  -3.452   3.377  1.00  0.00     0.031 A 
ATOM     37  C   UNL     1      -3.354  -2.221   3.949  1.00  0.00     0.074 A 
ATOM     38  C   UNL     1      -2.666  -4.734   3.810  1.00  0.00     0.049 A 
ATOM     39  N   UNL     1      -3.261  -1.862   5.176  1.00  0.00    -0.248 NA
ATOM     40  C   UNL     1      -4.005  -1.175   3.143  1.00  0.00     0.031 C 
ATOM     41  C   UNL     1      -3.160  -5.488   4.942  1.00  0.00     0.029 A 
ATOM     42  N   UNL     1      -1.831  -5.675   3.171  1.00  0.00    -0.354 N 
ATOM     43  C   UNL     1      -4.267  -0.931   5.371  1.00  0.00     0.074 A 
ATOM     44  C   UNL     1      -4.483  -0.345   4.080  1.00  0.00     0.031 C 
ATOM     45  C   UNL     1      -2.371  -6.575   5.112  1.00  0.00     0.029 A 
ATOM     46  C   UNL     1      -1.289  -6.512   4.131  1.00  0.00     0.049 A 
ATOM     47  H   UNL     1      -1.662  -5.728   2.203  1.00  0.00     0.167 HD
ATOM     48  C   UNL     1      -4.996  -1.010   6.524  1.00  0.00     0.034 A 
ATOM     49  C   UNL     1       0.039  -6.305   4.385  1.00  0.00     0.034 A 
ATOM     50  C   UNL     1      -4.501  -2.153   7.291  1.00  0.00     0.049 A 
ATOM     51  C   UNL     1       0.138  -5.543   5.689  1.00  0.00     0.074 A 
ATOM     52  C   UNL     1      -4.947  -3.459   7.400  1.00  0.00     0.029 A 
ATOM     53  N   UNL     1      -3.181  -2.147   7.709  1.00  0.00    -0.354 N 
ATOM     54  N   UNL     1      -0.711  -4.628   6.091  1.00  0.00    -0.248 NA
ATOM     55  C   UNL     1       1.088  -5.942   6.717  1.00  0.00     0.031 C 
ATOM     56  C   UNL     1      -3.829  -4.253   7.792  1.00  0.00     0.029 A 
ATOM     57  C   UNL     1      -2.712  -3.435   7.866  1.00  0.00     0.049 A 
ATOM     58  H   UNL     1      -2.650  -1.334   7.871  1.00  0.00     0.167 HD
ATOM     59  C   UNL     1      -0.526  -4.415   7.434  1.00  0.00     0.074 A 
ATOM     60  C   UNL     1       0.625  -5.248   7.767  1.00  0.00     0.031 C 
ATOM     61  C   UNL     1      -1.324  -3.639   8.235  1.00  0.00     0.034 A 
BRANCH  48  62
ATOM     62  C   UNL     1      -6.306  -0.340   6.881  1.00  0.00     0.023 A 
ATOM     63  C   UNL     1      -6.982  -0.808   8.032  1.00  0.00     0.031 A 
ATOM     64  C   UNL     1      -6.947   0.710   6.200  1.00  0.00     0.131 A 
ATOM     65  C   UNL     1      -8.223  -0.290   8.438  1.00  0.00     0.055 A 
ATOM     66  C   UNL     1      -8.190   1.233   6.605  1.00  0.00     0.041 A 
ATOM     67  F   UNL     1      -6.406   1.301   5.128  1.00  0.00    -0.206 F 
ATOM     68  C   UNL     1      -8.836   0.732   7.727  1.00  0.00     0.022 A 
BRANCH  65  69
ATOM     69  S   UNL     1      -9.013  -0.989   9.913  1.00  0.00     0.124 S 
ATOM     70  O   UNL     1      -9.226  -2.377   9.518  1.00  0.00    -0.237 OA
ATOM     71  O   UNL     1      -8.007  -0.757  10.944  1.00  0.00    -0.237 OA
ATOM     72  O   UNL     1     -10.232  -0.194  10.054  1.00  0.00    -0.744 OA
ENDBRANCH  65  69
ENDBRANCH  48  62
BRANCH  49  73
ATOM     73  C   UNL     1       0.872  -6.108   3.134  1.00  0.00     0.023 A 
ATOM     74  C   UNL     1       0.695  -7.043   2.077  1.00  0.00     0.031 A 
ATOM     75  C   UNL     1       1.589  -4.947   2.821  1.00  0.00     0.131 A 
ATOM     76  C   UNL     1       1.077  -6.747   0.756  1.00  0.00     0.055 A 
ATOM     77  C   UNL     1       2.042  -4.686   1.510  1.00  0.00     0.041 A 
ATOM     78  F   UNL     1       1.784  -3.991   3.740  1.00  0.00    -0.206 F 
ATOM     79  C   UNL     1       1.756  -5.568   0.463  1.00  0.00     0.022 A 
BRANCH  76  80
ATOM     80  S   UNL     1       0.419  -7.787  -0.589  1.00  0.00     0.124 S 
ATOM     81  O   UNL     1       1.328  -8.928  -0.568  1.00  0.00    -0.237 OA
ATOM     82  O   UNL     1      -0.948  -8.048  -0.142  1.00  0.00    -0.237 OA
ATOM     83  O   UNL     1       0.517  -6.931  -1.766  1.00  0.00    -0.744 OA
ENDBRANCH  76  80
ENDBRANCH  49  73
BRANCH  61  84
ATOM     84  C   UNL     1      -0.840  -3.031   9.527  1.00  0.00     0.023 A 
ATOM     85  C   UNL     1       0.516  -3.015   9.848  1.00  0.00     0.031 A 
ATOM     86  C   UNL     1      -1.692  -2.351  10.430  1.00  0.00     0.131 A 
ATOM     87  C   UNL     1       0.958  -2.543  11.083  1.00  0.00     0.055 A 
ATOM     88  C   UNL     1      -1.223  -1.724  11.584  1.00  0.00     0.041 A 
ATOM     89  F   UNL     1      -3.015  -2.249  10.234  1.00  0.00    -0.206 F 
ATOM     90  C   UNL     1       0.108  -1.860  11.944  1.00  0.00     0.022 A 
BRANCH  87  91
ATOM     91  S   UNL     1       2.623  -3.025  11.578  1.00  0.00     0.124 S 
ATOM     92  O   UNL     1       2.515  -4.483  11.586  1.00  0.00    -0.237 OA
ATOM     93  O   UNL     1       3.445  -2.462  10.512  1.00  0.00    -0.237 OA
ATOM     94  O   UNL     1       2.782  -2.405  12.890  1.00  0.00    -0.744 OA
ENDBRANCH  87  91
ENDBRANCH  61  84
ENDBRANCH  35  36
ENDBRANCH  28  30
ENDBRANCH  27  28
ENDBRANCH  26  27
ENDBRANCH   1  26
TORSDOF 18
