REMARK SMILES Cc1nn(C)c(C)c1C[C@@H](C)C(=O)N[C@@H](C(=O)OCCOC(=O)c1ccc(-c2c3nc(c(-c4cc(S(=O)(=O)[O-])ccc4F)c4ccc([nH]4)c(-c4cc(S(=O)(=O)[O-])ccc4F)c4nc(c(-c5cc(S(=O)(=O)[O-])ccc5F)c5ccc2[nH]5)C=C4)C=C3)cc1)c1ccccc1Cl
REMARK SMILES IDX 19 1 18 2 16 3 17 4 15 5 14 6 12 7 13 8 10 10 11 11 9 12
REMARK SMILES IDX 8 13 1 14 2 15 3 16 4 17 6 18 5 19 7 20 87 21 88 22 92 23
REMARK SMILES IDX 89 24 91 25 93 26 90 27 20 28 21 29 22 30 23 31 24 32 25 33
REMARK SMILES IDX 86 34 26 35 85 36 27 37 28 38 29 39 79 40 30 41 84 42 78 43
REMARK SMILES IDX 80 44 31 45 83 46 77 47 76 48 32 50 64 51 44 52 63 53 45 54
REMARK SMILES IDX 48 55 62 56 81 57 46 58 47 59 61 61 82 62 49 63 33 64 34 65
REMARK SMILES IDX 42 66 35 67 41 68 43 69 40 70 36 71 37 72 38 73 39 74 65 75
REMARK SMILES IDX 66 76 74 77 67 78 73 79 75 80 72 81 68 82 69 83 70 84 71 85
REMARK SMILES IDX 50 86 51 87 59 88 52 89 58 90 60 91 57 92 53 93 54 94 55 95
REMARK SMILES IDX 56 96
REMARK H PARENT 14 9 80 49 48 60
REMARK Flexibility Score: inf
ROOT
ATOM      1  C   UNL     1      -1.849   5.146  -3.156  1.00  0.00     0.274 C 
ENDROOT
BRANCH   1   2
ATOM      2  O   UNL     1      -1.202   5.285  -1.873  1.00  0.00    -0.460 OA
BRANCH   2   3
ATOM      3  C   UNL     1       0.140   5.037  -1.841  1.00  0.00     0.333 C 
ATOM      4  O   UNL     1       0.801   4.699  -2.818  1.00  0.00    -0.249 OA
BRANCH   3   5
ATOM      5  C   UNL     1       0.722   5.108  -0.412  1.00  0.00     0.224 C 
BRANCH   5   6
ATOM      6  N   UNL     1      -0.268   5.382   0.627  1.00  0.00    -0.339 N 
ATOM      7  C   UNL     1      -0.946   4.530   1.442  1.00  0.00     0.224 C 
ATOM      8  O   UNL     1      -1.883   4.979   2.106  1.00  0.00    -0.275 OA
ATOM      9  H   UNL     1      -0.478   6.335   0.758  1.00  0.00     0.164 HD
BRANCH   7  10
ATOM     10  C   UNL     1      -0.564   3.056   1.559  1.00  0.00     0.080 C 
ATOM     11  C   UNL     1       0.838   2.916   2.158  1.00  0.00     0.018 C 
BRANCH  10  12
ATOM     12  C   UNL     1      -0.871   2.310   0.249  1.00  0.00     0.052 C 
BRANCH  12  13
ATOM     13  C   UNL     1      -0.492   0.867   0.210  1.00  0.00    -0.003 A 
ATOM     14  C   UNL     1      -2.838  -0.296   0.379  1.00  0.00     0.069 C 
ATOM     15  C   UNL     1      -1.357  -0.260   0.282  1.00  0.00     0.063 A 
ATOM     16  N   UNL     1      -0.682  -1.410   0.197  1.00  0.00    -0.178 NA
ATOM     17  N   UNL     1       0.599  -1.035   0.043  1.00  0.00    -0.272 N 
ATOM     18  C   UNL     1       0.763   0.323  -0.031  1.00  0.00     0.038 A 
ATOM     19  C   UNL     1       1.609  -2.061  -0.064  1.00  0.00     0.174 C 
ATOM     20  C   UNL     1       2.074   0.960  -0.329  1.00  0.00     0.066 C 
ENDBRANCH  12  13
ENDBRANCH  10  12
ENDBRANCH   7  10
ENDBRANCH   5   6
BRANCH   5  21
ATOM     21  C   UNL     1       2.001   5.922  -0.293  1.00  0.00     0.004 A 
ATOM     22  C   UNL     1       3.213   5.269  -0.619  1.00  0.00     0.008 A 
ATOM     23  C   UNL     1       2.077   7.262   0.120  1.00  0.00     0.046 A 
ATOM     24  C   UNL     1       4.448   5.905  -0.483  1.00  0.00     0.000 A 
ATOM     25  C   UNL     1       3.320   7.891   0.279  1.00  0.00     0.021 A 
ATOM     26  Cl  UNL     1       0.671   8.225   0.404  1.00  0.00    -0.084 Cl
ATOM     27  C   UNL     1       4.502   7.212  -0.016  1.00  0.00     0.002 A 
ENDBRANCH   5  21
ENDBRANCH   3   5
ENDBRANCH   2   3
ENDBRANCH   1   2
BRANCH   1  28
ATOM     28  C   UNL     1      -2.095   6.514  -3.783  1.00  0.00     0.275 C 
BRANCH  28  29
ATOM     29  O   UNL     1      -0.831   7.162  -3.984  1.00  0.00    -0.458 OA
BRANCH  29  30
ATOM     30  C   UNL     1      -0.685   8.380  -3.415  1.00  0.00     0.338 C 
ATOM     31  O   UNL     1      -1.559   9.043  -2.871  1.00  0.00    -0.246 OA
BRANCH  30  32
ATOM     32  C   UNL     1       0.720   8.814  -3.529  1.00  0.00     0.060 A 
ATOM     33  C   UNL     1       1.757   7.906  -3.321  1.00  0.00     0.016 A 
ATOM     34  C   UNL     1       1.017  10.158  -3.744  1.00  0.00     0.016 A 
ATOM     35  C   UNL     1       3.072   8.349  -3.226  1.00  0.00     0.010 A 
ATOM     36  C   UNL     1       2.352  10.581  -3.757  1.00  0.00     0.010 A 
ATOM     37  C   UNL     1       3.398   9.690  -3.453  1.00  0.00    -0.014 A 
BRANCH  37  38
ATOM     38  C   UNL     1       4.805  10.167  -3.298  1.00  0.00     0.031 A 
ATOM     39  C   UNL     1       5.106  11.327  -2.382  1.00  0.00     0.074 A 
ATOM     40  C   UNL     1       5.828   9.559  -3.933  1.00  0.00     0.049 A 
ATOM     41  N   UNL     1       6.188  12.057  -2.292  1.00  0.00    -0.248 NA
ATOM     42  C   UNL     1       4.032  11.733  -1.464  1.00  0.00     0.031 C 
ATOM     43  C   UNL     1       5.720   8.373  -4.786  1.00  0.00     0.029 A 
ATOM     44  N   UNL     1       7.172   9.844  -3.943  1.00  0.00    -0.354 N 
ATOM     45  C   UNL     1       5.893  13.065  -1.377  1.00  0.00     0.074 A 
ATOM     46  C   UNL     1       4.530  12.842  -0.940  1.00  0.00     0.031 C 
ATOM     47  C   UNL     1       6.946   7.991  -5.170  1.00  0.00     0.029 A 
ATOM     48  C   UNL     1       7.917   8.973  -4.704  1.00  0.00     0.049 A 
ATOM     49  H   UNL     1       7.565  10.601  -3.452  1.00  0.00     0.167 HD
ATOM     50  C   UNL     1       6.684  14.084  -0.954  1.00  0.00     0.034 A 
ATOM     51  C   UNL     1       9.221   8.988  -5.040  1.00  0.00     0.034 A 
ATOM     52  C   UNL     1       8.065  14.245  -1.346  1.00  0.00     0.049 A 
ATOM     53  C   UNL     1      10.071  10.148  -4.602  1.00  0.00     0.074 A 
ATOM     54  C   UNL     1       8.964  15.229  -0.969  1.00  0.00     0.029 A 
ATOM     55  N   UNL     1       8.757  13.386  -2.191  1.00  0.00    -0.354 N 
ATOM     56  N   UNL     1       9.745  11.175  -3.853  1.00  0.00    -0.248 NA
ATOM     57  C   UNL     1      11.455  10.170  -5.093  1.00  0.00     0.031 C 
ATOM     58  C   UNL     1      10.179  14.993  -1.623  1.00  0.00     0.029 A 
ATOM     59  C   UNL     1      10.062  13.826  -2.360  1.00  0.00     0.049 A 
ATOM     60  H   UNL     1       8.376  12.580  -2.610  1.00  0.00     0.167 HD
ATOM     61  C   UNL     1      10.885  11.969  -3.785  1.00  0.00     0.074 A 
ATOM     62  C   UNL     1      11.913  11.287  -4.547  1.00  0.00     0.031 C 
ATOM     63  C   UNL     1      11.065  13.156  -3.153  1.00  0.00     0.034 A 
BRANCH  50  64
ATOM     64  C   UNL     1       6.043  15.140  -0.084  1.00  0.00     0.023 A 
ATOM     65  C   UNL     1       5.533  14.855   1.194  1.00  0.00     0.031 A 
ATOM     66  C   UNL     1       5.884  16.450  -0.576  1.00  0.00     0.131 A 
ATOM     67  C   UNL     1       4.809  15.834   1.893  1.00  0.00     0.055 A 
ATOM     68  C   UNL     1       5.240  17.444   0.162  1.00  0.00     0.041 A 
ATOM     69  F   UNL     1       6.334  16.780  -1.797  1.00  0.00    -0.206 F 
ATOM     70  C   UNL     1       4.678  17.133   1.396  1.00  0.00     0.022 A 
BRANCH  67  71
ATOM     71  S   UNL     1       3.885  15.332   3.372  1.00  0.00     0.124 S 
ATOM     72  O   UNL     1       3.082  14.225   2.857  1.00  0.00    -0.237 OA
ATOM     73  O   UNL     1       4.952  14.972   4.298  1.00  0.00    -0.237 OA
ATOM     74  O   UNL     1       3.127  16.531   3.725  1.00  0.00    -0.744 OA
ENDBRANCH  67  71
ENDBRANCH  50  64
BRANCH  51  75
ATOM     75  C   UNL     1       9.786   7.913  -5.904  1.00  0.00     0.023 A 
ATOM     76  C   UNL     1      10.748   7.022  -5.403  1.00  0.00     0.031 A 
ATOM     77  C   UNL     1       9.380   7.768  -7.242  1.00  0.00     0.131 A 
ATOM     78  C   UNL     1      11.283   6.032  -6.242  1.00  0.00     0.055 A 
ATOM     79  C   UNL     1       9.881   6.753  -8.058  1.00  0.00     0.041 A 
ATOM     80  F   UNL     1       8.465   8.597  -7.768  1.00  0.00    -0.206 F 
ATOM     81  C   UNL     1      10.844   5.881  -7.560  1.00  0.00     0.022 A 
BRANCH  78  82
ATOM     82  S   UNL     1      12.592   4.957  -5.594  1.00  0.00     0.124 S 
ATOM     83  O   UNL     1      13.662   5.914  -5.338  1.00  0.00    -0.237 OA
ATOM     84  O   UNL     1      11.954   4.375  -4.417  1.00  0.00    -0.237 OA
ATOM     85  O   UNL     1      12.838   4.022  -6.690  1.00  0.00    -0.744 OA
ENDBRANCH  78  82
ENDBRANCH  51  75
BRANCH  63  86
ATOM     86  C   UNL     1      12.438  13.769  -3.251  1.00  0.00     0.023 A 
ATOM     87  C   UNL     1      12.924  14.293  -4.463  1.00  0.00     0.031 A 
ATOM     88  C   UNL     1      13.285  13.793  -2.130  1.00  0.00     0.131 A 
ATOM     89  C   UNL     1      14.241  14.769  -4.538  1.00  0.00     0.055 A 
ATOM     90  C   UNL     1      14.577  14.315  -2.198  1.00  0.00     0.041 A 
ATOM     91  F   UNL     1      12.871  13.301  -0.951  1.00  0.00    -0.206 F 
ATOM     92  C   UNL     1      15.067  14.794  -3.410  1.00  0.00     0.022 A 
BRANCH  89  93
ATOM     93  S   UNL     1      14.897  15.270  -6.154  1.00  0.00     0.124 S 
ATOM     94  O   UNL     1      14.749  14.046  -6.934  1.00  0.00    -0.237 OA
ATOM     95  O   UNL     1      14.013  16.372  -6.521  1.00  0.00    -0.237 OA
ATOM     96  O   UNL     1      16.276  15.655  -5.860  1.00  0.00    -0.744 OA
ENDBRANCH  89  93
ENDBRANCH  63  86
ENDBRANCH  37  38
ENDBRANCH  30  32
ENDBRANCH  29  30
ENDBRANCH  28  29
ENDBRANCH   1  28
TORSDOF 19
