REMARK SMILES COc1ccc(Br)cc1S(=O)(=O)N(C)CC(=O)OCCOC(=O)c1ccc(-c2c3nc(c(-c4cc(S(=O)(=O)[O-])ccc4F)c4ccc([nH]4)c(-c4cc(S(=O)(=O)[O-])ccc4F)c4nc(c(-c5cc(S(=O)(=O)[O-])ccc5F)c5ccc2[nH]5)C=C4)C=C3)cc1
REMARK SMILES IDX 19 1 18 2 16 3 17 4 15 5 13 6 14 7 10 8 11 9 12 10 9 11 3 12
REMARK SMILES IDX 4 13 5 14 8 15 6 16 7 17 2 18 1 19 20 20 21 21 22 22 23 23
REMARK SMILES IDX 24 24 25 25 86 26 26 27 85 28 27 29 28 30 29 31 79 32 30 33
REMARK SMILES IDX 84 34 78 35 80 36 31 37 83 38 77 39 76 40 32 42 64 43 44 44
REMARK SMILES IDX 63 45 45 46 48 47 62 48 81 49 46 50 47 51 61 53 82 54 49 55
REMARK SMILES IDX 33 56 34 57 42 58 35 59 41 60 43 61 40 62 36 63 37 64 38 65
REMARK SMILES IDX 39 66 65 67 66 68 74 69 67 70 73 71 75 72 72 73 68 74 69 75
REMARK SMILES IDX 70 76 71 77 50 78 51 79 59 80 52 81 58 82 60 83 57 84 53 85
REMARK SMILES IDX 54 86 55 87 56 88
REMARK H PARENT 80 41 48 52
REMARK Flexibility Score: inf
ROOT
ATOM      1  C   UNL     1      -5.527  -1.514  -1.288  1.00  0.00     0.274 C 
ENDROOT
BRANCH   1   2
ATOM      2  O   UNL     1      -4.217  -1.189  -0.765  1.00  0.00    -0.461 OA
BRANCH   2   3
ATOM      3  C   UNL     1      -4.170  -0.600   0.459  1.00  0.00     0.321 C 
ATOM      4  O   UNL     1      -5.170  -0.227   1.068  1.00  0.00    -0.251 OA
BRANCH   3   5
ATOM      5  C   UNL     1      -2.771  -0.317   0.968  1.00  0.00     0.224 C 
BRANCH   5   6
ATOM      6  N   UNL     1      -1.553  -1.013   0.475  1.00  0.00    -0.190 NA
ATOM      7  C   UNL     1      -1.248  -0.791  -0.941  1.00  0.00     0.125 C 
BRANCH   6   8
ATOM      8  S   UNL     1      -1.306  -2.590   1.057  1.00  0.00     0.247 S 
ATOM      9  O   UNL     1      -1.641  -3.483  -0.037  1.00  0.00    -0.207 OA
ATOM     10  O   UNL     1      -1.881  -2.684   2.379  1.00  0.00    -0.207 OA
BRANCH   8  11
ATOM     11  C   UNL     1       0.432  -2.883   1.276  1.00  0.00     0.125 A 
ATOM     12  C   UNL     1       1.428  -1.911   1.206  1.00  0.00     0.138 A 
ATOM     13  C   UNL     1       2.768  -2.330   1.236  1.00  0.00     0.049 A 
ATOM     14  C   UNL     1       3.100  -3.688   1.321  1.00  0.00     0.019 A 
ATOM     15  C   UNL     1       0.767  -4.247   1.407  1.00  0.00     0.041 A 
ATOM     16  C   UNL     1       2.096  -4.642   1.418  1.00  0.00     0.019 A 
ATOM     17  Br  UNL     1       2.534  -6.475   1.525  1.00  0.00    -0.051 Br
BRANCH  12  18
ATOM     18  O   UNL     1       1.084  -0.592   1.183  1.00  0.00    -0.495 OA
ATOM     19  C   UNL     1       1.910   0.244   0.381  1.00  0.00     0.278 C 
ENDBRANCH  12  18
ENDBRANCH   8  11
ENDBRANCH   6   8
ENDBRANCH   5   6
ENDBRANCH   3   5
ENDBRANCH   2   3
ENDBRANCH   1   2
BRANCH   1  20
ATOM     20  C   UNL     1      -5.840  -3.015  -1.192  1.00  0.00     0.275 C 
BRANCH  20  21
ATOM     21  O   UNL     1      -6.290  -3.397   0.127  1.00  0.00    -0.458 OA
BRANCH  21  22
ATOM     22  C   UNL     1      -5.261  -3.608   0.974  1.00  0.00     0.338 C 
ATOM     23  O   UNL     1      -4.085  -3.516   0.685  1.00  0.00    -0.246 OA
BRANCH  22  24
ATOM     24  C   UNL     1      -5.641  -3.882   2.354  1.00  0.00     0.060 A 
ATOM     25  C   UNL     1      -5.199  -2.976   3.322  1.00  0.00     0.016 A 
ATOM     26  C   UNL     1      -6.175  -5.120   2.711  1.00  0.00     0.016 A 
ATOM     27  C   UNL     1      -5.281  -3.313   4.665  1.00  0.00     0.010 A 
ATOM     28  C   UNL     1      -6.281  -5.445   4.066  1.00  0.00     0.010 A 
ATOM     29  C   UNL     1      -5.829  -4.545   5.047  1.00  0.00    -0.014 A 
BRANCH  29  30
ATOM     30  C   UNL     1      -5.972  -4.847   6.487  1.00  0.00     0.031 A 
ATOM     31  C   UNL     1      -5.078  -5.844   7.161  1.00  0.00     0.074 A 
ATOM     32  C   UNL     1      -6.907  -4.173   7.180  1.00  0.00     0.049 A 
ATOM     33  N   UNL     1      -5.106  -6.270   8.398  1.00  0.00    -0.248 NA
ATOM     34  C   UNL     1      -4.019  -6.444   6.338  1.00  0.00     0.031 C 
ATOM     35  C   UNL     1      -7.795  -3.153   6.613  1.00  0.00     0.029 A 
ATOM     36  N   UNL     1      -7.263  -4.228   8.500  1.00  0.00    -0.354 N 
ATOM     37  C   UNL     1      -4.081  -7.204   8.502  1.00  0.00     0.074 A 
ATOM     38  C   UNL     1      -3.462  -7.291   7.194  1.00  0.00     0.031 C 
ATOM     39  C   UNL     1      -8.579  -2.666   7.584  1.00  0.00     0.029 A 
ATOM     40  C   UNL     1      -8.295  -3.380   8.823  1.00  0.00     0.049 A 
ATOM     41  H   UNL     1      -6.822  -4.817   9.154  1.00  0.00     0.167 HD
ATOM     42  C   UNL     1      -3.705  -7.920   9.592  1.00  0.00     0.034 A 
ATOM     43  C   UNL     1      -8.960  -3.220   9.981  1.00  0.00     0.034 A 
ATOM     44  C   UNL     1      -4.346  -7.807  10.884  1.00  0.00     0.049 A 
ATOM     45  C   UNL     1      -8.545  -4.050  11.163  1.00  0.00     0.074 A 
ATOM     46  C   UNL     1      -4.058  -8.484  12.057  1.00  0.00     0.029 A 
ATOM     47  N   UNL     1      -5.413  -6.961  11.172  1.00  0.00    -0.354 N 
ATOM     48  N   UNL     1      -7.599  -4.958  11.241  1.00  0.00    -0.248 NA
ATOM     49  C   UNL     1      -9.284  -3.834  12.410  1.00  0.00     0.031 C 
ATOM     50  C   UNL     1      -4.981  -8.089  13.034  1.00  0.00     0.029 A 
ATOM     51  C   UNL     1      -5.807  -7.116  12.494  1.00  0.00     0.049 A 
ATOM     52  H   UNL     1      -5.828  -6.341  10.530  1.00  0.00     0.167 HD
ATOM     53  C   UNL     1      -7.624  -5.417  12.552  1.00  0.00     0.074 A 
ATOM     54  C   UNL     1      -8.660  -4.663  13.233  1.00  0.00     0.031 C 
ATOM     55  C   UNL     1      -6.864  -6.374  13.143  1.00  0.00     0.034 A 
BRANCH  42  56
ATOM     56  C   UNL     1      -2.598  -8.933   9.411  1.00  0.00     0.023 A 
ATOM     57  C   UNL     1      -1.278  -8.556   9.106  1.00  0.00     0.031 A 
ATOM     58  C   UNL     1      -2.879 -10.308   9.522  1.00  0.00     0.131 A 
ATOM     59  C   UNL     1      -0.305  -9.541   8.864  1.00  0.00     0.055 A 
ATOM     60  C   UNL     1      -1.892 -11.280   9.347  1.00  0.00     0.041 A 
ATOM     61  F   UNL     1      -4.124 -10.731   9.791  1.00  0.00    -0.206 F 
ATOM     62  C   UNL     1      -0.599 -10.899   9.004  1.00  0.00     0.022 A 
BRANCH  59  63
ATOM     63  S   UNL     1       1.323  -9.030   8.245  1.00  0.00     0.124 S 
ATOM     64  O   UNL     1       0.967  -8.342   7.007  1.00  0.00    -0.237 OA
ATOM     65  O   UNL     1       1.821  -8.187   9.326  1.00  0.00    -0.237 OA
ATOM     66  O   UNL     1       2.034 -10.294   8.065  1.00  0.00    -0.744 OA
ENDBRANCH  59  63
ENDBRANCH  42  56
BRANCH  43  67
ATOM     67  C   UNL     1     -10.106  -2.275  10.057  1.00  0.00     0.023 A 
ATOM     68  C   UNL     1     -10.052  -1.127  10.861  1.00  0.00     0.031 A 
ATOM     69  C   UNL     1     -11.282  -2.514   9.322  1.00  0.00     0.131 A 
ATOM     70  C   UNL     1     -11.166  -0.276  10.936  1.00  0.00     0.055 A 
ATOM     71  C   UNL     1     -12.368  -1.640   9.361  1.00  0.00     0.041 A 
ATOM     72  F   UNL     1     -11.381  -3.596   8.531  1.00  0.00    -0.206 F 
ATOM     73  C   UNL     1     -12.317  -0.518  10.181  1.00  0.00     0.022 A 
BRANCH  70  74
ATOM     74  S   UNL     1     -11.114   1.122  12.089  1.00  0.00     0.124 S 
ATOM     75  O   UNL     1     -10.863   0.454  13.360  1.00  0.00    -0.237 OA
ATOM     76  O   UNL     1     -10.014   1.917  11.553  1.00  0.00    -0.237 OA
ATOM     77  O   UNL     1     -12.439   1.725  11.952  1.00  0.00    -0.744 OA
ENDBRANCH  70  74
ENDBRANCH  43  67
BRANCH  55  78
ATOM     78  C   UNL     1      -7.130  -6.626  14.605  1.00  0.00     0.023 A 
ATOM     79  C   UNL     1      -8.338  -7.196  15.044  1.00  0.00     0.031 A 
ATOM     80  C   UNL     1      -6.188  -6.238  15.573  1.00  0.00     0.131 A 
ATOM     81  C   UNL     1      -8.601  -7.300  16.417  1.00  0.00     0.055 A 
ATOM     82  C   UNL     1      -6.432  -6.397  16.937  1.00  0.00     0.041 A 
ATOM     83  F   UNL     1      -5.020  -5.685  15.207  1.00  0.00    -0.206 F 
ATOM     84  C   UNL     1      -7.651  -6.915  17.367  1.00  0.00     0.022 A 
BRANCH  81  85
ATOM     85  S   UNL     1     -10.250  -7.840  16.949  1.00  0.00     0.124 S 
ATOM     86  O   UNL     1     -11.115  -6.862  16.298  1.00  0.00    -0.237 OA
ATOM     87  O   UNL     1     -10.316  -9.200  16.423  1.00  0.00    -0.237 OA
ATOM     88  O   UNL     1     -10.190  -7.742  18.406  1.00  0.00    -0.744 OA
ENDBRANCH  81  85
ENDBRANCH  55  78
ENDBRANCH  29  30
ENDBRANCH  22  24
ENDBRANCH  21  22
ENDBRANCH  20  21
ENDBRANCH   1  20
TORSDOF 18
