REMARK SMILES COc1cc2c(CC(=O)OCCOC(=O)c3ccc(-c4c5nc(c(-c6cc(S(=O)(=O)[O-])ccc6F)c6ccc([nH]6)c(-c6cc(S(=O)(=O)[O-])ccc6F)c6nc(c(-c7cc(S(=O)(=O)[O-])ccc7F)c7ccc4[nH]7)C=C6)C=C5)cc3)c(C)n(C(=O)c3ccc(Cl)cc3)c2cc1Cl
REMARK SMILES IDX 11 1 10 2 8 3 9 4 7 5 6 6 3 7 4 8 93 9 5 10 92 11 94 12
REMARK SMILES IDX 91 13 79 14 81 15 80 16 2 17 1 18 82 19 83 20 84 21 85 22
REMARK SMILES IDX 90 23 86 24 89 25 87 26 88 27 12 28 13 29 14 30 15 31 16 32
REMARK SMILES IDX 17 33 78 34 18 35 77 36 19 37 20 38 21 39 71 40 22 41 76 42
REMARK SMILES IDX 70 43 72 44 23 45 75 46 69 47 68 48 24 50 56 51 36 52 55 53
REMARK SMILES IDX 37 54 40 55 54 56 73 57 38 58 39 59 53 61 74 62 41 63 25 64
REMARK SMILES IDX 26 65 34 66 27 67 33 68 35 69 32 70 28 71 29 72 30 73 31 74
REMARK SMILES IDX 57 75 58 76 66 77 59 78 65 79 67 80 64 81 60 82 61 83 62 84
REMARK SMILES IDX 63 85 42 86 43 87 51 88 44 89 50 90 52 91 49 92 45 93 46 94
REMARK SMILES IDX 47 95 48 96
REMARK H PARENT 72 49 40 60
REMARK Flexibility Score: inf
ROOT
ATOM      1  C   UNL     1      -1.288   6.712  -2.565  1.00  0.00     0.274 C 
ENDROOT
BRANCH   1   2
ATOM      2  O   UNL     1      -0.700   6.521  -1.259  1.00  0.00    -0.462 OA
BRANCH   2   3
ATOM      3  C   UNL     1      -1.524   6.811  -0.223  1.00  0.00     0.310 C 
ATOM      4  O   UNL     1      -2.688   7.178  -0.363  1.00  0.00    -0.252 OA
BRANCH   3   5
ATOM      5  C   UNL     1      -0.897   6.759   1.139  1.00  0.00     0.160 C 
BRANCH   5   6
ATOM      6  C   UNL     1       0.484   6.214   1.378  1.00  0.00    -0.008 A 
ATOM      7  C   UNL     1       1.376   2.547   0.465  1.00  0.00     0.138 A 
ATOM      8  C   UNL     1       0.671   3.769   0.373  1.00  0.00     0.058 A 
ATOM      9  C   UNL     1       2.525   2.493   1.242  1.00  0.00     0.085 A 
ATOM     10  C   UNL     1       1.056   4.925   1.099  1.00  0.00     0.008 A 
ATOM     11  C   UNL     1       2.945   3.625   1.946  1.00  0.00     0.051 A 
ATOM     12  Cl  UNL     1       3.602   1.138   1.306  1.00  0.00    -0.080 Cl
ATOM     13  C   UNL     1       2.250   4.847   1.823  1.00  0.00     0.058 A 
ATOM     14  C   UNL     1       1.392   6.880   2.198  1.00  0.00     0.028 A 
ATOM     15  N   UNL     1       2.564   6.143   2.252  1.00  0.00    -0.280 N 
ATOM     16  C   UNL     1       1.190   8.176   2.925  1.00  0.00     0.065 C 
BRANCH   7  17
ATOM     17  O   UNL     1       0.856   1.534  -0.301  1.00  0.00    -0.495 OA
ATOM     18  C   UNL     1       0.865   0.224   0.265  1.00  0.00     0.278 C 
ENDBRANCH   7  17
BRANCH  15  19
ATOM     19  C   UNL     1       3.850   6.621   2.619  1.00  0.00     0.262 C 
ATOM     20  O   UNL     1       4.006   7.804   2.907  1.00  0.00    -0.268 OA
BRANCH  19  21
ATOM     21  C   UNL     1       5.060   5.791   2.584  1.00  0.00     0.040 A 
ATOM     22  C   UNL     1       5.579   5.382   1.349  1.00  0.00     0.015 A 
ATOM     23  C   UNL     1       5.593   5.326   3.789  1.00  0.00     0.015 A 
ATOM     24  C   UNL     1       6.607   4.442   1.324  1.00  0.00     0.021 A 
ATOM     25  C   UNL     1       6.624   4.388   3.754  1.00  0.00     0.021 A 
ATOM     26  C   UNL     1       7.116   3.941   2.524  1.00  0.00     0.041 A 
ATOM     27  Cl  UNL     1       8.344   2.736   2.486  1.00  0.00    -0.084 Cl
ENDBRANCH  19  21
ENDBRANCH  15  19
ENDBRANCH   5   6
ENDBRANCH   3   5
ENDBRANCH   2   3
ENDBRANCH   1   2
BRANCH   1  28
ATOM     28  C   UNL     1      -1.744   5.378  -3.164  1.00  0.00     0.275 C 
BRANCH  28  29
ATOM     29  O   UNL     1      -2.894   4.907  -2.449  1.00  0.00    -0.458 OA
BRANCH  29  30
ATOM     30  C   UNL     1      -2.748   3.738  -1.761  1.00  0.00     0.338 C 
ATOM     31  O   UNL     1      -1.926   2.881  -1.940  1.00  0.00    -0.246 OA
BRANCH  30  32
ATOM     32  C   UNL     1      -3.557   3.913  -0.533  1.00  0.00     0.060 A 
ATOM     33  C   UNL     1      -4.858   4.411  -0.589  1.00  0.00     0.016 A 
ATOM     34  C   UNL     1      -2.874   3.821   0.682  1.00  0.00     0.016 A 
ATOM     35  C   UNL     1      -5.409   4.968   0.558  1.00  0.00     0.010 A 
ATOM     36  C   UNL     1      -3.400   4.427   1.808  1.00  0.00     0.010 A 
ATOM     37  C   UNL     1      -4.638   5.055   1.725  1.00  0.00    -0.014 A 
BRANCH  37  38
ATOM     38  C   UNL     1      -5.204   5.662   2.916  1.00  0.00     0.031 A 
ATOM     39  C   UNL     1      -5.985   4.725   3.747  1.00  0.00     0.074 A 
ATOM     40  C   UNL     1      -4.965   6.898   3.389  1.00  0.00     0.049 A 
ATOM     41  N   UNL     1      -7.268   4.588   3.770  1.00  0.00    -0.248 NA
ATOM     42  C   UNL     1      -5.248   3.732   4.535  1.00  0.00     0.031 C 
ATOM     43  C   UNL     1      -3.966   7.881   2.979  1.00  0.00     0.029 A 
ATOM     44  N   UNL     1      -5.596   7.511   4.430  1.00  0.00    -0.354 N 
ATOM     45  C   UNL     1      -7.521   3.597   4.710  1.00  0.00     0.074 A 
ATOM     46  C   UNL     1      -6.248   2.987   5.005  1.00  0.00     0.031 C 
ATOM     47  C   UNL     1      -3.936   8.895   3.878  1.00  0.00     0.029 A 
ATOM     48  C   UNL     1      -5.043   8.720   4.804  1.00  0.00     0.049 A 
ATOM     49  H   UNL     1      -6.381   7.123   4.879  1.00  0.00     0.167 HD
ATOM     50  C   UNL     1      -8.731   3.485   5.326  1.00  0.00     0.034 A 
ATOM     51  C   UNL     1      -5.482   9.524   5.799  1.00  0.00     0.034 A 
ATOM     52  C   UNL     1      -9.707   4.358   4.729  1.00  0.00     0.049 A 
ATOM     53  C   UNL     1      -6.904   9.198   6.061  1.00  0.00     0.074 A 
ATOM     54  C   UNL     1     -10.365   4.417   3.521  1.00  0.00     0.029 A 
ATOM     55  N   UNL     1      -9.838   5.595   5.313  1.00  0.00    -0.354 N 
ATOM     56  N   UNL     1      -7.877   9.428   5.221  1.00  0.00    -0.248 NA
ATOM     57  C   UNL     1      -7.231   8.292   7.153  1.00  0.00     0.031 C 
ATOM     58  C   UNL     1     -10.566   5.804   3.263  1.00  0.00     0.029 A 
ATOM     59  C   UNL     1     -10.032   6.533   4.331  1.00  0.00     0.049 A 
ATOM     60  H   UNL     1      -9.800   5.778   6.280  1.00  0.00     0.167 HD
ATOM     61  C   UNL     1      -8.771   8.389   5.425  1.00  0.00     0.074 A 
ATOM     62  C   UNL     1      -8.409   7.834   6.723  1.00  0.00     0.031 C 
ATOM     63  C   UNL     1      -9.538   7.900   4.406  1.00  0.00     0.034 A 
BRANCH  50  64
ATOM     64  C   UNL     1      -8.947   2.842   6.670  1.00  0.00     0.023 A 
ATOM     65  C   UNL     1      -7.899   2.590   7.572  1.00  0.00     0.031 A 
ATOM     66  C   UNL     1     -10.250   2.643   7.167  1.00  0.00     0.131 A 
ATOM     67  C   UNL     1      -8.140   2.115   8.866  1.00  0.00     0.055 A 
ATOM     68  C   UNL     1     -10.496   2.240   8.486  1.00  0.00     0.041 A 
ATOM     69  F   UNL     1     -11.326   2.876   6.399  1.00  0.00    -0.206 F 
ATOM     70  C   UNL     1      -9.437   1.964   9.342  1.00  0.00     0.022 A 
BRANCH  67  71
ATOM     71  S   UNL     1      -6.752   1.667   9.945  1.00  0.00     0.124 S 
ATOM     72  O   UNL     1      -6.868   2.661  11.006  1.00  0.00    -0.237 OA
ATOM     73  O   UNL     1      -7.094   0.297  10.318  1.00  0.00    -0.237 OA
ATOM     74  O   UNL     1      -5.589   1.795   9.071  1.00  0.00    -0.744 OA
ENDBRANCH  67  71
ENDBRANCH  50  64
BRANCH  51  75
ATOM     75  C   UNL     1      -4.651  10.243   6.786  1.00  0.00     0.023 A 
ATOM     76  C   UNL     1      -3.441   9.667   7.216  1.00  0.00     0.031 A 
ATOM     77  C   UNL     1      -5.174  11.303   7.545  1.00  0.00     0.131 A 
ATOM     78  C   UNL     1      -2.831  10.104   8.399  1.00  0.00     0.055 A 
ATOM     79  C   UNL     1      -4.552  11.751   8.715  1.00  0.00     0.041 A 
ATOM     80  F   UNL     1      -6.338  11.875   7.200  1.00  0.00    -0.206 F 
ATOM     81  C   UNL     1      -3.384  11.138   9.158  1.00  0.00     0.022 A 
BRANCH  78  82
ATOM     82  S   UNL     1      -1.346   9.273   9.028  1.00  0.00     0.124 S 
ATOM     83  O   UNL     1      -0.479  10.401   9.361  1.00  0.00    -0.237 OA
ATOM     84  O   UNL     1      -1.879   8.534  10.166  1.00  0.00    -0.237 OA
ATOM     85  O   UNL     1      -0.900   8.467   7.895  1.00  0.00    -0.744 OA
ENDBRANCH  78  82
ENDBRANCH  51  75
BRANCH  63  86
ATOM     86  C   UNL     1      -9.687   8.733   3.151  1.00  0.00     0.023 A 
ATOM     87  C   UNL     1     -10.992   8.991   2.693  1.00  0.00     0.031 A 
ATOM     88  C   UNL     1      -8.620   9.092   2.307  1.00  0.00     0.131 A 
ATOM     89  C   UNL     1     -11.201   9.541   1.423  1.00  0.00     0.055 A 
ATOM     90  C   UNL     1      -8.831   9.706   1.068  1.00  0.00     0.041 A 
ATOM     91  F   UNL     1      -7.353   8.789   2.615  1.00  0.00    -0.206 F 
ATOM     92  C   UNL     1     -10.127   9.919   0.613  1.00  0.00     0.022 A 
BRANCH  89  93
ATOM     93  S   UNL     1     -12.871   9.648   0.730  1.00  0.00     0.124 S 
ATOM     94  O   UNL     1     -13.017  11.081   0.486  1.00  0.00    -0.237 OA
ATOM     95  O   UNL     1     -12.762   8.818  -0.468  1.00  0.00    -0.237 OA
ATOM     96  O   UNL     1     -13.727   9.106   1.782  1.00  0.00    -0.744 OA
ENDBRANCH  89  93
ENDBRANCH  63  86
ENDBRANCH  37  38
ENDBRANCH  30  32
ENDBRANCH  29  30
ENDBRANCH  28  29
ENDBRANCH   1  28
TORSDOF 18
