REMARK SMILES Cc1cc(C(=O)N[C@H]2C=C[C@H](C(=O)OCCOC(=O)c3ccc(-c4c5nc(c(-c6cc(S(=O)(=O)[O-])ccc6F)c6ccc([nH]6)c(-c6cc(S(=O)(=O)[O-])ccc6F)c6nc(c(-c7cc(S(=O)(=O)[O-])ccc7F)c7ccc4[nH]7)C=C6)C=C5)cc3)C2)ccc1F
REMARK SMILES IDX 16 1 15 2 14 3 12 4 13 5 11 6 8 7 9 8 83 9 10 10 7 11 5 12
REMARK SMILES IDX 6 13 4 15 1 16 2 17 3 18 86 19 85 20 87 21 84 22 17 23 18 24
REMARK SMILES IDX 19 25 20 26 21 27 82 28 22 29 81 30 23 31 24 32 25 33 75 34
REMARK SMILES IDX 26 35 80 36 74 37 76 38 27 39 79 40 73 41 72 42 28 44 60 45
REMARK SMILES IDX 40 46 59 47 41 48 44 49 58 50 77 51 42 52 43 53 57 55 78 56
REMARK SMILES IDX 45 57 29 58 30 59 38 60 31 61 37 62 39 63 36 64 32 65 33 66
REMARK SMILES IDX 34 67 35 68 61 69 62 70 70 71 63 72 69 73 71 74 68 75 64 76
REMARK SMILES IDX 65 77 66 78 67 79 46 80 47 81 55 82 48 83 54 84 56 85 53 86
REMARK SMILES IDX 49 87 50 88 51 89 52 90
REMARK H PARENT 7 14 76 43 44 54
REMARK Flexibility Score: inf
ROOT
ATOM      1  C   UNL     1       3.027   6.030   1.186  1.00  0.00     0.275 C 
ENDROOT
BRANCH   1   2
ATOM      2  C   UNL     1       2.028   6.482   0.115  1.00  0.00     0.274 C 
BRANCH   2   3
ATOM      3  O   UNL     1       0.661   6.424   0.566  1.00  0.00    -0.462 OA
BRANCH   3   4
ATOM      4  C   UNL     1       0.004   5.264   0.273  1.00  0.00     0.312 C 
ATOM      5  O   UNL     1       0.445   4.411  -0.495  1.00  0.00    -0.252 OA
BRANCH   4   6
ATOM      6  C   UNL     1      -1.335   5.152   1.010  1.00  0.00     0.124 C 
ATOM      7  C   UNL     1      -2.508   3.607  -0.407  1.00  0.00     0.106 C 
ATOM      8  C   UNL     1      -3.133   4.968  -0.495  1.00  0.00    -0.006 C 
ATOM      9  C   UNL     1      -1.830   3.700   0.956  1.00  0.00     0.048 C 
ATOM     10  C   UNL     1      -2.446   5.840   0.262  1.00  0.00    -0.014 C 
BRANCH   7  11
ATOM     11  N   UNL     1      -3.467   2.547  -0.535  1.00  0.00    -0.346 N 
ATOM     12  C   UNL     1      -3.283   1.186  -0.628  1.00  0.00     0.251 C 
ATOM     13  O   UNL     1      -4.281   0.490  -0.834  1.00  0.00    -0.269 OA
ATOM     14  H   UNL     1      -4.406   2.840  -0.561  1.00  0.00     0.164 HD
BRANCH  12  15
ATOM     15  C   UNL     1      -1.958   0.500  -0.465  1.00  0.00     0.040 A 
ATOM     16  C   UNL     1       1.815   1.006  -0.759  1.00  0.00     0.047 C 
ATOM     17  C   UNL     1       0.485   0.347  -0.550  1.00  0.00    -0.015 A 
ATOM     18  C   UNL     1      -0.710   1.047  -0.791  1.00  0.00     0.020 A 
ATOM     19  C   UNL     1       0.415  -0.947  -0.037  1.00  0.00     0.126 A 
ATOM     20  C   UNL     1      -0.810  -1.537   0.242  1.00  0.00     0.040 A 
ATOM     21  F   UNL     1       1.541  -1.640   0.181  1.00  0.00    -0.207 F 
ATOM     22  C   UNL     1      -1.990  -0.814   0.038  1.00  0.00     0.017 A 
ENDBRANCH  12  15
ENDBRANCH   7  11
ENDBRANCH   4   6
ENDBRANCH   3   4
ENDBRANCH   2   3
ENDBRANCH   1   2
BRANCH   1  23
ATOM     23  O   UNL     1       2.913   4.638   1.519  1.00  0.00    -0.458 OA
BRANCH  23  24
ATOM     24  C   UNL     1       1.973   4.409   2.467  1.00  0.00     0.338 C 
ATOM     25  O   UNL     1       1.175   5.224   2.903  1.00  0.00    -0.246 OA
BRANCH  24  26
ATOM     26  C   UNL     1       2.131   3.101   3.101  1.00  0.00     0.060 A 
ATOM     27  C   UNL     1       0.964   2.481   3.562  1.00  0.00     0.016 A 
ATOM     28  C   UNL     1       3.376   2.844   3.674  1.00  0.00     0.016 A 
ATOM     29  C   UNL     1       0.991   1.785   4.759  1.00  0.00     0.010 A 
ATOM     30  C   UNL     1       3.402   2.153   4.867  1.00  0.00     0.010 A 
ATOM     31  C   UNL     1       2.197   1.726   5.450  1.00  0.00    -0.014 A 
BRANCH  31  32
ATOM     32  C   UNL     1       2.269   1.404   6.865  1.00  0.00     0.031 A 
ATOM     33  C   UNL     1       2.283   0.012   7.334  1.00  0.00     0.074 A 
ATOM     34  C   UNL     1       2.352   2.419   7.752  1.00  0.00     0.049 A 
ATOM     35  N   UNL     1       2.074  -0.338   8.559  1.00  0.00    -0.248 NA
ATOM     36  C   UNL     1       2.441  -1.109   6.418  1.00  0.00     0.031 C 
ATOM     37  C   UNL     1       2.833   2.348   9.124  1.00  0.00     0.029 A 
ATOM     38  N   UNL     1       1.783   3.694   7.644  1.00  0.00    -0.354 N 
ATOM     39  C   UNL     1       2.358  -1.679   8.649  1.00  0.00     0.074 A 
ATOM     40  C   UNL     1       2.428  -2.132   7.277  1.00  0.00     0.031 C 
ATOM     41  C   UNL     1       2.338   3.391   9.805  1.00  0.00     0.029 A 
ATOM     42  C   UNL     1       1.375   4.054   8.941  1.00  0.00     0.049 A 
ATOM     43  H   UNL     1       1.687   4.231   6.824  1.00  0.00     0.167 HD
ATOM     44  C   UNL     1       2.665  -2.208   9.869  1.00  0.00     0.034 A 
ATOM     45  C   UNL     1       0.094   4.365   9.288  1.00  0.00     0.034 A 
ATOM     46  C   UNL     1       2.352  -1.278  10.959  1.00  0.00     0.049 A 
ATOM     47  C   UNL     1      -0.470   3.516  10.413  1.00  0.00     0.074 A 
ATOM     48  C   UNL     1       3.107  -0.462  11.786  1.00  0.00     0.029 A 
ATOM     49  N   UNL     1       1.029  -0.909  11.166  1.00  0.00    -0.354 N 
ATOM     50  N   UNL     1       0.156   2.519  10.969  1.00  0.00    -0.248 NA
ATOM     51  C   UNL     1      -1.845   3.653  10.900  1.00  0.00     0.031 C 
ATOM     52  C   UNL     1       2.224   0.412  12.481  1.00  0.00     0.029 A 
ATOM     53  C   UNL     1       0.931   0.119  12.088  1.00  0.00     0.049 A 
ATOM     54  H   UNL     1       0.260  -1.326  10.715  1.00  0.00     0.167 HD
ATOM     55  C   UNL     1      -0.710   1.840  11.783  1.00  0.00     0.074 A 
ATOM     56  C   UNL     1      -1.945   2.599  11.727  1.00  0.00     0.031 C 
ATOM     57  C   UNL     1      -0.378   0.672  12.400  1.00  0.00     0.034 A 
BRANCH  44  58
ATOM     58  C   UNL     1       3.488  -3.476  10.047  1.00  0.00     0.023 A 
ATOM     59  C   UNL     1       3.822  -4.350   8.993  1.00  0.00     0.031 A 
ATOM     60  C   UNL     1       4.083  -3.795  11.286  1.00  0.00     0.131 A 
ATOM     61  C   UNL     1       4.744  -5.400   9.139  1.00  0.00     0.055 A 
ATOM     62  C   UNL     1       4.986  -4.860  11.446  1.00  0.00     0.041 A 
ATOM     63  F   UNL     1       3.853  -3.067  12.387  1.00  0.00    -0.206 F 
ATOM     64  C   UNL     1       5.337  -5.659  10.366  1.00  0.00     0.022 A 
BRANCH  61  65
ATOM     65  S   UNL     1       5.242  -6.395   7.701  1.00  0.00     0.124 S 
ATOM     66  O   UNL     1       6.679  -6.139   7.633  1.00  0.00    -0.237 OA
ATOM     67  O   UNL     1       4.865  -7.746   8.108  1.00  0.00    -0.237 OA
ATOM     68  O   UNL     1       4.464  -5.836   6.598  1.00  0.00    -0.744 OA
ENDBRANCH  61  65
ENDBRANCH  44  58
BRANCH  45  69
ATOM     69  C   UNL     1      -0.747   4.893   8.187  1.00  0.00     0.023 A 
ATOM     70  C   UNL     1      -1.604   4.032   7.487  1.00  0.00     0.031 A 
ATOM     71  C   UNL     1      -0.472   6.161   7.640  1.00  0.00     0.131 A 
ATOM     72  C   UNL     1      -2.096   4.421   6.237  1.00  0.00     0.055 A 
ATOM     73  C   UNL     1      -0.968   6.544   6.394  1.00  0.00     0.041 A 
ATOM     74  F   UNL     1       0.350   7.010   8.279  1.00  0.00    -0.206 F 
ATOM     75  C   UNL     1      -1.769   5.662   5.676  1.00  0.00     0.022 A 
BRANCH  72  76
ATOM     76  S   UNL     1      -3.083   3.277   5.244  1.00  0.00     0.124 S 
ATOM     77  O   UNL     1      -4.278   4.066   4.972  1.00  0.00    -0.237 OA
ATOM     78  O   UNL     1      -2.202   3.048   4.106  1.00  0.00    -0.237 OA
ATOM     79  O   UNL     1      -3.269   2.131   6.129  1.00  0.00    -0.744 OA
ENDBRANCH  72  76
ENDBRANCH  45  69
BRANCH  57  80
ATOM     80  C   UNL     1      -1.289  -0.055  13.346  1.00  0.00     0.023 A 
ATOM     81  C   UNL     1      -1.318  -1.465  13.353  1.00  0.00     0.031 A 
ATOM     82  C   UNL     1      -2.027   0.601  14.347  1.00  0.00     0.131 A 
ATOM     83  C   UNL     1      -2.066  -2.164  14.310  1.00  0.00     0.055 A 
ATOM     84  C   UNL     1      -2.803  -0.097  15.278  1.00  0.00     0.041 A 
ATOM     85  F   UNL     1      -1.980   1.936  14.480  1.00  0.00    -0.206 F 
ATOM     86  C   UNL     1      -2.821  -1.487  15.265  1.00  0.00     0.022 A 
BRANCH  83  87
ATOM     87  S   UNL     1      -2.013  -3.975  14.397  1.00  0.00     0.124 S 
ATOM     88  O   UNL     1      -1.588  -4.199  15.777  1.00  0.00    -0.237 OA
ATOM     89  O   UNL     1      -3.400  -4.329  14.107  1.00  0.00    -0.237 OA
ATOM     90  O   UNL     1      -1.042  -4.347  13.375  1.00  0.00    -0.744 OA
ENDBRANCH  83  87
ENDBRANCH  57  80
ENDBRANCH  31  32
ENDBRANCH  24  26
ENDBRANCH  23  24
ENDBRANCH   1  23
TORSDOF 16
