REMARK SMILES CCOc1cccc(-c2ccc([C@@H](C)C(=O)OCCOC(=O)c3ccc(-c4c5nc(c(-c6cc(S(=O)(=O)[O-])ccc6F)c6ccc([nH]6)c(-c6cc(S(=O)(=O)[O-])ccc6F)c6nc(c(-c7cc(S(=O)(=O)[O-])ccc7F)c7ccc4[nH]7)C=C6)C=C5)cc3)cc2F)c1
REMARK SMILES IDX 18 1 17 2 15 3 16 4 13 5 14 6 12 7 9 8 10 9 87 10 11 11
REMARK SMILES IDX 86 12 88 13 8 14 4 15 5 16 89 17 6 18 7 19 3 20 2 21 1 22
REMARK SMILES IDX 19 23 20 24 21 25 22 26 23 27 24 28 85 29 25 30 84 31 26 32
REMARK SMILES IDX 27 33 28 34 78 35 29 36 83 37 77 38 79 39 30 40 82 41 76 42
REMARK SMILES IDX 75 43 31 45 63 46 43 47 62 48 44 49 47 50 61 51 80 52 45 53
REMARK SMILES IDX 46 54 60 56 81 57 48 58 32 59 33 60 41 61 34 62 40 63 42 64
REMARK SMILES IDX 39 65 35 66 36 67 37 68 38 69 64 70 65 71 73 72 66 73 72 74
REMARK SMILES IDX 74 75 71 76 67 77 68 78 69 79 70 80 49 81 50 82 58 83 51 84
REMARK SMILES IDX 57 85 59 86 56 87 52 88 53 89 54 90 55 91
REMARK H PARENT 79 44 47 55
REMARK Flexibility Score: inf
ROOT
ATOM      1  C   UNL     1       8.749   0.401   4.178  1.00  0.00     0.274 C 
ENDROOT
BRANCH   1   2
ATOM      2  O   UNL     1       8.583  -0.469   3.042  1.00  0.00    -0.462 OA
BRANCH   2   3
ATOM      3  C   UNL     1       8.780  -1.796   3.257  1.00  0.00     0.313 C 
ATOM      4  O   UNL     1       9.173  -2.267   4.321  1.00  0.00    -0.252 OA
BRANCH   3   5
ATOM      5  C   UNL     1       8.542  -2.667   2.028  1.00  0.00     0.126 C 
ATOM      6  C   UNL     1       9.878  -2.998   1.365  1.00  0.00     0.025 C 
BRANCH   5   7
ATOM      7  C   UNL     1       7.515  -2.163   1.026  1.00  0.00    -0.031 A 
ATOM      8  C   UNL     1       5.564  -1.298  -0.872  1.00  0.00     0.018 A 
ATOM      9  C   UNL     1       6.776  -0.607  -0.700  1.00  0.00     0.012 A 
ATOM     10  C   UNL     1       5.357  -2.425  -0.065  1.00  0.00     0.131 A 
ATOM     11  C   UNL     1       7.737  -1.034   0.227  1.00  0.00     0.005 A 
ATOM     12  C   UNL     1       6.306  -2.854   0.863  1.00  0.00     0.044 A 
ATOM     13  F   UNL     1       4.234  -3.150  -0.186  1.00  0.00    -0.206 F 
BRANCH   8  14
ATOM     14  C   UNL     1       4.566  -0.850  -1.862  1.00  0.00    -0.012 A 
ATOM     15  C   UNL     1       2.261  -0.336  -2.470  1.00  0.00     0.119 A 
ATOM     16  C   UNL     1       2.652  -0.034  -3.770  1.00  0.00     0.046 A 
ATOM     17  C   UNL     1       3.202  -0.762  -1.532  1.00  0.00     0.055 A 
ATOM     18  C   UNL     1       3.996  -0.117  -4.123  1.00  0.00     0.004 A 
ATOM     19  C   UNL     1       4.943  -0.517  -3.175  1.00  0.00     0.009 A 
BRANCH  15  20
ATOM     20  O   UNL     1       0.925  -0.323  -2.185  1.00  0.00    -0.494 OA
BRANCH  20  21
ATOM     21  C   UNL     1       0.548   0.718  -1.277  1.00  0.00     0.226 C 
ATOM     22  C   UNL     1       0.453   0.216   0.154  1.00  0.00     0.049 C 
ENDBRANCH  20  21
ENDBRANCH  15  20
ENDBRANCH   8  14
ENDBRANCH   5   7
ENDBRANCH   3   5
ENDBRANCH   2   3
ENDBRANCH   1   2
BRANCH   1  23
ATOM     23  C   UNL     1       7.402   0.805   4.785  1.00  0.00     0.275 C 
BRANCH  23  24
ATOM     24  O   UNL     1       6.756  -0.305   5.433  1.00  0.00    -0.458 OA
BRANCH  24  25
ATOM     25  C   UNL     1       5.902  -0.997   4.642  1.00  0.00     0.338 C 
ATOM     26  O   UNL     1       5.611  -0.747   3.486  1.00  0.00    -0.246 OA
BRANCH  25  27
ATOM     27  C   UNL     1       5.436  -2.208   5.336  1.00  0.00     0.060 A 
ATOM     28  C   UNL     1       5.714  -3.443   4.746  1.00  0.00     0.016 A 
ATOM     29  C   UNL     1       4.640  -2.130   6.479  1.00  0.00     0.016 A 
ATOM     30  C   UNL     1       5.163  -4.608   5.269  1.00  0.00     0.010 A 
ATOM     31  C   UNL     1       4.091  -3.304   7.010  1.00  0.00     0.010 A 
ATOM     32  C   UNL     1       4.327  -4.545   6.390  1.00  0.00    -0.014 A 
BRANCH  32  33
ATOM     33  C   UNL     1       3.609  -5.766   6.831  1.00  0.00     0.031 A 
ATOM     34  C   UNL     1       2.148  -5.916   6.508  1.00  0.00     0.074 A 
ATOM     35  C   UNL     1       4.269  -6.750   7.468  1.00  0.00     0.049 A 
ATOM     36  N   UNL     1       1.315  -6.866   6.846  1.00  0.00    -0.248 NA
ATOM     37  C   UNL     1       1.547  -4.847   5.696  1.00  0.00     0.031 C 
ATOM     38  C   UNL     1       5.699  -6.740   7.782  1.00  0.00     0.029 A 
ATOM     39  N   UNL     1       3.826  -7.950   7.962  1.00  0.00    -0.354 N 
ATOM     40  C   UNL     1       0.086  -6.503   6.304  1.00  0.00     0.074 A 
ATOM     41  C   UNL     1       0.281  -5.232   5.638  1.00  0.00     0.031 C 
ATOM     42  C   UNL     1       6.015  -7.883   8.414  1.00  0.00     0.029 A 
ATOM     43  C   UNL     1       4.806  -8.684   8.590  1.00  0.00     0.049 A 
ATOM     44  H   UNL     1       2.895  -8.258   7.875  1.00  0.00     0.167 HD
ATOM     45  C   UNL     1      -1.093  -7.173   6.353  1.00  0.00     0.034 A 
ATOM     46  C   UNL     1       4.728  -9.855   9.253  1.00  0.00     0.034 A 
ATOM     47  C   UNL     1      -1.267  -8.441   7.019  1.00  0.00     0.049 A 
ATOM     48  C   UNL     1       3.394 -10.552   9.348  1.00  0.00     0.074 A 
ATOM     49  C   UNL     1      -2.418  -9.201   7.147  1.00  0.00     0.029 A 
ATOM     50  N   UNL     1      -0.259  -9.140   7.671  1.00  0.00    -0.354 N 
ATOM     51  N   UNL     1       2.231 -10.181   8.862  1.00  0.00    -0.248 NA
ATOM     52  C   UNL     1       3.363 -11.827  10.075  1.00  0.00     0.031 C 
ATOM     53  C   UNL     1      -2.117 -10.329   7.920  1.00  0.00     0.029 A 
ATOM     54  C   UNL     1      -0.764 -10.310   8.219  1.00  0.00     0.049 A 
ATOM     55  H   UNL     1       0.679  -8.847   7.736  1.00  0.00     0.167 HD
ATOM     56  C   UNL     1       1.338 -11.194   9.201  1.00  0.00     0.074 A 
ATOM     57  C   UNL     1       2.099 -12.194   9.922  1.00  0.00     0.031 C 
ATOM     58  C   UNL     1       0.010 -11.293   8.938  1.00  0.00     0.034 A 
BRANCH  45  59
ATOM     59  C   UNL     1      -2.290  -6.508   5.719  1.00  0.00     0.023 A 
ATOM     60  C   UNL     1      -2.366  -6.278   4.334  1.00  0.00     0.031 A 
ATOM     61  C   UNL     1      -3.353  -6.055   6.521  1.00  0.00     0.131 A 
ATOM     62  C   UNL     1      -3.445  -5.553   3.804  1.00  0.00     0.055 A 
ATOM     63  C   UNL     1      -4.461  -5.402   5.977  1.00  0.00     0.041 A 
ATOM     64  F   UNL     1      -3.325  -6.225   7.853  1.00  0.00    -0.206 F 
ATOM     65  C   UNL     1      -4.505  -5.134   4.613  1.00  0.00     0.022 A 
BRANCH  62  66
ATOM     66  S   UNL     1      -3.378  -5.040   2.065  1.00  0.00     0.124 S 
ATOM     67  O   UNL     1      -2.172  -4.217   2.050  1.00  0.00    -0.237 OA
ATOM     68  O   UNL     1      -3.294  -6.316   1.364  1.00  0.00    -0.237 OA
ATOM     69  O   UNL     1      -4.628  -4.305   1.877  1.00  0.00    -0.744 OA
ENDBRANCH  62  66
ENDBRANCH  45  59
BRANCH  46  70
ATOM     70  C   UNL     1       5.933 -10.427   9.919  1.00  0.00     0.023 A 
ATOM     71  C   UNL     1       6.480 -11.652   9.507  1.00  0.00     0.031 A 
ATOM     72  C   UNL     1       6.524  -9.775  11.017  1.00  0.00     0.131 A 
ATOM     73  C   UNL     1       7.556 -12.209  10.215  1.00  0.00     0.055 A 
ATOM     74  C   UNL     1       7.625 -10.310  11.686  1.00  0.00     0.041 A 
ATOM     75  F   UNL     1       6.039  -8.601  11.452  1.00  0.00    -0.206 F 
ATOM     76  C   UNL     1       8.140 -11.541  11.294  1.00  0.00     0.022 A 
BRANCH  73  77
ATOM     77  S   UNL     1       8.133 -13.867   9.756  1.00  0.00     0.124 S 
ATOM     78  O   UNL     1       6.919 -14.660   9.915  1.00  0.00    -0.237 OA
ATOM     79  O   UNL     1       8.591 -13.660   8.386  1.00  0.00    -0.237 OA
ATOM     80  O   UNL     1       9.190 -14.141  10.729  1.00  0.00    -0.744 OA
ENDBRANCH  73  77
ENDBRANCH  46  70
BRANCH  58  81
ATOM     81  C   UNL     1      -0.681 -12.556   9.386  1.00  0.00     0.023 A 
ATOM     82  C   UNL     1      -0.886 -12.847  10.746  1.00  0.00     0.031 A 
ATOM     83  C   UNL     1      -1.125 -13.490   8.434  1.00  0.00     0.131 A 
ATOM     84  C   UNL     1      -1.470 -14.067  11.118  1.00  0.00     0.055 A 
ATOM     85  C   UNL     1      -1.752 -14.679   8.808  1.00  0.00     0.041 A 
ATOM     86  F   UNL     1      -0.954 -13.261   7.122  1.00  0.00    -0.206 F 
ATOM     87  C   UNL     1      -1.915 -14.979  10.157  1.00  0.00     0.022 A 
BRANCH  84  88
ATOM     88  S   UNL     1      -1.562 -14.489  12.880  1.00  0.00     0.124 S 
ATOM     89  O   UNL     1      -0.161 -14.431  13.282  1.00  0.00    -0.237 OA
ATOM     90  O   UNL     1      -2.421 -13.433  13.409  1.00  0.00    -0.237 OA
ATOM     91  O   UNL     1      -2.153 -15.826  12.883  1.00  0.00    -0.744 OA
ENDBRANCH  84  88
ENDBRANCH  58  81
ENDBRANCH  32  33
ENDBRANCH  25  27
ENDBRANCH  24  25
ENDBRANCH  23  24
ENDBRANCH   1  23
TORSDOF 18
