REMARK SMILES O=C(COc1ccc(/C=C2\SC(=O)N(Cc3cc4c(cc3Cl)OCO4)C2=O)cc1)OCCOC(=O)c1ccc(-c2c3nc(c(-c4cc(S(=O)(=O)[O-])ccc4F)c4ccc([nH]4)c(-c4cc(S(=O)(=O)[O-])ccc4F)c4nc(c(-c5cc(S(=O)(=O)[O-])ccc5F)c5ccc2[nH]5)C=C4)C=C3)cc1
REMARK SMILES IDX 31 1 30 2 2 3 1 4 3 5 4 6 5 7 6 8 29 9 7 10 28 11 8 12 9 13
REMARK SMILES IDX 10 14 11 15 26 16 12 17 14 18 27 19 13 20 15 21 16 22 17 23
REMARK SMILES IDX 21 24 18 25 20 26 22 27 19 28 25 29 23 30 24 31 32 32 33 33
REMARK SMILES IDX 34 34 35 35 36 36 37 37 98 38 38 39 97 40 39 41 40 42 41 43
REMARK SMILES IDX 91 44 42 45 96 46 90 47 92 48 43 49 95 50 89 51 88 52 44 54
REMARK SMILES IDX 76 55 56 56 75 57 57 58 60 59 74 60 93 61 58 62 59 63 73 65
REMARK SMILES IDX 94 66 61 67 45 68 46 69 54 70 47 71 53 72 55 73 52 74 48 75
REMARK SMILES IDX 49 76 50 77 51 78 77 79 78 80 86 81 79 82 85 83 87 84 84 85
REMARK SMILES IDX 80 86 81 87 82 88 83 89 62 90 63 91 71 92 64 93 70 94 72 95
REMARK SMILES IDX 69 96 65 97 66 98 67 99 68 100
REMARK H PARENT 92 53 60 64
REMARK Flexibility Score: inf
ROOT
ATOM      1  C   UNL     1       4.534   0.267   1.051  1.00  0.00     0.274 C 
ENDROOT
BRANCH   1   2
ATOM      2  O   UNL     1       3.186   0.602   0.667  1.00  0.00    -0.460 OA
BRANCH   2   3
ATOM      3  C   UNL     1       2.532  -0.012  -0.350  1.00  0.00     0.344 C 
ATOM      4  O   UNL     1       1.307   0.061  -0.427  1.00  0.00    -0.248 OA
BRANCH   3   5
ATOM      5  C   UNL     1       3.363  -0.711  -1.429  1.00  0.00     0.351 C 
BRANCH   5   6
ATOM      6  O   UNL     1       4.267   0.123  -2.153  1.00  0.00    -0.482 OA
BRANCH   6   7
ATOM      7  C   UNL     1       3.579   0.772  -3.141  1.00  0.00     0.120 A 
ATOM      8  C   UNL     1       3.764   0.376  -4.465  1.00  0.00     0.047 A 
ATOM      9  C   UNL     1       2.686   1.784  -2.809  1.00  0.00     0.047 A 
ATOM     10  C   UNL     1       2.991   0.962  -5.469  1.00  0.00     0.012 A 
ATOM     11  C   UNL     1       1.891   2.333  -3.796  1.00  0.00     0.012 A 
ATOM     12  C   UNL     1       2.048   1.936  -5.127  1.00  0.00    -0.024 A 
BRANCH  12  13
ATOM     13  C   UNL     1       1.174   2.572  -6.101  1.00  0.00     0.029 C 
ATOM     14  C   UNL     1       1.213   3.885  -6.358  1.00  0.00     0.083 C 
ATOM     15  S   UNL     1       2.384   5.059  -5.898  1.00  0.00    -0.022 SA
ATOM     16  C   UNL     1       0.170   4.528  -7.173  1.00  0.00     0.268 C 
ATOM     17  C   UNL     1       1.744   6.228  -7.042  1.00  0.00     0.293 C 
ATOM     18  N   UNL     1       0.665   5.694  -7.689  1.00  0.00    -0.264 N 
ATOM     19  O   UNL     1      -0.973   4.111  -7.269  1.00  0.00    -0.268 OA
ATOM     20  O   UNL     1       2.216   7.346  -7.184  1.00  0.00    -0.261 OA
BRANCH  18  21
ATOM     21  C   UNL     1       0.026   6.345  -8.807  1.00  0.00     0.167 C 
BRANCH  21  22
ATOM     22  C   UNL     1       0.702   5.935 -10.107  1.00  0.00    -0.005 A 
ATOM     23  C   UNL     1       1.590   6.844 -10.717  1.00  0.00     0.057 A 
ATOM     24  C   UNL     1       0.518   4.658 -10.706  1.00  0.00     0.050 A 
ATOM     25  C   UNL     1       2.221   6.460 -11.883  1.00  0.00     0.166 A 
ATOM     26  C   UNL     1       1.240   4.271 -11.838  1.00  0.00     0.071 A 
ATOM     27  Cl  UNL     1      -0.652   3.519 -10.157  1.00  0.00    -0.084 Cl
ATOM     28  C   UNL     1       2.064   5.203 -12.414  1.00  0.00     0.167 A 
ATOM     29  O   UNL     1       3.028   7.240 -12.652  1.00  0.00    -0.454 OA
ATOM     30  O   UNL     1       2.765   5.031 -13.565  1.00  0.00    -0.454 OA
ATOM     31  C   UNL     1       3.201   6.382 -13.801  1.00  0.00     0.468 C 
ENDBRANCH  21  22
ENDBRANCH  18  21
ENDBRANCH  12  13
ENDBRANCH   6   7
ENDBRANCH   5   6
ENDBRANCH   3   5
ENDBRANCH   2   3
ENDBRANCH   1   2
BRANCH   1  32
ATOM     32  C   UNL     1       4.540  -0.891   2.051  1.00  0.00     0.275 C 
BRANCH  32  33
ATOM     33  O   UNL     1       4.152  -2.112   1.394  1.00  0.00    -0.458 OA
BRANCH  33  34
ATOM     34  C   UNL     1       2.852  -2.487   1.534  1.00  0.00     0.338 C 
ATOM     35  O   UNL     1       2.023  -1.967   2.258  1.00  0.00    -0.246 OA
BRANCH  34  36
ATOM     36  C   UNL     1       2.547  -3.491   0.486  1.00  0.00     0.060 A 
ATOM     37  C   UNL     1       1.337  -3.391  -0.217  1.00  0.00     0.016 A 
ATOM     38  C   UNL     1       3.469  -4.488   0.155  1.00  0.00     0.016 A 
ATOM     39  C   UNL     1       1.037  -4.303  -1.234  1.00  0.00     0.010 A 
ATOM     40  C   UNL     1       3.164  -5.404  -0.852  1.00  0.00     0.010 A 
ATOM     41  C   UNL     1       1.936  -5.335  -1.534  1.00  0.00    -0.014 A 
BRANCH  41  42
ATOM     42  C   UNL     1       1.539  -6.479  -2.393  1.00  0.00     0.031 A 
ATOM     43  C   UNL     1       1.033  -7.720  -1.713  1.00  0.00     0.074 A 
ATOM     44  C   UNL     1       1.696  -6.455  -3.728  1.00  0.00     0.049 A 
ATOM     45  N   UNL     1       0.798  -8.907  -2.208  1.00  0.00    -0.248 NA
ATOM     46  C   UNL     1       0.786  -7.603  -0.269  1.00  0.00     0.031 C 
ATOM     47  C   UNL     1       2.145  -5.305  -4.508  1.00  0.00     0.029 A 
ATOM     48  N   UNL     1       1.523  -7.451  -4.659  1.00  0.00    -0.354 N 
ATOM     49  C   UNL     1       0.385  -9.685  -1.131  1.00  0.00     0.074 A 
ATOM     50  C   UNL     1       0.444  -8.841   0.044  1.00  0.00     0.031 C 
ATOM     51  C   UNL     1       2.246  -5.671  -5.799  1.00  0.00     0.029 A 
ATOM     52  C   UNL     1       1.910  -7.089  -5.928  1.00  0.00     0.049 A 
ATOM     53  H   UNL     1       1.157  -8.338  -4.439  1.00  0.00     0.167 HD
ATOM     54  C   UNL     1      -0.009 -10.983  -1.123  1.00  0.00     0.034 A 
ATOM     55  C   UNL     1       2.019  -7.828  -7.052  1.00  0.00     0.034 A 
ATOM     56  C   UNL     1      -0.033 -11.819  -2.297  1.00  0.00     0.049 A 
ATOM     57  C   UNL     1       1.662  -9.296  -7.013  1.00  0.00     0.074 A 
ATOM     58  C   UNL     1      -0.426 -13.141  -2.408  1.00  0.00     0.029 A 
ATOM     59  N   UNL     1       0.373 -11.418  -3.565  1.00  0.00    -0.354 N 
ATOM     60  N   UNL     1       1.262 -10.024  -5.995  1.00  0.00    -0.248 NA
ATOM     61  C   UNL     1       1.768 -10.042  -8.275  1.00  0.00     0.031 C 
ATOM     62  C   UNL     1      -0.187 -13.560  -3.721  1.00  0.00     0.029 A 
ATOM     63  C   UNL     1       0.275 -12.477  -4.454  1.00  0.00     0.049 A 
ATOM     64  H   UNL     1       0.685 -10.514  -3.797  1.00  0.00     0.167 HD
ATOM     65  C   UNL     1       1.036 -11.302  -6.503  1.00  0.00     0.074 A 
ATOM     66  C   UNL     1       1.348 -11.248  -7.916  1.00  0.00     0.031 C 
ATOM     67  C   UNL     1       0.594 -12.414  -5.862  1.00  0.00     0.034 A 
BRANCH  54  68
ATOM     68  C   UNL     1      -0.373 -11.574   0.217  1.00  0.00     0.023 A 
ATOM     69  C   UNL     1      -1.441 -11.069   0.981  1.00  0.00     0.031 A 
ATOM     70  C   UNL     1       0.409 -12.599   0.777  1.00  0.00     0.131 A 
ATOM     71  C   UNL     1      -1.631 -11.515   2.297  1.00  0.00     0.055 A 
ATOM     72  C   UNL     1       0.155 -13.105   2.053  1.00  0.00     0.041 A 
ATOM     73  F   UNL     1       1.457 -13.104   0.107  1.00  0.00    -0.206 F 
ATOM     74  C   UNL     1      -0.856 -12.547   2.830  1.00  0.00     0.022 A 
BRANCH  71  75
ATOM     75  S   UNL     1      -2.771 -10.591   3.364  1.00  0.00     0.124 S 
ATOM     76  O   UNL     1      -2.226  -9.238   3.276  1.00  0.00    -0.237 OA
ATOM     77  O   UNL     1      -4.057 -10.807   2.712  1.00  0.00    -0.237 OA
ATOM     78  O   UNL     1      -2.615 -11.232   4.668  1.00  0.00    -0.744 OA
ENDBRANCH  71  75
ENDBRANCH  54  68
BRANCH  55  79
ATOM     79  C   UNL     1       2.545  -7.210  -8.302  1.00  0.00     0.023 A 
ATOM     80  C   UNL     1       1.731  -7.044  -9.434  1.00  0.00     0.031 A 
ATOM     81  C   UNL     1       3.889  -6.803  -8.389  1.00  0.00     0.131 A 
ATOM     82  C   UNL     1       2.276  -6.514 -10.614  1.00  0.00     0.055 A 
ATOM     83  C   UNL     1       4.415  -6.236  -9.551  1.00  0.00     0.041 A 
ATOM     84  F   UNL     1       4.709  -6.940  -7.335  1.00  0.00    -0.206 F 
ATOM     85  C   UNL     1       3.608  -6.096 -10.676  1.00  0.00     0.022 A 
BRANCH  82  86
ATOM     86  S   UNL     1       1.230  -6.421 -12.094  1.00  0.00     0.124 S 
ATOM     87  O   UNL     1       0.942  -7.829 -12.341  1.00  0.00    -0.237 OA
ATOM     88  O   UNL     1       0.113  -5.608 -11.625  1.00  0.00    -0.237 OA
ATOM     89  O   UNL     1       2.094  -5.776 -13.081  1.00  0.00    -0.744 OA
ENDBRANCH  82  86
ENDBRANCH  55  79
BRANCH  67  90
ATOM     90  C   UNL     1       0.356 -13.653  -6.692  1.00  0.00     0.023 A 
ATOM     91  C   UNL     1       1.409 -14.391  -7.259  1.00  0.00     0.031 A 
ATOM     92  C   UNL     1      -0.958 -14.119  -6.886  1.00  0.00     0.131 A 
ATOM     93  C   UNL     1       1.128 -15.539  -8.019  1.00  0.00     0.055 A 
ATOM     94  C   UNL     1      -1.228 -15.287  -7.600  1.00  0.00     0.041 A 
ATOM     95  F   UNL     1      -2.002 -13.453  -6.367  1.00  0.00    -0.206 F 
ATOM     96  C   UNL     1      -0.182 -16.000  -8.178  1.00  0.00     0.022 A 
BRANCH  93  97
ATOM     97  S   UNL     1       2.493 -16.398  -8.851  1.00  0.00     0.124 S 
ATOM     98  O   UNL     1       3.019 -15.356  -9.726  1.00  0.00    -0.237 OA
ATOM     99  O   UNL     1       3.347 -16.785  -7.733  1.00  0.00    -0.237 OA
ATOM    100  O   UNL     1       1.833 -17.508  -9.537  1.00  0.00    -0.744 OA
ENDBRANCH  93  97
ENDBRANCH  67  90
ENDBRANCH  41  42
ENDBRANCH  34  36
ENDBRANCH  33  34
ENDBRANCH  32  33
ENDBRANCH   1  32
TORSDOF 19
