REMARK SMILES CCC(=O)N1c2ccc(S(=O)(=O)N3CCC(C)CC3)cc2C[C@H]1C(=O)OCCOC(=O)c1ccc(-c2c3nc(c(-c4cc(S(=O)(=O)[O-])ccc4F)c4ccc([nH]4)c(-c4cc(S(=O)(=O)[O-])ccc4F)c4nc(c(-c5cc(S(=O)(=O)[O-])ccc5F)c5ccc2[nH]5)C=C4)C=C3)cc1
REMARK SMILES IDX 28 1 27 2 26 3 24 4 25 5 23 6 5 7 6 8 7 9 21 10 22 11 8 12
REMARK SMILES IDX 20 13 9 14 3 15 4 16 2 17 1 18 10 19 11 20 12 21 13 22 14 23
REMARK SMILES IDX 19 24 15 25 18 26 16 27 17 28 29 29 30 30 31 31 32 32 33 33
REMARK SMILES IDX 94 34 34 35 93 36 35 37 36 38 37 39 87 40 38 41 92 42 86 43
REMARK SMILES IDX 88 44 39 45 91 46 85 47 84 48 40 50 72 51 52 52 71 53 53 54
REMARK SMILES IDX 56 55 70 56 89 57 54 58 55 59 69 61 90 62 57 63 41 64 42 65
REMARK SMILES IDX 50 66 43 67 49 68 51 69 48 70 44 71 45 72 46 73 47 74 73 75
REMARK SMILES IDX 74 76 82 77 75 78 81 79 83 80 80 81 76 82 77 83 78 84 79 85
REMARK SMILES IDX 58 86 59 87 67 88 60 89 66 90 68 91 65 92 61 93 62 94 63 95
REMARK SMILES IDX 64 96
REMARK H PARENT 88 49 56 60
REMARK Flexibility Score: inf
ROOT
ATOM      1  C   UNL     1       0.084   4.147  -5.719  1.00  0.00     0.275 C 
ENDROOT
BRANCH   1   2
ATOM      2  C   UNL     1       1.396   3.438  -6.058  1.00  0.00     0.274 C 
BRANCH   2   3
ATOM      3  O   UNL     1       1.958   2.816  -4.890  1.00  0.00    -0.461 OA
BRANCH   3   4
ATOM      4  C   UNL     1       2.976   3.469  -4.276  1.00  0.00     0.329 C 
ATOM      5  O   UNL     1       3.492   4.502  -4.692  1.00  0.00    -0.250 OA
BRANCH   4   6
ATOM      6  C   UNL     1       3.393   2.825  -2.957  1.00  0.00     0.204 C 
ATOM      7  N   UNL     1       2.719   1.562  -2.607  1.00  0.00    -0.298 N 
ATOM      8  C   UNL     1       3.694   0.718  -2.074  1.00  0.00     0.048 A 
ATOM      9  C   UNL     1       3.450  -0.415  -1.350  1.00  0.00     0.028 A 
ATOM     10  C   UNL     1       4.983   1.226  -2.247  1.00  0.00    -0.020 A 
ATOM     11  C   UNL     1       4.915   2.519  -2.997  1.00  0.00     0.075 C 
ATOM     12  C   UNL     1       4.538  -1.018  -0.761  1.00  0.00     0.024 A 
ATOM     13  C   UNL     1       6.091   0.546  -1.748  1.00  0.00     0.027 A 
ATOM     14  C   UNL     1       5.848  -0.608  -0.995  1.00  0.00     0.083 A 
BRANCH   7  15
ATOM     15  C   UNL     1       1.389   1.385  -2.274  1.00  0.00     0.227 C 
ATOM     16  O   UNL     1       0.684   0.571  -2.875  1.00  0.00    -0.275 OA
BRANCH  15  17
ATOM     17  C   UNL     1       0.920   2.029  -0.975  1.00  0.00     0.097 C 
ATOM     18  C   UNL     1       0.696   0.985   0.114  1.00  0.00     0.014 C 
ENDBRANCH  15  17
ENDBRANCH   7  15
BRANCH  14  19
ATOM     19  S   UNL     1       7.186  -1.620  -0.391  1.00  0.00     0.243 S 
ATOM     20  O   UNL     1       7.829  -2.168  -1.567  1.00  0.00    -0.207 OA
ATOM     21  O   UNL     1       7.915  -0.815   0.565  1.00  0.00    -0.207 OA
BRANCH  19  22
ATOM     22  N   UNL     1       6.461  -2.912   0.437  1.00  0.00    -0.198 NA
ATOM     23  C   UNL     1       5.847  -4.053  -0.257  1.00  0.00     0.103 C 
ATOM     24  C   UNL     1       6.275  -2.901   1.891  1.00  0.00     0.103 C 
ATOM     25  C   UNL     1       4.353  -4.200   0.064  1.00  0.00     0.020 C 
ATOM     26  C   UNL     1       4.799  -2.801   2.234  1.00  0.00     0.020 C 
ATOM     27  C   UNL     1       3.913  -3.830   1.502  1.00  0.00    -0.012 C 
ATOM     28  C   UNL     1       2.457  -3.330   1.506  1.00  0.00     0.008 C 
ENDBRANCH  19  22
ENDBRANCH  14  19
ENDBRANCH   4   6
ENDBRANCH   3   4
ENDBRANCH   2   3
ENDBRANCH   1   2
BRANCH   1  29
ATOM     29  O   UNL     1       0.304   5.255  -4.821  1.00  0.00    -0.458 OA
BRANCH  29  30
ATOM     30  C   UNL     1       0.027   4.982  -3.527  1.00  0.00     0.338 C 
ATOM     31  O   UNL     1      -0.389   3.930  -3.074  1.00  0.00    -0.246 OA
BRANCH  30  32
ATOM     32  C   UNL     1       0.392   6.098  -2.647  1.00  0.00     0.060 A 
ATOM     33  C   UNL     1       1.618   6.039  -1.988  1.00  0.00     0.016 A 
ATOM     34  C   UNL     1      -0.543   7.072  -2.305  1.00  0.00     0.016 A 
ATOM     35  C   UNL     1       1.893   6.898  -0.934  1.00  0.00     0.010 A 
ATOM     36  C   UNL     1      -0.235   7.990  -1.293  1.00  0.00     0.010 A 
ATOM     37  C   UNL     1       0.974   7.892  -0.579  1.00  0.00    -0.014 A 
BRANCH  37  38
ATOM     38  C   UNL     1       1.285   8.800   0.556  1.00  0.00     0.031 A 
ATOM     39  C   UNL     1       0.439   8.780   1.799  1.00  0.00     0.074 A 
ATOM     40  C   UNL     1       2.356   9.614   0.478  1.00  0.00     0.049 A 
ATOM     41  N   UNL     1       0.486   9.564   2.846  1.00  0.00    -0.248 NA
ATOM     42  C   UNL     1      -0.608   7.750   1.866  1.00  0.00     0.031 C 
ATOM     43  C   UNL     1       3.277   9.688  -0.660  1.00  0.00     0.029 A 
ATOM     44  N   UNL     1       2.858  10.527   1.369  1.00  0.00    -0.354 N 
ATOM     45  C   UNL     1      -0.548   9.150   3.680  1.00  0.00     0.074 A 
ATOM     46  C   UNL     1      -1.214   8.055   3.004  1.00  0.00     0.031 C 
ATOM     47  C   UNL     1       4.244  10.577  -0.386  1.00  0.00     0.029 A 
ATOM     48  C   UNL     1       3.969  11.192   0.907  1.00  0.00     0.049 A 
ATOM     49  H   UNL     1       2.460  10.690   2.255  1.00  0.00     0.167 HD
ATOM     50  C   UNL     1      -0.905   9.641   4.894  1.00  0.00     0.034 A 
ATOM     51  C   UNL     1       4.667  12.211   1.443  1.00  0.00     0.034 A 
ATOM     52  C   UNL     1      -0.212  10.723   5.556  1.00  0.00     0.049 A 
ATOM     53  C   UNL     1       4.231  12.762   2.773  1.00  0.00     0.074 A 
ATOM     54  C   UNL     1      -0.482  11.298   6.787  1.00  0.00     0.029 A 
ATOM     55  N   UNL     1       0.892  11.394   5.043  1.00  0.00    -0.354 N 
ATOM     56  N   UNL     1       3.224  12.391   3.531  1.00  0.00    -0.248 NA
ATOM     57  C   UNL     1       5.025  13.868   3.318  1.00  0.00     0.031 C 
ATOM     58  C   UNL     1       0.419  12.352   6.989  1.00  0.00     0.029 A 
ATOM     59  C   UNL     1       1.298  12.391   5.919  1.00  0.00     0.049 A 
ATOM     60  H   UNL     1       1.324  11.191   4.182  1.00  0.00     0.167 HD
ATOM     61  C   UNL     1       3.269  13.217   4.649  1.00  0.00     0.074 A 
ATOM     62  C   UNL     1       4.422  14.080   4.478  1.00  0.00     0.031 C 
ATOM     63  C   UNL     1       2.432  13.264   5.717  1.00  0.00     0.034 A 
BRANCH  50  64
ATOM     64  C   UNL     1      -2.139   9.056   5.542  1.00  0.00     0.023 A 
ATOM     65  C   UNL     1      -2.206   7.710   5.944  1.00  0.00     0.031 A 
ATOM     66  C   UNL     1      -3.287   9.850   5.717  1.00  0.00     0.131 A 
ATOM     67  C   UNL     1      -3.414   7.182   6.428  1.00  0.00     0.055 A 
ATOM     68  C   UNL     1      -4.462   9.339   6.273  1.00  0.00     0.041 A 
ATOM     69  F   UNL     1      -3.293  11.136   5.333  1.00  0.00    -0.206 F 
ATOM     70  C   UNL     1      -4.536   7.993   6.617  1.00  0.00     0.022 A 
BRANCH  67  71
ATOM     71  S   UNL     1      -3.546   5.387   6.662  1.00  0.00     0.124 S 
ATOM     72  O   UNL     1      -3.225   4.891   5.326  1.00  0.00    -0.237 OA
ATOM     73  O   UNL     1      -2.550   5.130   7.695  1.00  0.00    -0.237 OA
ATOM     74  O   UNL     1      -4.936   5.195   7.072  1.00  0.00    -0.744 OA
ENDBRANCH  67  71
ENDBRANCH  50  64
BRANCH  51  75
ATOM     75  C   UNL     1       5.806  12.814   0.695  1.00  0.00     0.023 A 
ATOM     76  C   UNL     1       7.119  12.739   1.184  1.00  0.00     0.031 A 
ATOM     77  C   UNL     1       5.590  13.493  -0.519  1.00  0.00     0.131 A 
ATOM     78  C   UNL     1       8.161  13.361   0.479  1.00  0.00     0.055 A 
ATOM     79  C   UNL     1       6.637  14.065  -1.241  1.00  0.00     0.041 A 
ATOM     80  F   UNL     1       4.352  13.589  -1.032  1.00  0.00    -0.206 F 
ATOM     81  C   UNL     1       7.931  14.010  -0.737  1.00  0.00     0.022 A 
BRANCH  78  82
ATOM     82  S   UNL     1       9.822  13.364   1.209  1.00  0.00     0.124 S 
ATOM     83  O   UNL     1       9.587  14.042   2.479  1.00  0.00    -0.237 OA
ATOM     84  O   UNL     1      10.120  11.938   1.287  1.00  0.00    -0.237 OA
ATOM     85  O   UNL     1      10.618  14.113   0.239  1.00  0.00    -0.744 OA
ENDBRANCH  78  82
ENDBRANCH  51  75
BRANCH  63  86
ATOM     86  C   UNL     1       2.767  14.276   6.785  1.00  0.00     0.023 A 
ATOM     87  C   UNL     1       2.695  15.659   6.535  1.00  0.00     0.031 A 
ATOM     88  C   UNL     1       3.216  13.854   8.048  1.00  0.00     0.131 A 
ATOM     89  C   UNL     1       3.139  16.568   7.506  1.00  0.00     0.055 A 
ATOM     90  C   UNL     1       3.596  14.766   9.034  1.00  0.00     0.041 A 
ATOM     91  F   UNL     1       3.307  12.547   8.340  1.00  0.00    -0.206 F 
ATOM     92  C   UNL     1       3.576  16.131   8.759  1.00  0.00     0.022 A 
BRANCH  89  93
ATOM     93  S   UNL     1       3.255  18.324   7.064  1.00  0.00     0.124 S 
ATOM     94  O   UNL     1       4.117  18.284   5.886  1.00  0.00    -0.237 OA
ATOM     95  O   UNL     1       1.860  18.676   6.821  1.00  0.00    -0.237 OA
ATOM     96  O   UNL     1       3.853  18.936   8.248  1.00  0.00    -0.744 OA
ENDBRANCH  89  93
ENDBRANCH  63  86
ENDBRANCH  37  38
ENDBRANCH  30  32
ENDBRANCH  29  30
ENDBRANCH   1  29
TORSDOF 18
