REMARK SMILES NS(=O)(=O)c1ccc(-n2nc(NC(=O)NCCCC(=O)OCCOC(=O)c3ccc(-c4c5nc(c(-c6cc(S(=O)(=O)[O-])ccc6F)c6ccc([nH]6)c(-c6cc(S(=O)(=O)[O-])ccc6F)c6nc(c(-c7cc(S(=O)(=O)[O-])ccc7F)c7ccc4[nH]7)C=C6)C=C5)cc3)cc2-c2ccccc2)cc1
REMARK SMILES IDX 19 1 20 2 18 3 17 4 16 5 15 6 12 7 13 8 14 10 11 12 9 13
REMARK SMILES IDX 10 14 91 15 90 16 8 17 5 18 6 19 99 20 7 21 98 22 2 23 3 24
REMARK SMILES IDX 4 25 1 26 92 29 93 30 97 31 94 32 96 33 95 34 21 35 22 36
REMARK SMILES IDX 23 37 24 38 25 39 26 40 27 41 28 42 89 43 29 44 88 45 30 46
REMARK SMILES IDX 31 47 32 48 82 49 33 50 87 51 81 52 83 53 34 54 86 55 80 56
REMARK SMILES IDX 79 57 35 59 67 60 47 61 66 62 48 63 51 64 65 65 84 66 49 67
REMARK SMILES IDX 50 68 64 70 85 71 52 72 36 73 37 74 45 75 38 76 44 77 46 78
REMARK SMILES IDX 43 79 39 80 40 81 41 82 42 83 68 84 69 85 77 86 70 87 76 88
REMARK SMILES IDX 78 89 75 90 71 91 72 92 73 93 74 94 53 95 54 96 62 97 55 98
REMARK SMILES IDX 61 99 63 100 60 101 56 102 57 103 58 104 59 105
REMARK H PARENT 12 9 15 11 1 27 1 28 83 58 51 69
REMARK Flexibility Score: inf
ROOT
ATOM      1  C   UNL     1      -3.680   7.067   0.247  1.00  0.00     0.305 C 
ATOM      2  O   UNL     1      -4.628   6.560  -0.346  1.00  0.00    -0.252 OA
ENDROOT
BRANCH   1   3
ATOM      3  C   UNL     1      -3.598   7.106   1.758  1.00  0.00     0.124 C 
BRANCH   3   4
ATOM      4  C   UNL     1      -2.274   6.824   2.462  1.00  0.00     0.033 C 
BRANCH   4   5
ATOM      5  C   UNL     1      -1.071   7.716   2.172  1.00  0.00     0.118 C 
BRANCH   5   6
ATOM      6  N   UNL     1      -1.231   9.122   2.515  1.00  0.00    -0.338 N 
ATOM      7  N   UNL     1       0.900   9.775   3.409  1.00  0.00    -0.291 N 
ATOM      8  C   UNL     1      -0.390  10.021   3.079  1.00  0.00     0.320 C 
ATOM      9  H   UNL     1       1.261  10.358   4.115  1.00  0.00     0.173 HD
ATOM     10  O   UNL     1      -0.871  11.115   3.401  1.00  0.00    -0.248 OA
ATOM     11  H   UNL     1      -2.118   9.488   2.295  1.00  0.00     0.165 HD
BRANCH   7  12
ATOM     12  C   UNL     1       1.790   8.849   2.923  1.00  0.00     0.157 A 
ATOM     13  N   UNL     1       2.350   7.112   1.942  1.00  0.00    -0.231 N 
ATOM     14  N   UNL     1       1.637   8.232   1.757  1.00  0.00    -0.149 NA
ATOM     15  C   UNL     1       3.434   7.335   2.780  1.00  0.00     0.076 A 
ATOM     16  C   UNL     1       3.022   8.439   3.516  1.00  0.00     0.078 A 
BRANCH  13  17
ATOM     17  C   UNL     1       1.948   5.908   1.348  1.00  0.00     0.065 A 
ATOM     18  C   UNL     1       1.850   3.595  -0.043  1.00  0.00     0.082 A 
ATOM     19  C   UNL     1       2.102   3.511   1.318  1.00  0.00     0.024 A 
ATOM     20  C   UNL     1       1.452   4.785  -0.669  1.00  0.00     0.024 A 
ATOM     21  C   UNL     1       2.151   4.694   2.027  1.00  0.00     0.030 A 
ATOM     22  C   UNL     1       1.481   5.962   0.039  1.00  0.00     0.030 A 
BRANCH  18  23
ATOM     23  S   UNL     1       2.097   2.237  -1.113  1.00  0.00     0.238 S 
ATOM     24  O   UNL     1       3.417   2.383  -1.693  1.00  0.00    -0.207 OA
ATOM     25  O   UNL     1       0.930   2.272  -1.935  1.00  0.00    -0.207 OA
BRANCH  23  26
ATOM     26  N   UNL     1       2.046   0.891  -0.115  1.00  0.00    -0.225 NA
ATOM     27  H   UNL     1       2.184   0.049  -0.673  1.00  0.00     0.137 HD
ATOM     28  H   UNL     1       1.139   0.847   0.349  1.00  0.00     0.137 HD
ENDBRANCH  23  26
ENDBRANCH  18  23
ENDBRANCH  13  17
BRANCH  15  29
ATOM     29  C   UNL     1       4.592   6.427   2.795  1.00  0.00     0.000 A 
ATOM     30  C   UNL     1       5.129   5.973   1.570  1.00  0.00     0.010 A 
ATOM     31  C   UNL     1       5.058   5.848   3.978  1.00  0.00     0.010 A 
ATOM     32  C   UNL     1       6.042   4.919   1.524  1.00  0.00     0.001 A 
ATOM     33  C   UNL     1       5.994   4.804   3.931  1.00  0.00     0.001 A 
ATOM     34  C   UNL     1       6.472   4.332   2.707  1.00  0.00     0.000 A 
ENDBRANCH  15  29
ENDBRANCH   7  12
ENDBRANCH   5   6
ENDBRANCH   4   5
ENDBRANCH   3   4
ENDBRANCH   1   3
BRANCH   1  35
ATOM     35  O   UNL     1      -2.672   7.744  -0.355  1.00  0.00    -0.462 OA
BRANCH  35  36
ATOM     36  C   UNL     1      -2.639   7.691  -1.794  1.00  0.00     0.274 C 
BRANCH  36  37
ATOM     37  C   UNL     1      -1.803   6.523  -2.303  1.00  0.00     0.275 C 
BRANCH  37  38
ATOM     38  O   UNL     1      -2.483   5.271  -2.177  1.00  0.00    -0.458 OA
BRANCH  38  39
ATOM     39  C   UNL     1      -2.248   4.601  -1.024  1.00  0.00     0.338 C 
ATOM     40  O   UNL     1      -1.818   5.076   0.013  1.00  0.00    -0.246 OA
BRANCH  39  41
ATOM     41  C   UNL     1      -2.332   3.152  -1.262  1.00  0.00     0.060 A 
ATOM     42  C   UNL     1      -1.852   2.328  -0.244  1.00  0.00     0.016 A 
ATOM     43  C   UNL     1      -2.555   2.661  -2.557  1.00  0.00     0.016 A 
ATOM     44  C   UNL     1      -1.364   1.088  -0.597  1.00  0.00     0.010 A 
ATOM     45  C   UNL     1      -2.038   1.430  -2.913  1.00  0.00     0.010 A 
ATOM     46  C   UNL     1      -1.333   0.710  -1.959  1.00  0.00    -0.014 A 
BRANCH  46  47
ATOM     47  C   UNL     1      -0.639  -0.533  -2.300  1.00  0.00     0.031 A 
ATOM     48  C   UNL     1      -1.370  -1.645  -1.673  1.00  0.00     0.074 A 
ATOM     49  C   UNL     1       0.481  -0.691  -3.044  1.00  0.00     0.049 A 
ATOM     50  N   UNL     1      -1.046  -2.290  -0.604  1.00  0.00    -0.248 NA
ATOM     51  C   UNL     1      -2.765  -1.831  -2.107  1.00  0.00     0.031 C 
ATOM     52  C   UNL     1       1.150   0.286  -3.907  1.00  0.00     0.029 A 
ATOM     53  N   UNL     1       1.271  -1.802  -3.208  1.00  0.00    -0.354 N 
ATOM     54  C   UNL     1      -2.100  -3.171  -0.414  1.00  0.00     0.074 A 
ATOM     55  C   UNL     1      -3.213  -2.649  -1.157  1.00  0.00     0.031 C 
ATOM     56  C   UNL     1       2.155  -0.303  -4.588  1.00  0.00     0.029 A 
ATOM     57  C   UNL     1       2.209  -1.708  -4.243  1.00  0.00     0.049 A 
ATOM     58  H   UNL     1       1.184  -2.603  -2.642  1.00  0.00     0.167 HD
ATOM     59  C   UNL     1      -1.849  -4.439  -0.003  1.00  0.00     0.034 A 
ATOM     60  C   UNL     1       2.900  -2.712  -4.863  1.00  0.00     0.034 A 
ATOM     61  C   UNL     1      -0.609  -4.507   0.738  1.00  0.00     0.049 A 
ATOM     62  C   UNL     1       2.909  -3.864  -3.926  1.00  0.00     0.074 A 
ATOM     63  C   UNL     1      -0.124  -3.831   1.845  1.00  0.00     0.029 A 
ATOM     64  N   UNL     1       0.498  -5.049   0.124  1.00  0.00    -0.354 N 
ATOM     65  N   UNL     1       3.549  -3.853  -2.787  1.00  0.00    -0.248 NA
ATOM     66  C   UNL     1       1.778  -4.779  -3.992  1.00  0.00     0.031 C 
ATOM     67  C   UNL     1       1.249  -3.583   1.558  1.00  0.00     0.029 A 
ATOM     68  C   UNL     1       1.567  -4.210   0.352  1.00  0.00     0.049 A 
ATOM     69  H   UNL     1       0.522  -5.889  -0.388  1.00  0.00     0.167 HD
ATOM     70  C   UNL     1       2.659  -4.397  -1.872  1.00  0.00     0.074 A 
ATOM     71  C   UNL     1       1.601  -4.999  -2.686  1.00  0.00     0.031 C 
ATOM     72  C   UNL     1       2.702  -4.069  -0.546  1.00  0.00     0.034 A 
BRANCH  59  73
ATOM     73  C   UNL     1      -2.519  -5.624  -0.656  1.00  0.00     0.023 A 
ATOM     74  C   UNL     1      -2.266  -6.888  -0.110  1.00  0.00     0.031 A 
ATOM     75  C   UNL     1      -3.165  -5.618  -1.922  1.00  0.00     0.131 A 
ATOM     76  C   UNL     1      -2.583  -8.052  -0.831  1.00  0.00     0.055 A 
ATOM     77  C   UNL     1      -3.547  -6.776  -2.597  1.00  0.00     0.041 A 
ATOM     78  F   UNL     1      -3.379  -4.508  -2.636  1.00  0.00    -0.206 F 
ATOM     79  C   UNL     1      -3.230  -8.007  -2.064  1.00  0.00     0.022 A 
BRANCH  76  80
ATOM     80  S   UNL     1      -1.973  -9.632  -0.204  1.00  0.00     0.124 S 
ATOM     81  O   UNL     1      -0.542  -9.367  -0.095  1.00  0.00    -0.237 OA
ATOM     82  O   UNL     1      -2.704  -9.754   1.053  1.00  0.00    -0.237 OA
ATOM     83  O   UNL     1      -2.357 -10.580  -1.246  1.00  0.00    -0.744 OA
ENDBRANCH  76  80
ENDBRANCH  59  73
BRANCH  60  84
ATOM     84  C   UNL     1       3.193  -2.816  -6.338  1.00  0.00     0.023 A 
ATOM     85  C   UNL     1       4.078  -3.764  -6.913  1.00  0.00     0.031 A 
ATOM     86  C   UNL     1       2.406  -2.081  -7.260  1.00  0.00     0.131 A 
ATOM     87  C   UNL     1       4.151  -3.918  -8.328  1.00  0.00     0.055 A 
ATOM     88  C   UNL     1       2.495  -2.225  -8.645  1.00  0.00     0.041 A 
ATOM     89  F   UNL     1       1.441  -1.246  -6.853  1.00  0.00    -0.206 F 
ATOM     90  C   UNL     1       3.361  -3.152  -9.187  1.00  0.00     0.022 A 
BRANCH  87  91
ATOM     91  S   UNL     1       5.212  -5.192  -9.101  1.00  0.00     0.124 S 
ATOM     92  O   UNL     1       6.549  -4.648  -8.898  1.00  0.00    -0.237 OA
ATOM     93  O   UNL     1       4.874  -6.391  -8.343  1.00  0.00    -0.237 OA
ATOM     94  O   UNL     1       4.765  -5.210 -10.496  1.00  0.00    -0.744 OA
ENDBRANCH  87  91
ENDBRANCH  60  84
BRANCH  72  95
ATOM     95  C   UNL     1       3.936  -3.372   0.003  1.00  0.00     0.023 A 
ATOM     96  C   UNL     1       4.478  -2.153  -0.464  1.00  0.00     0.031 A 
ATOM     97  C   UNL     1       4.517  -3.935   1.156  1.00  0.00     0.131 A 
ATOM     98  C   UNL     1       5.555  -1.554   0.229  1.00  0.00     0.055 A 
ATOM     99  C   UNL     1       5.567  -3.329   1.843  1.00  0.00     0.041 A 
ATOM    100  F   UNL     1       4.038  -5.082   1.665  1.00  0.00    -0.206 F 
ATOM    101  C   UNL     1       6.094  -2.135   1.380  1.00  0.00     0.022 A 
BRANCH  98 102
ATOM    102  S   UNL     1       6.234   0.047  -0.299  1.00  0.00     0.124 S 
ATOM    103  O   UNL     1       6.322  -0.085  -1.746  1.00  0.00    -0.237 OA
ATOM    104  O   UNL     1       5.207   0.948   0.222  1.00  0.00    -0.237 OA
ATOM    105  O   UNL     1       7.523   0.120   0.392  1.00  0.00    -0.744 OA
ENDBRANCH  98 102
ENDBRANCH  72  95
ENDBRANCH  46  47
ENDBRANCH  39  41
ENDBRANCH  38  39
ENDBRANCH  37  38
ENDBRANCH  36  37
ENDBRANCH  35  36
ENDBRANCH   1  35
TORSDOF 22
