REMARK SMILES CCC[NH+]1CCN(c2cc(C(=O)OCCOC(=O)c3ccc(-c4c5nc(c(-c6cc(S(=O)(=O)[O-])ccc6F)c6ccc([nH]6)c(-c6cc(S(=O)(=O)[O-])ccc6F)c6nc(c(-c7cc(S(=O)(=O)[O-])ccc7F)c7ccc4[nH]7)C=C6)C=C5)cc3)c3cc(NC(=O)c4ccc(F)cc4)ccc3n2)CC1
REMARK SMILES IDX 14 1 13 2 11 3 12 4 10 5 8 6 9 7 98 8 97 9 82 10 96 11 83 12
REMARK SMILES IDX 95 13 84 14 7 15 4 16 5 17 100 18 6 20 99 21 3 22 2 23 1 24
REMARK SMILES IDX 85 25 86 26 87 28 88 29 89 30 94 31 90 32 93 33 91 34 92 35
REMARK SMILES IDX 15 36 16 37 17 38 18 39 19 40 20 41 81 42 21 43 80 44 22 45
REMARK SMILES IDX 23 46 24 47 74 48 25 49 79 50 73 51 75 52 26 53 78 54 72 55
REMARK SMILES IDX 71 56 27 58 59 59 39 60 58 61 40 62 43 63 57 64 76 65 41 66
REMARK SMILES IDX 42 67 56 69 77 70 44 71 28 72 29 73 37 74 30 75 36 76 38 77
REMARK SMILES IDX 35 78 31 79 32 80 33 81 34 82 60 83 61 84 69 85 62 86 68 87
REMARK SMILES IDX 70 88 67 89 63 90 64 91 65 92 66 93 45 94 46 95 54 96 47 97
REMARK SMILES IDX 53 98 55 99 52 100 48 101 49 102 50 103 51 104
REMARK H PARENT 4 19 85 27 75 57 43 68
REMARK Flexibility Score: inf
ROOT
ATOM      1  C   UNL     1      -4.033  -5.766   1.487  1.00  0.00     0.275 C 
ENDROOT
BRANCH   1   2
ATOM      2  O   UNL     1      -3.938  -4.929   0.315  1.00  0.00    -0.458 OA
BRANCH   2   3
ATOM      3  C   UNL     1      -4.159  -3.608   0.518  1.00  0.00     0.339 C 
ATOM      4  O   UNL     1      -4.421  -3.076   1.585  1.00  0.00    -0.246 OA
BRANCH   3   5
ATOM      5  C   UNL     1      -3.970  -2.828  -0.725  1.00  0.00     0.073 A 
ATOM      6  C   UNL     1      -2.897  -0.959  -1.770  1.00  0.00     0.130 A 
ATOM      7  C   UNL     1      -3.040  -1.787  -0.676  1.00  0.00     0.063 A 
ATOM      8  N   UNL     1      -3.733  -1.048  -2.818  1.00  0.00    -0.231 NA
ATOM      9  C   UNL     1      -4.639  -2.031  -2.866  1.00  0.00     0.074 A 
ATOM     10  C   UNL     1      -4.780  -3.003  -1.863  1.00  0.00     0.017 A 
ATOM     11  C   UNL     1      -5.474  -2.081  -3.967  1.00  0.00     0.031 A 
ATOM     12  C   UNL     1      -5.727  -4.044  -2.044  1.00  0.00     0.037 A 
ATOM     13  C   UNL     1      -6.446  -3.075  -4.108  1.00  0.00     0.028 A 
ATOM     14  C   UNL     1      -6.587  -4.066  -3.138  1.00  0.00     0.042 A 
BRANCH   6  15
ATOM     15  N   UNL     1      -1.880  -0.047  -1.858  1.00  0.00    -0.345 N 
ATOM     16  N   UNL     1       0.249   1.904  -2.297  1.00  0.00    -0.332 N 
ATOM     17  C   UNL     1       0.428   0.471  -2.576  1.00  0.00     0.284 C 
ATOM     18  C   UNL     1      -1.176   2.275  -2.312  1.00  0.00     0.284 C 
ATOM     19  H   UNL     1       0.689   2.383  -3.083  1.00  0.00     0.348 HD
ATOM     20  C   UNL     1      -0.490  -0.497  -1.788  1.00  0.00     0.179 C 
ATOM     21  C   UNL     1      -2.150   1.351  -1.547  1.00  0.00     0.179 C 
BRANCH  16  22
ATOM     22  C   UNL     1       1.036   2.470  -1.200  1.00  0.00     0.262 C 
BRANCH  22  23
ATOM     23  C   UNL     1       0.970   1.824   0.185  1.00  0.00     0.058 C 
ATOM     24  C   UNL     1       2.019   0.748   0.399  1.00  0.00     0.010 C 
ENDBRANCH  22  23
ENDBRANCH  16  22
ENDBRANCH   6  15
BRANCH  14  25
ATOM     25  N   UNL     1      -7.573  -5.040  -3.366  1.00  0.00    -0.322 N 
ATOM     26  C   UNL     1      -8.088  -6.063  -2.607  1.00  0.00     0.255 C 
ATOM     27  H   UNL     1      -7.982  -4.976  -4.259  1.00  0.00     0.170 HD
ATOM     28  O   UNL     1      -8.788  -6.918  -3.152  1.00  0.00    -0.269 OA
BRANCH  26  29
ATOM     29  C   UNL     1      -7.897  -6.166  -1.145  1.00  0.00     0.040 A 
ATOM     30  C   UNL     1      -7.554  -7.417  -0.614  1.00  0.00     0.017 A 
ATOM     31  C   UNL     1      -8.135  -5.079  -0.291  1.00  0.00     0.017 A 
ATOM     32  C   UNL     1      -7.420  -7.575   0.765  1.00  0.00     0.040 A 
ATOM     33  C   UNL     1      -7.976  -5.236   1.088  1.00  0.00     0.040 A 
ATOM     34  C   UNL     1      -7.634  -6.483   1.602  1.00  0.00     0.123 A 
ATOM     35  F   UNL     1      -7.463  -6.629   2.922  1.00  0.00    -0.207 F 
ENDBRANCH  26  29
ENDBRANCH  14  25
ENDBRANCH   3   5
ENDBRANCH   2   3
ENDBRANCH   1   2
BRANCH   1  36
ATOM     36  C   UNL     1      -3.086  -6.965   1.383  1.00  0.00     0.275 C 
BRANCH  36  37
ATOM     37  O   UNL     1      -1.780  -6.567   1.828  1.00  0.00    -0.458 OA
BRANCH  37  38
ATOM     38  C   UNL     1      -1.077  -5.887   0.895  1.00  0.00     0.338 C 
ATOM     39  O   UNL     1      -1.277  -5.850  -0.305  1.00  0.00    -0.246 OA
BRANCH  38  40
ATOM     40  C   UNL     1      -0.218  -4.934   1.604  1.00  0.00     0.060 A 
ATOM     41  C   UNL     1      -0.584  -3.593   1.517  1.00  0.00     0.016 A 
ATOM     42  C   UNL     1       0.938  -5.319   2.274  1.00  0.00     0.016 A 
ATOM     43  C   UNL     1       0.254  -2.604   2.007  1.00  0.00     0.010 A 
ATOM     44  C   UNL     1       1.767  -4.325   2.802  1.00  0.00     0.010 A 
ATOM     45  C   UNL     1       1.457  -2.961   2.624  1.00  0.00    -0.014 A 
BRANCH  45  46
ATOM     46  C   UNL     1       2.483  -1.918   2.877  1.00  0.00     0.031 A 
ATOM     47  C   UNL     1       3.733  -1.939   2.032  1.00  0.00     0.074 A 
ATOM     48  C   UNL     1       2.251  -0.885   3.710  1.00  0.00     0.049 A 
ATOM     49  N   UNL     1       4.836  -1.252   2.158  1.00  0.00    -0.248 NA
ATOM     50  C   UNL     1       3.728  -2.860   0.881  1.00  0.00     0.031 C 
ATOM     51  C   UNL     1       1.000  -0.640   4.429  1.00  0.00     0.029 A 
ATOM     52  N   UNL     1       3.040   0.188   4.043  1.00  0.00    -0.354 N 
ATOM     53  C   UNL     1       5.681  -1.706   1.148  1.00  0.00     0.074 A 
ATOM     54  C   UNL     1       4.959  -2.722   0.416  1.00  0.00     0.031 C 
ATOM     55  C   UNL     1       1.093   0.529   5.084  1.00  0.00     0.029 A 
ATOM     56  C   UNL     1       2.443   1.060   4.925  1.00  0.00     0.049 A 
ATOM     57  H   UNL     1       3.947   0.321   3.685  1.00  0.00     0.167 HD
ATOM     58  C   UNL     1       6.946  -1.310   0.870  1.00  0.00     0.034 A 
ATOM     59  C   UNL     1       2.950   2.132   5.568  1.00  0.00     0.034 A 
ATOM     60  C   UNL     1       7.617  -0.255   1.588  1.00  0.00     0.049 A 
ATOM     61  C   UNL     1       4.399   2.487   5.324  1.00  0.00     0.074 A 
ATOM     62  C   UNL     1       8.918   0.193   1.454  1.00  0.00     0.029 A 
ATOM     63  N   UNL     1       7.021   0.537   2.562  1.00  0.00    -0.354 N 
ATOM     64  N   UNL     1       5.253   1.945   4.484  1.00  0.00    -0.248 NA
ATOM     65  C   UNL     1       4.958   3.581   6.127  1.00  0.00     0.031 C 
ATOM     66  C   UNL     1       9.125   1.218   2.384  1.00  0.00     0.029 A 
ATOM     67  C   UNL     1       7.931   1.460   3.046  1.00  0.00     0.049 A 
ATOM     68  H   UNL     1       6.088   0.453   2.864  1.00  0.00     0.167 HD
ATOM     69  C   UNL     1       6.443   2.648   4.646  1.00  0.00     0.074 A 
ATOM     70  C   UNL     1       6.188   3.669   5.642  1.00  0.00     0.031 C 
ATOM     71  C   UNL     1       7.644   2.468   4.039  1.00  0.00     0.034 A 
BRANCH  58  72
ATOM     72  C   UNL     1       7.703  -2.080  -0.185  1.00  0.00     0.023 A 
ATOM     73  C   UNL     1       7.337  -2.061  -1.541  1.00  0.00     0.031 A 
ATOM     74  C   UNL     1       8.797  -2.881   0.191  1.00  0.00     0.131 A 
ATOM     75  C   UNL     1       8.021  -2.874  -2.460  1.00  0.00     0.055 A 
ATOM     76  C   UNL     1       9.521  -3.627  -0.741  1.00  0.00     0.041 A 
ATOM     77  F   UNL     1       9.174  -2.963   1.477  1.00  0.00    -0.206 F 
ATOM     78  C   UNL     1       9.126  -3.636  -2.074  1.00  0.00     0.022 A 
BRANCH  75  79
ATOM     79  S   UNL     1       7.364  -3.027  -4.144  1.00  0.00     0.124 S 
ATOM     80  O   UNL     1       6.030  -3.568  -3.891  1.00  0.00    -0.237 OA
ATOM     81  O   UNL     1       7.415  -1.652  -4.628  1.00  0.00    -0.237 OA
ATOM     82  O   UNL     1       8.291  -3.952  -4.792  1.00  0.00    -0.744 OA
ENDBRANCH  75  79
ENDBRANCH  58  72
BRANCH  59  83
ATOM     83  C   UNL     1       2.138   2.883   6.575  1.00  0.00     0.023 A 
ATOM     84  C   UNL     1       1.925   4.267   6.459  1.00  0.00     0.031 A 
ATOM     85  C   UNL     1       1.629   2.239   7.719  1.00  0.00     0.131 A 
ATOM     86  C   UNL     1       1.269   4.965   7.488  1.00  0.00     0.055 A 
ATOM     87  C   UNL     1       0.916   2.925   8.704  1.00  0.00     0.041 A 
ATOM     88  F   UNL     1       1.819   0.922   7.901  1.00  0.00    -0.206 F 
ATOM     89  C   UNL     1       0.747   4.300   8.600  1.00  0.00     0.022 A 
BRANCH  86  90
ATOM     90  S   UNL     1       1.215   6.777   7.414  1.00  0.00     0.124 S 
ATOM     91  O   UNL     1       2.629   7.111   7.290  1.00  0.00    -0.237 OA
ATOM     92  O   UNL     1       0.395   7.006   6.230  1.00  0.00    -0.237 OA
ATOM     93  O   UNL     1       0.594   7.151   8.683  1.00  0.00    -0.744 OA
ENDBRANCH  86  90
ENDBRANCH  59  83
BRANCH  71  94
ATOM     94  C   UNL     1       8.743   3.432   4.404  1.00  0.00     0.023 A 
ATOM     95  C   UNL     1       9.318   3.444   5.686  1.00  0.00     0.031 A 
ATOM     96  C   UNL     1       9.210   4.361   3.457  1.00  0.00     0.131 A 
ATOM     97  C   UNL     1      10.284   4.408   6.006  1.00  0.00     0.055 A 
ATOM     98  C   UNL     1      10.217   5.276   3.763  1.00  0.00     0.041 A 
ATOM     99  F   UNL     1       8.695   4.389   2.217  1.00  0.00    -0.206 F 
ATOM    100  C   UNL     1      10.749   5.313   5.048  1.00  0.00     0.022 A 
BRANCH  97 101
ATOM    101  S   UNL     1      10.857   4.525   7.723  1.00  0.00     0.124 S 
ATOM    102  O   UNL     1       9.611   4.775   8.442  1.00  0.00    -0.237 OA
ATOM    103  O   UNL     1      11.466   3.217   7.939  1.00  0.00    -0.237 OA
ATOM    104  O   UNL     1      11.793   5.647   7.696  1.00  0.00    -0.744 OA
ENDBRANCH  97 101
ENDBRANCH  71  94
ENDBRANCH  45  46
ENDBRANCH  38  40
ENDBRANCH  37  38
ENDBRANCH  36  37
ENDBRANCH   1  36
TORSDOF 19
