REMARK SMILES CCCn1cc(Br)cc1C(=O)NC[C@H]1CC[C@@H](C(=O)OCCOC(=O)c2ccc(-c3c4nc(c(-c5cc(S(=O)(=O)[O-])ccc5F)c5ccc([nH]5)c(-c5cc(S(=O)(=O)[O-])ccc5F)c5nc(c(-c6cc(S(=O)(=O)[O-])ccc6F)c6ccc3[nH]6)C=C5)C=C4)cc2)O1
REMARK SMILES IDX 21 1 20 2 18 3 19 4 17 5 14 6 15 7 89 8 16 9 13 10 12 11
REMARK SMILES IDX 10 12 11 13 9 15 4 16 5 17 6 18 8 19 7 20 3 21 2 22 1 23
REMARK SMILES IDX 22 24 23 25 24 26 25 27 26 28 27 29 88 30 28 31 87 32 29 33
REMARK SMILES IDX 30 34 31 35 81 36 32 37 86 38 80 39 82 40 33 41 85 42 79 43
REMARK SMILES IDX 78 44 34 46 66 47 46 48 65 49 47 50 50 51 64 52 83 53 48 54
REMARK SMILES IDX 49 55 63 57 84 58 51 59 35 60 36 61 44 62 37 63 43 64 45 65
REMARK SMILES IDX 42 66 38 67 39 68 40 69 41 70 67 71 68 72 76 73 69 74 75 75
REMARK SMILES IDX 77 76 74 77 70 78 71 79 72 80 73 81 52 82 53 83 61 84 54 85
REMARK SMILES IDX 60 86 62 87 59 88 55 89 56 90 57 91 58 92
REMARK H PARENT 12 14 82 45 50 56
REMARK Flexibility Score: inf
ROOT
ATOM      1  C   UNL     1       4.117  -5.987   1.867  1.00  0.00     0.274 C 
ENDROOT
BRANCH   1   2
ATOM      2  O   UNL     1       3.198  -4.877   1.985  1.00  0.00    -0.460 OA
BRANCH   2   3
ATOM      3  C   UNL     1       3.551  -3.978   2.956  1.00  0.00     0.335 C 
ATOM      4  O   UNL     1       4.444  -4.176   3.776  1.00  0.00    -0.249 OA
BRANCH   3   5
ATOM      5  C   UNL     1       2.666  -2.730   2.954  1.00  0.00     0.228 C 
ATOM      6  C   UNL     1       3.627  -0.775   3.847  1.00  0.00     0.138 C 
ATOM      7  C   UNL     1       2.909  -0.393   2.549  1.00  0.00     0.037 C 
ATOM      8  O   UNL     1       3.020  -2.030   4.182  1.00  0.00    -0.361 OA
ATOM      9  C   UNL     1       2.795  -1.710   1.830  1.00  0.00     0.047 C 
BRANCH   6  10
ATOM     10  C   UNL     1       5.219  -0.731   4.135  1.00  0.00     0.148 C 
BRANCH  10  11
ATOM     11  N   UNL     1       6.315  -1.689   3.567  1.00  0.00    -0.348 N 
ATOM     12  C   UNL     1       7.465  -1.704   2.371  1.00  0.00     0.268 C 
ATOM     13  O   UNL     1       8.236  -2.517   3.013  1.00  0.00    -0.268 OA
ATOM     14  H   UNL     1       6.327  -2.536   4.068  1.00  0.00     0.163 HD
BRANCH  12  15
ATOM     15  C   UNL     1       7.563  -0.680   0.563  1.00  0.00     0.108 A 
ATOM     16  N   UNL     1       7.038   0.917   0.201  1.00  0.00    -0.342 N 
ATOM     17  C   UNL     1       7.815   1.380  -0.819  1.00  0.00     0.102 A 
ATOM     18  C   UNL     1       8.108   0.286  -1.544  1.00  0.00     0.036 A 
ATOM     19  C   UNL     1       7.839  -0.912  -0.852  1.00  0.00     0.049 A 
ATOM     20  Br  UNL     1       8.817   0.347  -3.231  1.00  0.00    -0.049 Br
BRANCH  16  21
ATOM     21  C   UNL     1       6.288   1.988   0.947  1.00  0.00     0.122 C 
BRANCH  21  22
ATOM     22  C   UNL     1       5.166   2.798   0.255  1.00  0.00     0.018 C 
ATOM     23  C   UNL     1       4.422   2.149  -0.891  1.00  0.00     0.006 C 
ENDBRANCH  21  22
ENDBRANCH  16  21
ENDBRANCH  12  15
ENDBRANCH  10  11
ENDBRANCH   6  10
ENDBRANCH   3   5
ENDBRANCH   2   3
ENDBRANCH   1   2
BRANCH   1  24
ATOM     24  C   UNL     1       5.257  -5.636   0.926  1.00  0.00     0.275 C 
BRANCH  24  25
ATOM     25  O   UNL     1       5.692  -4.313   1.224  1.00  0.00    -0.458 OA
BRANCH  25  26
ATOM     26  C   UNL     1       5.209  -3.261   0.506  1.00  0.00     0.338 C 
ATOM     27  O   UNL     1       4.347  -3.259  -0.342  1.00  0.00    -0.246 OA
BRANCH  26  28
ATOM     28  C   UNL     1       6.133  -2.200   0.915  1.00  0.00     0.060 A 
ATOM     29  C   UNL     1       6.042  -0.550   1.750  1.00  0.00     0.016 A 
ATOM     30  C   UNL     1       7.710  -2.977   0.667  1.00  0.00     0.016 A 
ATOM     31  C   UNL     1       7.705   0.220   2.336  1.00  0.00     0.010 A 
ATOM     32  C   UNL     1       9.176  -2.236   1.105  1.00  0.00     0.010 A 
ATOM     33  C   UNL     1       9.261  -0.647   1.808  1.00  0.00    -0.014 A 
BRANCH  33  34
ATOM     34  C   UNL     1      10.529  -0.091   1.026  1.00  0.00     0.031 A 
ATOM     35  C   UNL     1      11.015   1.103   1.708  1.00  0.00     0.074 A 
ATOM     36  C   UNL     1      11.228  -0.622  -0.081  1.00  0.00     0.049 A 
ATOM     37  N   UNL     1      10.936   2.323   1.297  1.00  0.00    -0.248 NA
ATOM     38  C   UNL     1      11.459   0.951   3.100  1.00  0.00     0.031 C 
ATOM     39  C   UNL     1      10.939  -1.856  -0.872  1.00  0.00     0.029 A 
ATOM     40  N   UNL     1      12.412  -0.250  -0.757  1.00  0.00    -0.354 N 
ATOM     41  C   UNL     1      11.671   3.025   2.232  1.00  0.00     0.074 A 
ATOM     42  C   UNL     1      11.688   2.224   3.428  1.00  0.00     0.031 C 
ATOM     43  C   UNL     1      11.962  -2.271  -1.633  1.00  0.00     0.029 A 
ATOM     44  C   UNL     1      12.984  -1.267  -1.595  1.00  0.00     0.049 A 
ATOM     45  H   UNL     1      12.815   0.643  -0.661  1.00  0.00     0.167 HD
ATOM     46  C   UNL     1      12.554   3.969   1.816  1.00  0.00     0.034 A 
ATOM     47  C   UNL     1      14.135  -1.346  -2.339  1.00  0.00     0.034 A 
ATOM     48  C   UNL     1      12.315   4.363   0.446  1.00  0.00     0.049 A 
ATOM     49  C   UNL     1      14.552   0.033  -2.602  1.00  0.00     0.074 A 
ATOM     50  C   UNL     1      11.305   5.023  -0.218  1.00  0.00     0.029 A 
ATOM     51  N   UNL     1      13.053   3.696  -0.503  1.00  0.00    -0.354 N 
ATOM     52  N   UNL     1      13.918   0.824  -3.418  1.00  0.00    -0.248 NA
ATOM     53  C   UNL     1      15.428   0.675  -1.639  1.00  0.00     0.031 C 
ATOM     54  C   UNL     1      11.367   4.596  -1.574  1.00  0.00     0.029 A 
ATOM     55  C   UNL     1      12.458   3.744  -1.747  1.00  0.00     0.049 A 
ATOM     56  H   UNL     1      13.905   3.239  -0.318  1.00  0.00     0.167 HD
ATOM     57  C   UNL     1      13.936   2.041  -2.773  1.00  0.00     0.074 A 
ATOM     58  C   UNL     1      15.004   1.933  -1.780  1.00  0.00     0.031 C 
ATOM     59  C   UNL     1      12.865   2.880  -2.861  1.00  0.00     0.034 A 
BRANCH  46  60
ATOM     60  C   UNL     1      13.871   4.207   2.504  1.00  0.00     0.023 A 
ATOM     61  C   UNL     1      14.545   5.406   2.241  1.00  0.00     0.031 A 
ATOM     62  C   UNL     1      14.603   3.219   3.210  1.00  0.00     0.131 A 
ATOM     63  C   UNL     1      15.874   5.582   2.663  1.00  0.00     0.055 A 
ATOM     64  C   UNL     1      15.894   3.426   3.692  1.00  0.00     0.041 A 
ATOM     65  F   UNL     1      14.144   1.972   3.382  1.00  0.00    -0.206 F 
ATOM     66  C   UNL     1      16.546   4.610   3.405  1.00  0.00     0.022 A 
BRANCH  63  67
ATOM     67  S   UNL     1      16.762   7.057   2.110  1.00  0.00     0.124 S 
ATOM     68  O   UNL     1      16.648   6.949   0.660  1.00  0.00    -0.237 OA
ATOM     69  O   UNL     1      15.990   8.124   2.739  1.00  0.00    -0.237 OA
ATOM     70  O   UNL     1      18.107   6.863   2.646  1.00  0.00    -0.744 OA
ENDBRANCH  63  67
ENDBRANCH  46  60
BRANCH  47  71
ATOM     71  C   UNL     1      15.000  -2.532  -2.723  1.00  0.00     0.023 A 
ATOM     72  C   UNL     1      16.070  -2.474  -3.666  1.00  0.00     0.031 A 
ATOM     73  C   UNL     1      14.958  -3.699  -1.928  1.00  0.00     0.131 A 
ATOM     74  C   UNL     1      17.039  -3.518  -3.740  1.00  0.00     0.055 A 
ATOM     75  C   UNL     1      15.914  -4.719  -2.005  1.00  0.00     0.041 A 
ATOM     76  F   UNL     1      14.030  -3.855  -0.974  1.00  0.00    -0.206 F 
ATOM     77  C   UNL     1      16.970  -4.625  -2.895  1.00  0.00     0.022 A 
BRANCH  74  78
ATOM     78  S   UNL     1      18.499  -3.416  -4.849  1.00  0.00     0.124 S 
ATOM     79  O   UNL     1      17.915  -3.644  -6.164  1.00  0.00    -0.237 OA
ATOM     80  O   UNL     1      19.007  -2.075  -4.585  1.00  0.00    -0.237 OA
ATOM     81  O   UNL     1      19.368  -4.495  -4.373  1.00  0.00    -0.744 OA
ENDBRANCH  74  78
ENDBRANCH  47  71
BRANCH  59  82
ATOM     82  C   UNL     1      12.007   2.843  -4.132  1.00  0.00     0.023 A 
ATOM     83  C   UNL     1      11.401   1.714  -4.747  1.00  0.00     0.031 A 
ATOM     84  C   UNL     1      11.766   4.088  -4.745  1.00  0.00     0.131 A 
ATOM     85  C   UNL     1      10.514   1.876  -5.848  1.00  0.00     0.055 A 
ATOM     86  C   UNL     1      10.887   4.248  -5.816  1.00  0.00     0.041 A 
ATOM     87  F   UNL     1      12.380   5.196  -4.298  1.00  0.00    -0.206 F 
ATOM     88  C   UNL     1      10.241   3.147  -6.356  1.00  0.00     0.022 A 
BRANCH  85  89
ATOM     89  S   UNL     1       9.751   0.468  -6.766  1.00  0.00     0.124 S 
ATOM     90  O   UNL     1      10.683  -0.631  -6.554  1.00  0.00    -0.237 OA
ATOM     91  O   UNL     1       8.433   0.316  -6.157  1.00  0.00    -0.237 OA
ATOM     92  O   UNL     1       9.689   0.973  -8.139  1.00  0.00    -0.744 OA
ENDBRANCH  85  89
ENDBRANCH  59  82
ENDBRANCH  33  34
ENDBRANCH  26  28
ENDBRANCH  25  26
ENDBRANCH  24  25
ENDBRANCH   1  24
TORSDOF 19
