REMARK SMILES C[C@@H]1CC[C@H](C)[N@H+]1Cc1cc2c(cc1Cl)C=C(C(=O)OCCOC(=O)c1ccc(-c3c4nc(c(-c5cc(S(=O)(=O)[O-])ccc5F)c5ccc([nH]5)c(-c5cc(S(=O)(=O)[O-])ccc5F)c5nc(c(-c6cc(S(=O)(=O)[O-])ccc6F)c6ccc3[nH]6)C=C5)C=C4)cc1)[C@@H](C(F)(F)F)O2
REMARK SMILES IDX 22 1 21 2 20 3 18 4 19 5 17 6 9 7 10 8 14 9 11 10 13 11
REMARK SMILES IDX 15 12 12 13 94 14 16 15 89 16 8 17 7 18 6 19 5 20 4 21 3 22
REMARK SMILES IDX 2 23 1 25 90 26 91 27 92 28 93 29 23 30 24 31 25 32 26 33
REMARK SMILES IDX 27 34 88 35 28 36 87 37 29 38 30 39 31 40 81 41 32 42 86 43
REMARK SMILES IDX 80 44 82 45 33 46 85 47 79 48 78 49 34 51 66 52 46 53 65 54
REMARK SMILES IDX 47 55 50 56 64 57 83 58 48 59 49 60 63 62 84 63 51 64 35 65
REMARK SMILES IDX 36 66 44 67 37 68 43 69 45 70 42 71 38 72 39 73 40 74 41 75
REMARK SMILES IDX 67 76 68 77 76 78 69 79 75 80 77 81 74 82 70 83 71 84 72 85
REMARK SMILES IDX 73 86 52 87 53 88 61 89 54 90 60 91 62 92 59 93 55 94 56 95
REMARK SMILES IDX 57 96 58 97
REMARK H PARENT 7 24 82 50 50 61
REMARK Flexibility Score: inf
ROOT
ATOM      1  C   UNL     1      -9.378  -2.910   4.211  1.00  0.00     0.275 C 
ENDROOT
BRANCH   1   2
ATOM      2  C   UNL     1      -8.957  -1.573   4.827  1.00  0.00     0.275 C 
BRANCH   2   3
ATOM      3  O   UNL     1      -7.678  -1.121   4.326  1.00  0.00    -0.459 OA
BRANCH   3   4
ATOM      4  C   UNL     1      -6.635  -1.373   5.148  1.00  0.00     0.338 C 
ATOM      5  O   UNL     1      -6.702  -1.893   6.253  1.00  0.00    -0.246 OA
BRANCH   4   6
ATOM      6  C   UNL     1      -5.351  -0.972   4.551  1.00  0.00     0.087 C 
ATOM      7  C   UNL     1      -0.384  -0.708   3.780  1.00  0.00     0.029 A 
ATOM      8  C   UNL     1      -1.481   0.096   3.369  1.00  0.00     0.058 A 
ATOM      9  C   UNL     1      -0.642  -1.785   4.641  1.00  0.00     0.050 A 
ATOM     10  C   UNL     1      -2.790  -0.233   3.730  1.00  0.00     0.128 A 
ATOM     11  C   UNL     1      -1.949  -2.185   4.885  1.00  0.00     0.033 A 
ATOM     12  Cl  UNL     1       0.577  -2.596   5.556  1.00  0.00    -0.084 Cl
ATOM     13  C   UNL     1      -3.012  -1.421   4.410  1.00  0.00     0.019 A 
ATOM     14  O   UNL     1      -3.815   0.609   3.376  1.00  0.00    -0.475 OA
ATOM     15  C   UNL     1      -4.357  -1.851   4.691  1.00  0.00     0.027 C 
ATOM     16  C   UNL     1      -5.106   0.423   4.058  1.00  0.00     0.316 C 
BRANCH   7  17
ATOM     17  C   UNL     1       1.010  -0.401   3.258  1.00  0.00     0.301 C 
BRANCH  17  18
ATOM     18  N   UNL     1       1.465  -1.155   2.076  1.00  0.00    -0.327 N 
ATOM     19  C   UNL     1       1.043   0.060  -0.028  1.00  0.00     0.075 C 
ATOM     20  C   UNL     1       0.611  -1.081   0.881  1.00  0.00     0.181 C 
ATOM     21  C   UNL     1       0.762  -2.437   0.194  1.00  0.00     0.071 C 
ATOM     22  C   UNL     1       0.976  -3.378   1.358  1.00  0.00     0.071 C 
ATOM     23  C   UNL     1       1.841  -2.559   2.307  1.00  0.00     0.181 C 
ATOM     24  H   UNL     1       2.316  -0.628   1.880  1.00  0.00     0.348 HD
ATOM     25  C   UNL     1       3.333  -2.736   2.022  1.00  0.00     0.075 C 
ENDBRANCH  17  18
ENDBRANCH   7  17
BRANCH  16  26
ATOM     26  C   UNL     1      -5.265   1.435   5.205  1.00  0.00     0.430 C 
ATOM     27  F   UNL     1      -5.052   2.704   4.782  1.00  0.00    -0.167 F 
ATOM     28  F   UNL     1      -6.524   1.407   5.712  1.00  0.00    -0.167 F 
ATOM     29  F   UNL     1      -4.415   1.201   6.229  1.00  0.00    -0.167 F 
ENDBRANCH  16  26
ENDBRANCH   4   6
ENDBRANCH   3   4
ENDBRANCH   2   3
ENDBRANCH   1   2
BRANCH   1  30
ATOM     30  O   UNL     1      -8.550  -3.990   4.679  1.00  0.00    -0.458 OA
BRANCH  30  31
ATOM     31  C   UNL     1      -7.610  -4.409   3.801  1.00  0.00     0.338 C 
ATOM     32  O   UNL     1      -7.396  -3.963   2.686  1.00  0.00    -0.246 OA
BRANCH  31  33
ATOM     33  C   UNL     1      -6.782  -5.464   4.403  1.00  0.00     0.060 A 
ATOM     34  C   UNL     1      -6.860  -6.780   3.966  1.00  0.00     0.016 A 
ATOM     35  C   UNL     1      -5.771  -5.085   5.276  1.00  0.00     0.016 A 
ATOM     36  C   UNL     1      -5.909  -7.705   4.418  1.00  0.00     0.010 A 
ATOM     37  C   UNL     1      -4.724  -5.955   5.565  1.00  0.00     0.010 A 
ATOM     38  C   UNL     1      -4.792  -7.296   5.179  1.00  0.00    -0.014 A 
BRANCH  38  39
ATOM     39  C   UNL     1      -3.714  -8.263   5.558  1.00  0.00     0.031 A 
ATOM     40  C   UNL     1      -3.265  -8.431   6.994  1.00  0.00     0.074 A 
ATOM     41  C   UNL     1      -3.107  -8.990   4.595  1.00  0.00     0.049 A 
ATOM     42  N   UNL     1      -2.414  -9.293   7.494  1.00  0.00    -0.248 NA
ATOM     43  C   UNL     1      -3.796  -7.489   7.993  1.00  0.00     0.031 C 
ATOM     44  C   UNL     1      -3.330  -8.829   3.158  1.00  0.00     0.029 A 
ATOM     45  N   UNL     1      -2.202 -10.023   4.671  1.00  0.00    -0.354 N 
ATOM     46  C   UNL     1      -2.304  -8.983   8.847  1.00  0.00     0.074 A 
ATOM     47  C   UNL     1      -3.089  -7.794   9.069  1.00  0.00     0.031 C 
ATOM     48  C   UNL     1      -2.665  -9.786   2.497  1.00  0.00     0.029 A 
ATOM     49  C   UNL     1      -1.927 -10.606   3.454  1.00  0.00     0.049 A 
ATOM     50  H   UNL     1      -1.789 -10.317   5.515  1.00  0.00     0.167 HD
ATOM     51  C   UNL     1      -1.662  -9.659   9.831  1.00  0.00     0.034 A 
ATOM     52  C   UNL     1      -1.194 -11.695   3.139  1.00  0.00     0.034 A 
ATOM     53  C   UNL     1      -0.926 -10.875   9.609  1.00  0.00     0.049 A 
ATOM     54  C   UNL     1      -0.555 -12.488   4.251  1.00  0.00     0.074 A 
ATOM     55  C   UNL     1      -0.315 -11.688  10.546  1.00  0.00     0.029 A 
ATOM     56  N   UNL     1      -0.710 -11.460   8.370  1.00  0.00    -0.354 N 
ATOM     57  N   UNL     1      -0.581 -12.260   5.544  1.00  0.00    -0.248 NA
ATOM     58  C   UNL     1       0.197 -13.692   3.873  1.00  0.00     0.031 C 
ATOM     59  C   UNL     1       0.314 -12.735   9.870  1.00  0.00     0.029 A 
ATOM     60  C   UNL     1       0.040 -12.614   8.516  1.00  0.00     0.049 A 
ATOM     61  H   UNL     1      -1.041 -11.106   7.513  1.00  0.00     0.167 HD
ATOM     62  C   UNL     1       0.143 -13.293   6.132  1.00  0.00     0.074 A 
ATOM     63  C   UNL     1       0.558 -14.171   5.057  1.00  0.00     0.031 C 
ATOM     64  C   UNL     1       0.446 -13.488   7.440  1.00  0.00     0.034 A 
BRANCH  51  65
ATOM     65  C   UNL     1      -1.778  -9.150  11.252  1.00  0.00     0.023 A 
ATOM     66  C   UNL     1      -0.628  -8.795  11.982  1.00  0.00     0.031 A 
ATOM     67  C   UNL     1      -3.019  -9.124  11.919  1.00  0.00     0.131 A 
ATOM     68  C   UNL     1      -0.742  -8.450  13.337  1.00  0.00     0.055 A 
ATOM     69  C   UNL     1      -3.132  -8.729  13.252  1.00  0.00     0.041 A 
ATOM     70  F   UNL     1      -4.147  -9.464  11.275  1.00  0.00    -0.206 F 
ATOM     71  C   UNL     1      -1.988  -8.402  13.971  1.00  0.00     0.022 A 
BRANCH  68  72
ATOM     72  S   UNL     1       0.723  -8.115  14.352  1.00  0.00     0.124 S 
ATOM     73  O   UNL     1       0.469  -6.749  14.803  1.00  0.00    -0.237 OA
ATOM     74  O   UNL     1       0.619  -9.142  15.385  1.00  0.00    -0.237 OA
ATOM     75  O   UNL     1       1.837  -8.266  13.423  1.00  0.00    -0.744 OA
ENDBRANCH  68  72
ENDBRANCH  51  65
BRANCH  52  76
ATOM     76  C   UNL     1      -1.140 -12.142   1.713  1.00  0.00     0.023 A 
ATOM     77  C   UNL     1      -0.588 -11.318   0.715  1.00  0.00     0.031 A 
ATOM     78  C   UNL     1      -1.769 -13.333   1.311  1.00  0.00     0.131 A 
ATOM     79  C   UNL     1      -0.750 -11.656  -0.636  1.00  0.00     0.055 A 
ATOM     80  C   UNL     1      -1.859 -13.704  -0.032  1.00  0.00     0.041 A 
ATOM     81  F   UNL     1      -2.326 -14.145   2.223  1.00  0.00    -0.206 F 
ATOM     82  C   UNL     1      -1.367 -12.852  -1.015  1.00  0.00     0.022 A 
BRANCH  79  83
ATOM     83  S   UNL     1      -0.310 -10.480  -1.947  1.00  0.00     0.124 S 
ATOM     84  O   UNL     1       0.688 -11.227  -2.705  1.00  0.00    -0.237 OA
ATOM     85  O   UNL     1      -1.595 -10.286  -2.616  1.00  0.00    -0.237 OA
ATOM     86  O   UNL     1       0.188  -9.320  -1.216  1.00  0.00    -0.744 OA
ENDBRANCH  79  83
ENDBRANCH  52  76
BRANCH  64  87
ATOM     87  C   UNL     1       1.288 -14.683   7.818  1.00  0.00     0.023 A 
ATOM     88  C   UNL     1       0.770 -15.669   8.679  1.00  0.00     0.031 A 
ATOM     89  C   UNL     1       2.647 -14.754   7.465  1.00  0.00     0.131 A 
ATOM     90  C   UNL     1       1.617 -16.659   9.194  1.00  0.00     0.055 A 
ATOM     91  C   UNL     1       3.475 -15.771   7.942  1.00  0.00     0.041 A 
ATOM     92  F   UNL     1       3.191 -13.829   6.659  1.00  0.00    -0.206 F 
ATOM     93  C   UNL     1       2.964 -16.720   8.823  1.00  0.00     0.022 A 
BRANCH  90  94
ATOM     94  S   UNL     1       1.029 -17.841  10.438  1.00  0.00     0.124 S 
ATOM     95  O   UNL     1       1.213 -19.117   9.752  1.00  0.00    -0.237 OA
ATOM     96  O   UNL     1       1.941 -17.595  11.552  1.00  0.00    -0.237 OA
ATOM     97  O   UNL     1      -0.359 -17.452  10.666  1.00  0.00    -0.744 OA
ENDBRANCH  90  94
ENDBRANCH  64  87
ENDBRANCH  38  39
ENDBRANCH  31  33
ENDBRANCH  30  31
ENDBRANCH   1  30
TORSDOF 17
