REMARK SMILES [NH3+][C@@H]1C(=O)N2C(C(=O)OCCOC(=O)c3ccc(-c4c5nc(c(-c6cc(S(=O)(=O)[O-])ccc6F)c6ccc([nH]6)c(-c6cc(S(=O)(=O)[O-])ccc6F)c6nc(c(-c7cc(S(=O)(=O)[O-])ccc7F)c7ccc4[nH]7)C=C6)C=C5)cc3)=CCS[C@@H]12
REMARK SMILES IDX 11 1 10 2 9 3 7 4 8 5 6 6 2 7 3 8 81 9 4 10 5 11 80 12 79 13
REMARK SMILES IDX 78 14 1 15 12 19 13 20 14 21 15 22 16 23 77 24 17 25 76 26
REMARK SMILES IDX 18 27 19 28 20 29 70 30 21 31 75 32 69 33 71 34 22 35 74 36
REMARK SMILES IDX 68 37 67 38 23 40 55 41 35 42 54 43 36 44 39 45 53 46 72 47
REMARK SMILES IDX 37 48 38 49 52 51 73 52 40 53 24 54 25 55 33 56 26 57 32 58
REMARK SMILES IDX 34 59 31 60 27 61 28 62 29 63 30 64 56 65 57 66 65 67 58 68
REMARK SMILES IDX 64 69 66 70 63 71 59 72 60 73 61 74 62 75 41 76 42 77 50 78
REMARK SMILES IDX 43 79 49 80 51 81 48 82 44 83 45 84 46 85 47 86
REMARK H PARENT 1 16 1 17 1 18 71 39 39 50
REMARK Flexibility Score: inf
ROOT
ATOM      1  C   UNL     1      -2.487   6.262  -3.345  1.00  0.00     0.275 C 
ENDROOT
BRANCH   1   2
ATOM      2  C   UNL     1      -2.229   5.295  -4.505  1.00  0.00     0.275 C 
BRANCH   2   3
ATOM      3  O   UNL     1      -2.417   3.925  -4.097  1.00  0.00    -0.457 OA
BRANCH   3   4
ATOM      4  C   UNL     1      -1.307   3.131  -4.067  1.00  0.00     0.354 C 
ATOM      5  O   UNL     1      -0.188   3.493  -4.388  1.00  0.00    -0.244 OA
BRANCH   4   6
ATOM      6  C   UNL     1      -1.652   1.768  -3.524  1.00  0.00     0.128 C 
ATOM      7  C   UNL     1       0.441  -0.315  -1.776  1.00  0.00     0.305 C 
ATOM      8  C   UNL     1       0.621   0.979  -2.662  1.00  0.00     0.289 C 
ATOM      9  C   UNL     1      -1.079  -0.015  -1.933  1.00  0.00     0.217 C 
ATOM     10  O   UNL     1       1.546   1.666  -3.017  1.00  0.00    -0.267 OA
ATOM     11  N   UNL     1      -0.711   1.012  -2.895  1.00  0.00    -0.282 N 
ATOM     12  S   UNL     1      -2.049  -1.260  -2.825  1.00  0.00    -0.126 SA
ATOM     13  C   UNL     1      -3.378  -0.091  -3.238  1.00  0.00     0.101 C 
ATOM     14  C   UNL     1      -2.899   1.272  -3.664  1.00  0.00     0.018 C 
BRANCH   7  15
ATOM     15  N   UNL     1       0.826  -0.155  -0.355  1.00  0.00    -0.345 N 
ATOM     16  H   UNL     1       1.821  -0.351  -0.248  1.00  0.00     0.345 HD
ATOM     17  H   UNL     1       0.288  -0.806   0.218  1.00  0.00     0.345 HD
ATOM     18  H   UNL     1       0.633   0.801  -0.056  1.00  0.00     0.345 HD
ENDBRANCH   7  15
ENDBRANCH   4   6
ENDBRANCH   3   4
ENDBRANCH   2   3
ENDBRANCH   1   2
BRANCH   1  19
ATOM     19  O   UNL     1      -1.463   6.153  -2.339  1.00  0.00    -0.458 OA
BRANCH  19  20
ATOM     20  C   UNL     1      -1.774   5.352  -1.294  1.00  0.00     0.338 C 
ATOM     21  O   UNL     1      -2.840   4.794  -1.087  1.00  0.00    -0.246 OA
BRANCH  20  22
ATOM     22  C   UNL     1      -0.556   5.057  -0.525  1.00  0.00     0.060 A 
ATOM     23  C   UNL     1      -0.021   3.788  -0.700  1.00  0.00     0.016 A 
ATOM     24  C   UNL     1       0.011   5.932   0.399  1.00  0.00     0.016 A 
ATOM     25  C   UNL     1       1.073   3.370   0.045  1.00  0.00     0.010 A 
ATOM     26  C   UNL     1       1.126   5.512   1.148  1.00  0.00     0.010 A 
ATOM     27  C   UNL     1       1.659   4.219   0.984  1.00  0.00    -0.014 A 
BRANCH  27  28
ATOM     28  C   UNL     1       2.757   3.680   1.834  1.00  0.00     0.031 A 
ATOM     29  C   UNL     1       2.509   3.431   3.297  1.00  0.00     0.074 A 
ATOM     30  C   UNL     1       3.931   3.305   1.286  1.00  0.00     0.049 A 
ATOM     31  N   UNL     1       3.342   3.039   4.228  1.00  0.00    -0.248 NA
ATOM     32  C   UNL     1       1.134   3.642   3.771  1.00  0.00     0.031 C 
ATOM     33  C   UNL     1       4.256   3.369  -0.140  1.00  0.00     0.029 A 
ATOM     34  N   UNL     1       5.064   2.779   1.860  1.00  0.00    -0.354 N 
ATOM     35  C   UNL     1       2.601   2.985   5.404  1.00  0.00     0.074 A 
ATOM     36  C   UNL     1       1.255   3.403   5.068  1.00  0.00     0.031 C 
ATOM     37  C   UNL     1       5.499   2.897  -0.328  1.00  0.00     0.029 A 
ATOM     38  C   UNL     1       6.090   2.571   0.966  1.00  0.00     0.049 A 
ATOM     39  H   UNL     1       5.135   2.571   2.820  1.00  0.00     0.167 HD
ATOM     40  C   UNL     1       3.007   2.619   6.646  1.00  0.00     0.034 A 
ATOM     41  C   UNL     1       7.373   2.206   1.169  1.00  0.00     0.034 A 
ATOM     42  C   UNL     1       4.352   2.197   6.960  1.00  0.00     0.049 A 
ATOM     43  C   UNL     1       7.838   1.935   2.579  1.00  0.00     0.074 A 
ATOM     44  C   UNL     1       4.874   1.825   8.188  1.00  0.00     0.029 A 
ATOM     45  N   UNL     1       5.393   2.096   6.044  1.00  0.00    -0.354 N 
ATOM     46  N   UNL     1       7.147   1.949   3.696  1.00  0.00    -0.248 NA
ATOM     47  C   UNL     1       9.258   1.603   2.756  1.00  0.00     0.031 C 
ATOM     48  C   UNL     1       6.242   1.582   8.030  1.00  0.00     0.029 A 
ATOM     49  C   UNL     1       6.559   1.705   6.687  1.00  0.00     0.049 A 
ATOM     50  H   UNL     1       5.314   2.275   5.079  1.00  0.00     0.167 HD
ATOM     51  C   UNL     1       8.043   1.596   4.702  1.00  0.00     0.074 A 
ATOM     52  C   UNL     1       9.317   1.357   4.056  1.00  0.00     0.031 C 
ATOM     53  C   UNL     1       7.831   1.477   6.038  1.00  0.00     0.034 A 
BRANCH  40  54
ATOM     54  C   UNL     1       2.003   2.741   7.768  1.00  0.00     0.023 A 
ATOM     55  C   UNL     1       0.826   1.973   7.808  1.00  0.00     0.031 A 
ATOM     56  C   UNL     1       2.213   3.676   8.799  1.00  0.00     0.131 A 
ATOM     57  C   UNL     1      -0.127   2.207   8.812  1.00  0.00     0.055 A 
ATOM     58  C   UNL     1       1.301   3.842   9.842  1.00  0.00     0.041 A 
ATOM     59  F   UNL     1       3.305   4.457   8.801  1.00  0.00    -0.206 F 
ATOM     60  C   UNL     1       0.115   3.117   9.844  1.00  0.00     0.022 A 
BRANCH  57  61
ATOM     61  S   UNL     1      -1.756   1.421   8.662  1.00  0.00     0.124 S 
ATOM     62  O   UNL     1      -2.201   1.911   7.359  1.00  0.00    -0.237 OA
ATOM     63  O   UNL     1      -1.430   0.002   8.733  1.00  0.00    -0.237 OA
ATOM     64  O   UNL     1      -2.499   1.950   9.804  1.00  0.00    -0.744 OA
ENDBRANCH  57  61
ENDBRANCH  40  54
BRANCH  41  65
ATOM     65  C   UNL     1       8.338   2.153   0.029  1.00  0.00     0.023 A 
ATOM     66  C   UNL     1       9.015   0.969  -0.304  1.00  0.00     0.031 A 
ATOM     67  C   UNL     1       8.656   3.316  -0.698  1.00  0.00     0.131 A 
ATOM     68  C   UNL     1      10.008   0.985  -1.298  1.00  0.00     0.055 A 
ATOM     69  C   UNL     1       9.594   3.311  -1.731  1.00  0.00     0.041 A 
ATOM     70  F   UNL     1       8.056   4.482  -0.412  1.00  0.00    -0.206 F 
ATOM     71  C   UNL     1      10.288   2.143  -2.026  1.00  0.00     0.022 A 
BRANCH  68  72
ATOM     72  S   UNL     1      11.010  -0.506  -1.550  1.00  0.00     0.124 S 
ATOM     73  O   UNL     1      11.590  -0.701  -0.226  1.00  0.00    -0.237 OA
ATOM     74  O   UNL     1      10.007  -1.483  -1.960  1.00  0.00    -0.237 OA
ATOM     75  O   UNL     1      11.954  -0.110  -2.593  1.00  0.00    -0.744 OA
ENDBRANCH  68  72
ENDBRANCH  41  65
BRANCH  53  76
ATOM     76  C   UNL     1       8.995   1.013   6.883  1.00  0.00     0.023 A 
ATOM     77  C   UNL     1      10.165   1.780   7.028  1.00  0.00     0.031 A 
ATOM     78  C   UNL     1       8.939  -0.231   7.540  1.00  0.00     0.131 A 
ATOM     79  C   UNL     1      11.252   1.270   7.755  1.00  0.00     0.055 A 
ATOM     80  C   UNL     1       9.995  -0.700   8.322  1.00  0.00     0.041 A 
ATOM     81  F   UNL     1       7.851  -1.011   7.435  1.00  0.00    -0.206 F 
ATOM     82  C   UNL     1      11.167   0.044   8.420  1.00  0.00     0.022 A 
BRANCH  79  83
ATOM     83  S   UNL     1      12.823   2.177   7.727  1.00  0.00     0.124 S 
ATOM     84  O   UNL     1      13.109   2.243   6.298  1.00  0.00    -0.237 OA
ATOM     85  O   UNL     1      12.465   3.440   8.365  1.00  0.00    -0.237 OA
ATOM     86  O   UNL     1      13.724   1.326   8.502  1.00  0.00    -0.744 OA
ENDBRANCH  79  83
ENDBRANCH  53  76
ENDBRANCH  27  28
ENDBRANCH  20  22
ENDBRANCH  19  20
ENDBRANCH   1  19
TORSDOF 15
