REMARK SMILES C[C@H](CCC[C@@H](C)[NH3+])C(=O)N[C@H]1C=C[C@@H](C(=O)OCCOC(=O)c2ccc(-c3c4nc(c(-c5cc(S(=O)(=O)[O-])ccc5F)c5ccc([nH]5)c(-c5cc(S(=O)(=O)[O-])ccc5F)c5nc(c(-c6cc(S(=O)(=O)[O-])ccc6F)c6ccc3[nH]6)C=C5)C=C4)cc2)C1
REMARK SMILES IDX 16 1 17 2 15 3 12 4 13 5 87 6 14 7 11 8 9 9 10 10 2 12 1 13
REMARK SMILES IDX 3 14 4 15 5 16 6 17 7 18 8 19 18 23 19 24 20 25 21 26 22 27
REMARK SMILES IDX 23 28 24 29 25 30 86 31 26 32 85 33 27 34 28 35 29 36 79 37
REMARK SMILES IDX 30 38 84 39 78 40 80 41 31 42 83 43 77 44 76 45 32 47 64 48
REMARK SMILES IDX 44 49 63 50 45 51 48 52 62 53 81 54 46 55 47 56 61 58 82 59
REMARK SMILES IDX 49 60 33 61 34 62 42 63 35 64 41 65 43 66 40 67 36 68 37 69
REMARK SMILES IDX 38 70 39 71 65 72 66 73 74 74 67 75 73 76 75 77 72 78 68 79
REMARK SMILES IDX 69 80 70 81 71 82 50 83 51 84 59 85 52 86 58 87 60 88 57 89
REMARK SMILES IDX 53 90 54 91 55 92 56 93
REMARK H PARENT 11 11 8 20 8 21 8 22 80 46 48 57
REMARK Flexibility Score: inf
ROOT
ATOM      1  C   UNL     1      -0.361   4.802   3.896  1.00  0.00     0.312 C 
ATOM      2  O   UNL     1      -0.337   5.999   4.157  1.00  0.00    -0.252 OA
ENDROOT
BRANCH   1   3
ATOM      3  C   UNL     1      -0.633   4.262   2.500  1.00  0.00     0.124 C 
ATOM      4  C   UNL     1      -1.371   2.372   1.165  1.00  0.00     0.106 C 
ATOM      5  C   UNL     1      -2.462   3.396   1.321  1.00  0.00    -0.006 C 
ATOM      6  C   UNL     1      -0.465   2.751   2.332  1.00  0.00     0.048 C 
ATOM      7  C   UNL     1      -2.051   4.447   2.046  1.00  0.00    -0.014 C 
BRANCH   4   8
ATOM      8  N   UNL     1      -1.929   1.044   1.212  1.00  0.00    -0.350 N 
ATOM      9  C   UNL     1      -1.412  -0.185   0.961  1.00  0.00     0.223 C 
ATOM     10  O   UNL     1      -2.251  -1.086   0.811  1.00  0.00    -0.275 OA
ATOM     11  H   UNL     1      -2.876   1.024   1.480  1.00  0.00     0.164 HD
BRANCH   9  12
ATOM     12  C   UNL     1       0.080  -0.542   0.877  1.00  0.00     0.075 C 
ATOM     13  C   UNL     1       0.960  -0.085   2.033  1.00  0.00     0.018 C 
BRANCH  12  14
ATOM     14  C   UNL     1       0.765  -0.500  -0.506  1.00  0.00     0.013 C 
BRANCH  14  15
ATOM     15  C   UNL     1       0.643   0.741  -1.394  1.00  0.00     0.007 C 
BRANCH  15  16
ATOM     16  C   UNL     1       1.347   2.002  -0.899  1.00  0.00     0.064 C 
BRANCH  16  17
ATOM     17  C   UNL     1       2.874   2.020  -0.966  1.00  0.00     0.177 C 
ATOM     18  C   UNL     1       3.406   2.293  -2.368  1.00  0.00     0.075 C 
BRANCH  17  19
ATOM     19  N   UNL     1       3.310   3.110  -0.089  1.00  0.00    -0.355 N 
ATOM     20  H   UNL     1       2.922   3.992  -0.424  1.00  0.00     0.344 HD
ATOM     21  H   UNL     1       4.329   3.164  -0.094  1.00  0.00     0.344 HD
ATOM     22  H   UNL     1       2.983   2.934   0.861  1.00  0.00     0.344 HD
ENDBRANCH  17  19
ENDBRANCH  16  17
ENDBRANCH  15  16
ENDBRANCH  14  15
ENDBRANCH  12  14
ENDBRANCH   9  12
ENDBRANCH   4   8
ENDBRANCH   1   3
BRANCH   1  23
ATOM     23  O   UNL     1      -0.141   3.810   4.794  1.00  0.00    -0.462 OA
BRANCH  23  24
ATOM     24  C   UNL     1       0.307   4.181   6.107  1.00  0.00     0.274 C 
BRANCH  24  25
ATOM     25  C   UNL     1       1.581   3.401   6.419  1.00  0.00     0.275 C 
BRANCH  25  26
ATOM     26  O   UNL     1       2.664   3.875   5.594  1.00  0.00    -0.458 OA
BRANCH  26  27
ATOM     27  C   UNL     1       2.990   3.080   4.547  1.00  0.00     0.338 C 
ATOM     28  O   UNL     1       2.486   2.015   4.241  1.00  0.00    -0.246 OA
BRANCH  27  29
ATOM     29  C   UNL     1       4.073   3.717   3.783  1.00  0.00     0.060 A 
ATOM     30  C   UNL     1       3.752   4.589   2.746  1.00  0.00     0.016 A 
ATOM     31  C   UNL     1       5.402   3.361   4.023  1.00  0.00     0.016 A 
ATOM     32  C   UNL     1       4.766   5.062   1.907  1.00  0.00     0.010 A 
ATOM     33  C   UNL     1       6.417   3.880   3.206  1.00  0.00     0.010 A 
ATOM     34  C   UNL     1       6.112   4.709   2.113  1.00  0.00    -0.014 A 
BRANCH  34  35
ATOM     35  C   UNL     1       7.181   5.165   1.168  1.00  0.00     0.031 A 
ATOM     36  C   UNL     1       8.057   4.162   0.449  1.00  0.00     0.074 A 
ATOM     37  C   UNL     1       7.372   6.479   0.931  1.00  0.00     0.049 A 
ATOM     38  N   UNL     1       9.142   4.364  -0.259  1.00  0.00    -0.248 NA
ATOM     39  C   UNL     1       7.663   2.749   0.545  1.00  0.00     0.031 C 
ATOM     40  C   UNL     1       6.579   7.566   1.507  1.00  0.00     0.029 A 
ATOM     41  N   UNL     1       8.291   7.127   0.139  1.00  0.00    -0.354 N 
ATOM     42  C   UNL     1       9.592   3.104  -0.646  1.00  0.00     0.074 A 
ATOM     43  C   UNL     1       8.659   2.145  -0.091  1.00  0.00     0.031 C 
ATOM     44  C   UNL     1       7.016   8.737   1.021  1.00  0.00     0.029 A 
ATOM     45  C   UNL     1       8.184   8.499   0.180  1.00  0.00     0.049 A 
ATOM     46  H   UNL     1       8.961   6.655  -0.405  1.00  0.00     0.167 HD
ATOM     47  C   UNL     1      10.682   2.777  -1.388  1.00  0.00     0.034 A 
ATOM     48  C   UNL     1       8.961   9.466  -0.348  1.00  0.00     0.034 A 
ATOM     49  C   UNL     1      11.585   3.740  -1.976  1.00  0.00     0.049 A 
ATOM     50  C   UNL     1      10.190   9.082  -1.127  1.00  0.00     0.074 A 
ATOM     51  C   UNL     1      12.708   3.507  -2.755  1.00  0.00     0.029 A 
ATOM     52  N   UNL     1      11.467   5.119  -1.863  1.00  0.00    -0.354 N 
ATOM     53  N   UNL     1      10.649   7.885  -1.407  1.00  0.00    -0.248 NA
ATOM     54  C   UNL     1      11.017  10.182  -1.643  1.00  0.00     0.031 C 
ATOM     55  C   UNL     1      13.297   4.739  -3.065  1.00  0.00     0.029 A 
ATOM     56  C   UNL     1      12.506   5.745  -2.538  1.00  0.00     0.049 A 
ATOM     57  H   UNL     1      10.751   5.585  -1.375  1.00  0.00     0.167 HD
ATOM     58  C   UNL     1      11.815   8.090  -2.138  1.00  0.00     0.074 A 
ATOM     59  C   UNL     1      11.976   9.523  -2.275  1.00  0.00     0.031 C 
ATOM     60  C   UNL     1      12.676   7.174  -2.648  1.00  0.00     0.034 A 
BRANCH  47  61
ATOM     61  C   UNL     1      10.999   1.309  -1.560  1.00  0.00     0.023 A 
ATOM     62  C   UNL     1      10.170   0.444  -2.293  1.00  0.00     0.031 A 
ATOM     63  C   UNL     1      12.161   0.768  -0.977  1.00  0.00     0.131 A 
ATOM     64  C   UNL     1      10.482  -0.923  -2.375  1.00  0.00     0.055 A 
ATOM     65  C   UNL     1      12.504  -0.577  -1.123  1.00  0.00     0.041 A 
ATOM     66  F   UNL     1      12.984   1.542  -0.251  1.00  0.00    -0.206 F 
ATOM     67  C   UNL     1      11.656  -1.435  -1.815  1.00  0.00     0.022 A 
BRANCH  64  68
ATOM     68  S   UNL     1       9.269  -2.048  -3.118  1.00  0.00     0.124 S 
ATOM     69  O   UNL     1       8.091  -1.800  -2.291  1.00  0.00    -0.237 OA
ATOM     70  O   UNL     1       9.196  -1.569  -4.493  1.00  0.00    -0.237 OA
ATOM     71  O   UNL     1       9.875  -3.367  -2.948  1.00  0.00    -0.744 OA
ENDBRANCH  64  68
ENDBRANCH  47  61
BRANCH  48  72
ATOM     72  C   UNL     1       8.646  10.900  -0.088  1.00  0.00     0.023 A 
ATOM     73  C   UNL     1       8.281  11.764  -1.131  1.00  0.00     0.031 A 
ATOM     74  C   UNL     1       8.730  11.430   1.212  1.00  0.00     0.131 A 
ATOM     75  C   UNL     1       8.036  13.120  -0.860  1.00  0.00     0.055 A 
ATOM     76  C   UNL     1       8.434  12.765   1.485  1.00  0.00     0.041 A 
ATOM     77  F   UNL     1       9.079  10.645   2.244  1.00  0.00    -0.206 F 
ATOM     78  C   UNL     1       8.093  13.621   0.443  1.00  0.00     0.022 A 
BRANCH  75  79
ATOM     79  S   UNL     1       7.705  14.239  -2.248  1.00  0.00     0.124 S 
ATOM     80  O   UNL     1       8.918  14.092  -3.044  1.00  0.00    -0.237 OA
ATOM     81  O   UNL     1       6.490  13.664  -2.816  1.00  0.00    -0.237 OA
ATOM     82  O   UNL     1       7.534  15.539  -1.603  1.00  0.00    -0.744 OA
ENDBRANCH  75  79
ENDBRANCH  48  72
BRANCH  60  83
ATOM     83  C   UNL     1      13.851   7.707  -3.428  1.00  0.00     0.023 A 
ATOM     84  C   UNL     1      14.900   8.400  -2.798  1.00  0.00     0.031 A 
ATOM     85  C   UNL     1      13.903   7.550  -4.824  1.00  0.00     0.131 A 
ATOM     86  C   UNL     1      15.931   8.958  -3.570  1.00  0.00     0.055 A 
ATOM     87  C   UNL     1      14.957   8.065  -5.581  1.00  0.00     0.041 A 
ATOM     88  F   UNL     1      12.926   6.899  -5.475  1.00  0.00    -0.206 F 
ATOM     89  C   UNL     1      15.972   8.784  -4.956  1.00  0.00     0.022 A 
BRANCH  86  90
ATOM     90  S   UNL     1      17.176   9.989  -2.748  1.00  0.00     0.124 S 
ATOM     91  O   UNL     1      16.358  11.048  -2.165  1.00  0.00    -0.237 OA
ATOM     92  O   UNL     1      17.780   9.056  -1.802  1.00  0.00    -0.237 OA
ATOM     93  O   UNL     1      18.049  10.412  -3.842  1.00  0.00    -0.744 OA
ENDBRANCH  86  90
ENDBRANCH  60  83
ENDBRANCH  34  35
ENDBRANCH  27  29
ENDBRANCH  26  27
ENDBRANCH  25  26
ENDBRANCH  24  25
ENDBRANCH  23  24
ENDBRANCH   1  23
TORSDOF 21
