REMARK SMILES O=C(OCCOC(=O)c1cccn(Cc2ccc3c(c2)OC(F)(F)O3)c1=O)c1ccc(-c2c3nc(c(-c4cc(S(=O)(=O)[O-])ccc4F)c4ccc([nH]4)c(-c4cc(S(=O)(=O)[O-])ccc4F)c4nc(c(-c5cc(S(=O)(=O)[O-])ccc5F)c5ccc2[nH]5)C=C4)C=C3)cc1
REMARK SMILES IDX 4 1 3 2 2 3 1 4 28 5 29 6 90 7 30 8 89 9 31 10 32 11 33 12
REMARK SMILES IDX 83 13 34 14 88 15 82 16 84 17 35 18 87 19 81 20 80 21 36 23
REMARK SMILES IDX 68 24 48 25 67 26 49 27 52 28 66 29 85 30 50 31 51 32 65 34
REMARK SMILES IDX 86 35 53 36 37 37 38 38 46 39 39 40 45 41 47 42 44 43 40 44
REMARK SMILES IDX 41 45 42 46 43 47 69 48 70 49 78 50 71 51 77 52 79 53 76 54
REMARK SMILES IDX 72 55 73 56 74 57 75 58 54 59 55 60 63 61 56 62 62 63 64 64
REMARK SMILES IDX 61 65 57 66 58 67 59 68 60 69 5 70 6 71 7 72 8 73 9 74 10 75
REMARK SMILES IDX 26 76 11 77 13 78 27 79 12 80 14 81 15 82 16 83 20 84 17 85
REMARK SMILES IDX 19 86 18 87 21 88 25 89 22 90 23 91 24 92
REMARK H PARENT 84 22 52 33
REMARK Flexibility Score: inf
ROOT
ATOM      1  C   UNL     1       4.264  -0.397  -1.543  1.00  0.00     0.275 C 
ENDROOT
BRANCH   1   2
ATOM      2  O   UNL     1       3.257  -1.030  -0.732  1.00  0.00    -0.458 OA
BRANCH   2   3
ATOM      3  C   UNL     1       3.121  -1.060   0.615  1.00  0.00     0.338 C 
ATOM      4  O   UNL     1       2.290  -1.829   1.098  1.00  0.00    -0.246 OA
BRANCH   3   5
ATOM      5  C   UNL     1       3.792  -0.091   1.541  1.00  0.00     0.060 A 
ATOM      6  C   UNL     1       3.050   0.280   2.672  1.00  0.00     0.016 A 
ATOM      7  C   UNL     1       5.065   0.467   1.396  1.00  0.00     0.016 A 
ATOM      8  C   UNL     1       3.507   1.274   3.543  1.00  0.00     0.010 A 
ATOM      9  C   UNL     1       5.542   1.441   2.293  1.00  0.00     0.010 A 
ATOM     10  C   UNL     1       4.758   1.882   3.360  1.00  0.00    -0.014 A 
BRANCH  10  11
ATOM     11  C   UNL     1       5.256   2.853   4.374  1.00  0.00     0.031 A 
ATOM     12  C   UNL     1       5.523   4.302   4.063  1.00  0.00     0.074 A 
ATOM     13  C   UNL     1       5.427   2.410   5.636  1.00  0.00     0.049 A 
ATOM     14  N   UNL     1       5.628   5.301   4.905  1.00  0.00    -0.248 NA
ATOM     15  C   UNL     1       5.666   4.701   2.655  1.00  0.00     0.031 C 
ATOM     16  C   UNL     1       5.276   1.016   6.054  1.00  0.00     0.029 A 
ATOM     17  N   UNL     1       5.752   3.071   6.794  1.00  0.00    -0.354 N 
ATOM     18  C   UNL     1       5.758   6.449   4.131  1.00  0.00     0.074 A 
ATOM     19  C   UNL     1       5.811   6.020   2.753  1.00  0.00     0.031 C 
ATOM     20  C   UNL     1       5.474   0.929   7.375  1.00  0.00     0.029 A 
ATOM     21  C   UNL     1       5.817   2.250   7.895  1.00  0.00     0.049 A 
ATOM     22  H   UNL     1       5.923   4.040   6.833  1.00  0.00     0.167 HD
ATOM     23  C   UNL     1       5.773   7.739   4.544  1.00  0.00     0.034 A 
ATOM     24  C   UNL     1       6.125   2.517   9.181  1.00  0.00     0.034 A 
ATOM     25  C   UNL     1       5.835   8.137   5.926  1.00  0.00     0.049 A 
ATOM     26  C   UNL     1       6.346   3.947   9.588  1.00  0.00     0.074 A 
ATOM     27  C   UNL     1       5.806   9.419   6.445  1.00  0.00     0.029 A 
ATOM     28  N   UNL     1       6.010   7.275   6.997  1.00  0.00    -0.354 N 
ATOM     29  N   UNL     1       6.215   5.035   8.867  1.00  0.00    -0.248 NA
ATOM     30  C   UNL     1       6.737   4.195  10.981  1.00  0.00     0.031 C 
ATOM     31  C   UNL     1       6.074   9.338   7.812  1.00  0.00     0.029 A 
ATOM     32  C   UNL     1       6.180   8.001   8.164  1.00  0.00     0.049 A 
ATOM     33  H   UNL     1       6.013   6.292   6.937  1.00  0.00     0.167 HD
ATOM     34  C   UNL     1       6.470   6.099   9.727  1.00  0.00     0.074 A 
ATOM     35  C   UNL     1       6.751   5.521  11.025  1.00  0.00     0.031 C 
ATOM     36  C   UNL     1       6.460   7.430   9.462  1.00  0.00     0.034 A 
BRANCH  23  37
ATOM     37  C   UNL     1       5.647   8.847   3.528  1.00  0.00     0.023 A 
ATOM     38  C   UNL     1       6.702   9.740   3.280  1.00  0.00     0.031 A 
ATOM     39  C   UNL     1       4.381   9.153   3.000  1.00  0.00     0.131 A 
ATOM     40  C   UNL     1       6.456  10.913   2.549  1.00  0.00     0.055 A 
ATOM     41  C   UNL     1       4.145  10.305   2.249  1.00  0.00     0.041 A 
ATOM     42  F   UNL     1       3.339   8.359   3.269  1.00  0.00    -0.206 F 
ATOM     43  C   UNL     1       5.186  11.199   2.031  1.00  0.00     0.022 A 
BRANCH  40  44
ATOM     44  S   UNL     1       7.752  12.160   2.314  1.00  0.00     0.124 S 
ATOM     45  O   UNL     1       7.819  12.253   0.857  1.00  0.00    -0.237 OA
ATOM     46  O   UNL     1       7.185  13.323   2.988  1.00  0.00    -0.237 OA
ATOM     47  O   UNL     1       8.924  11.568   2.951  1.00  0.00    -0.744 OA
ENDBRANCH  40  44
ENDBRANCH  23  37
BRANCH  24  48
ATOM     48  C   UNL     1       6.185   1.385  10.152  1.00  0.00     0.023 A 
ATOM     49  C   UNL     1       7.065   0.308   9.931  1.00  0.00     0.031 A 
ATOM     50  C   UNL     1       5.285   1.290  11.224  1.00  0.00     0.131 A 
ATOM     51  C   UNL     1       6.958  -0.854  10.704  1.00  0.00     0.055 A 
ATOM     52  C   UNL     1       5.239   0.163  12.047  1.00  0.00     0.041 A 
ATOM     53  F   UNL     1       4.417   2.284  11.470  1.00  0.00    -0.206 F 
ATOM     54  C   UNL     1       6.061  -0.927  11.773  1.00  0.00     0.022 A 
BRANCH  51  55
ATOM     55  S   UNL     1       7.848  -2.363  10.228  1.00  0.00     0.124 S 
ATOM     56  O   UNL     1       8.749  -2.553  11.359  1.00  0.00    -0.237 OA
ATOM     57  O   UNL     1       6.760  -3.331  10.115  1.00  0.00    -0.237 OA
ATOM     58  O   UNL     1       8.485  -2.002   8.965  1.00  0.00    -0.744 OA
ENDBRANCH  51  55
ENDBRANCH  24  48
BRANCH  36  59
ATOM     59  C   UNL     1       6.753   8.393  10.586  1.00  0.00     0.023 A 
ATOM     60  C   UNL     1       5.782   9.338  10.970  1.00  0.00     0.031 A 
ATOM     61  C   UNL     1       8.026   8.475  11.175  1.00  0.00     0.131 A 
ATOM     62  C   UNL     1       6.113  10.354  11.874  1.00  0.00     0.055 A 
ATOM     63  C   UNL     1       8.333   9.453  12.122  1.00  0.00     0.041 A 
ATOM     64  F   UNL     1       8.991   7.605  10.836  1.00  0.00    -0.206 F 
ATOM     65  C   UNL     1       7.380  10.409  12.462  1.00  0.00     0.022 A 
BRANCH  62  66
ATOM     66  S   UNL     1       4.950  11.700  12.227  1.00  0.00     0.124 S 
ATOM     67  O   UNL     1       4.657  11.481  13.641  1.00  0.00    -0.237 OA
ATOM     68  O   UNL     1       5.751  12.886  11.932  1.00  0.00    -0.237 OA
ATOM     69  O   UNL     1       3.839  11.454  11.314  1.00  0.00    -0.744 OA
ENDBRANCH  62  66
ENDBRANCH  36  59
ENDBRANCH  10  11
ENDBRANCH   3   5
ENDBRANCH   2   3
ENDBRANCH   1   2
BRANCH   1  70
ATOM     70  C   UNL     1       3.938   1.039  -1.951  1.00  0.00     0.275 C 
BRANCH  70  71
ATOM     71  O   UNL     1       3.438   1.815  -0.857  1.00  0.00    -0.458 OA
BRANCH  71  72
ATOM     72  C   UNL     1       2.089   1.975  -0.817  1.00  0.00     0.343 C 
ATOM     73  O   UNL     1       1.293   1.552  -1.647  1.00  0.00    -0.246 OA
BRANCH  72  74
ATOM     74  C   UNL     1       1.685   2.580   0.460  1.00  0.00     0.125 A 
ATOM     75  C   UNL     1       0.717   1.956   1.155  1.00  0.00     0.023 A 
ATOM     76  C   UNL     1       2.325   3.805   1.012  1.00  0.00     0.265 A 
ATOM     77  C   UNL     1       0.341   2.410   2.470  1.00  0.00     0.019 A 
ATOM     78  N   UNL     1       1.860   4.215   2.267  1.00  0.00    -0.310 N 
ATOM     79  O   UNL     1       3.170   4.411   0.356  1.00  0.00    -0.268 OA
ATOM     80  C   UNL     1       0.915   3.501   2.983  1.00  0.00     0.089 A 
BRANCH  78  81
ATOM     81  C   UNL     1       2.313   5.492   2.809  1.00  0.00     0.161 C 
BRANCH  81  82
ATOM     82  C   UNL     1       1.263   6.564   2.636  1.00  0.00    -0.024 A 
ATOM     83  C   UNL     1       0.628   7.138   3.761  1.00  0.00     0.010 A 
ATOM     84  C   UNL     1       0.991   7.050   1.347  1.00  0.00     0.056 A 
ATOM     85  C   UNL     1      -0.243   8.220   3.613  1.00  0.00     0.051 A 
ATOM     86  C   UNL     1       0.154   8.132   1.237  1.00  0.00     0.173 A 
ATOM     87  C   UNL     1      -0.440   8.708   2.340  1.00  0.00     0.172 A 
ATOM     88  O   UNL     1      -0.139   8.789   0.083  1.00  0.00    -0.395 OA
ATOM     89  O   UNL     1      -1.172   9.807   2.010  1.00  0.00    -0.395 OA
ATOM     90  C   UNL     1      -0.771   9.945   0.641  1.00  0.00     0.586 C 
ATOM     91  F   UNL     1       0.086  10.993   0.541  1.00  0.00    -0.125 F 
ATOM     92  F   UNL     1      -1.864  10.244  -0.105  1.00  0.00    -0.125 F 
ENDBRANCH  81  82
ENDBRANCH  78  81
ENDBRANCH  72  74
ENDBRANCH  71  72
ENDBRANCH  70  71
ENDBRANCH   1  70
TORSDOF 16
