REMARK SMILES CS(=O)(=O)CC[C@H](NC(=O)Cc1ccn[nH]1)C(=O)OCCOC(=O)c1ccc(-c2c3nc(c(-c4cc(S(=O)(=O)[O-])ccc4F)c4ccc([nH]4)c(-c4cc(S(=O)(=O)[O-])ccc4F)c4nc(c(-c5cc(S(=O)(=O)[O-])ccc5F)c5ccc2[nH]5)C=C4)C=C3)cc1
REMARK SMILES IDX 20 1 19 2 17 3 18 4 7 5 6 6 5 7 2 8 1 9 3 10 4 11 8 12 9 13
REMARK SMILES IDX 10 15 11 16 12 17 13 18 16 19 14 20 15 21 21 23 22 24 23 25
REMARK SMILES IDX 24 26 25 27 26 28 87 29 27 30 86 31 28 32 29 33 30 34 80 35
REMARK SMILES IDX 31 36 85 37 79 38 81 39 32 40 84 41 78 42 77 43 33 45 65 46
REMARK SMILES IDX 45 47 64 48 46 49 49 50 63 51 82 52 47 53 48 54 62 56 83 57
REMARK SMILES IDX 50 58 34 59 35 60 43 61 36 62 42 63 44 64 41 65 37 66 38 67
REMARK SMILES IDX 39 68 40 69 66 70 67 71 75 72 68 73 74 74 76 75 73 76 69 77
REMARK SMILES IDX 70 78 71 79 72 80 51 81 52 82 60 83 53 84 59 85 61 86 58 87
REMARK SMILES IDX 54 88 55 89 56 90 57 91
REMARK H PARENT 8 14 16 22 81 44 49 55
REMARK Flexibility Score: inf
ROOT
ATOM      1  C   UNL     1      -0.142  -6.071  -1.968  1.00  0.00     0.274 C 
ENDROOT
BRANCH   1   2
ATOM      2  O   UNL     1       0.224  -5.162  -0.908  1.00  0.00    -0.461 OA
BRANCH   2   3
ATOM      3  C   UNL     1       1.034  -4.135  -1.259  1.00  0.00     0.328 C 
ATOM      4  O   UNL     1       1.481  -3.944  -2.385  1.00  0.00    -0.250 OA
BRANCH   3   5
ATOM      5  C   UNL     1       1.400  -3.221  -0.075  1.00  0.00     0.193 C 
BRANCH   5   6
ATOM      6  C   UNL     1       2.906  -3.361   0.237  1.00  0.00     0.053 C 
BRANCH   6   7
ATOM      7  C   UNL     1       3.320  -4.388   1.297  1.00  0.00     0.139 C 
BRANCH   7   8
ATOM      8  S   UNL     1       3.160  -6.115   0.864  1.00  0.00     0.147 S 
ATOM      9  C   UNL     1       1.647  -6.654   1.632  1.00  0.00     0.158 C 
ATOM     10  O   UNL     1       4.231  -6.830   1.536  1.00  0.00    -0.229 OA
ATOM     11  O   UNL     1       3.001  -6.232  -0.571  1.00  0.00    -0.229 OA
ENDBRANCH   7   8
ENDBRANCH   6   7
ENDBRANCH   5   6
BRANCH   5  12
ATOM     12  N   UNL     1       0.628  -3.259   1.169  1.00  0.00    -0.342 N 
ATOM     13  C   UNL     1       0.046  -2.233   1.863  1.00  0.00     0.226 C 
ATOM     14  H   UNL     1       0.510  -4.154   1.564  1.00  0.00     0.164 HD
ATOM     15  O   UNL     1      -0.080  -2.385   3.081  1.00  0.00    -0.275 OA
BRANCH  13  16
ATOM     16  C   UNL     1      -0.543  -1.035   1.146  1.00  0.00     0.155 C 
BRANCH  16  17
ATOM     17  C   UNL     1       0.348   0.146   0.976  1.00  0.00     0.044 A 
ATOM     18  C   UNL     1       1.498   0.387   0.251  1.00  0.00     0.045 A 
ATOM     19  N   UNL     1      -0.015   1.375   1.478  1.00  0.00    -0.282 N 
ATOM     20  C   UNL     1       1.740   1.766   0.384  1.00  0.00     0.135 A 
ATOM     21  N   UNL     1       0.839   2.359   1.162  1.00  0.00    -0.184 NA
ATOM     22  H   UNL     1      -0.826   1.518   2.018  1.00  0.00     0.190 HD
ENDBRANCH  16  17
ENDBRANCH  13  16
ENDBRANCH   5  12
ENDBRANCH   3   5
ENDBRANCH   2   3
ENDBRANCH   1   2
BRANCH   1  23
ATOM     23  C   UNL     1      -1.663  -6.220  -2.023  1.00  0.00     0.275 C 
BRANCH  23  24
ATOM     24  O   UNL     1      -2.260  -4.994  -2.478  1.00  0.00    -0.458 OA
BRANCH  24  25
ATOM     25  C   UNL     1      -2.510  -4.089  -1.509  1.00  0.00     0.338 C 
ATOM     26  O   UNL     1      -2.408  -4.238  -0.296  1.00  0.00    -0.246 OA
BRANCH  25  27
ATOM     27  C   UNL     1      -2.731  -2.787  -2.136  1.00  0.00     0.060 A 
ATOM     28  C   UNL     1      -1.668  -1.885  -2.136  1.00  0.00     0.016 A 
ATOM     29  C   UNL     1      -3.972  -2.424  -2.649  1.00  0.00     0.016 A 
ATOM     30  C   UNL     1      -1.856  -0.580  -2.563  1.00  0.00     0.010 A 
ATOM     31  C   UNL     1      -4.136  -1.137  -3.165  1.00  0.00     0.010 A 
ATOM     32  C   UNL     1      -3.083  -0.203  -3.113  1.00  0.00    -0.014 A 
BRANCH  32  33
ATOM     33  C   UNL     1      -3.252   1.160  -3.667  1.00  0.00     0.031 A 
ATOM     34  C   UNL     1      -4.244   2.101  -3.052  1.00  0.00     0.074 A 
ATOM     35  C   UNL     1      -2.514   1.532  -4.730  1.00  0.00     0.049 A 
ATOM     36  N   UNL     1      -4.698   3.237  -3.509  1.00  0.00    -0.248 NA
ATOM     37  C   UNL     1      -4.806   1.701  -1.754  1.00  0.00     0.031 C 
ATOM     38  C   UNL     1      -1.468   0.720  -5.359  1.00  0.00     0.029 A 
ATOM     39  N   UNL     1      -2.533   2.681  -5.476  1.00  0.00    -0.354 N 
ATOM     40  C   UNL     1      -5.628   3.676  -2.573  1.00  0.00     0.074 A 
ATOM     41  C   UNL     1      -5.679   2.673  -1.529  1.00  0.00     0.031 C 
ATOM     42  C   UNL     1      -0.942   1.399  -6.388  1.00  0.00     0.029 A 
ATOM     43  C   UNL     1      -1.678   2.645  -6.553  1.00  0.00     0.049 A 
ATOM     44  H   UNL     1      -3.102   3.455  -5.263  1.00  0.00     0.167 HD
ATOM     45  C   UNL     1      -6.371   4.810  -2.599  1.00  0.00     0.034 A 
ATOM     46  C   UNL     1      -1.552   3.486  -7.597  1.00  0.00     0.034 A 
ATOM     47  C   UNL     1      -6.287   5.789  -3.657  1.00  0.00     0.049 A 
ATOM     48  C   UNL     1      -2.465   4.678  -7.663  1.00  0.00     0.074 A 
ATOM     49  C   UNL     1      -6.980   6.979  -3.795  1.00  0.00     0.029 A 
ATOM     50  N   UNL     1      -5.459   5.683  -4.770  1.00  0.00    -0.354 N 
ATOM     51  N   UNL     1      -3.385   5.059  -6.806  1.00  0.00    -0.248 NA
ATOM     52  C   UNL     1      -2.341   5.539  -8.844  1.00  0.00     0.031 C 
ATOM     53  C   UNL     1      -6.619   7.557  -5.018  1.00  0.00     0.029 A 
ATOM     54  C   UNL     1      -5.653   6.763  -5.617  1.00  0.00     0.049 A 
ATOM     55  H   UNL     1      -4.825   4.947  -4.932  1.00  0.00     0.167 HD
ATOM     56  C   UNL     1      -3.953   6.206  -7.348  1.00  0.00     0.074 A 
ATOM     57  C   UNL     1      -3.251   6.468  -8.590  1.00  0.00     0.031 C 
ATOM     58  C   UNL     1      -4.963   6.975  -6.868  1.00  0.00     0.034 A 
BRANCH  45  59
ATOM     59  C   UNL     1      -7.381   5.001  -1.494  1.00  0.00     0.023 A 
ATOM     60  C   UNL     1      -6.997   5.162  -0.151  1.00  0.00     0.031 A 
ATOM     61  C   UNL     1      -8.757   4.970  -1.784  1.00  0.00     0.131 A 
ATOM     62  C   UNL     1      -7.974   5.208   0.856  1.00  0.00     0.055 A 
ATOM     63  C   UNL     1      -9.725   5.094  -0.786  1.00  0.00     0.041 A 
ATOM     64  F   UNL     1      -9.185   4.794  -3.044  1.00  0.00    -0.206 F 
ATOM     65  C   UNL     1      -9.336   5.198   0.546  1.00  0.00     0.022 A 
BRANCH  62  66
ATOM     66  S   UNL     1      -7.439   5.125   2.588  1.00  0.00     0.124 S 
ATOM     67  O   UNL     1      -6.672   3.882   2.602  1.00  0.00    -0.237 OA
ATOM     68  O   UNL     1      -6.668   6.354   2.739  1.00  0.00    -0.237 OA
ATOM     69  O   UNL     1      -8.696   5.081   3.333  1.00  0.00    -0.744 OA
ENDBRANCH  62  66
ENDBRANCH  45  59
BRANCH  46  70
ATOM     70  C   UNL     1      -0.601   3.173  -8.700  1.00  0.00     0.023 A 
ATOM     71  C   UNL     1       0.498   4.001  -8.967  1.00  0.00     0.031 A 
ATOM     72  C   UNL     1      -0.787   2.038  -9.514  1.00  0.00     0.131 A 
ATOM     73  C   UNL     1       1.358   3.696 -10.034  1.00  0.00     0.055 A 
ATOM     74  C   UNL     1       0.098   1.713 -10.541  1.00  0.00     0.041 A 
ATOM     75  F   UNL     1      -1.825   1.212  -9.301  1.00  0.00    -0.206 F 
ATOM     76  C   UNL     1       1.175   2.550 -10.812  1.00  0.00     0.022 A 
BRANCH  73  77
ATOM     77  S   UNL     1       2.693   4.857 -10.433  1.00  0.00     0.124 S 
ATOM     78  O   UNL     1       1.951   6.085 -10.697  1.00  0.00    -0.237 OA
ATOM     79  O   UNL     1       3.486   4.837  -9.208  1.00  0.00    -0.237 OA
ATOM     80  O   UNL     1       3.334   4.251 -11.598  1.00  0.00    -0.744 OA
ENDBRANCH  73  77
ENDBRANCH  46  70
BRANCH  58  81
ATOM     81  C   UNL     1      -5.348   8.167  -7.702  1.00  0.00     0.023 A 
ATOM     82  C   UNL     1      -6.000   8.012  -8.937  1.00  0.00     0.031 A 
ATOM     83  C   UNL     1      -5.037   9.467  -7.270  1.00  0.00     0.131 A 
ATOM     84  C   UNL     1      -6.277   9.138  -9.724  1.00  0.00     0.055 A 
ATOM     85  C   UNL     1      -5.362  10.588  -8.034  1.00  0.00     0.041 A 
ATOM     86  F   UNL     1      -4.410   9.667  -6.100  1.00  0.00    -0.206 F 
ATOM     87  C   UNL     1      -5.976  10.427  -9.273  1.00  0.00     0.022 A 
BRANCH  84  88
ATOM     88  S   UNL     1      -6.971   8.893 -11.381  1.00  0.00     0.124 S 
ATOM     89  O   UNL     1      -5.914   8.134 -12.042  1.00  0.00    -0.237 OA
ATOM     90  O   UNL     1      -8.202   8.160 -11.102  1.00  0.00    -0.237 OA
ATOM     91  O   UNL     1      -7.162  10.254 -11.878  1.00  0.00    -0.744 OA
ENDBRANCH  84  88
ENDBRANCH  58  81
ENDBRANCH  32  33
ENDBRANCH  25  27
ENDBRANCH  24  25
ENDBRANCH  23  24
ENDBRANCH   1  23
TORSDOF 20
