REMARK SMILES COC(=O)[C@H]1CC[C@]2(C)[C@H]3CC=C4[C@@H]5CC(C)(C)CC[C@@]5(C(=O)OCCOC(=O)c5ccc(-c6c7nc(c(-c8cc(S(=O)(=O)[O-])ccc8F)c8ccc([nH]8)c(-c8cc(S(=O)(=O)[O-])ccc8F)c8nc(c(-c9cc(S(=O)(=O)[O-])ccc9F)c9ccc6[nH]9)C=C8)C=C7)cc5)CC[C@@]4(C)[C@@]3(C)CC[C@H]2C1(C)C
REMARK SMILES IDX 26 1 25 2 24 3 22 4 23 5 21 6 5 7 6 8 102 9 7 10 101 11
REMARK SMILES IDX 103 12 104 13 8 14 100 15 9 16 10 17 99 18 11 19 97 20 12 21
REMARK SMILES IDX 95 22 98 23 13 24 94 25 96 26 14 27 93 28 15 29 16 30 20 31
REMARK SMILES IDX 17 32 18 33 19 34 3 35 4 36 2 37 1 38 27 39 28 40 29 41
REMARK SMILES IDX 30 42 31 43 92 44 32 45 91 46 33 47 34 48 35 49 85 50 36 51
REMARK SMILES IDX 90 52 84 53 86 54 37 55 89 56 83 57 82 58 38 60 70 61 50 62
REMARK SMILES IDX 69 63 51 64 54 65 68 66 87 67 52 68 53 69 67 71 88 72 55 73
REMARK SMILES IDX 39 74 40 75 48 76 41 77 47 78 49 79 46 80 42 81 43 82 44 83
REMARK SMILES IDX 45 84 71 85 72 86 80 87 73 88 79 89 81 90 78 91 74 92 75 93
REMARK SMILES IDX 76 94 77 95 56 96 57 97 65 98 58 99 64 100 66 101 63 102
REMARK SMILES IDX 59 103 60 104 61 105 62 106
REMARK H PARENT 86 59 54 70
REMARK Flexibility Score: inf
ROOT
ATOM      1  C   UNL     1      -2.187 -10.135   4.540  1.00  0.00     0.275 C 
ENDROOT
BRANCH   1   2
ATOM      2  C   UNL     1      -2.880  -9.046   3.746  1.00  0.00     0.274 C 
BRANCH   2   3
ATOM      3  O   UNL     1      -3.437  -9.383   2.458  1.00  0.00    -0.462 OA
BRANCH   3   4
ATOM      4  C   UNL     1      -2.694  -9.975   1.480  1.00  0.00     0.312 C 
ATOM      5  O   UNL     1      -2.675 -11.199   1.395  1.00  0.00    -0.252 OA
BRANCH   4   6
ATOM      6  C   UNL     1      -2.293  -9.039   0.298  1.00  0.00     0.075 C 
ATOM      7  C   UNL     1       0.655  -1.671   2.132  1.00  0.00     0.105 C 
ATOM      8  C   UNL     1       2.075  -2.156   2.629  1.00  0.00     0.016 C 
ATOM      9  C   UNL     1      -0.328  -2.744   1.503  1.00  0.00    -0.019 C 
ATOM     10  C   UNL     1       2.599  -3.563   2.199  1.00  0.00     0.008 C 
ATOM     11  C   UNL     1       0.574  -3.904   0.963  1.00  0.00     0.002 C 
ATOM     12  C   UNL     1      -1.465  -3.229   2.451  1.00  0.00     0.012 C 
ATOM     13  C   UNL     1      -1.090  -2.076   0.321  1.00  0.00     0.012 C 
ATOM     14  C   UNL     1       1.438  -4.596   2.075  1.00  0.00    -0.026 C 
ATOM     15  C   UNL     1      -0.059  -4.832  -0.053  1.00  0.00     0.005 C 
ATOM     16  C   UNL     1       0.860  -4.578   3.534  1.00  0.00     0.012 C 
ATOM     17  C   UNL     1       1.974  -6.104   1.715  1.00  0.00     0.006 C 
ATOM     18  C   UNL     1       0.968  -5.734  -0.702  1.00  0.00     0.008 C 
ATOM     19  C   UNL     1       1.510  -7.126   2.820  1.00  0.00     0.032 C 
ATOM     20  C   UNL     1       1.656  -6.759   0.225  1.00  0.00    -0.020 C 
ATOM     21  C   UNL     1       0.052  -7.437   2.582  1.00  0.00    -0.027 C 
ATOM     22  C   UNL     1       0.788  -8.157   0.368  1.00  0.00    -0.006 C 
ATOM     23  C   UNL     1       3.013  -7.066  -0.486  1.00  0.00     0.012 C 
ATOM     24  C   UNL     1      -0.345  -7.801   1.351  1.00  0.00    -0.063 C 
ATOM     25  C   UNL     1       0.122  -8.816  -0.899  1.00  0.00     0.013 C 
ATOM     26  C   UNL     1       1.740  -9.280   0.909  1.00  0.00     0.017 C 
ATOM     27  C   UNL     1      -1.755  -7.680   0.738  1.00  0.00     0.033 C 
ATOM     28  C   UNL     1      -1.187  -9.662  -0.651  1.00  0.00     0.020 C 
ATOM     29  C   UNL     1      -2.823  -6.733   1.337  1.00  0.00     0.015 C 
ATOM     30  C   UNL     1      -4.086  -6.567   0.456  1.00  0.00    -0.035 C 
ATOM     31  C   UNL     1      -3.599  -8.873  -0.540  1.00  0.00     0.020 C 
ATOM     32  C   UNL     1      -5.141  -5.783   1.260  1.00  0.00     0.011 C 
ATOM     33  C   UNL     1      -3.782  -5.753  -0.821  1.00  0.00     0.011 C 
ATOM     34  C   UNL     1      -4.649  -7.948   0.082  1.00  0.00     0.007 C 
BRANCH   7  35
ATOM     35  C   UNL     1      -0.090  -0.799   3.152  1.00  0.00     0.309 C 
ATOM     36  O   UNL     1      -0.914   0.052   2.836  1.00  0.00    -0.252 OA
BRANCH  35  37
ATOM     37  O   UNL     1       0.161  -1.177   4.435  1.00  0.00    -0.469 OA
ATOM     38  C   UNL     1      -0.693  -0.606   5.428  1.00  0.00     0.282 C 
ENDBRANCH  35  37
ENDBRANCH   7  35
ENDBRANCH   4   6
ENDBRANCH   3   4
ENDBRANCH   2   3
ENDBRANCH   1   2
BRANCH   1  39
ATOM     39  O   UNL     1      -1.088 -10.649   3.794  1.00  0.00    -0.458 OA
BRANCH  39  40
ATOM     40  C   UNL     1      -0.708 -11.893   4.172  1.00  0.00     0.338 C 
ATOM     41  O   UNL     1      -1.106 -12.506   5.150  1.00  0.00    -0.246 OA
BRANCH  40  42
ATOM     42  C   UNL     1       0.340 -12.377   3.255  1.00  0.00     0.060 A 
ATOM     43  C   UNL     1       0.279 -12.082   1.894  1.00  0.00     0.016 A 
ATOM     44  C   UNL     1       1.383 -13.156   3.744  1.00  0.00     0.016 A 
ATOM     45  C   UNL     1       1.247 -12.530   1.011  1.00  0.00     0.010 A 
ATOM     46  C   UNL     1       2.374 -13.600   2.867  1.00  0.00     0.010 A 
ATOM     47  C   UNL     1       2.305 -13.286   1.499  1.00  0.00    -0.014 A 
BRANCH  47  48
ATOM     48  C   UNL     1       3.207 -13.928   0.531  1.00  0.00     0.031 A 
ATOM     49  C   UNL     1       2.887 -15.334   0.143  1.00  0.00     0.074 A 
ATOM     50  C   UNL     1       4.216 -13.254  -0.043  1.00  0.00     0.049 A 
ATOM     51  N   UNL     1       3.624 -16.206  -0.481  1.00  0.00    -0.248 NA
ATOM     52  C   UNL     1       1.550 -15.820   0.525  1.00  0.00     0.031 C 
ATOM     53  C   UNL     1       4.493 -11.831   0.144  1.00  0.00     0.029 A 
ATOM     54  N   UNL     1       5.193 -13.674  -0.906  1.00  0.00    -0.354 N 
ATOM     55  C   UNL     1       2.864 -17.367  -0.520  1.00  0.00     0.074 A 
ATOM     56  C   UNL     1       1.601 -17.078   0.123  1.00  0.00     0.031 C 
ATOM     57  C   UNL     1       5.562 -11.492  -0.598  1.00  0.00     0.029 A 
ATOM     58  C   UNL     1       6.114 -12.697  -1.208  1.00  0.00     0.049 A 
ATOM     59  H   UNL     1       5.232 -14.586  -1.275  1.00  0.00     0.167 HD
ATOM     60  C   UNL     1       3.222 -18.572  -1.020  1.00  0.00     0.034 A 
ATOM     61  C   UNL     1       7.306 -12.800  -1.830  1.00  0.00     0.034 A 
ATOM     62  C   UNL     1       4.508 -18.807  -1.623  1.00  0.00     0.049 A 
ATOM     63  C   UNL     1       7.752 -14.182  -2.252  1.00  0.00     0.074 A 
ATOM     64  C   UNL     1       5.048 -19.991  -2.084  1.00  0.00     0.029 A 
ATOM     65  N   UNL     1       5.464 -17.819  -1.841  1.00  0.00    -0.354 N 
ATOM     66  N   UNL     1       7.100 -15.322  -2.171  1.00  0.00    -0.248 NA
ATOM     67  C   UNL     1       9.104 -14.301  -2.810  1.00  0.00     0.031 C 
ATOM     68  C   UNL     1       6.352 -19.730  -2.521  1.00  0.00     0.029 A 
ATOM     69  C   UNL     1       6.600 -18.369  -2.405  1.00  0.00     0.049 A 
ATOM     70  H   UNL     1       5.348 -16.865  -1.625  1.00  0.00     0.167 HD
ATOM     71  C   UNL     1       7.961 -16.293  -2.675  1.00  0.00     0.074 A 
ATOM     72  C   UNL     1       9.167 -15.597  -3.082  1.00  0.00     0.031 C 
ATOM     73  C   UNL     1       7.786 -17.636  -2.787  1.00  0.00     0.034 A 
BRANCH  60  74
ATOM     74  C   UNL     1       2.260 -19.707  -0.790  1.00  0.00     0.023 A 
ATOM     75  C   UNL     1       0.977 -19.729  -1.365  1.00  0.00     0.031 A 
ATOM     76  C   UNL     1       2.592 -20.725   0.123  1.00  0.00     0.131 A 
ATOM     77  C   UNL     1       0.046 -20.696  -0.956  1.00  0.00     0.055 A 
ATOM     78  C   UNL     1       1.688 -21.732   0.462  1.00  0.00     0.041 A 
ATOM     79  F   UNL     1       3.788 -20.733   0.733  1.00  0.00    -0.206 F 
ATOM     80  C   UNL     1       0.401 -21.712  -0.065  1.00  0.00     0.022 A 
BRANCH  77  81
ATOM     81  S   UNL     1      -1.683 -20.513  -1.475  1.00  0.00     0.124 S 
ATOM     82  O   UNL     1      -2.032 -19.223  -0.886  1.00  0.00    -0.237 OA
ATOM     83  O   UNL     1      -1.581 -20.544  -2.929  1.00  0.00    -0.237 OA
ATOM     84  O   UNL     1      -2.346 -21.667  -0.871  1.00  0.00    -0.744 OA
ENDBRANCH  77  81
ENDBRANCH  60  74
BRANCH  61  85
ATOM     85  C   UNL     1       8.215 -11.620  -1.965  1.00  0.00     0.023 A 
ATOM     86  C   UNL     1       8.676 -11.192  -3.221  1.00  0.00     0.031 A 
ATOM     87  C   UNL     1       8.694 -10.939  -0.829  1.00  0.00     0.131 A 
ATOM     88  C   UNL     1       9.612 -10.145  -3.307  1.00  0.00     0.055 A 
ATOM     89  C   UNL     1       9.573  -9.860  -0.923  1.00  0.00     0.041 A 
ATOM     90  F   UNL     1       8.309 -11.312   0.402  1.00  0.00    -0.206 F 
ATOM     91  C   UNL     1      10.049  -9.466  -2.168  1.00  0.00     0.022 A 
BRANCH  88  92
ATOM     92  S   UNL     1      10.331  -9.745  -4.924  1.00  0.00     0.124 S 
ATOM     93  O   UNL     1      10.911 -11.024  -5.317  1.00  0.00    -0.237 OA
ATOM     94  O   UNL     1       9.159  -9.312  -5.678  1.00  0.00    -0.237 OA
ATOM     95  O   UNL     1      11.296  -8.691  -4.617  1.00  0.00    -0.744 OA
ENDBRANCH  88  92
ENDBRANCH  61  85
BRANCH  73  96
ATOM     96  C   UNL     1       8.914 -18.414  -3.413  1.00  0.00     0.023 A 
ATOM     97  C   UNL     1      10.149 -18.576  -2.762  1.00  0.00     0.031 A 
ATOM     98  C   UNL     1       8.745 -19.002  -4.678  1.00  0.00     0.131 A 
ATOM     99  C   UNL     1      11.187 -19.266  -3.403  1.00  0.00     0.055 A 
ATOM    100  C   UNL     1       9.761 -19.741  -5.284  1.00  0.00     0.041 A 
ATOM    101  F   UNL     1       7.585 -18.875  -5.341  1.00  0.00    -0.206 F 
ATOM    102  C   UNL     1      10.994 -19.865  -4.651  1.00  0.00     0.022 A 
BRANCH  99 103
ATOM    103  S   UNL     1      12.822 -19.298  -2.622  1.00  0.00     0.124 S 
ATOM    104  O   UNL     1      13.150 -17.878  -2.547  1.00  0.00    -0.237 OA
ATOM    105  O   UNL     1      12.549 -19.957  -1.349  1.00  0.00    -0.237 OA
ATOM    106  O   UNL     1      13.634 -20.074  -3.558  1.00  0.00    -0.744 OA
ENDBRANCH  99 103
ENDBRANCH  73  96
ENDBRANCH  47  48
ENDBRANCH  40  42
ENDBRANCH  39  40
ENDBRANCH   1  39
TORSDOF 16
