REMARK SMILES O=C(OCCOC(=O)c1cc(-c2cncnc2)cc(S(=O)(=O)N2CCCC2)c1)c1ccc(-c2c3nc(c(-c4cc(S(=O)(=O)[O-])ccc4F)c4ccc([nH]4)c(-c4cc(S(=O)(=O)[O-])ccc4F)c4nc(c(-c5cc(S(=O)(=O)[O-])ccc5F)c5ccc2[nH]5)C=C4)C=C3)cc1
REMARK SMILES IDX 4 1 3 2 2 3 1 4 29 5 30 6 91 7 31 8 90 9 32 10 33 11 34 12
REMARK SMILES IDX 84 13 35 14 89 15 83 16 85 17 36 18 88 19 82 20 81 21 37 23
REMARK SMILES IDX 69 24 49 25 68 26 50 27 53 28 67 29 86 30 51 31 52 32 66 34
REMARK SMILES IDX 87 35 54 36 38 37 39 38 47 39 40 40 46 41 48 42 45 43 41 44
REMARK SMILES IDX 42 45 43 46 44 47 70 48 71 49 79 50 72 51 78 52 80 53 77 54
REMARK SMILES IDX 73 55 74 56 75 57 76 58 55 59 56 60 64 61 57 62 63 63 65 64
REMARK SMILES IDX 62 65 58 66 59 67 60 68 61 69 5 70 6 71 7 72 8 73 9 74 10 75
REMARK SMILES IDX 28 76 11 77 19 78 18 79 12 80 13 81 17 82 14 83 16 84 15 85
REMARK SMILES IDX 20 86 21 87 22 88 23 89 24 90 27 91 25 92 26 93
REMARK H PARENT 85 22 53 33
REMARK Flexibility Score: inf
ROOT
ATOM      1  C   UNL     1       4.555  -0.828   1.091  1.00  0.00     0.275 C 
ENDROOT
BRANCH   1   2
ATOM      2  O   UNL     1       3.614   0.254   1.196  1.00  0.00    -0.458 OA
BRANCH   2   3
ATOM      3  C   UNL     1       3.291   1.259   0.353  1.00  0.00     0.338 C 
ATOM      4  O   UNL     1       2.392   2.027   0.702  1.00  0.00    -0.246 OA
BRANCH   3   5
ATOM      5  C   UNL     1       3.885   1.481  -1.011  1.00  0.00     0.060 A 
ATOM      6  C   UNL     1       5.084   0.965  -1.505  1.00  0.00     0.016 A 
ATOM      7  C   UNL     1       3.155   2.336  -1.863  1.00  0.00     0.016 A 
ATOM      8  C   UNL     1       5.535   1.281  -2.797  1.00  0.00     0.010 A 
ATOM      9  C   UNL     1       3.585   2.636  -3.161  1.00  0.00     0.010 A 
ATOM     10  C   UNL     1       4.798   2.130  -3.628  1.00  0.00    -0.014 A 
BRANCH  10  11
ATOM     11  C   UNL     1       5.367   2.599  -4.915  1.00  0.00     0.031 A 
ATOM     12  C   UNL     1       5.953   3.969  -5.002  1.00  0.00     0.074 A 
ATOM     13  C   UNL     1       5.390   1.809  -6.001  1.00  0.00     0.049 A 
ATOM     14  N   UNL     1       6.519   4.558  -6.022  1.00  0.00    -0.248 NA
ATOM     15  C   UNL     1       5.886   4.780  -3.781  1.00  0.00     0.031 C 
ATOM     16  C   UNL     1       4.849   0.462  -6.035  1.00  0.00     0.029 A 
ATOM     17  N   UNL     1       5.866   2.014  -7.272  1.00  0.00    -0.354 N 
ATOM     18  C   UNL     1       6.909   5.804  -5.558  1.00  0.00     0.074 A 
ATOM     19  C   UNL     1       6.434   5.910  -4.192  1.00  0.00     0.031 C 
ATOM     20  C   UNL     1       5.023  -0.044  -7.264  1.00  0.00     0.029 A 
ATOM     21  C   UNL     1       5.629   0.959  -8.120  1.00  0.00     0.049 A 
ATOM     22  H   UNL     1       6.332   2.836  -7.548  1.00  0.00     0.167 HD
ATOM     23  C   UNL     1       7.627   6.757  -6.201  1.00  0.00     0.034 A 
ATOM     24  C   UNL     1       5.828   0.809  -9.444  1.00  0.00     0.034 A 
ATOM     25  C   UNL     1       8.031   6.664  -7.582  1.00  0.00     0.049 A 
ATOM     26  C   UNL     1       6.485   1.926 -10.189  1.00  0.00     0.074 A 
ATOM     27  C   UNL     1       8.744   7.574  -8.340  1.00  0.00     0.029 A 
ATOM     28  N   UNL     1       7.721   5.603  -8.428  1.00  0.00    -0.354 N 
ATOM     29  N   UNL     1       6.892   3.085  -9.726  1.00  0.00    -0.248 NA
ATOM     30  C   UNL     1       6.729   1.717 -11.618  1.00  0.00     0.031 C 
ATOM     31  C   UNL     1       8.816   7.091  -9.655  1.00  0.00     0.029 A 
ATOM     32  C   UNL     1       8.198   5.851  -9.708  1.00  0.00     0.049 A 
ATOM     33  H   UNL     1       7.233   4.792  -8.158  1.00  0.00     0.167 HD
ATOM     34  C   UNL     1       7.468   3.739 -10.804  1.00  0.00     0.074 A 
ATOM     35  C   UNL     1       7.354   2.842 -11.941  1.00  0.00     0.031 C 
ATOM     36  C   UNL     1       8.055   4.963 -10.840  1.00  0.00     0.034 A 
BRANCH  23  37
ATOM     37  C   UNL     1       7.942   7.984  -5.385  1.00  0.00     0.023 A 
ATOM     38  C   UNL     1       8.725   7.889  -4.218  1.00  0.00     0.031 A 
ATOM     39  C   UNL     1       7.316   9.207  -5.667  1.00  0.00     0.131 A 
ATOM     40  C   UNL     1       8.748   8.954  -3.308  1.00  0.00     0.055 A 
ATOM     41  C   UNL     1       7.425  10.298  -4.801  1.00  0.00     0.041 A 
ATOM     42  F   UNL     1       6.538   9.344  -6.751  1.00  0.00    -0.206 F 
ATOM     43  C   UNL     1       8.120  10.167  -3.601  1.00  0.00     0.022 A 
BRANCH  40  44
ATOM     44  S   UNL     1       9.413   8.650  -1.646  1.00  0.00     0.124 S 
ATOM     45  O   UNL     1       8.558   7.559  -1.182  1.00  0.00    -0.237 OA
ATOM     46  O   UNL     1      10.802   8.299  -1.920  1.00  0.00    -0.237 OA
ATOM     47  O   UNL     1       9.213   9.923  -0.958  1.00  0.00    -0.744 OA
ENDBRANCH  40  44
ENDBRANCH  23  37
BRANCH  24  48
ATOM     48  C   UNL     1       5.338  -0.418 -10.135  1.00  0.00     0.023 A 
ATOM     49  C   UNL     1       6.213  -1.410 -10.603  1.00  0.00     0.031 A 
ATOM     50  C   UNL     1       3.954  -0.626 -10.292  1.00  0.00     0.131 A 
ATOM     51  C   UNL     1       5.693  -2.570 -11.205  1.00  0.00     0.055 A 
ATOM     52  C   UNL     1       3.443  -1.793 -10.861  1.00  0.00     0.041 A 
ATOM     53  F   UNL     1       3.079   0.299  -9.866  1.00  0.00    -0.206 F 
ATOM     54  C   UNL     1       4.315  -2.773 -11.325  1.00  0.00     0.022 A 
BRANCH  51  55
ATOM     55  S   UNL     1       6.846  -3.818 -11.842  1.00  0.00     0.124 S 
ATOM     56  O   UNL     1       7.630  -3.047 -12.800  1.00  0.00    -0.237 OA
ATOM     57  O   UNL     1       7.546  -4.231 -10.628  1.00  0.00    -0.237 OA
ATOM     58  O   UNL     1       5.971  -4.832 -12.426  1.00  0.00    -0.744 OA
ENDBRANCH  51  55
ENDBRANCH  24  48
BRANCH  36  59
ATOM     59  C   UNL     1       8.657   5.369 -12.156  1.00  0.00     0.023 A 
ATOM     60  C   UNL     1       7.857   5.676 -13.270  1.00  0.00     0.031 A 
ATOM     61  C   UNL     1      10.054   5.400 -12.308  1.00  0.00     0.131 A 
ATOM     62  C   UNL     1       8.462   5.945 -14.506  1.00  0.00     0.055 A 
ATOM     63  C   UNL     1      10.650   5.724 -13.526  1.00  0.00     0.041 A 
ATOM     64  F   UNL     1      10.859   5.104 -11.275  1.00  0.00    -0.206 F 
ATOM     65  C   UNL     1       9.853   5.988 -14.636  1.00  0.00     0.022 A 
BRANCH  62  66
ATOM     66  S   UNL     1       7.407   6.164 -15.964  1.00  0.00     0.124 S 
ATOM     67  O   UNL     1       6.827   4.833 -16.116  1.00  0.00    -0.237 OA
ATOM     68  O   UNL     1       6.490   7.215 -15.537  1.00  0.00    -0.237 OA
ATOM     69  O   UNL     1       8.350   6.554 -17.012  1.00  0.00    -0.744 OA
ENDBRANCH  62  66
ENDBRANCH  36  59
ENDBRANCH  10  11
ENDBRANCH   3   5
ENDBRANCH   2   3
ENDBRANCH   1   2
BRANCH   1  70
ATOM     70  C   UNL     1       4.024  -2.039   0.328  1.00  0.00     0.275 C 
BRANCH  70  71
ATOM     71  O   UNL     1       3.518  -1.702  -0.970  1.00  0.00    -0.458 OA
BRANCH  71  72
ATOM     72  C   UNL     1       2.178  -1.496  -1.028  1.00  0.00     0.338 C 
ATOM     73  O   UNL     1       1.379  -1.568  -0.112  1.00  0.00    -0.246 OA
BRANCH  72  74
ATOM     74  C   UNL     1       1.805  -1.113  -2.402  1.00  0.00     0.062 A 
ATOM     75  C   UNL     1       0.878  -0.084  -2.600  1.00  0.00     0.024 A 
ATOM     76  C   UNL     1       2.297  -1.844  -3.478  1.00  0.00     0.037 A 
ATOM     77  C   UNL     1       0.455   0.271  -3.894  1.00  0.00    -0.013 A 
ATOM     78  C   UNL     1       1.834  -1.566  -4.757  1.00  0.00     0.084 A 
ATOM     79  C   UNL     1       0.953  -0.487  -4.975  1.00  0.00     0.030 A 
BRANCH  77  80
ATOM     80  C   UNL     1      -0.539   1.342  -4.074  1.00  0.00     0.018 A 
ATOM     81  C   UNL     1      -1.699   1.184  -4.816  1.00  0.00     0.123 A 
ATOM     82  C   UNL     1      -0.453   2.583  -3.461  1.00  0.00     0.123 A 
ATOM     83  N   UNL     1      -2.674   2.116  -4.937  1.00  0.00    -0.244 NA
ATOM     84  N   UNL     1      -1.386   3.559  -3.543  1.00  0.00    -0.244 NA
ATOM     85  C   UNL     1      -2.458   3.269  -4.288  1.00  0.00     0.221 A 
ENDBRANCH  77  80
BRANCH  78  86
ATOM     86  S   UNL     1       2.193  -2.675  -6.114  1.00  0.00     0.243 S 
ATOM     87  O   UNL     1       1.049  -3.576  -6.159  1.00  0.00    -0.207 OA
ATOM     88  O   UNL     1       2.535  -1.852  -7.234  1.00  0.00    -0.207 OA
BRANCH  86  89
ATOM     89  N   UNL     1       3.530  -3.583  -5.668  1.00  0.00    -0.198 NA
ATOM     90  C   UNL     1       3.421  -4.815  -4.887  1.00  0.00     0.102 C 
ATOM     91  C   UNL     1       4.904  -3.068  -5.643  1.00  0.00     0.102 C 
ATOM     92  C   UNL     1       4.638  -4.793  -3.974  1.00  0.00     0.018 C 
ATOM     93  C   UNL     1       5.690  -4.042  -4.769  1.00  0.00     0.018 C 
ENDBRANCH  86  89
ENDBRANCH  78  86
ENDBRANCH  72  74
ENDBRANCH  71  72
ENDBRANCH  70  71
ENDBRANCH   1  70
TORSDOF 17
