REMARK SMILES O=C(CSCc1ccc(Cl)s1)Nc1ccsc1C(=O)OCCOC(=O)c1ccc(-c2c3nc(c(-c4cc(S(=O)(=O)[O-])ccc4F)c4ccc([nH]4)c(-c4cc(S(=O)(=O)[O-])ccc4F)c4nc(c(-c5cc(S(=O)(=O)[O-])ccc5F)c5ccc2[nH]5)C=C4)C=C3)cc1
REMARK SMILES IDX 21 1 20 2 18 3 19 4 17 5 13 6 14 7 15 8 16 9 12 10 1 11 2 12
REMARK SMILES IDX 3 14 4 15 5 16 6 17 7 18 11 19 8 20 9 21 10 22 22 23 23 24
REMARK SMILES IDX 24 25 25 26 26 27 27 28 88 29 28 30 87 31 29 32 30 33 31 34
REMARK SMILES IDX 81 35 32 36 86 37 80 38 82 39 33 40 85 41 79 42 78 43 34 45
REMARK SMILES IDX 66 46 46 47 65 48 47 49 50 50 64 51 83 52 48 53 49 54 63 56
REMARK SMILES IDX 84 57 51 58 35 59 36 60 44 61 37 62 43 63 45 64 42 65 38 66
REMARK SMILES IDX 39 67 40 68 41 69 67 70 68 71 76 72 69 73 75 74 77 75 74 76
REMARK SMILES IDX 70 77 71 78 72 79 73 80 52 81 53 82 61 83 54 84 60 85 62 86
REMARK SMILES IDX 59 87 55 88 56 89 57 90 58 91
REMARK H PARENT 12 13 82 44 50 55
REMARK Flexibility Score: inf
ROOT
ATOM      1  C   UNL     1       5.695   1.297   3.542  1.00  0.00     0.275 C 
ENDROOT
BRANCH   1   2
ATOM      2  O   UNL     1       4.679   0.443   2.978  1.00  0.00    -0.458 OA
BRANCH   2   3
ATOM      3  C   UNL     1       4.311  -0.643   3.733  1.00  0.00     0.350 C 
ATOM      4  O   UNL     1       4.869  -0.958   4.773  1.00  0.00    -0.245 OA
BRANCH   3   5
ATOM      5  C   UNL     1       3.157  -1.306   3.139  1.00  0.00     0.136 A 
ATOM      6  C   UNL     1       2.523  -1.134   1.913  1.00  0.00     0.066 A 
ATOM      7  C   UNL     1       1.316  -1.899   1.841  1.00  0.00     0.039 A 
ATOM      8  C   UNL     1       1.109  -2.679   2.955  1.00  0.00     0.068 A 
ATOM      9  S   UNL     1       2.392  -2.544   4.064  1.00  0.00    -0.135 S 
BRANCH   6  10
ATOM     10  N   UNL     1       3.041  -0.311   0.918  1.00  0.00    -0.324 N 
ATOM     11  O   UNL     1       1.412  -0.501  -0.737  1.00  0.00    -0.274 OA
ATOM     12  C   UNL     1       2.492  -0.080  -0.328  1.00  0.00     0.234 C 
ATOM     13  H   UNL     1       3.884   0.155   1.122  1.00  0.00     0.170 HD
BRANCH  12  14
ATOM     14  C   UNL     1       3.415   0.690  -1.260  1.00  0.00     0.170 C 
BRANCH  14  15
ATOM     15  S   UNL     1       4.243   2.108  -0.467  1.00  0.00    -0.146 SA
BRANCH  15  16
ATOM     16  C   UNL     1       2.795   3.053   0.129  1.00  0.00     0.116 C 
BRANCH  16  17
ATOM     17  C   UNL     1       1.961   3.597  -0.988  1.00  0.00     0.016 A 
ATOM     18  C   UNL     1       0.846   3.033  -1.587  1.00  0.00     0.018 A 
ATOM     19  S   UNL     1       2.302   5.146  -1.653  1.00  0.00    -0.128 S 
ATOM     20  C   UNL     1       0.280   3.874  -2.590  1.00  0.00     0.033 A 
ATOM     21  C   UNL     1       0.977   5.048  -2.699  1.00  0.00     0.093 A 
ATOM     22  Cl  UNL     1       0.623   6.356  -3.755  1.00  0.00    -0.072 Cl
ENDBRANCH  16  17
ENDBRANCH  15  16
ENDBRANCH  14  15
ENDBRANCH  12  14
ENDBRANCH   6  10
ENDBRANCH   3   5
ENDBRANCH   2   3
ENDBRANCH   1   2
BRANCH   1  23
ATOM     23  C   UNL     1       5.096   2.590   4.110  1.00  0.00     0.275 C 
BRANCH  23  24
ATOM     24  O   UNL     1       4.332   2.351   5.307  1.00  0.00    -0.458 OA
BRANCH  24  25
ATOM     25  C   UNL     1       3.010   2.126   5.108  1.00  0.00     0.338 C 
ATOM     26  O   UNL     1       2.433   2.129   4.032  1.00  0.00    -0.246 OA
BRANCH  25  27
ATOM     27  C   UNL     1       2.375   1.710   6.374  1.00  0.00     0.060 A 
ATOM     28  C   UNL     1       1.714   0.481   6.385  1.00  0.00     0.016 A 
ATOM     29  C   UNL     1       2.367   2.519   7.513  1.00  0.00     0.016 A 
ATOM     30  C   UNL     1       1.049   0.046   7.529  1.00  0.00     0.010 A 
ATOM     31  C   UNL     1       1.688   2.085   8.663  1.00  0.00     0.010 A 
ATOM     32  C   UNL     1       1.017   0.848   8.676  1.00  0.00    -0.014 A 
BRANCH  32  33
ATOM     33  C   UNL     1       0.209   0.407   9.844  1.00  0.00     0.031 A 
ATOM     34  C   UNL     1      -1.119   1.056  10.121  1.00  0.00     0.074 A 
ATOM     35  C   UNL     1       0.627  -0.619  10.611  1.00  0.00     0.049 A 
ATOM     36  N   UNL     1      -1.968   0.833  11.092  1.00  0.00    -0.248 NA
ATOM     37  C   UNL     1      -1.546   2.097   9.175  1.00  0.00     0.031 C 
ATOM     38  C   UNL     1       1.869  -1.368  10.410  1.00  0.00     0.029 A 
ATOM     39  N   UNL     1       0.049  -1.218  11.702  1.00  0.00    -0.354 N 
ATOM     40  C   UNL     1      -3.027   1.711  10.883  1.00  0.00     0.074 A 
ATOM     41  C   UNL     1      -2.693   2.491   9.709  1.00  0.00     0.031 C 
ATOM     42  C   UNL     1       1.950  -2.336  11.338  1.00  0.00     0.029 A 
ATOM     43  C   UNL     1       0.795  -2.248  12.228  1.00  0.00     0.049 A 
ATOM     44  H   UNL     1      -0.818  -0.938  12.075  1.00  0.00     0.167 HD
ATOM     45  C   UNL     1      -4.172   1.847  11.598  1.00  0.00     0.034 A 
ATOM     46  C   UNL     1       0.583  -3.020  13.314  1.00  0.00     0.034 A 
ATOM     47  C   UNL     1      -4.493   1.062  12.767  1.00  0.00     0.049 A 
ATOM     48  C   UNL     1      -0.664  -2.801  14.135  1.00  0.00     0.074 A 
ATOM     49  C   UNL     1      -5.618   1.130  13.571  1.00  0.00     0.029 A 
ATOM     50  N   UNL     1      -3.687   0.065  13.302  1.00  0.00    -0.354 N 
ATOM     51  N   UNL     1      -1.640  -1.943  13.944  1.00  0.00    -0.248 NA
ATOM     52  C   UNL     1      -0.837  -3.656  15.316  1.00  0.00     0.031 C 
ATOM     53  C   UNL     1      -5.466   0.218  14.623  1.00  0.00     0.029 A 
ATOM     54  C   UNL     1      -4.278  -0.471  14.437  1.00  0.00     0.049 A 
ATOM     55  H   UNL     1      -2.821  -0.220  12.930  1.00  0.00     0.167 HD
ATOM     56  C   UNL     1      -2.554  -2.175  14.969  1.00  0.00     0.074 A 
ATOM     57  C   UNL     1      -2.021  -3.262  15.763  1.00  0.00     0.031 C 
ATOM     58  C   UNL     1      -3.729  -1.547  15.229  1.00  0.00     0.034 A 
BRANCH  45  59
ATOM     59  C   UNL     1      -5.131   2.929  11.162  1.00  0.00     0.023 A 
ATOM     60  C   UNL     1      -5.792   2.880   9.921  1.00  0.00     0.031 A 
ATOM     61  C   UNL     1      -5.358   4.047  11.984  1.00  0.00     0.131 A 
ATOM     62  C   UNL     1      -6.587   3.960   9.509  1.00  0.00     0.055 A 
ATOM     63  C   UNL     1      -6.213   5.082  11.601  1.00  0.00     0.041 A 
ATOM     64  F   UNL     1      -4.739   4.160  13.170  1.00  0.00    -0.206 F 
ATOM     65  C   UNL     1      -6.822   5.050  10.350  1.00  0.00     0.022 A 
BRANCH  62  66
ATOM     66  S   UNL     1      -7.196   3.988   7.800  1.00  0.00     0.124 S 
ATOM     67  O   UNL     1      -5.949   3.934   7.041  1.00  0.00    -0.237 OA
ATOM     68  O   UNL     1      -8.031   2.794   7.743  1.00  0.00    -0.237 OA
ATOM     69  O   UNL     1      -7.915   5.258   7.713  1.00  0.00    -0.744 OA
ENDBRANCH  62  66
ENDBRANCH  45  59
BRANCH  46  70
ATOM     70  C   UNL     1       1.589  -4.042  13.725  1.00  0.00     0.023 A 
ATOM     71  C   UNL     1       1.274  -5.410  13.743  1.00  0.00     0.031 A 
ATOM     72  C   UNL     1       2.868  -3.653  14.162  1.00  0.00     0.131 A 
ATOM     73  C   UNL     1       2.211  -6.336  14.230  1.00  0.00     0.055 A 
ATOM     74  C   UNL     1       3.815  -4.583  14.595  1.00  0.00     0.041 A 
ATOM     75  F   UNL     1       3.219  -2.357  14.169  1.00  0.00    -0.206 F 
ATOM     76  C   UNL     1       3.483  -5.933  14.643  1.00  0.00     0.022 A 
BRANCH  73  77
ATOM     77  S   UNL     1       1.713  -8.073  14.398  1.00  0.00     0.124 S 
ATOM     78  O   UNL     1       0.563  -7.968  15.289  1.00  0.00    -0.237 OA
ATOM     79  O   UNL     1       1.423  -8.440  13.017  1.00  0.00    -0.237 OA
ATOM     80  O   UNL     1       2.894  -8.711  14.976  1.00  0.00    -0.744 OA
ENDBRANCH  73  77
ENDBRANCH  46  70
BRANCH  58  81
ATOM     81  C   UNL     1      -4.532  -2.059  16.401  1.00  0.00     0.023 A 
ATOM     82  C   UNL     1      -4.084  -1.914  17.726  1.00  0.00     0.031 A 
ATOM     83  C   UNL     1      -5.750  -2.727  16.183  1.00  0.00     0.131 A 
ATOM     84  C   UNL     1      -4.820  -2.479  18.778  1.00  0.00     0.055 A 
ATOM     85  C   UNL     1      -6.506  -3.239  17.239  1.00  0.00     0.041 A 
ATOM     86  F   UNL     1      -6.224  -2.895  14.939  1.00  0.00    -0.206 F 
ATOM     87  C   UNL     1      -6.035  -3.129  18.544  1.00  0.00     0.022 A 
BRANCH  84  88
ATOM     88  S   UNL     1      -4.122  -2.437  20.453  1.00  0.00     0.124 S 
ATOM     89  O   UNL     1      -2.846  -3.120  20.268  1.00  0.00    -0.237 OA
ATOM     90  O   UNL     1      -4.045  -1.005  20.723  1.00  0.00    -0.237 OA
ATOM     91  O   UNL     1      -5.105  -3.165  21.253  1.00  0.00    -0.744 OA
ENDBRANCH  84  88
ENDBRANCH  58  81
ENDBRANCH  32  33
ENDBRANCH  25  27
ENDBRANCH  24  25
ENDBRANCH  23  24
ENDBRANCH   1  23
TORSDOF 19
