REMARK SMILES O=C(Cn1cc(/C=C(/Cl)c2nnc(C(=O)Nc3ccc(Cl)cc3)s2)nn1)OCCOC(=O)c1ccc(-c2c3nc(c(-c4cc(S(=O)(=O)[O-])ccc4F)c4ccc([nH]4)c(-c4cc(S(=O)(=O)[O-])ccc4F)c4nc(c(-c5cc(S(=O)(=O)[O-])ccc5F)c5ccc2[nH]5)C=C4)C=C3)cc1
REMARK SMILES IDX 28 1 27 2 2 3 1 4 3 5 4 6 5 7 26 8 6 9 25 10 7 11 8 12 9 13
REMARK SMILES IDX 10 14 11 15 24 16 12 17 13 18 14 19 15 20 16 21 17 23 18 24
REMARK SMILES IDX 23 25 19 26 22 27 20 28 21 29 29 30 30 31 31 32 32 33 33 34
REMARK SMILES IDX 34 35 95 36 35 37 94 38 36 39 37 40 38 41 88 42 39 43 93 44
REMARK SMILES IDX 87 45 89 46 40 47 92 48 86 49 85 50 41 52 73 53 53 54 72 55
REMARK SMILES IDX 54 56 57 57 71 58 90 59 55 60 56 61 70 63 91 64 58 65 42 66
REMARK SMILES IDX 43 67 51 68 44 69 50 70 52 71 49 72 45 73 46 74 47 75 48 76
REMARK SMILES IDX 74 77 75 78 83 79 76 80 82 81 84 82 81 83 77 84 78 85 79 86
REMARK SMILES IDX 80 87 59 88 60 89 68 90 61 91 67 92 69 93 66 94 62 95 63 96
REMARK SMILES IDX 64 97 65 98
REMARK H PARENT 16 22 89 51 57 62
REMARK Flexibility Score: inf
ROOT
ATOM      1  C   UNL     1       4.085   0.736  -1.332  1.00  0.00     0.274 C 
ENDROOT
BRANCH   1   2
ATOM      2  O   UNL     1       2.735   0.265  -1.118  1.00  0.00    -0.461 OA
BRANCH   2   3
ATOM      3  C   UNL     1       2.247  -0.546  -0.149  1.00  0.00     0.327 C 
ATOM      4  O   UNL     1       1.034  -0.769  -0.121  1.00  0.00    -0.250 OA
BRANCH   3   5
ATOM      5  C   UNL     1       3.133  -1.149   0.900  1.00  0.00     0.268 C 
BRANCH   5   6
ATOM      6  N   UNL     1       3.986  -2.220   0.460  1.00  0.00    -0.241 N 
ATOM      7  C   UNL     1       5.333  -2.185   0.207  1.00  0.00     0.139 A 
ATOM      8  N   UNL     1       3.549  -3.481   0.545  1.00  0.00    -0.066 NA
ATOM      9  C   UNL     1       5.652  -3.498  -0.021  1.00  0.00     0.107 A 
ATOM     10  N   UNL     1       4.552  -4.265   0.203  1.00  0.00    -0.131 NA
BRANCH   9  11
ATOM     11  C   UNL     1       6.899  -4.041  -0.451  1.00  0.00     0.055 C 
ATOM     12  C   UNL     1       7.200  -5.344  -0.631  1.00  0.00     0.081 C 
ATOM     13  Cl  UNL     1       8.736  -5.809  -1.271  1.00  0.00    -0.081 Cl
BRANCH  12  14
ATOM     14  C   UNL     1       6.259  -6.371  -0.348  1.00  0.00     0.159 A 
ATOM     15  N   UNL     1       5.934  -6.875   0.829  1.00  0.00    -0.137 NA
ATOM     16  S   UNL     1       5.187  -6.938  -1.583  1.00  0.00    -0.086 S 
ATOM     17  N   UNL     1       4.627  -7.343   0.834  1.00  0.00    -0.133 NA
ATOM     18  C   UNL     1       4.033  -7.151  -0.334  1.00  0.00     0.206 A 
BRANCH  18  19
ATOM     19  C   UNL     1       2.585  -7.240  -0.486  1.00  0.00     0.286 C 
ATOM     20  O   UNL     1       1.936  -8.157   0.036  1.00  0.00    -0.266 OA
ATOM     21  N   UNL     1       1.805  -6.213  -1.022  1.00  0.00    -0.320 N 
ATOM     22  H   UNL     1       0.859  -6.270  -0.756  1.00  0.00     0.170 HD
BRANCH  21  23
ATOM     23  C   UNL     1       2.072  -5.116  -1.858  1.00  0.00     0.041 A 
ATOM     24  C   UNL     1       2.969  -5.163  -2.921  1.00  0.00     0.027 A 
ATOM     25  C   UNL     1       1.338  -3.939  -1.673  1.00  0.00     0.027 A 
ATOM     26  C   UNL     1       3.302  -4.012  -3.640  1.00  0.00     0.022 A 
ATOM     27  C   UNL     1       1.618  -2.798  -2.437  1.00  0.00     0.022 A 
ATOM     28  C   UNL     1       2.644  -2.821  -3.373  1.00  0.00     0.041 A 
ATOM     29  Cl  UNL     1       3.094  -1.392  -4.215  1.00  0.00    -0.084 Cl
ENDBRANCH  21  23
ENDBRANCH  18  19
ENDBRANCH  12  14
ENDBRANCH   9  11
ENDBRANCH   5   6
ENDBRANCH   3   5
ENDBRANCH   2   3
ENDBRANCH   1   2
BRANCH   1  30
ATOM     30  C   UNL     1       4.436   1.999  -0.558  1.00  0.00     0.275 C 
BRANCH  30  31
ATOM     31  O   UNL     1       4.333   1.758   0.833  1.00  0.00    -0.458 OA
BRANCH  31  32
ATOM     32  C   UNL     1       3.113   2.003   1.383  1.00  0.00     0.338 C 
ATOM     33  O   UNL     1       2.110   2.342   0.817  1.00  0.00    -0.246 OA
BRANCH  32  34
ATOM     34  C   UNL     1       3.254   1.747   2.826  1.00  0.00     0.060 A 
ATOM     35  C   UNL     1       2.244   2.232   3.651  1.00  0.00     0.016 A 
ATOM     36  C   UNL     1       4.468   1.244   3.331  1.00  0.00     0.016 A 
ATOM     37  C   UNL     1       2.576   2.503   4.956  1.00  0.00     0.010 A 
ATOM     38  C   UNL     1       4.797   1.513   4.625  1.00  0.00     0.010 A 
ATOM     39  C   UNL     1       3.889   2.255   5.365  1.00  0.00    -0.014 A 
BRANCH  39  40
ATOM     40  C   UNL     1       4.346   2.834   6.600  1.00  0.00     0.031 A 
ATOM     41  C   UNL     1       3.929   2.057   7.774  1.00  0.00     0.074 A 
ATOM     42  C   UNL     1       5.158   3.907   6.603  1.00  0.00     0.049 A 
ATOM     43  N   UNL     1       2.985   2.349   8.600  1.00  0.00    -0.248 NA
ATOM     44  C   UNL     1       4.450   0.688   7.909  1.00  0.00     0.031 C 
ATOM     45  C   UNL     1       5.827   4.553   5.469  1.00  0.00     0.029 A 
ATOM     46  N   UNL     1       5.639   4.592   7.667  1.00  0.00    -0.354 N 
ATOM     47  C   UNL     1       3.000   1.324   9.532  1.00  0.00     0.074 A 
ATOM     48  C   UNL     1       3.694   0.232   8.909  1.00  0.00     0.031 C 
ATOM     49  C   UNL     1       6.797   5.375   5.935  1.00  0.00     0.029 A 
ATOM     50  C   UNL     1       6.728   5.409   7.387  1.00  0.00     0.049 A 
ATOM     51  H   UNL     1       5.249   4.518   8.567  1.00  0.00     0.167 HD
ATOM     52  C   UNL     1       2.736   1.581  10.840  1.00  0.00     0.034 A 
ATOM     53  C   UNL     1       7.551   5.989   8.303  1.00  0.00     0.034 A 
ATOM     54  C   UNL     1       2.061   2.856  10.989  1.00  0.00     0.049 A 
ATOM     55  C   UNL     1       6.789   6.037   9.582  1.00  0.00     0.074 A 
ATOM     56  C   UNL     1       0.896   3.393  10.471  1.00  0.00     0.029 A 
ATOM     57  N   UNL     1       2.796   3.935  11.433  1.00  0.00    -0.354 N 
ATOM     58  N   UNL     1       5.706   6.753   9.737  1.00  0.00    -0.248 NA
ATOM     59  C   UNL     1       6.910   4.909  10.497  1.00  0.00     0.031 C 
ATOM     60  C   UNL     1       1.216   4.752  10.175  1.00  0.00     0.029 A 
ATOM     61  C   UNL     1       2.522   4.998  10.605  1.00  0.00     0.049 A 
ATOM     62  H   UNL     1       3.407   3.943  12.205  1.00  0.00     0.167 HD
ATOM     63  C   UNL     1       4.826   5.939  10.438  1.00  0.00     0.074 A 
ATOM     64  C   UNL     1       5.656   4.853  10.961  1.00  0.00     0.031 C 
ATOM     65  C   UNL     1       3.472   6.049  10.277  1.00  0.00     0.034 A 
BRANCH  52  66
ATOM     66  C   UNL     1       3.442   0.893  11.985  1.00  0.00     0.023 A 
ATOM     67  C   UNL     1       3.045   1.264  13.280  1.00  0.00     0.031 A 
ATOM     68  C   UNL     1       4.638   0.139  11.902  1.00  0.00     0.131 A 
ATOM     69  C   UNL     1       3.865   0.996  14.388  1.00  0.00     0.055 A 
ATOM     70  C   UNL     1       5.412  -0.189  13.017  1.00  0.00     0.041 A 
ATOM     71  F   UNL     1       5.186  -0.246  10.745  1.00  0.00    -0.206 F 
ATOM     72  C   UNL     1       5.046   0.272  14.266  1.00  0.00     0.022 A 
BRANCH  69  73
ATOM     73  S   UNL     1       3.448   1.786  15.959  1.00  0.00     0.124 S 
ATOM     74  O   UNL     1       3.340   3.186  15.562  1.00  0.00    -0.237 OA
ATOM     75  O   UNL     1       2.200   1.116  16.307  1.00  0.00    -0.237 OA
ATOM     76  O   UNL     1       4.590   1.464  16.811  1.00  0.00    -0.744 OA
ENDBRANCH  69  73
ENDBRANCH  52  66
BRANCH  53  77
ATOM     77  C   UNL     1       9.036   6.100   8.206  1.00  0.00     0.023 A 
ATOM     78  C   UNL     1       9.797   6.991   8.993  1.00  0.00     0.031 A 
ATOM     79  C   UNL     1       9.762   5.134   7.468  1.00  0.00     0.131 A 
ATOM     80  C   UNL     1      11.212   6.897   9.011  1.00  0.00     0.055 A 
ATOM     81  C   UNL     1      11.156   5.049   7.487  1.00  0.00     0.041 A 
ATOM     82  F   UNL     1       9.136   4.180   6.762  1.00  0.00    -0.206 F 
ATOM     83  C   UNL     1      11.888   5.927   8.267  1.00  0.00     0.022 A 
BRANCH  80  84
ATOM     84  S   UNL     1      12.204   7.995  10.077  1.00  0.00     0.124 S 
ATOM     85  O   UNL     1      11.999   9.298   9.456  1.00  0.00    -0.237 OA
ATOM     86  O   UNL     1      11.595   7.795  11.387  1.00  0.00    -0.237 OA
ATOM     87  O   UNL     1      13.562   7.462   9.948  1.00  0.00    -0.744 OA
ENDBRANCH  80  84
ENDBRANCH  53  77
BRANCH  65  88
ATOM     88  C   UNL     1       2.932   7.253   9.522  1.00  0.00     0.023 A 
ATOM     89  C   UNL     1       3.259   7.585   8.185  1.00  0.00     0.031 A 
ATOM     90  C   UNL     1       1.944   8.024  10.158  1.00  0.00     0.131 A 
ATOM     91  C   UNL     1       2.613   8.663   7.545  1.00  0.00     0.055 A 
ATOM     92  C   UNL     1       1.292   9.076   9.515  1.00  0.00     0.041 A 
ATOM     93  F   UNL     1       1.565   7.742  11.415  1.00  0.00    -0.206 F 
ATOM     94  C   UNL     1       1.629   9.404   8.207  1.00  0.00     0.022 A 
BRANCH  91  95
ATOM     95  S   UNL     1       3.049   9.132   5.838  1.00  0.00     0.124 S 
ATOM     96  O   UNL     1       4.506   9.186   5.859  1.00  0.00    -0.237 OA
ATOM     97  O   UNL     1       2.462   8.050   5.051  1.00  0.00    -0.237 OA
ATOM     98  O   UNL     1       2.396  10.431   5.663  1.00  0.00    -0.744 OA
ENDBRANCH  91  95
ENDBRANCH  65  88
ENDBRANCH  39  40
ENDBRANCH  32  34
ENDBRANCH  31  32
ENDBRANCH  30  31
ENDBRANCH   1  30
TORSDOF 19
