REMARK SMILES O=C(OCCOC(=O)[C@H]1CCC[C@@H]1C[NH2+][C@@H]1CCOC2(CCC2)C1)c1ccc(-c2c3nc(c(-c4cc(S(=O)(=O)[O-])ccc4F)c4ccc([nH]4)c(-c4cc(S(=O)(=O)[O-])ccc4F)c4nc(c(-c5cc(S(=O)(=O)[O-])ccc5F)c5ccc2[nH]5)C=C4)C=C3)cc1
REMARK SMILES IDX 4 1 3 2 2 3 1 4 25 5 26 6 87 7 27 8 86 9 28 10 29 11 30 12
REMARK SMILES IDX 80 13 31 14 85 15 79 16 81 17 32 18 84 19 78 20 77 21 33 23
REMARK SMILES IDX 65 24 45 25 64 26 46 27 49 28 63 29 82 30 47 31 48 32 62 34
REMARK SMILES IDX 83 35 50 36 34 37 35 38 43 39 36 40 42 41 44 42 41 43 37 44
REMARK SMILES IDX 38 45 39 46 40 47 66 48 67 49 75 50 68 51 74 52 76 53 73 54
REMARK SMILES IDX 69 55 70 56 71 57 72 58 51 59 52 60 60 61 53 62 59 63 61 64
REMARK SMILES IDX 58 65 54 66 55 67 56 68 57 69 5 70 6 71 7 72 8 73 9 74 10 75
REMARK SMILES IDX 13 76 11 77 12 78 14 79 15 80 16 83 17 84 24 85 18 86 20 87
REMARK SMILES IDX 19 88 21 89 23 90 22 91
REMARK H PARENT 81 22 49 33 15 81 15 82
REMARK Flexibility Score: inf
ROOT
ATOM      1  C   UNL     1       5.629   1.457   6.085  1.00  0.00     0.275 C 
ENDROOT
BRANCH   1   2
ATOM      2  O   UNL     1       6.147   0.353   5.338  1.00  0.00    -0.458 OA
BRANCH   2   3
ATOM      3  C   UNL     1       5.627  -0.881   5.154  1.00  0.00     0.338 C 
ATOM      4  O   UNL     1       6.300  -1.684   4.505  1.00  0.00    -0.246 OA
BRANCH   3   5
ATOM      5  C   UNL     1       4.242  -1.300   5.572  1.00  0.00     0.060 A 
ATOM      6  C   UNL     1       3.392  -0.697   6.508  1.00  0.00     0.016 A 
ATOM      7  C   UNL     1       3.732  -2.410   4.889  1.00  0.00     0.016 A 
ATOM      8  C   UNL     1       2.049  -1.111   6.671  1.00  0.00     0.010 A 
ATOM      9  C   UNL     1       2.383  -2.776   5.002  1.00  0.00     0.010 A 
ATOM     10  C   UNL     1       1.504  -2.124   5.882  1.00  0.00    -0.014 A 
BRANCH  10  11
ATOM     11  C   UNL     1       0.084  -2.602   6.017  1.00  0.00     0.031 A 
ATOM     12  C   UNL     1      -0.122  -4.080   6.290  1.00  0.00     0.074 A 
ATOM     13  C   UNL     1      -0.999  -1.796   5.851  1.00  0.00     0.049 A 
ATOM     14  N   UNL     1      -1.230  -4.775   6.326  1.00  0.00    -0.248 NA
ATOM     15  C   UNL     1       1.092  -4.896   6.503  1.00  0.00     0.031 C 
ATOM     16  C   UNL     1      -0.980  -0.358   5.558  1.00  0.00     0.029 A 
ATOM     17  N   UNL     1      -2.353  -2.081   5.871  1.00  0.00    -0.354 N 
ATOM     18  C   UNL     1      -0.830  -6.073   6.623  1.00  0.00     0.074 A 
ATOM     19  C   UNL     1       0.604  -6.122   6.486  1.00  0.00     0.031 C 
ATOM     20  C   UNL     1      -2.240   0.090   5.368  1.00  0.00     0.029 A 
ATOM     21  C   UNL     1      -3.178  -1.012   5.544  1.00  0.00     0.049 A 
ATOM     22  H   UNL     1      -2.704  -2.972   6.099  1.00  0.00     0.167 HD
ATOM     23  C   UNL     1      -1.555  -7.092   7.142  1.00  0.00     0.034 A 
ATOM     24  C   UNL     1      -4.525  -0.956   5.394  1.00  0.00     0.034 A 
ATOM     25  C   UNL     1      -2.977  -7.038   7.311  1.00  0.00     0.049 A 
ATOM     26  C   UNL     1      -5.320  -2.186   5.739  1.00  0.00     0.074 A 
ATOM     27  C   UNL     1      -3.823  -7.975   7.871  1.00  0.00     0.029 A 
ATOM     28  N   UNL     1      -3.764  -5.971   6.905  1.00  0.00    -0.354 N 
ATOM     29  N   UNL     1      -4.906  -3.381   6.081  1.00  0.00    -0.248 NA
ATOM     30  C   UNL     1      -6.779  -2.017   5.737  1.00  0.00     0.031 C 
ATOM     31  C   UNL     1      -5.133  -7.499   7.750  1.00  0.00     0.029 A 
ATOM     32  C   UNL     1      -5.092  -6.238   7.176  1.00  0.00     0.049 A 
ATOM     33  H   UNL     1      -3.427  -5.146   6.486  1.00  0.00     0.167 HD
ATOM     34  C   UNL     1      -6.059  -4.088   6.402  1.00  0.00     0.074 A 
ATOM     35  C   UNL     1      -7.179  -3.200   6.167  1.00  0.00     0.031 C 
ATOM     36  C   UNL     1      -6.183  -5.342   6.902  1.00  0.00     0.034 A 
BRANCH  23  37
ATOM     37  C   UNL     1      -0.772  -8.281   7.639  1.00  0.00     0.023 A 
ATOM     38  C   UNL     1       0.190  -8.116   8.659  1.00  0.00     0.031 A 
ATOM     39  C   UNL     1      -0.893  -9.545   7.046  1.00  0.00     0.131 A 
ATOM     40  C   UNL     1       1.076  -9.156   8.963  1.00  0.00     0.055 A 
ATOM     41  C   UNL     1      -0.069 -10.608   7.426  1.00  0.00     0.041 A 
ATOM     42  F   UNL     1      -1.780  -9.757   6.063  1.00  0.00    -0.206 F 
ATOM     43  C   UNL     1       0.938 -10.411   8.371  1.00  0.00     0.022 A 
BRANCH  40  44
ATOM     44  S   UNL     1       2.516  -8.780  10.001  1.00  0.00     0.124 S 
ATOM     45  O   UNL     1       3.222  -7.798   9.180  1.00  0.00    -0.237 OA
ATOM     46  O   UNL     1       1.905  -8.268  11.221  1.00  0.00    -0.237 OA
ATOM     47  O   UNL     1       3.188 -10.072  10.132  1.00  0.00    -0.744 OA
ENDBRANCH  40  44
ENDBRANCH  23  37
BRANCH  24  48
ATOM     48  C   UNL     1      -5.303   0.214   4.857  1.00  0.00     0.023 A 
ATOM     49  C   UNL     1      -5.837   1.236   5.655  1.00  0.00     0.031 A 
ATOM     50  C   UNL     1      -5.764   0.152   3.525  1.00  0.00     0.131 A 
ATOM     51  C   UNL     1      -6.722   2.177   5.078  1.00  0.00     0.055 A 
ATOM     52  C   UNL     1      -6.511   1.167   2.925  1.00  0.00     0.041 A 
ATOM     53  F   UNL     1      -5.511  -0.940   2.783  1.00  0.00    -0.206 F 
ATOM     54  C   UNL     1      -6.986   2.204   3.705  1.00  0.00     0.022 A 
BRANCH  51  55
ATOM     55  S   UNL     1      -7.736   3.231   6.158  1.00  0.00     0.124 S 
ATOM     56  O   UNL     1      -8.646   2.251   6.739  1.00  0.00    -0.237 OA
ATOM     57  O   UNL     1      -6.744   3.803   7.061  1.00  0.00    -0.237 OA
ATOM     58  O   UNL     1      -8.350   4.181   5.231  1.00  0.00    -0.744 OA
ENDBRANCH  51  55
ENDBRANCH  24  48
BRANCH  36  59
ATOM     59  C   UNL     1      -7.568  -5.760   7.299  1.00  0.00     0.023 A 
ATOM     60  C   UNL     1      -8.582  -5.945   6.348  1.00  0.00     0.031 A 
ATOM     61  C   UNL     1      -7.887  -5.900   8.660  1.00  0.00     0.131 A 
ATOM     62  C   UNL     1      -9.892  -6.184   6.779  1.00  0.00     0.055 A 
ATOM     63  C   UNL     1      -9.175  -6.224   9.077  1.00  0.00     0.041 A 
ATOM     64  F   UNL     1      -6.952  -5.710   9.605  1.00  0.00    -0.206 F 
ATOM     65  C   UNL     1     -10.191  -6.351   8.134  1.00  0.00     0.022 A 
BRANCH  62  66
ATOM     66  S   UNL     1     -11.221  -6.136   5.549  1.00  0.00     0.124 S 
ATOM     67  O   UNL     1     -11.110  -4.772   5.043  1.00  0.00    -0.237 OA
ATOM     68  O   UNL     1     -10.829  -7.193   4.623  1.00  0.00    -0.237 OA
ATOM     69  O   UNL     1     -12.422  -6.413   6.334  1.00  0.00    -0.744 OA
ENDBRANCH  62  66
ENDBRANCH  36  59
ENDBRANCH  10  11
ENDBRANCH   3   5
ENDBRANCH   2   3
ENDBRANCH   1   2
BRANCH   1  70
ATOM     70  C   UNL     1       4.578   2.295   5.355  1.00  0.00     0.274 C 
BRANCH  70  71
ATOM     71  O   UNL     1       3.868   1.601   4.319  1.00  0.00    -0.462 OA
BRANCH  71  72
ATOM     72  C   UNL     1       4.332   1.774   3.048  1.00  0.00     0.309 C 
ATOM     73  O   UNL     1       5.368   2.361   2.772  1.00  0.00    -0.252 OA
BRANCH  72  74
ATOM     74  C   UNL     1       3.408   1.187   1.980  1.00  0.00     0.108 C 
ATOM     75  C   UNL     1       3.655  -0.312   1.744  1.00  0.00     0.016 C 
ATOM     76  C   UNL     1       1.922   1.299   2.331  1.00  0.00     0.058 C 
ATOM     77  C   UNL     1       2.380  -1.034   2.172  1.00  0.00     0.001 C 
ATOM     78  C   UNL     1       1.661  -0.033   3.050  1.00  0.00     0.010 C 
BRANCH  76  79
ATOM     79  C   UNL     1       0.977   1.432   1.120  1.00  0.00     0.265 C 
BRANCH  79  80
ATOM     80  N   UNL     1       1.377   0.952  -0.191  1.00  0.00    -0.343 N 
ATOM     81  H   UNL     1       2.009   0.164  -0.056  1.00  0.00     0.346 HD
ATOM     82  H   UNL     1       1.803   1.752  -0.660  1.00  0.00     0.346 HD
BRANCH  80  83
ATOM     83  C   UNL     1       0.274   0.505  -1.082  1.00  0.00     0.187 C 
ATOM     84  C   UNL     1      -0.359   1.641  -1.904  1.00  0.00     0.093 C 
ATOM     85  C   UNL     1      -0.812  -0.431  -0.488  1.00  0.00     0.100 C 
ATOM     86  C   UNL     1      -1.517   2.311  -1.191  1.00  0.00     0.167 C 
ATOM     87  C   UNL     1      -2.006   0.325   0.109  1.00  0.00     0.074 C 
ATOM     88  O   UNL     1      -2.471   1.318  -0.841  1.00  0.00    -0.375 OA
ATOM     89  C   UNL     1      -3.128  -0.638   0.607  1.00  0.00     0.036 C 
ATOM     90  C   UNL     1      -1.960   0.821   1.597  1.00  0.00     0.036 C 
ATOM     91  C   UNL     1      -3.385   0.376   1.726  1.00  0.00     0.006 C 
ENDBRANCH  80  83
ENDBRANCH  79  80
ENDBRANCH  76  79
ENDBRANCH  72  74
ENDBRANCH  71  72
ENDBRANCH  70  71
ENDBRANCH   1  70
TORSDOF 17
