REMARK SMILES C[C@]([NH3+])(C(=O)N[C@H]1CCCCC[C@@H]1C(=O)OCCOC(=O)c1ccc(-c2c3nc(c(-c4cc(S(=O)(=O)[O-])ccc4F)c4ccc([nH]4)c(-c4cc(S(=O)(=O)[O-])ccc4F)c4nc(c(-c5cc(S(=O)(=O)[O-])ccc5F)c5ccc2[nH]5)C=C4)C=C3)cc1)C(F)(F)F
REMARK SMILES IDX 17 1 16 2 14 3 15 4 13 5 7 6 6 7 4 8 5 9 2 11 1 12 85 13
REMARK SMILES IDX 86 14 87 15 88 16 3 17 8 21 12 23 11 24 10 25 9 26 18 28
REMARK SMILES IDX 19 29 20 30 21 31 22 32 23 33 84 34 24 35 83 36 25 37 26 38
REMARK SMILES IDX 27 39 77 40 28 41 82 42 76 43 78 44 29 45 81 46 75 47 74 48
REMARK SMILES IDX 30 50 62 51 42 52 61 53 43 54 46 55 60 56 79 57 44 58 45 59
REMARK SMILES IDX 59 61 80 62 47 63 31 64 32 65 40 66 33 67 39 68 41 69 38 70
REMARK SMILES IDX 34 71 35 72 36 73 37 74 63 75 64 76 72 77 65 78 71 79 73 80
REMARK SMILES IDX 70 81 66 82 67 83 68 84 69 85 48 86 49 87 57 88 50 89 56 90
REMARK SMILES IDX 58 91 55 92 51 93 52 94 53 95 54 96
REMARK H PARENT 6 10 3 18 3 19 3 20 78 49 46 60
REMARK Flexibility Score: 100.00
ROOT
ATOM      1  C   UNL     1      -1.798   1.912  -0.289  1.00  0.00     0.274 C 
ENDROOT
BRANCH   1   2
ATOM      2  O   UNL     1      -1.970   0.866   0.687  1.00  0.00    -0.462 OA
BRANCH   2   3
ATOM      3  C   UNL     1      -0.819   0.272   1.104  1.00  0.00     0.311 C 
ATOM      4  O   UNL     1       0.286   0.493   0.623  1.00  0.00    -0.252 OA
BRANCH   3   5
ATOM      5  C   UNL     1      -1.040  -0.753   2.206  1.00  0.00     0.121 C 
BRANCH   5   6
ATOM      6  C   UNL     1      -1.153  -2.144   1.559  1.00  0.00     0.096 C 
BRANCH   6   7
ATOM      7  N   UNL     1       0.172  -2.573   1.088  1.00  0.00    -0.347 N 
ATOM      8  C   UNL     1       0.619  -3.145  -0.068  1.00  0.00     0.290 C 
ATOM      9  O   UNL     1       1.827  -3.392  -0.098  1.00  0.00    -0.267 OA
ATOM     10  H   UNL     1       0.887  -2.413   1.745  1.00  0.00     0.164 HD
BRANCH   8  11
ATOM     11  C   UNL     1      -0.298  -3.423  -1.275  1.00  0.00     0.266 C 
ATOM     12  C   UNL     1      -0.784  -2.112  -1.915  1.00  0.00     0.100 C 
BRANCH  11  13
ATOM     13  C   UNL     1       0.578  -4.160  -2.333  1.00  0.00     0.453 C 
ATOM     14  F   UNL     1       1.105  -5.320  -1.886  1.00  0.00    -0.164 F 
ATOM     15  F   UNL     1      -0.216  -4.500  -3.394  1.00  0.00    -0.164 F 
ATOM     16  F   UNL     1       1.567  -3.394  -2.840  1.00  0.00    -0.164 F 
ENDBRANCH  11  13
BRANCH  11  17
ATOM     17  N   UNL     1      -1.496  -4.240  -0.853  1.00  0.00    -0.337 N 
ATOM     18  H   UNL     1      -1.180  -5.111  -0.427  1.00  0.00     0.345 HD
ATOM     19  H   UNL     1      -2.070  -4.449  -1.669  1.00  0.00     0.345 HD
ATOM     20  H   UNL     1      -2.046  -3.711  -0.176  1.00  0.00     0.345 HD
ENDBRANCH  11  17
ENDBRANCH   8  11
ENDBRANCH   6   7
BRANCH   6  21
ATOM     21  C   UNL     1      -1.738  -3.240   2.466  1.00  0.00     0.026 CG0
ATOM     22  G   UNL     1      -1.238  -3.219   3.911  1.00  0.00     0.000 G0
ENDBRANCH   6  21
ENDBRANCH   5   6
BRANCH   5  23
ATOM     23  C   UNL     1      -2.194  -0.372   3.146  1.00  0.00     0.017 C 
BRANCH  23  24
ATOM     24  C   UNL     1      -1.953  -0.833   4.585  1.00  0.00     0.001 C 
BRANCH  24  25
ATOM     25  C   UNL     1      -2.087  -2.334   4.820  1.00  0.00     0.000 C 
BRANCH  25  26
ATOM     26  C   UNL     1      -1.238  -3.219   3.911  1.00  0.00     0.002 CG0
ATOM     27  G   UNL     1      -1.738  -3.240   2.466  1.00  0.00     0.000 G0
ENDBRANCH  25  26
ENDBRANCH  24  25
ENDBRANCH  23  24
ENDBRANCH   5  23
ENDBRANCH   3   5
ENDBRANCH   2   3
ENDBRANCH   1   2
BRANCH   1  28
ATOM     28  C   UNL     1      -1.715   3.289   0.371  1.00  0.00     0.275 C 
BRANCH  28  29
ATOM     29  O   UNL     1      -0.589   3.370   1.262  1.00  0.00    -0.458 OA
BRANCH  29  30
ATOM     30  C   UNL     1      -0.891   3.406   2.581  1.00  0.00     0.338 C 
ATOM     31  O   UNL     1      -1.999   3.397   3.087  1.00  0.00    -0.246 OA
BRANCH  30  32
ATOM     32  C   UNL     1       0.351   3.437   3.366  1.00  0.00     0.060 A 
ATOM     33  C   UNL     1       1.003   2.242   3.677  1.00  0.00     0.016 A 
ATOM     34  C   UNL     1       0.801   4.648   3.889  1.00  0.00     0.016 A 
ATOM     35  C   UNL     1       2.100   2.246   4.539  1.00  0.00     0.010 A 
ATOM     36  C   UNL     1       1.919   4.655   4.726  1.00  0.00     0.010 A 
ATOM     37  C   UNL     1       2.564   3.454   5.073  1.00  0.00    -0.014 A 
BRANCH  37  38
ATOM     38  C   UNL     1       3.681   3.484   6.050  1.00  0.00     0.031 A 
ATOM     39  C   UNL     1       3.392   3.858   7.476  1.00  0.00     0.074 A 
ATOM     40  C   UNL     1       4.942   3.225   5.658  1.00  0.00     0.049 A 
ATOM     41  N   UNL     1       4.216   4.212   8.426  1.00  0.00    -0.248 NA
ATOM     42  C   UNL     1       1.977   3.838   7.878  1.00  0.00     0.031 C 
ATOM     43  C   UNL     1       5.337   2.777   4.322  1.00  0.00     0.029 A 
ATOM     44  N   UNL     1       6.128   3.332   6.340  1.00  0.00    -0.354 N 
ATOM     45  C   UNL     1       3.421   4.489   9.533  1.00  0.00     0.074 A 
ATOM     46  C   UNL     1       2.047   4.271   9.129  1.00  0.00     0.031 C 
ATOM     47  C   UNL     1       6.675   2.677   4.274  1.00  0.00     0.029 A 
ATOM     48  C   UNL     1       7.234   3.123   5.547  1.00  0.00     0.049 A 
ATOM     49  H   UNL     1       6.183   3.538   7.301  1.00  0.00     0.167 HD
ATOM     50  C   UNL     1       3.807   4.895  10.768  1.00  0.00     0.034 A 
ATOM     51  C   UNL     1       8.542   3.330   5.798  1.00  0.00     0.034 A 
ATOM     52  C   UNL     1       5.183   5.107  11.143  1.00  0.00     0.049 A 
ATOM     53  C   UNL     1       8.949   3.860   7.151  1.00  0.00     0.074 A 
ATOM     54  C   UNL     1       5.693   5.558  12.349  1.00  0.00     0.029 A 
ATOM     55  N   UNL     1       6.274   4.878  10.313  1.00  0.00    -0.354 N 
ATOM     56  N   UNL     1       8.188   4.194   8.168  1.00  0.00    -0.248 NA
ATOM     57  C   UNL     1      10.386   4.046   7.391  1.00  0.00     0.031 C 
ATOM     58  C   UNL     1       7.086   5.643  12.233  1.00  0.00     0.029 A 
ATOM     59  C   UNL     1       7.450   5.185  10.977  1.00  0.00     0.049 A 
ATOM     60  H   UNL     1       6.218   4.545   9.389  1.00  0.00     0.167 HD
ATOM     61  C   UNL     1       9.058   4.597   9.177  1.00  0.00     0.074 A 
ATOM     62  C   UNL     1      10.399   4.465   8.648  1.00  0.00     0.031 C 
ATOM     63  C   UNL     1       8.776   5.031  10.431  1.00  0.00     0.034 A 
BRANCH  50  64
ATOM     64  C   UNL     1       2.721   5.192  11.769  1.00  0.00     0.023 A 
ATOM     65  C   UNL     1       1.887   4.183  12.279  1.00  0.00     0.031 A 
ATOM     66  C   UNL     1       2.496   6.513  12.198  1.00  0.00     0.131 A 
ATOM     67  C   UNL     1       0.830   4.517  13.139  1.00  0.00     0.055 A 
ATOM     68  C   UNL     1       1.488   6.830  13.110  1.00  0.00     0.041 A 
ATOM     69  F   UNL     1       3.247   7.521  11.726  1.00  0.00    -0.206 F 
ATOM     70  C   UNL     1       0.639   5.831  13.576  1.00  0.00     0.022 A 
BRANCH  67  71
ATOM     71  S   UNL     1      -0.370   3.232  13.582  1.00  0.00     0.124 S 
ATOM     72  O   UNL     1      -0.908   2.867  12.273  1.00  0.00    -0.237 OA
ATOM     73  O   UNL     1       0.465   2.228  14.231  1.00  0.00    -0.237 OA
ATOM     74  O   UNL     1      -1.309   3.926  14.461  1.00  0.00    -0.744 OA
ENDBRANCH  67  71
ENDBRANCH  50  64
BRANCH  51  75
ATOM     75  C   UNL     1       9.557   3.120   4.726  1.00  0.00     0.023 A 
ATOM     76  C   UNL     1      10.557   2.145   4.851  1.00  0.00     0.031 A 
ATOM     77  C   UNL     1       9.567   3.932   3.577  1.00  0.00     0.131 A 
ATOM     78  C   UNL     1      11.552   2.034   3.866  1.00  0.00     0.055 A 
ATOM     79  C   UNL     1      10.525   3.781   2.574  1.00  0.00     0.041 A 
ATOM     80  F   UNL     1       8.635   4.884   3.409  1.00  0.00    -0.206 F 
ATOM     81  C   UNL     1      11.534   2.836   2.722  1.00  0.00     0.022 A 
BRANCH  78  82
ATOM     82  S   UNL     1      12.931   0.890   4.149  1.00  0.00     0.124 S 
ATOM     83  O   UNL     1      13.445   1.356   5.432  1.00  0.00    -0.237 OA
ATOM     84  O   UNL     1      12.253  -0.402   4.160  1.00  0.00    -0.237 OA
ATOM     85  O   UNL     1      13.807   1.123   3.003  1.00  0.00    -0.744 OA
ENDBRANCH  78  82
ENDBRANCH  51  75
BRANCH  63  86
ATOM     86  C   UNL     1       9.944   5.316  11.337  1.00  0.00     0.023 A 
ATOM     87  C   UNL     1      10.755   6.450  11.170  1.00  0.00     0.031 A 
ATOM     88  C   UNL     1      10.232   4.438  12.397  1.00  0.00     0.131 A 
ATOM     89  C   UNL     1      11.841   6.660  12.034  1.00  0.00     0.055 A 
ATOM     90  C   UNL     1      11.287   4.674  13.277  1.00  0.00     0.041 A 
ATOM     91  F   UNL     1       9.483   3.342  12.597  1.00  0.00    -0.206 F 
ATOM     92  C   UNL     1      12.103   5.787  13.094  1.00  0.00     0.022 A 
BRANCH  89  93
ATOM     93  S   UNL     1      12.936   8.075  11.736  1.00  0.00     0.124 S 
ATOM     94  O   UNL     1      13.500   7.753  10.430  1.00  0.00    -0.237 OA
ATOM     95  O   UNL     1      12.009   9.203  11.770  1.00  0.00    -0.237 OA
ATOM     96  O   UNL     1      13.880   8.020  12.851  1.00  0.00    -0.744 OA
ENDBRANCH  89  93
ENDBRANCH  63  86
ENDBRANCH  37  38
ENDBRANCH  30  32
ENDBRANCH  29  30
ENDBRANCH  28  29
ENDBRANCH   1  28
TORSDOF 18
