REMARK SMILES CC(C)n1c2c(c3ccccc31)[C@@H](c1ccccc1)N(CC(=O)OCCOC(=O)c1ccc(-c3c4nc(c(-c5cc(S(=O)(=O)[O-])ccc5F)c5ccc([nH]5)c(-c5cc(S(=O)(=O)[O-])ccc5F)c5nc(c(-c6cc(S(=O)(=O)[O-])ccc6F)c6ccc3[nH]6)C=C5)C=C4)cc1)C2=O
REMARK SMILES IDX 26 1 25 2 24 3 22 4 23 5 21 6 20 7 4 8 5 9 12 10 6 11 93 12
REMARK SMILES IDX 7 13 11 14 13 15 94 16 8 17 10 18 9 19 2 20 1 21 3 22 14 23
REMARK SMILES IDX 15 24 19 25 16 26 18 27 17 28 27 29 28 30 29 31 30 32 31 33
REMARK SMILES IDX 92 34 32 35 91 36 33 37 34 38 35 39 85 40 36 41 90 42 84 43
REMARK SMILES IDX 86 44 37 45 89 46 83 47 82 48 38 50 70 51 50 52 69 53 51 54
REMARK SMILES IDX 54 55 68 56 87 57 52 58 53 59 67 61 88 62 55 63 39 64 40 65
REMARK SMILES IDX 48 66 41 67 47 68 49 69 46 70 42 71 43 72 44 73 45 74 71 75
REMARK SMILES IDX 72 76 80 77 73 78 79 79 81 80 78 81 74 82 75 83 76 84 77 85
REMARK SMILES IDX 56 86 57 87 65 88 58 89 64 90 66 91 63 92 59 93 60 94 61 95
REMARK SMILES IDX 62 96
REMARK H PARENT 86 49 54 60
REMARK Flexibility Score: inf
ROOT
ATOM      1  C   UNL     1      -6.086  -1.006   3.695  1.00  0.00     0.275 C 
ENDROOT
BRANCH   1   2
ATOM      2  C   UNL     1      -4.659  -1.563   3.596  1.00  0.00     0.274 C 
BRANCH   2   3
ATOM      3  O   UNL     1      -4.190  -1.584   2.220  1.00  0.00    -0.461 OA
BRANCH   3   4
ATOM      4  C   UNL     1      -3.693  -2.773   1.768  1.00  0.00     0.325 C 
ATOM      5  O   UNL     1      -3.683  -3.803   2.437  1.00  0.00    -0.250 OA
BRANCH   4   6
ATOM      6  C   UNL     1      -3.210  -2.751   0.303  1.00  0.00     0.243 C 
BRANCH   6   7
ATOM      7  N   UNL     1      -3.034  -1.499  -0.411  1.00  0.00    -0.315 N 
ATOM      8  N   UNL     1      -1.152   1.518  -0.567  1.00  0.00    -0.334 N 
ATOM      9  C   UNL     1      -1.911   0.399  -0.597  1.00  0.00     0.114 A 
ATOM     10  C   UNL     1      -2.026   2.612  -0.539  1.00  0.00     0.049 A 
ATOM     11  C   UNL     1      -3.240   0.725  -0.676  1.00  0.00     0.018 A 
ATOM     12  C   UNL     1      -1.738  -1.001  -0.469  1.00  0.00     0.272 C 
ATOM     13  C   UNL     1      -3.348   2.121  -0.584  1.00  0.00     0.006 A 
ATOM     14  C   UNL     1      -1.768   3.991  -0.481  1.00  0.00     0.027 A 
ATOM     15  C   UNL     1      -4.096  -0.499  -0.758  1.00  0.00     0.150 C 
ATOM     16  O   UNL     1      -0.711  -1.635  -0.287  1.00  0.00    -0.267 OA
ATOM     17  C   UNL     1      -4.425   3.025  -0.548  1.00  0.00     0.011 A 
ATOM     18  C   UNL     1      -2.856   4.869  -0.446  1.00  0.00     0.002 A 
ATOM     19  C   UNL     1      -4.165   4.396  -0.474  1.00  0.00     0.001 A 
BRANCH   8  20
ATOM     20  C   UNL     1       0.307   1.615  -0.591  1.00  0.00     0.082 C 
ATOM     21  C   UNL     1       1.081   0.476   0.079  1.00  0.00     0.031 C 
ATOM     22  C   UNL     1       0.801   1.802  -2.026  1.00  0.00     0.031 C 
ENDBRANCH   8  20
BRANCH  15  23
ATOM     23  C   UNL     1      -4.665  -0.593  -2.195  1.00  0.00    -0.021 A 
ATOM     24  C   UNL     1      -5.651  -1.545  -2.516  1.00  0.00     0.006 A 
ATOM     25  C   UNL     1      -4.313   0.261  -3.260  1.00  0.00     0.006 A 
ATOM     26  C   UNL     1      -6.262  -1.643  -3.774  1.00  0.00     0.000 A 
ATOM     27  C   UNL     1      -4.920   0.175  -4.526  1.00  0.00     0.000 A 
ATOM     28  C   UNL     1      -5.896  -0.777  -4.785  1.00  0.00     0.000 A 
ENDBRANCH  15  23
ENDBRANCH   6   7
ENDBRANCH   4   6
ENDBRANCH   3   4
ENDBRANCH   2   3
ENDBRANCH   1   2
BRANCH   1  29
ATOM     29  O   UNL     1      -7.014  -2.021   3.277  1.00  0.00    -0.458 OA
BRANCH  29  30
ATOM     30  C   UNL     1      -7.483  -1.883   2.016  1.00  0.00     0.338 C 
ATOM     31  O   UNL     1      -7.590  -0.847   1.380  1.00  0.00    -0.246 OA
BRANCH  30  32
ATOM     32  C   UNL     1      -7.351  -3.215   1.407  1.00  0.00     0.060 A 
ATOM     33  C   UNL     1      -7.919  -4.385   1.880  1.00  0.00     0.016 A 
ATOM     34  C   UNL     1      -6.423  -3.268   0.377  1.00  0.00     0.016 A 
ATOM     35  C   UNL     1      -7.452  -5.601   1.367  1.00  0.00     0.010 A 
ATOM     36  C   UNL     1      -5.990  -4.466  -0.168  1.00  0.00     0.010 A 
ATOM     37  C   UNL     1      -6.431  -5.641   0.393  1.00  0.00    -0.014 A 
BRANCH  37  38
ATOM     38  C   UNL     1      -6.027  -6.902  -0.219  1.00  0.00     0.031 A 
ATOM     39  C   UNL     1      -7.113  -7.452  -1.052  1.00  0.00     0.074 A 
ATOM     40  C   UNL     1      -4.843  -7.549  -0.201  1.00  0.00     0.049 A 
ATOM     41  N   UNL     1      -8.028  -8.249  -0.625  1.00  0.00    -0.248 NA
ATOM     42  C   UNL     1      -7.355  -6.902  -2.389  1.00  0.00     0.031 C 
ATOM     43  C   UNL     1      -3.514  -7.106   0.222  1.00  0.00     0.029 A 
ATOM     44  N   UNL     1      -4.616  -8.837  -0.606  1.00  0.00    -0.354 N 
ATOM     45  C   UNL     1      -8.864  -8.481  -1.700  1.00  0.00     0.074 A 
ATOM     46  C   UNL     1      -8.517  -7.490  -2.691  1.00  0.00     0.031 C 
ATOM     47  C   UNL     1      -2.595  -8.054  -0.108  1.00  0.00     0.029 A 
ATOM     48  C   UNL     1      -3.287  -9.237  -0.599  1.00  0.00     0.049 A 
ATOM     49  H   UNL     1      -5.345  -9.437  -0.883  1.00  0.00     0.167 HD
ATOM     50  C   UNL     1      -9.633  -9.604  -1.737  1.00  0.00     0.034 A 
ATOM     51  C   UNL     1      -2.805 -10.463  -0.941  1.00  0.00     0.034 A 
ATOM     52  C   UNL     1      -9.594 -10.295  -0.468  1.00  0.00     0.049 A 
ATOM     53  C   UNL     1      -3.912 -11.443  -0.816  1.00  0.00     0.074 A 
ATOM     54  C   UNL     1      -9.973  -9.977   0.822  1.00  0.00     0.029 A 
ATOM     55  N   UNL     1      -8.706 -11.340  -0.353  1.00  0.00    -0.354 N 
ATOM     56  N   UNL     1      -4.417 -11.831   0.319  1.00  0.00    -0.248 NA
ATOM     57  C   UNL     1      -4.744 -11.677  -1.984  1.00  0.00     0.031 C 
ATOM     58  C   UNL     1      -8.959 -10.530   1.656  1.00  0.00     0.029 A 
ATOM     59  C   UNL     1      -8.050 -11.215   0.845  1.00  0.00     0.049 A 
ATOM     60  H   UNL     1      -8.566 -12.054  -1.017  1.00  0.00     0.167 HD
ATOM     61  C   UNL     1      -5.780 -11.889   0.082  1.00  0.00     0.074 A 
ATOM     62  C   UNL     1      -5.911 -11.896  -1.374  1.00  0.00     0.031 C 
ATOM     63  C   UNL     1      -6.681 -11.640   1.077  1.00  0.00     0.034 A 
BRANCH  50  64
ATOM     64  C   UNL     1     -10.125 -10.255  -2.998  1.00  0.00     0.023 A 
ATOM     65  C   UNL     1      -9.660  -9.905  -4.277  1.00  0.00     0.031 A 
ATOM     66  C   UNL     1     -10.933 -11.407  -2.927  1.00  0.00     0.131 A 
ATOM     67  C   UNL     1      -9.992 -10.657  -5.409  1.00  0.00     0.055 A 
ATOM     68  C   UNL     1     -11.208 -12.200  -4.046  1.00  0.00     0.041 A 
ATOM     69  F   UNL     1     -11.433 -11.830  -1.755  1.00  0.00    -0.206 F 
ATOM     70  C   UNL     1     -10.736 -11.827  -5.297  1.00  0.00     0.022 A 
BRANCH  67  71
ATOM     71  S   UNL     1      -9.441 -10.127  -7.053  1.00  0.00     0.124 S 
ATOM     72  O   UNL     1      -8.675 -11.284  -7.502  1.00  0.00    -0.237 OA
ATOM     73  O   UNL     1     -10.716  -9.907  -7.732  1.00  0.00    -0.237 OA
ATOM     74  O   UNL     1      -8.670  -8.917  -6.781  1.00  0.00    -0.744 OA
ENDBRANCH  67  71
ENDBRANCH  50  64
BRANCH  51  75
ATOM     75  C   UNL     1      -1.629 -10.789  -1.787  1.00  0.00     0.023 A 
ATOM     76  C   UNL     1      -1.239  -9.886  -2.789  1.00  0.00     0.031 A 
ATOM     77  C   UNL     1      -1.145 -12.110  -1.881  1.00  0.00     0.131 A 
ATOM     78  C   UNL     1      -0.466 -10.325  -3.875  1.00  0.00     0.055 A 
ATOM     79  C   UNL     1      -0.350 -12.538  -2.952  1.00  0.00     0.041 A 
ATOM     80  F   UNL     1      -1.509 -13.036  -0.980  1.00  0.00    -0.206 F 
ATOM     81  C   UNL     1      -0.024 -11.647  -3.968  1.00  0.00     0.022 A 
BRANCH  78  82
ATOM     82  S   UNL     1      -0.120  -9.209  -5.262  1.00  0.00     0.124 S 
ATOM     83  O   UNL     1       1.320  -9.379  -5.442  1.00  0.00    -0.237 OA
ATOM     84  O   UNL     1      -0.956  -9.777  -6.314  1.00  0.00    -0.237 OA
ATOM     85  O   UNL     1      -0.531  -7.902  -4.759  1.00  0.00    -0.744 OA
ENDBRANCH  78  82
ENDBRANCH  51  75
BRANCH  63  86
ATOM     86  C   UNL     1      -6.190 -11.579   2.510  1.00  0.00     0.023 A 
ATOM     87  C   UNL     1      -6.937 -12.290   3.467  1.00  0.00     0.031 A 
ATOM     88  C   UNL     1      -5.177 -10.724   2.989  1.00  0.00     0.131 A 
ATOM     89  C   UNL     1      -6.706 -12.106   4.834  1.00  0.00     0.055 A 
ATOM     90  C   UNL     1      -4.897 -10.602   4.356  1.00  0.00     0.041 A 
ATOM     91  F   UNL     1      -4.484  -9.923   2.169  1.00  0.00    -0.206 F 
ATOM     92  C   UNL     1      -5.676 -11.280   5.287  1.00  0.00     0.022 A 
BRANCH  89  93
ATOM     93  S   UNL     1      -7.846 -12.811   6.051  1.00  0.00     0.124 S 
ATOM     94  O   UNL     1      -6.994 -13.762   6.760  1.00  0.00    -0.237 OA
ATOM     95  O   UNL     1      -8.246 -11.634   6.821  1.00  0.00    -0.237 OA
ATOM     96  O   UNL     1      -8.906 -13.405   5.242  1.00  0.00    -0.744 OA
ENDBRANCH  89  93
ENDBRANCH  63  86
ENDBRANCH  37  38
ENDBRANCH  30  32
ENDBRANCH  29  30
ENDBRANCH   1  29
TORSDOF 17
