REMARK SMILES O=C(OCCOC(=O)[C@@H]1CCCC[C@@H]1C(=O)Nc1cccc(C(F)(F)F)c1)c1ccc(-c2c3nc(c(-c4cc(S(=O)(=O)[O-])ccc4F)c4ccc([nH]4)c(-c4cc(S(=O)(=O)[O-])ccc4F)c4nc(c(-c5cc(S(=O)(=O)[O-])ccc5F)c5ccc2[nH]5)C=C4)C=C3)cc1
REMARK SMILES IDX 4 1 3 2 2 3 1 4 28 5 29 6 90 7 30 8 89 9 31 10 32 11 33 12
REMARK SMILES IDX 83 13 34 14 88 15 82 16 84 17 35 18 87 19 81 20 80 21 36 23
REMARK SMILES IDX 68 24 48 25 67 26 49 27 52 28 66 29 85 30 50 31 51 32 65 34
REMARK SMILES IDX 86 35 53 36 37 37 38 38 46 39 39 40 45 41 47 42 44 43 40 44
REMARK SMILES IDX 41 45 42 46 43 47 69 48 70 49 78 50 71 51 77 52 79 53 76 54
REMARK SMILES IDX 72 55 73 56 74 57 75 58 54 59 55 60 63 61 56 62 62 63 64 64
REMARK SMILES IDX 61 65 57 66 58 67 59 68 60 69 5 70 6 71 7 72 8 73 9 74 10 75
REMARK SMILES IDX 14 76 11 77 13 78 12 79 15 80 16 81 17 82 18 84 19 85 27 86
REMARK SMILES IDX 20 87 22 88 21 89 23 90 24 91 25 92 26 93
REMARK H PARENT 84 22 52 33 17 83
REMARK Flexibility Score: inf
ROOT
ATOM      1  C   UNL     1       3.931   1.141  -1.325  1.00  0.00     0.275 C 
ENDROOT
BRANCH   1   2
ATOM      2  O   UNL     1       2.684   0.364  -1.220  1.00  0.00    -0.458 OA
BRANCH   2   3
ATOM      3  C   UNL     1       2.347  -0.895  -0.783  1.00  0.00     0.338 C 
ATOM      4  O   UNL     1       1.306  -1.414  -1.174  1.00  0.00    -0.246 OA
BRANCH   3   5
ATOM      5  C   UNL     1       3.067  -1.589   0.336  1.00  0.00     0.060 A 
ATOM      6  C   UNL     1       4.550  -0.841   0.846  1.00  0.00     0.016 A 
ATOM      7  C   UNL     1       2.314  -2.866   1.387  1.00  0.00     0.016 A 
ATOM      8  C   UNL     1       5.358  -1.199   2.279  1.00  0.00     0.010 A 
ATOM      9  C   UNL     1       3.134  -3.218   3.012  1.00  0.00     0.010 A 
ATOM     10  C   UNL     1       4.780  -2.397   3.386  1.00  0.00    -0.014 A 
BRANCH  10  11
ATOM     11  C   UNL     1       6.185  -2.848   3.948  1.00  0.00     0.031 A 
ATOM     12  C   UNL     1       7.212  -3.916   3.371  1.00  0.00     0.074 A 
ATOM     13  C   UNL     1       6.652  -2.116   4.963  1.00  0.00     0.049 A 
ATOM     14  N   UNL     1       7.958  -4.741   4.093  1.00  0.00    -0.248 NA
ATOM     15  C   UNL     1       7.258  -4.264   1.947  1.00  0.00     0.031 C 
ATOM     16  C   UNL     1       6.129  -0.820   5.338  1.00  0.00     0.029 A 
ATOM     17  N   UNL     1       7.594  -2.387   5.908  1.00  0.00    -0.354 N 
ATOM     18  C   UNL     1       8.181  -5.879   3.296  1.00  0.00     0.074 A 
ATOM     19  C   UNL     1       7.693  -5.524   1.981  1.00  0.00     0.031 C 
ATOM     20  C   UNL     1       6.605  -0.464   6.528  1.00  0.00     0.029 A 
ATOM     21  C   UNL     1       7.421  -1.564   6.997  1.00  0.00     0.049 A 
ATOM     22  H   UNL     1       8.296  -3.072   5.824  1.00  0.00     0.167 HD
ATOM     23  C   UNL     1       8.631  -7.107   3.701  1.00  0.00     0.034 A 
ATOM     24  C   UNL     1       7.764  -1.740   8.277  1.00  0.00     0.034 A 
ATOM     25  C   UNL     1       9.175  -7.314   5.032  1.00  0.00     0.049 A 
ATOM     26  C   UNL     1       8.518  -2.975   8.624  1.00  0.00     0.074 A 
ATOM     27  C   UNL     1       9.877  -8.399   5.536  1.00  0.00     0.029 A 
ATOM     28  N   UNL     1       9.110  -6.381   6.061  1.00  0.00    -0.354 N 
ATOM     29  N   UNL     1       8.703  -4.056   7.901  1.00  0.00    -0.248 NA
ATOM     30  C   UNL     1       9.159  -2.985   9.934  1.00  0.00     0.031 C 
ATOM     31  C   UNL     1      10.216  -8.128   6.867  1.00  0.00     0.029 A 
ATOM     32  C   UNL     1       9.792  -6.845   7.173  1.00  0.00     0.049 A 
ATOM     33  H   UNL     1       8.646  -5.515   6.007  1.00  0.00     0.167 HD
ATOM     34  C   UNL     1       9.541  -4.861   8.658  1.00  0.00     0.074 A 
ATOM     35  C   UNL     1       9.824  -4.126   9.878  1.00  0.00     0.031 C 
ATOM     36  C   UNL     1      10.044  -6.088   8.373  1.00  0.00     0.034 A 
BRANCH  23  37
ATOM     37  C   UNL     1       8.582  -8.313   2.757  1.00  0.00     0.023 A 
ATOM     38  C   UNL     1       9.096  -8.249   1.456  1.00  0.00     0.031 A 
ATOM     39  C   UNL     1       8.050  -9.565   3.154  1.00  0.00     0.131 A 
ATOM     40  C   UNL     1       8.956  -9.332   0.570  1.00  0.00     0.055 A 
ATOM     41  C   UNL     1       8.031 -10.686   2.306  1.00  0.00     0.041 A 
ATOM     42  F   UNL     1       7.533  -9.739   4.382  1.00  0.00    -0.206 F 
ATOM     43  C   UNL     1       8.463 -10.565   0.992  1.00  0.00     0.022 A 
BRANCH  40  44
ATOM     44  S   UNL     1       9.275  -9.025  -1.187  1.00  0.00     0.124 S 
ATOM     45  O   UNL     1       8.223  -8.060  -1.500  1.00  0.00    -0.237 OA
ATOM     46  O   UNL     1      10.635  -8.498  -1.173  1.00  0.00    -0.237 OA
ATOM     47  O   UNL     1       9.117 -10.340  -1.803  1.00  0.00    -0.744 OA
ENDBRANCH  40  44
ENDBRANCH  23  37
BRANCH  24  48
ATOM     48  C   UNL     1       7.407  -0.709   9.272  1.00  0.00     0.023 A 
ATOM     49  C   UNL     1       8.416   0.105   9.790  1.00  0.00     0.031 A 
ATOM     50  C   UNL     1       6.082  -0.480   9.680  1.00  0.00     0.131 A 
ATOM     51  C   UNL     1       8.105   1.067  10.752  1.00  0.00     0.055 A 
ATOM     52  C   UNL     1       5.765   0.526  10.593  1.00  0.00     0.041 A 
ATOM     53  F   UNL     1       5.074  -1.204   9.164  1.00  0.00    -0.206 F 
ATOM     54  C   UNL     1       6.786   1.294  11.151  1.00  0.00     0.022 A 
BRANCH  51  55
ATOM     55  S   UNL     1       9.481   1.935  11.537  1.00  0.00     0.124 S 
ATOM     56  O   UNL     1      10.297   0.824  12.013  1.00  0.00    -0.237 OA
ATOM     57  O   UNL     1      10.029   2.698  10.419  1.00  0.00    -0.237 OA
ATOM     58  O   UNL     1       8.831   2.728  12.576  1.00  0.00    -0.744 OA
ENDBRANCH  51  55
ENDBRANCH  24  48
BRANCH  36  59
ATOM     59  C   UNL     1      11.004  -6.654   9.382  1.00  0.00     0.023 A 
ATOM     60  C   UNL     1      10.595  -6.957  10.689  1.00  0.00     0.031 A 
ATOM     61  C   UNL     1      12.360  -6.811   9.050  1.00  0.00     0.131 A 
ATOM     62  C   UNL     1      11.554  -7.297  11.649  1.00  0.00     0.055 A 
ATOM     63  C   UNL     1      13.294  -7.245   9.988  1.00  0.00     0.041 A 
ATOM     64  F   UNL     1      12.800  -6.521   7.814  1.00  0.00    -0.206 F 
ATOM     65  C   UNL     1      12.897  -7.467  11.303  1.00  0.00     0.022 A 
BRANCH  62  66
ATOM     66  S   UNL     1      11.041  -7.335  13.386  1.00  0.00     0.124 S 
ATOM     67  O   UNL     1      10.525  -5.982  13.574  1.00  0.00    -0.237 OA
ATOM     68  O   UNL     1      10.045  -8.402  13.393  1.00  0.00    -0.237 OA
ATOM     69  O   UNL     1      12.280  -7.634  14.101  1.00  0.00    -0.744 OA
ENDBRANCH  62  66
ENDBRANCH  36  59
ENDBRANCH  10  11
ENDBRANCH   3   5
ENDBRANCH   2   3
ENDBRANCH   1   2
BRANCH   1  70
ATOM     70  C   UNL     1       4.165   2.236  -0.242  1.00  0.00     0.274 C 
BRANCH  70  71
ATOM     71  O   UNL     1       4.212   1.728   1.098  1.00  0.00    -0.462 OA
BRANCH  71  72
ATOM     72  C   UNL     1       2.997   1.389   1.581  1.00  0.00     0.309 C 
ATOM     73  O   UNL     1       1.937   1.799   1.118  1.00  0.00    -0.252 OA
BRANCH  72  74
ATOM     74  C   UNL     1       3.075   0.409   2.748  1.00  0.00     0.111 C 
ATOM     75  C   UNL     1       3.414   1.074   4.097  1.00  0.00     0.016 C 
ATOM     76  C   UNL     1       3.162  -1.328   2.537  1.00  0.00     0.093 C 
ATOM     77  C   UNL     1       2.849   0.407   5.367  1.00  0.00     0.001 C 
ATOM     78  C   UNL     1       2.075  -1.516   4.032  1.00  0.00     0.014 C 
ATOM     79  C   UNL     1       2.724  -1.100   5.331  1.00  0.00     0.001 C 
BRANCH  76  80
ATOM     80  C   UNL     1       4.311  -2.935   1.524  1.00  0.00     0.228 C 
ATOM     81  O   UNL     1       4.880  -3.008   0.392  1.00  0.00    -0.274 OA
ATOM     82  N   UNL     1       4.524  -4.567   2.074  1.00  0.00    -0.326 N 
ATOM     83  H   UNL     1       4.911  -5.135   1.369  1.00  0.00     0.169 HD
BRANCH  82  84
ATOM     84  C   UNL     1       4.263  -5.398   3.410  1.00  0.00     0.041 A 
ATOM     85  C   UNL     1       4.984  -5.276   4.623  1.00  0.00     0.026 A 
ATOM     86  C   UNL     1       3.045  -6.059   3.611  1.00  0.00     0.039 A 
ATOM     87  C   UNL     1       4.530  -5.487   5.930  1.00  0.00     0.003 A 
ATOM     88  C   UNL     1       2.512  -6.229   4.945  1.00  0.00     0.058 A 
ATOM     89  C   UNL     1       3.257  -5.924   6.096  1.00  0.00     0.013 A 
BRANCH  88  90
ATOM     90  C   UNL     1       1.079  -6.606   5.181  1.00  0.00     0.416 C 
ATOM     91  F   UNL     1       0.907  -7.937   5.388  1.00  0.00    -0.166 F 
ATOM     92  F   UNL     1       0.547  -5.986   6.279  1.00  0.00    -0.166 F 
ATOM     93  F   UNL     1       0.266  -6.259   4.148  1.00  0.00    -0.166 F 
ENDBRANCH  88  90
ENDBRANCH  82  84
ENDBRANCH  76  80
ENDBRANCH  72  74
ENDBRANCH  71  72
ENDBRANCH  70  71
ENDBRANCH   1  70
TORSDOF 17
