REMARK SMILES COC(=O)c1ccccc1-c1ccc(/C=C(\C#N)C(=O)OCCOC(=O)c2ccc(-c3c4nc(c(-c5cc(S(=O)(=O)[O-])ccc5F)c5ccc([nH]5)c(-c5cc(S(=O)(=O)[O-])ccc5F)c5nc(c(-c6cc(S(=O)(=O)[O-])ccc6F)c6ccc3[nH]6)C=C5)C=C4)cc2)o1
REMARK SMILES IDX 22 1 21 2 19 3 20 4 16 5 15 6 14 7 11 8 12 9 90 10 13 11
REMARK SMILES IDX 10 12 5 13 6 14 7 15 9 16 8 17 3 18 4 19 2 20 1 21 17 22
REMARK SMILES IDX 18 23 23 24 24 25 25 26 26 27 27 28 28 29 89 30 29 31 88 32
REMARK SMILES IDX 30 33 31 34 32 35 82 36 33 37 87 38 81 39 83 40 34 41 86 42
REMARK SMILES IDX 80 43 79 44 35 46 67 47 47 48 66 49 48 50 51 51 65 52 84 53
REMARK SMILES IDX 49 54 50 55 64 57 85 58 52 59 36 60 37 61 45 62 38 63 44 64
REMARK SMILES IDX 46 65 43 66 39 67 40 68 41 69 42 70 68 71 69 72 77 73 70 74
REMARK SMILES IDX 76 75 78 76 75 77 71 78 72 79 73 80 74 81 53 82 54 83 62 84
REMARK SMILES IDX 55 85 61 86 63 87 60 88 56 89 57 90 58 91 59 92
REMARK H PARENT 83 45 51 56
REMARK Flexibility Score: inf
ROOT
ATOM      1  C   UNL     1      -5.722  -6.364   0.864  1.00  0.00     0.275 C 
ENDROOT
BRANCH   1   2
ATOM      2  O   UNL     1      -4.804  -5.654   0.003  1.00  0.00    -0.458 OA
BRANCH   2   3
ATOM      3  C   UNL     1      -5.192  -4.412  -0.380  1.00  0.00     0.349 C 
ATOM      4  O   UNL     1      -6.259  -3.890  -0.084  1.00  0.00    -0.245 OA
BRANCH   3   5
ATOM      5  C   UNL     1      -4.140  -3.710  -1.154  1.00  0.00     0.141 C 
ATOM      6  C   UNL     1      -4.051  -2.394  -0.898  1.00  0.00     0.074 C 
BRANCH   6   7
ATOM      7  C   UNL     1      -3.190  -1.447  -1.496  1.00  0.00     0.129 A 
ATOM      8  C   UNL     1      -1.756  -0.517  -2.893  1.00  0.00     0.135 A 
ATOM      9  C   UNL     1      -2.113   0.477  -2.015  1.00  0.00     0.051 A 
ATOM     10  O   UNL     1      -2.415  -1.670  -2.600  1.00  0.00    -0.457 OA
ATOM     11  C   UNL     1      -3.007  -0.123  -1.106  1.00  0.00     0.051 A 
BRANCH   8  12
ATOM     12  C   UNL     1      -0.832  -0.605  -4.004  1.00  0.00     0.032 A 
ATOM     13  C   UNL     1       0.521  -0.241  -3.895  1.00  0.00     0.071 A 
ATOM     14  C   UNL     1       1.351  -0.292  -5.024  1.00  0.00     0.016 A 
ATOM     15  C   UNL     1       0.846  -0.727  -6.251  1.00  0.00     0.001 A 
ATOM     16  C   UNL     1      -1.323  -1.045  -5.244  1.00  0.00     0.013 A 
ATOM     17  C   UNL     1      -0.490  -1.105  -6.361  1.00  0.00     0.001 A 
BRANCH  13  18
ATOM     18  C   UNL     1       1.130   0.240  -2.632  1.00  0.00     0.338 C 
ATOM     19  O   UNL     1       1.873   1.206  -2.584  1.00  0.00    -0.246 OA
BRANCH  18  20
ATOM     20  O   UNL     1       0.775  -0.563  -1.602  1.00  0.00    -0.465 OA
ATOM     21  C   UNL     1       1.159  -0.082  -0.311  1.00  0.00     0.282 C 
ENDBRANCH  18  20
ENDBRANCH  13  18
ENDBRANCH   8  12
ENDBRANCH   6   7
BRANCH   5  22
ATOM     22  C   UNL     1      -3.394  -4.429  -2.120  1.00  0.00     0.107 C 
ATOM     23  N   UNL     1      -2.852  -5.047  -2.940  1.00  0.00    -0.192 NA
ENDBRANCH   5  22
ENDBRANCH   3   5
ENDBRANCH   2   3
ENDBRANCH   1   2
BRANCH   1  24
ATOM     24  C   UNL     1      -5.275  -6.340   2.329  1.00  0.00     0.275 C 
BRANCH  24  25
ATOM     25  O   UNL     1      -5.460  -5.043   2.930  1.00  0.00    -0.458 OA
BRANCH  25  26
ATOM     26  C   UNL     1      -4.367  -4.250   2.887  1.00  0.00     0.338 C 
ATOM     27  O   UNL     1      -3.290  -4.515   2.377  1.00  0.00    -0.246 OA
BRANCH  26  28
ATOM     28  C   UNL     1      -4.663  -2.910   3.408  1.00  0.00     0.060 A 
ATOM     29  C   UNL     1      -5.091  -1.967   2.486  1.00  0.00     0.016 A 
ATOM     30  C   UNL     1      -4.290  -2.512   4.687  1.00  0.00     0.016 A 
ATOM     31  C   UNL     1      -4.962  -0.614   2.756  1.00  0.00     0.010 A 
ATOM     32  C   UNL     1      -4.341  -1.149   5.019  1.00  0.00     0.010 A 
ATOM     33  C   UNL     1      -4.627  -0.175   4.042  1.00  0.00    -0.014 A 
BRANCH  33  34
ATOM     34  C   UNL     1      -4.593   1.289   4.343  1.00  0.00     0.031 A 
ATOM     35  C   UNL     1      -3.376   1.918   4.976  1.00  0.00     0.074 A 
ATOM     36  C   UNL     1      -5.654   2.066   4.030  1.00  0.00     0.049 A 
ATOM     37  N   UNL     1      -3.227   3.124   5.463  1.00  0.00    -0.248 NA
ATOM     38  C   UNL     1      -2.176   1.075   5.093  1.00  0.00     0.031 C 
ATOM     39  C   UNL     1      -6.880   1.605   3.369  1.00  0.00     0.029 A 
ATOM     40  N   UNL     1      -5.878   3.409   4.215  1.00  0.00    -0.354 N 
ATOM     41  C   UNL     1      -1.939   3.169   5.990  1.00  0.00     0.074 A 
ATOM     42  C   UNL     1      -1.360   1.858   5.784  1.00  0.00     0.031 C 
ATOM     43  C   UNL     1      -7.691   2.647   3.152  1.00  0.00     0.029 A 
ATOM     44  C   UNL     1      -7.117   3.826   3.781  1.00  0.00     0.049 A 
ATOM     45  H   UNL     1      -5.215   4.016   4.618  1.00  0.00     0.167 HD
ATOM     46  C   UNL     1      -1.302   4.209   6.587  1.00  0.00     0.034 A 
ATOM     47  C   UNL     1      -7.760   5.001   3.927  1.00  0.00     0.034 A 
ATOM     48  C   UNL     1      -1.891   5.517   6.758  1.00  0.00     0.049 A 
ATOM     49  C   UNL     1      -7.070   6.108   4.676  1.00  0.00     0.074 A 
ATOM     50  C   UNL     1      -1.330   6.644   7.334  1.00  0.00     0.029 A 
ATOM     51  N   UNL     1      -3.172   5.875   6.359  1.00  0.00    -0.354 N 
ATOM     52  N   UNL     1      -5.869   6.120   5.207  1.00  0.00    -0.248 NA
ATOM     53  C   UNL     1      -7.823   7.355   4.854  1.00  0.00     0.031 C 
ATOM     54  C   UNL     1      -2.299   7.651   7.364  1.00  0.00     0.029 A 
ATOM     55  C   UNL     1      -3.432   7.191   6.713  1.00  0.00     0.049 A 
ATOM     56  H   UNL     1      -3.804   5.281   5.892  1.00  0.00     0.167 HD
ATOM     57  C   UNL     1      -5.714   7.388   5.757  1.00  0.00     0.074 A 
ATOM     58  C   UNL     1      -6.934   8.116   5.473  1.00  0.00     0.031 C 
ATOM     59  C   UNL     1      -4.656   7.904   6.433  1.00  0.00     0.034 A 
BRANCH  46  60
ATOM     60  C   UNL     1       0.077   3.958   7.155  1.00  0.00     0.023 A 
ATOM     61  C   UNL     1       1.165   3.594   6.344  1.00  0.00     0.031 A 
ATOM     62  C   UNL     1       0.302   4.069   8.540  1.00  0.00     0.131 A 
ATOM     63  C   UNL     1       2.402   3.280   6.930  1.00  0.00     0.055 A 
ATOM     64  C   UNL     1       1.558   3.846   9.107  1.00  0.00     0.041 A 
ATOM     65  F   UNL     1      -0.702   4.390   9.372  1.00  0.00    -0.206 F 
ATOM     66  C   UNL     1       2.615   3.432   8.302  1.00  0.00     0.022 A 
BRANCH  63  67
ATOM     67  S   UNL     1       3.678   2.513   5.895  1.00  0.00     0.124 S 
ATOM     68  O   UNL     1       2.978   1.332   5.393  1.00  0.00    -0.237 OA
ATOM     69  O   UNL     1       3.956   3.555   4.914  1.00  0.00    -0.237 OA
ATOM     70  O   UNL     1       4.761   2.233   6.836  1.00  0.00    -0.744 OA
ENDBRANCH  63  67
ENDBRANCH  46  60
BRANCH  47  71
ATOM     71  C   UNL     1      -9.156   5.169   3.424  1.00  0.00     0.023 A 
ATOM     72  C   UNL     1      -9.468   6.146   2.468  1.00  0.00     0.031 A 
ATOM     73  C   UNL     1     -10.212   4.384   3.929  1.00  0.00     0.131 A 
ATOM     74  C   UNL     1     -10.802   6.349   2.085  1.00  0.00     0.055 A 
ATOM     75  C   UNL     1     -11.526   4.538   3.487  1.00  0.00     0.041 A 
ATOM     76  F   UNL     1      -9.976   3.437   4.852  1.00  0.00    -0.206 F 
ATOM     77  C   UNL     1     -11.830   5.538   2.571  1.00  0.00     0.022 A 
BRANCH  74  78
ATOM     78  S   UNL     1     -11.191   7.769   1.027  1.00  0.00     0.124 S 
ATOM     79  O   UNL     1     -10.668   8.877   1.818  1.00  0.00    -0.237 OA
ATOM     80  O   UNL     1     -10.457   7.448  -0.193  1.00  0.00    -0.237 OA
ATOM     81  O   UNL     1     -12.646   7.716   0.909  1.00  0.00    -0.744 OA
ENDBRANCH  74  78
ENDBRANCH  47  71
BRANCH  59  82
ATOM     82  C   UNL     1      -4.756   9.348   6.861  1.00  0.00     0.023 A 
ATOM     83  C   UNL     1      -5.707   9.780   7.801  1.00  0.00     0.031 A 
ATOM     84  C   UNL     1      -3.894  10.310   6.304  1.00  0.00     0.131 A 
ATOM     85  C   UNL     1      -5.816  11.144   8.108  1.00  0.00     0.055 A 
ATOM     86  C   UNL     1      -3.956  11.654   6.671  1.00  0.00     0.041 A 
ATOM     87  F   UNL     1      -2.973   9.956   5.393  1.00  0.00    -0.206 F 
ATOM     88  C   UNL     1      -4.931  12.081   7.567  1.00  0.00     0.022 A 
BRANCH  85  89
ATOM     89  S   UNL     1      -7.205  11.696   9.135  1.00  0.00     0.124 S 
ATOM     90  O   UNL     1      -8.354  11.233   8.362  1.00  0.00    -0.237 OA
ATOM     91  O   UNL     1      -6.960  10.998  10.393  1.00  0.00    -0.237 OA
ATOM     92  O   UNL     1      -7.037  13.147   9.188  1.00  0.00    -0.744 OA
ENDBRANCH  85  89
ENDBRANCH  59  82
ENDBRANCH  33  34
ENDBRANCH  26  28
ENDBRANCH  25  26
ENDBRANCH  24  25
ENDBRANCH   1  24
TORSDOF 19
