REMARK SMILES Cc1nn(-c2ccccc2)c(C)c1CNC(=O)[C@@H]1[C@@H](C(=O)OCCOC(=O)c2ccc(-c3c4nc(c(-c5cc(S(=O)(=O)[O-])ccc5F)c5ccc([nH]5)c(-c5cc(S(=O)(=O)[O-])ccc5F)c5nc(c(-c6cc(S(=O)(=O)[O-])ccc6F)c6ccc3[nH]6)C=C5)C=C4)cc2)[C@@H]2C=C[C@H]1C2
REMARK SMILES IDX 23 1 22 2 20 3 21 4 19 5 18 6 94 7 91 8 93 9 95 10 92 11
REMARK SMILES IDX 16 12 15 13 17 15 14 16 13 17 1 18 2 19 3 20 4 21 11 22
REMARK SMILES IDX 12 23 5 24 6 25 10 26 7 27 9 28 8 29 24 30 25 31 26 32 27 33
REMARK SMILES IDX 28 34 29 35 90 36 30 37 89 38 31 39 32 40 33 41 83 42 34 43
REMARK SMILES IDX 88 44 82 45 84 46 35 47 87 48 81 49 80 50 36 52 68 53 48 54
REMARK SMILES IDX 67 55 49 56 52 57 66 58 85 59 50 60 51 61 65 63 86 64 53 65
REMARK SMILES IDX 37 66 38 67 46 68 39 69 45 70 47 71 44 72 40 73 41 74 42 75
REMARK SMILES IDX 43 76 69 77 70 78 78 79 71 80 77 81 79 82 76 83 72 84 73 85
REMARK SMILES IDX 74 86 75 87 54 88 55 89 63 90 56 91 62 92 64 93 61 94 57 95
REMARK SMILES IDX 58 96 59 97 60 98
REMARK H PARENT 15 14 84 51 52 62
REMARK Flexibility Score: inf
ROOT
ATOM      1  C   UNL     1       1.536   8.672   1.518  1.00  0.00     0.274 C 
ENDROOT
BRANCH   1   2
ATOM      2  O   UNL     1       2.576   7.821   0.979  1.00  0.00    -0.462 OA
BRANCH   2   3
ATOM      3  C   UNL     1       3.616   7.539   1.816  1.00  0.00     0.310 C 
ATOM      4  O   UNL     1       3.681   7.937   2.974  1.00  0.00    -0.252 OA
BRANCH   3   5
ATOM      5  C   UNL     1       4.724   6.748   1.121  1.00  0.00     0.119 C 
ATOM      6  C   UNL     1       4.533   5.188   1.100  1.00  0.00     0.100 C 
ATOM      7  C   UNL     1       5.781   4.677   1.874  1.00  0.00     0.025 C 
ATOM      8  C   UNL     1       6.025   6.898   1.963  1.00  0.00     0.027 C 
ATOM      9  C   UNL     1       7.042   5.026   1.112  1.00  0.00    -0.027 C 
ATOM     10  C   UNL     1       5.893   5.741   2.967  1.00  0.00     0.017 C 
ATOM     11  C   UNL     1       7.178   6.359   1.152  1.00  0.00    -0.027 C 
BRANCH   6  12
ATOM     12  C   UNL     1       4.463   4.577  -0.298  1.00  0.00     0.224 C 
ATOM     13  N   UNL     1       3.785   3.411  -0.513  1.00  0.00    -0.352 N 
ATOM     14  H   UNL     1       3.962   2.989  -1.384  1.00  0.00     0.163 HD
ATOM     15  O   UNL     1       5.024   5.097  -1.266  1.00  0.00    -0.275 OA
BRANCH  13  16
ATOM     16  C   UNL     1       2.844   2.689   0.330  1.00  0.00     0.155 C 
BRANCH  16  17
ATOM     17  C   UNL     1       1.448   2.851  -0.196  1.00  0.00     0.016 A 
ATOM     18  C   UNL     1       0.500   0.414   0.152  1.00  0.00     0.069 C 
ATOM     19  C   UNL     1       0.423   1.858  -0.212  1.00  0.00     0.065 A 
ATOM     20  N   UNL     1      -0.759   2.370  -0.569  1.00  0.00    -0.173 NA
ATOM     21  N   UNL     1      -0.519   3.658  -0.868  1.00  0.00    -0.237 N 
ATOM     22  C   UNL     1       0.815   3.991  -0.689  1.00  0.00     0.046 A 
ATOM     23  C   UNL     1       1.323   5.376  -0.852  1.00  0.00     0.067 C 
BRANCH  21  24
ATOM     24  C   UNL     1      -1.595   4.520  -1.215  1.00  0.00     0.065 A 
ATOM     25  C   UNL     1      -2.824   4.365  -0.562  1.00  0.00     0.028 A 
ATOM     26  C   UNL     1      -1.423   5.557  -2.140  1.00  0.00     0.028 A 
ATOM     27  C   UNL     1      -3.838   5.303  -0.767  1.00  0.00     0.002 A 
ATOM     28  C   UNL     1      -2.446   6.479  -2.355  1.00  0.00     0.002 A 
ATOM     29  C   UNL     1      -3.645   6.364  -1.653  1.00  0.00     0.000 A 
ENDBRANCH  21  24
ENDBRANCH  16  17
ENDBRANCH  13  16
ENDBRANCH   6  12
ENDBRANCH   3   5
ENDBRANCH   2   3
ENDBRANCH   1   2
BRANCH   1  30
ATOM     30  C   UNL     1       0.359   7.936   2.172  1.00  0.00     0.275 C 
BRANCH  30  31
ATOM     31  O   UNL     1       0.701   7.260   3.388  1.00  0.00    -0.458 OA
BRANCH  31  32
ATOM     32  C   UNL     1       1.206   6.033   3.148  1.00  0.00     0.338 C 
ATOM     33  O   UNL     1       1.539   5.590   2.063  1.00  0.00    -0.246 OA
BRANCH  32  34
ATOM     34  C   UNL     1       1.188   5.152   4.307  1.00  0.00     0.060 A 
ATOM     35  C   UNL     1       2.117   4.104   4.298  1.00  0.00     0.016 A 
ATOM     36  C   UNL     1       0.052   5.134   5.115  1.00  0.00     0.016 A 
ATOM     37  C   UNL     1       1.817   2.943   4.973  1.00  0.00     0.010 A 
ATOM     38  C   UNL     1      -0.236   3.974   5.807  1.00  0.00     0.010 A 
ATOM     39  C   UNL     1       0.605   2.864   5.662  1.00  0.00    -0.014 A 
BRANCH  39  40
ATOM     40  C   UNL     1       0.273   1.587   6.273  1.00  0.00     0.031 A 
ATOM     41  C   UNL     1       1.145   1.184   7.405  1.00  0.00     0.074 A 
ATOM     42  C   UNL     1      -0.839   0.903   5.942  1.00  0.00     0.049 A 
ATOM     43  N   UNL     1       1.741   0.055   7.604  1.00  0.00    -0.248 NA
ATOM     44  C   UNL     1       1.467   2.218   8.402  1.00  0.00     0.031 C 
ATOM     45  C   UNL     1      -1.911   1.338   5.042  1.00  0.00     0.029 A 
ATOM     46  N   UNL     1      -1.325  -0.253   6.477  1.00  0.00    -0.354 N 
ATOM     47  C   UNL     1       2.351   0.165   8.851  1.00  0.00     0.074 A 
ATOM     48  C   UNL     1       2.276   1.552   9.223  1.00  0.00     0.031 C 
ATOM     49  C   UNL     1      -3.019   0.614   5.306  1.00  0.00     0.029 A 
ATOM     50  C   UNL     1      -2.695  -0.396   6.302  1.00  0.00     0.049 A 
ATOM     51  H   UNL     1      -0.764  -0.916   6.939  1.00  0.00     0.167 HD
ATOM     52  C   UNL     1       2.703  -0.924   9.585  1.00  0.00     0.034 A 
ATOM     53  C   UNL     1      -3.530  -1.191   7.017  1.00  0.00     0.034 A 
ATOM     54  C   UNL     1       2.842  -2.101   8.767  1.00  0.00     0.049 A 
ATOM     55  C   UNL     1      -2.712  -2.241   7.670  1.00  0.00     0.074 A 
ATOM     56  C   UNL     1       3.614  -2.421   7.665  1.00  0.00     0.029 A 
ATOM     57  N   UNL     1       1.879  -3.081   8.835  1.00  0.00    -0.354 N 
ATOM     58  N   UNL     1      -2.080  -3.179   7.022  1.00  0.00    -0.248 NA
ATOM     59  C   UNL     1      -2.241  -2.008   9.029  1.00  0.00     0.031 C 
ATOM     60  C   UNL     1       2.786  -3.256   6.861  1.00  0.00     0.029 A 
ATOM     61  C   UNL     1       1.579  -3.428   7.540  1.00  0.00     0.049 A 
ATOM     62  H   UNL     1       1.482  -3.460   9.652  1.00  0.00     0.167 HD
ATOM     63  C   UNL     1      -0.889  -3.354   7.709  1.00  0.00     0.074 A 
ATOM     64  C   UNL     1      -1.097  -2.697   8.996  1.00  0.00     0.031 C 
ATOM     65  C   UNL     1       0.248  -3.761   7.071  1.00  0.00     0.034 A 
BRANCH  52  66
ATOM     66  C   UNL     1       2.639  -0.975  11.091  1.00  0.00     0.023 A 
ATOM     67  C   UNL     1       3.132  -2.125  11.733  1.00  0.00     0.031 A 
ATOM     68  C   UNL     1       1.881  -0.095  11.899  1.00  0.00     0.131 A 
ATOM     69  C   UNL     1       2.816  -2.392  13.076  1.00  0.00     0.055 A 
ATOM     70  C   UNL     1       1.637  -0.324  13.255  1.00  0.00     0.041 A 
ATOM     71  F   UNL     1       1.252   0.979  11.403  1.00  0.00    -0.206 F 
ATOM     72  C   UNL     1       2.081  -1.493  13.846  1.00  0.00     0.022 A 
BRANCH  69  73
ATOM     73  S   UNL     1       3.210  -4.029  13.743  1.00  0.00     0.124 S 
ATOM     74  O   UNL     1       2.668  -4.909  12.713  1.00  0.00    -0.237 OA
ATOM     75  O   UNL     1       4.664  -3.970  13.840  1.00  0.00    -0.237 OA
ATOM     76  O   UNL     1       2.498  -4.054  15.019  1.00  0.00    -0.744 OA
ENDBRANCH  69  73
ENDBRANCH  52  66
BRANCH  53  77
ATOM     77  C   UNL     1      -4.927  -0.866   7.401  1.00  0.00     0.023 A 
ATOM     78  C   UNL     1      -5.857  -1.858   7.760  1.00  0.00     0.031 A 
ATOM     79  C   UNL     1      -5.317   0.478   7.612  1.00  0.00     0.131 A 
ATOM     80  C   UNL     1      -7.119  -1.491   8.278  1.00  0.00     0.055 A 
ATOM     81  C   UNL     1      -6.574   0.837   8.098  1.00  0.00     0.041 A 
ATOM     82  F   UNL     1      -4.455   1.492   7.429  1.00  0.00    -0.206 F 
ATOM     83  C   UNL     1      -7.483  -0.151   8.438  1.00  0.00     0.022 A 
BRANCH  80  84
ATOM     84  S   UNL     1      -8.270  -2.772   8.864  1.00  0.00     0.124 S 
ATOM     85  O   UNL     1      -8.732  -3.366   7.616  1.00  0.00    -0.237 OA
ATOM     86  O   UNL     1      -7.413  -3.603   9.702  1.00  0.00    -0.237 OA
ATOM     87  O   UNL     1      -9.282  -2.008   9.596  1.00  0.00    -0.744 OA
ENDBRANCH  80  84
ENDBRANCH  53  77
BRANCH  65  88
ATOM     88  C   UNL     1       0.139  -4.330   5.672  1.00  0.00     0.023 A 
ATOM     89  C   UNL     1      -0.450  -3.653   4.582  1.00  0.00     0.031 A 
ATOM     90  C   UNL     1       0.788  -5.551   5.407  1.00  0.00     0.131 A 
ATOM     91  C   UNL     1      -0.386  -4.207   3.291  1.00  0.00     0.055 A 
ATOM     92  C   UNL     1       0.861  -6.089   4.122  1.00  0.00     0.041 A 
ATOM     93  F   UNL     1       1.401  -6.225   6.394  1.00  0.00    -0.206 F 
ATOM     94  C   UNL     1       0.267  -5.421   3.059  1.00  0.00     0.022 A 
BRANCH  91  95
ATOM     95  S   UNL     1      -1.152  -3.362   1.874  1.00  0.00     0.124 S 
ATOM     96  O   UNL     1      -2.371  -2.785   2.427  1.00  0.00    -0.237 OA
ATOM     97  O   UNL     1      -0.110  -2.413   1.489  1.00  0.00    -0.237 OA
ATOM     98  O   UNL     1      -1.368  -4.447   0.915  1.00  0.00    -0.744 OA
ENDBRANCH  91  95
ENDBRANCH  65  88
ENDBRANCH  39  40
ENDBRANCH  32  34
ENDBRANCH  31  32
ENDBRANCH  30  31
ENDBRANCH   1  30
TORSDOF 18
