REMARK SMILES O=C(CCCc1nc(-c2ccc(Cl)c(Cl)c2)c(-c2ccccc2)o1)OCCOC(=O)c1ccc(-c2c3nc(c(-c4cc(S(=O)(=O)[O-])ccc4F)c4ccc([nH]4)c(-c4cc(S(=O)(=O)[O-])ccc4F)c4nc(c(-c5cc(S(=O)(=O)[O-])ccc5F)c5ccc2[nH]5)C=C4)C=C3)cc1
REMARK SMILES IDX 26 1 25 2 2 3 1 4 3 5 4 6 5 7 6 8 7 9 24 10 8 11 17 12 9 13
REMARK SMILES IDX 10 14 16 15 11 16 14 17 12 18 15 19 13 20 18 21 19 22 23 23
REMARK SMILES IDX 20 24 22 25 21 26 27 27 28 28 29 29 30 30 31 31 32 32 93 33
REMARK SMILES IDX 33 34 92 35 34 36 35 37 36 38 86 39 37 40 91 41 85 42 87 43
REMARK SMILES IDX 38 44 90 45 84 46 83 47 39 49 71 50 51 51 70 52 52 53 55 54
REMARK SMILES IDX 69 55 88 56 53 57 54 58 68 60 89 61 56 62 40 63 41 64 49 65
REMARK SMILES IDX 42 66 48 67 50 68 47 69 43 70 44 71 45 72 46 73 72 74 73 75
REMARK SMILES IDX 81 76 74 77 80 78 82 79 79 80 75 81 76 82 77 83 78 84 57 85
REMARK SMILES IDX 58 86 66 87 59 88 65 89 67 90 64 91 60 92 61 93 62 94 63 95
REMARK H PARENT 87 48 55 59
REMARK Flexibility Score: inf
ROOT
ATOM      1  C   UNL     1       3.749  -0.972  -1.244  1.00  0.00     0.274 C 
ENDROOT
BRANCH   1   2
ATOM      2  O   UNL     1       2.596  -0.818  -0.399  1.00  0.00    -0.462 OA
BRANCH   2   3
ATOM      3  C   UNL     1       2.746  -0.336   0.862  1.00  0.00     0.305 C 
ATOM      4  O   UNL     1       2.173  -0.860   1.811  1.00  0.00    -0.252 OA
BRANCH   3   5
ATOM      5  C   UNL     1       3.533   0.950   1.015  1.00  0.00     0.123 C 
BRANCH   5   6
ATOM      6  C   UNL     1       4.599   0.915   2.109  1.00  0.00     0.021 C 
BRANCH   6   7
ATOM      7  C   UNL     1       5.832   0.060   1.808  1.00  0.00     0.098 C 
BRANCH   7   8
ATOM      8  C   UNL     1       6.560   0.376   0.542  1.00  0.00     0.195 A 
ATOM      9  N   UNL     1       7.165  -0.486  -0.258  1.00  0.00    -0.213 NA
ATOM     10  O   UNL     1       6.541   1.667   0.075  1.00  0.00    -0.440 OA
ATOM     11  C   UNL     1       7.585   0.284  -1.310  1.00  0.00     0.117 A 
ATOM     12  C   UNL     1       7.172   1.590  -1.141  1.00  0.00     0.162 A 
BRANCH  11  13
ATOM     13  C   UNL     1       8.337  -0.216  -2.437  1.00  0.00     0.006 A 
ATOM     14  C   UNL     1       7.774  -1.165  -3.296  1.00  0.00     0.012 A 
ATOM     15  C   UNL     1       9.621   0.279  -2.697  1.00  0.00     0.032 A 
ATOM     16  C   UNL     1       8.478  -1.591  -4.426  1.00  0.00     0.023 A 
ATOM     17  C   UNL     1      10.333  -0.160  -3.817  1.00  0.00     0.060 A 
ATOM     18  C   UNL     1       9.757  -1.090  -4.689  1.00  0.00     0.059 A 
ATOM     19  Cl  UNL     1      11.915   0.489  -4.068  1.00  0.00    -0.083 Cl
ATOM     20  Cl  UNL     1      10.568  -1.660  -6.104  1.00  0.00    -0.083 Cl
ENDBRANCH  11  13
BRANCH  12  21
ATOM     21  C   UNL     1       7.244   2.787  -1.959  1.00  0.00     0.020 A 
ATOM     22  C   UNL     1       7.836   3.956  -1.475  1.00  0.00     0.012 A 
ATOM     23  C   UNL     1       6.805   2.748  -3.293  1.00  0.00     0.012 A 
ATOM     24  C   UNL     1       8.022   5.053  -2.322  1.00  0.00     0.001 A 
ATOM     25  C   UNL     1       6.984   3.847  -4.135  1.00  0.00     0.001 A 
ATOM     26  C   UNL     1       7.604   4.995  -3.651  1.00  0.00     0.000 A 
ENDBRANCH  12  21
ENDBRANCH   7   8
ENDBRANCH   6   7
ENDBRANCH   5   6
ENDBRANCH   3   5
ENDBRANCH   2   3
ENDBRANCH   1   2
BRANCH   1  27
ATOM     27  C   UNL     1       3.696  -0.111  -2.508  1.00  0.00     0.275 C 
BRANCH  27  28
ATOM     28  O   UNL     1       3.454   1.268  -2.193  1.00  0.00    -0.458 OA
BRANCH  28  29
ATOM     29  C   UNL     1       2.139   1.615  -2.222  1.00  0.00     0.338 C 
ATOM     30  O   UNL     1       1.231   0.929  -2.653  1.00  0.00    -0.246 OA
BRANCH  29  31
ATOM     31  C   UNL     1       1.918   2.890  -1.497  1.00  0.00     0.060 A 
ATOM     32  C   UNL     1       0.696   3.030  -0.828  1.00  0.00     0.016 A 
ATOM     33  C   UNL     1       2.854   3.930  -1.466  1.00  0.00     0.016 A 
ATOM     34  C   UNL     1       0.383   4.222  -0.178  1.00  0.00     0.010 A 
ATOM     35  C   UNL     1       2.538   5.128  -0.808  1.00  0.00     0.010 A 
ATOM     36  C   UNL     1       1.286   5.293  -0.190  1.00  0.00    -0.014 A 
BRANCH  36  37
ATOM     37  C   UNL     1       0.833   6.610   0.328  1.00  0.00     0.031 A 
ATOM     38  C   UNL     1       0.327   7.643  -0.643  1.00  0.00     0.074 A 
ATOM     39  C   UNL     1       0.783   6.851   1.652  1.00  0.00     0.049 A 
ATOM     40  N   UNL     1      -0.219   8.809  -0.406  1.00  0.00    -0.248 NA
ATOM     41  C   UNL     1       0.447   7.314  -2.072  1.00  0.00     0.031 C 
ATOM     42  C   UNL     1       1.217   5.922   2.695  1.00  0.00     0.029 A 
ATOM     43  N   UNL     1       0.332   7.946   2.346  1.00  0.00    -0.354 N 
ATOM     44  C   UNL     1      -0.532   9.341  -1.652  1.00  0.00     0.074 A 
ATOM     45  C   UNL     1      -0.062   8.396  -2.643  1.00  0.00     0.031 C 
ATOM     46  C   UNL     1       1.006   6.487   3.897  1.00  0.00     0.029 A 
ATOM     47  C   UNL     1       0.440   7.822   3.712  1.00  0.00     0.049 A 
ATOM     48  H   UNL     1      -0.036   8.747   1.906  1.00  0.00     0.167 HD
ATOM     49  C   UNL     1      -1.173  10.500  -1.946  1.00  0.00     0.034 A 
ATOM     50  C   UNL     1       0.122   8.687   4.697  1.00  0.00     0.034 A 
ATOM     51  C   UNL     1      -1.618  11.451  -0.957  1.00  0.00     0.049 A 
ATOM     52  C   UNL     1      -0.509  10.012   4.339  1.00  0.00     0.074 A 
ATOM     53  C   UNL     1      -2.279  12.652  -1.151  1.00  0.00     0.029 A 
ATOM     54  N   UNL     1      -1.435  11.319   0.413  1.00  0.00    -0.354 N 
ATOM     55  N   UNL     1      -0.834  10.483   3.156  1.00  0.00    -0.248 NA
ATOM     56  C   UNL     1      -0.834  10.915   5.452  1.00  0.00     0.031 C 
ATOM     57  C   UNL     1      -2.435  13.276   0.092  1.00  0.00     0.029 A 
ATOM     58  C   UNL     1      -1.938  12.431   1.071  1.00  0.00     0.049 A 
ATOM     59  H   UNL     1      -1.010  10.547   0.854  1.00  0.00     0.167 HD
ATOM     60  C   UNL     1      -1.429  11.721   3.391  1.00  0.00     0.074 A 
ATOM     61  C   UNL     1      -1.438  11.913   4.826  1.00  0.00     0.031 C 
ATOM     62  C   UNL     1      -1.928  12.619   2.503  1.00  0.00     0.034 A 
BRANCH  49  63
ATOM     63  C   UNL     1      -1.395  10.815  -3.404  1.00  0.00     0.023 A 
ATOM     64  C   UNL     1      -2.252  10.037  -4.202  1.00  0.00     0.031 A 
ATOM     65  C   UNL     1      -0.733  11.899  -4.006  1.00  0.00     0.131 A 
ATOM     66  C   UNL     1      -2.380  10.320  -5.571  1.00  0.00     0.055 A 
ATOM     67  C   UNL     1      -0.919  12.217  -5.353  1.00  0.00     0.041 A 
ATOM     68  F   UNL     1       0.115  12.661  -3.297  1.00  0.00    -0.206 F 
ATOM     69  C   UNL     1      -1.738  11.419  -6.146  1.00  0.00     0.022 A 
BRANCH  66  70
ATOM     70  S   UNL     1      -3.306   9.161  -6.615  1.00  0.00     0.124 S 
ATOM     71  O   UNL     1      -2.541   7.929  -6.439  1.00  0.00    -0.237 OA
ATOM     72  O   UNL     1      -4.633   9.182  -6.010  1.00  0.00    -0.237 OA
ATOM     73  O   UNL     1      -3.219   9.755  -7.947  1.00  0.00    -0.744 OA
ENDBRANCH  66  70
ENDBRANCH  49  63
BRANCH  50  74
ATOM     74  C   UNL     1       0.418   8.360   6.123  1.00  0.00     0.023 A 
ATOM     75  C   UNL     1      -0.607   8.256   7.077  1.00  0.00     0.031 A 
ATOM     76  C   UNL     1       1.746   8.240   6.568  1.00  0.00     0.131 A 
ATOM     77  C   UNL     1      -0.285   8.104   8.436  1.00  0.00     0.055 A 
ATOM     78  C   UNL     1       2.059   8.031   7.912  1.00  0.00     0.041 A 
ATOM     79  F   UNL     1       2.765   8.335   5.699  1.00  0.00    -0.206 F 
ATOM     80  C   UNL     1       1.040   7.979   8.858  1.00  0.00     0.022 A 
BRANCH  77  81
ATOM     81  S   UNL     1      -1.622   8.187   9.661  1.00  0.00     0.124 S 
ATOM     82  O   UNL     1      -2.221   9.481   9.359  1.00  0.00    -0.237 OA
ATOM     83  O   UNL     1      -2.419   7.014   9.317  1.00  0.00    -0.237 OA
ATOM     84  O   UNL     1      -0.917   8.107  10.938  1.00  0.00    -0.744 OA
ENDBRANCH  77  81
ENDBRANCH  50  74
BRANCH  62  85
ATOM     85  C   UNL     1      -2.557  13.870   3.070  1.00  0.00     0.023 A 
ATOM     86  C   UNL     1      -1.797  14.834   3.757  1.00  0.00     0.031 A 
ATOM     87  C   UNL     1      -3.940  14.090   2.942  1.00  0.00     0.131 A 
ATOM     88  C   UNL     1      -2.432  15.939   4.344  1.00  0.00     0.055 A 
ATOM     89  C   UNL     1      -4.558  15.222   3.476  1.00  0.00     0.041 A 
ATOM     90  F   UNL     1      -4.716  13.205   2.296  1.00  0.00    -0.206 F 
ATOM     91  C   UNL     1      -3.805  16.146   4.195  1.00  0.00     0.022 A 
BRANCH  88  92
ATOM     92  S   UNL     1      -1.454  17.051   5.392  1.00  0.00     0.124 S 
ATOM     93  O   UNL     1      -0.922  16.135   6.395  1.00  0.00    -0.237 OA
ATOM     94  O   UNL     1      -0.483  17.595   4.447  1.00  0.00    -0.237 OA
ATOM     95  O   UNL     1      -2.439  18.010   5.888  1.00  0.00    -0.744 OA
ENDBRANCH  88  92
ENDBRANCH  62  85
ENDBRANCH  36  37
ENDBRANCH  29  31
ENDBRANCH  28  29
ENDBRANCH  27  28
ENDBRANCH   1  27
TORSDOF 19
