REMARK SMILES O=C(CCN1C(=O)[C@@H]2[C@@H](C1=O)[C@H]1c3ccccc3[C@]2(Br)c2ccccc21)OCCOC(=O)c1ccc(-c2c3nc(c(-c4cc(S(=O)(=O)[O-])ccc4F)c4ccc([nH]4)c(-c4cc(S(=O)(=O)[O-])ccc4F)c4nc(c(-c5cc(S(=O)(=O)[O-])ccc5F)c5ccc2[nH]5)C=C4)C=C3)cc1
REMARK SMILES IDX 29 1 28 2 27 3 2 4 1 5 3 6 4 7 5 8 6 9 10 10 7 11 8 12 9 13
REMARK SMILES IDX 11 14 19 15 12 16 21 17 20 18 18 19 26 20 13 21 22 22 17 23
REMARK SMILES IDX 25 24 14 25 23 26 16 27 24 28 15 29 30 30 31 31 32 32 33 33
REMARK SMILES IDX 34 34 95 35 35 36 94 37 36 38 37 39 38 40 88 41 39 42 93 43
REMARK SMILES IDX 87 44 89 45 40 46 92 47 86 48 85 49 41 51 73 52 53 53 72 54
REMARK SMILES IDX 54 55 57 56 71 57 90 58 55 59 56 60 70 62 91 63 58 64 42 65
REMARK SMILES IDX 43 66 51 67 44 68 50 69 52 70 49 71 45 72 46 73 47 74 48 75
REMARK SMILES IDX 74 76 75 77 83 78 76 79 82 80 84 81 81 82 77 83 78 84 79 85
REMARK SMILES IDX 80 86 59 87 60 88 68 89 61 90 67 91 69 92 66 93 62 94 63 95
REMARK SMILES IDX 64 96 65 97
REMARK H PARENT 89 50 57 61
REMARK Flexibility Score: inf
ROOT
ATOM      1  C   UNL     1       3.729  -1.416  -1.751  1.00  0.00     0.275 C 
ENDROOT
BRANCH   1   2
ATOM      2  C   UNL     1       3.439  -1.283  -0.256  1.00  0.00     0.274 C 
BRANCH   2   3
ATOM      3  O   UNL     1       2.194  -0.645   0.070  1.00  0.00    -0.462 OA
BRANCH   3   4
ATOM      4  C   UNL     1       2.158   0.546   0.727  1.00  0.00     0.307 C 
ATOM      5  O   UNL     1       1.259   0.796   1.524  1.00  0.00    -0.252 OA
BRANCH   4   6
ATOM      6  C   UNL     1       3.168   1.603   0.332  1.00  0.00     0.144 C 
BRANCH   6   7
ATOM      7  C   UNL     1       4.104   2.042   1.442  1.00  0.00     0.140 C 
BRANCH   7   8
ATOM      8  N   UNL     1       5.101   1.042   1.779  1.00  0.00    -0.281 N 
ATOM      9  C   UNL     1       4.977   0.195   2.880  1.00  0.00     0.235 C 
ATOM     10  C   UNL     1       6.232   0.742   1.013  1.00  0.00     0.234 C 
ATOM     11  O   UNL     1       4.003  -0.012   3.565  1.00  0.00    -0.274 OA
ATOM     12  C   UNL     1       6.357  -0.346   3.046  1.00  0.00     0.118 C 
ATOM     13  C   UNL     1       6.673  -0.582   1.560  1.00  0.00     0.105 C 
ATOM     14  O   UNL     1       6.640   1.285   0.005  1.00  0.00    -0.274 OA
ATOM     15  C   UNL     1       6.899  -1.526   3.856  1.00  0.00     0.088 C 
ATOM     16  C   UNL     1       7.974  -1.373   1.409  1.00  0.00     0.063 C 
ATOM     17  C   UNL     1       8.415  -1.124   3.847  1.00  0.00    -0.022 A 
ATOM     18  Br  UNL     1       6.134  -1.585   5.622  1.00  0.00    -0.074 Br
ATOM     19  C   UNL     1       6.810  -2.847   3.064  1.00  0.00    -0.022 A 
ATOM     20  C   UNL     1       8.941  -0.979   2.517  1.00  0.00    -0.035 A 
ATOM     21  C   UNL     1       7.475  -2.792   1.791  1.00  0.00    -0.035 A 
ATOM     22  C   UNL     1       9.207  -0.766   4.932  1.00  0.00     0.006 A 
ATOM     23  C   UNL     1       6.213  -4.041   3.460  1.00  0.00     0.006 A 
ATOM     24  C   UNL     1      10.220  -0.490   2.294  1.00  0.00     0.005 A 
ATOM     25  C   UNL     1       7.579  -3.916   0.978  1.00  0.00     0.005 A 
ATOM     26  C   UNL     1      10.491  -0.266   4.698  1.00  0.00     0.000 A 
ATOM     27  C   UNL     1       6.312  -5.165   2.634  1.00  0.00     0.000 A 
ATOM     28  C   UNL     1      10.991  -0.127   3.395  1.00  0.00     0.000 A 
ATOM     29  C   UNL     1       7.001  -5.108   1.415  1.00  0.00     0.000 A 
ENDBRANCH   7   8
ENDBRANCH   6   7
ENDBRANCH   4   6
ENDBRANCH   3   4
ENDBRANCH   2   3
ENDBRANCH   1   2
BRANCH   1  30
ATOM     30  O   UNL     1       3.606  -0.150  -2.409  1.00  0.00    -0.458 OA
BRANCH  30  31
ATOM     31  C   UNL     1       2.342   0.147  -2.811  1.00  0.00     0.338 C 
ATOM     32  O   UNL     1       1.399  -0.623  -2.857  1.00  0.00    -0.246 OA
BRANCH  31  33
ATOM     33  C   UNL     1       2.233   1.616  -2.936  1.00  0.00     0.060 A 
ATOM     34  C   UNL     1       3.252   2.381  -3.511  1.00  0.00     0.016 A 
ATOM     35  C   UNL     1       1.106   2.239  -2.384  1.00  0.00     0.016 A 
ATOM     36  C   UNL     1       3.130   3.773  -3.552  1.00  0.00     0.010 A 
ATOM     37  C   UNL     1       0.989   3.630  -2.421  1.00  0.00     0.010 A 
ATOM     38  C   UNL     1       1.990   4.406  -3.023  1.00  0.00    -0.014 A 
BRANCH  38  39
ATOM     39  C   UNL     1       1.748   5.846  -3.288  1.00  0.00     0.031 A 
ATOM     40  C   UNL     1       1.919   6.902  -2.240  1.00  0.00     0.074 A 
ATOM     41  C   UNL     1       1.311   6.182  -4.517  1.00  0.00     0.049 A 
ATOM     42  N   UNL     1       1.770   8.197  -2.355  1.00  0.00    -0.248 NA
ATOM     43  C   UNL     1       2.300   6.456  -0.894  1.00  0.00     0.031 C 
ATOM     44  C   UNL     1       1.078   5.226  -5.599  1.00  0.00     0.029 A 
ATOM     45  N   UNL     1       0.977   7.395  -5.060  1.00  0.00    -0.354 N 
ATOM     46  C   UNL     1       2.047   8.729  -1.102  1.00  0.00     0.074 A 
ATOM     47  C   UNL     1       2.338   7.607  -0.232  1.00  0.00     0.031 C 
ATOM     48  C   UNL     1       0.650   5.888  -6.680  1.00  0.00     0.029 A 
ATOM     49  C   UNL     1       0.533   7.309  -6.358  1.00  0.00     0.049 A 
ATOM     50  H   UNL     1       1.047   8.245  -4.569  1.00  0.00     0.167 HD
ATOM     51  C   UNL     1       2.065  10.033  -0.727  1.00  0.00     0.034 A 
ATOM     52  C   UNL     1       0.072   8.257  -7.199  1.00  0.00     0.034 A 
ATOM     53  C   UNL     1       1.750  11.130  -1.614  1.00  0.00     0.049 A 
ATOM     54  C   UNL     1       0.065   9.693  -6.750  1.00  0.00     0.074 A 
ATOM     55  C   UNL     1       1.814  12.487  -1.344  1.00  0.00     0.029 A 
ATOM     56  N   UNL     1       1.292  11.011  -2.920  1.00  0.00    -0.354 N 
ATOM     57  N   UNL     1       0.453  10.196  -5.602  1.00  0.00    -0.248 NA
ATOM     58  C   UNL     1      -0.424  10.694  -7.707  1.00  0.00     0.031 C 
ATOM     59  C   UNL     1       1.305  13.179  -2.442  1.00  0.00     0.029 A 
ATOM     60  C   UNL     1       1.020  12.266  -3.445  1.00  0.00     0.049 A 
ATOM     61  H   UNL     1       1.177  10.160  -3.402  1.00  0.00     0.167 HD
ATOM     62  C   UNL     1       0.277  11.572  -5.706  1.00  0.00     0.074 A 
ATOM     63  C   UNL     1      -0.231  11.825  -7.038  1.00  0.00     0.031 C 
ATOM     64  C   UNL     1       0.516  12.531  -4.776  1.00  0.00     0.034 A 
BRANCH  51  65
ATOM     65  C   UNL     1       2.448  10.384   0.693  1.00  0.00     0.023 A 
ATOM     66  C   UNL     1       1.551  11.102   1.510  1.00  0.00     0.031 A 
ATOM     67  C   UNL     1       3.750  10.163   1.178  1.00  0.00     0.131 A 
ATOM     68  C   UNL     1       1.981  11.610   2.743  1.00  0.00     0.055 A 
ATOM     69  C   UNL     1       4.158  10.629   2.429  1.00  0.00     0.041 A 
ATOM     70  F   UNL     1       4.650   9.497   0.437  1.00  0.00    -0.206 F 
ATOM     71  C   UNL     1       3.276  11.370   3.211  1.00  0.00     0.022 A 
BRANCH  68  72
ATOM     72  S   UNL     1       0.912  12.682   3.744  1.00  0.00     0.124 S 
ATOM     73  O   UNL     1       0.786  11.908   4.977  1.00  0.00    -0.237 OA
ATOM     74  O   UNL     1       1.714  13.898   3.852  1.00  0.00    -0.237 OA
ATOM     75  O   UNL     1      -0.308  12.798   2.955  1.00  0.00    -0.744 OA
ENDBRANCH  68  72
ENDBRANCH  51  65
BRANCH  52  76
ATOM     76  C   UNL     1      -0.348   7.843  -8.568  1.00  0.00     0.023 A 
ATOM     77  C   UNL     1      -1.405   6.930  -8.748  1.00  0.00     0.031 A 
ATOM     78  C   UNL     1       0.403   8.218  -9.693  1.00  0.00     0.131 A 
ATOM     79  C   UNL     1      -1.614   6.350 -10.005  1.00  0.00     0.055 A 
ATOM     80  C   UNL     1       0.137   7.699 -10.960  1.00  0.00     0.041 A 
ATOM     81  F   UNL     1       1.430   9.073  -9.566  1.00  0.00    -0.206 F 
ATOM     82  C   UNL     1      -0.862   6.741 -11.116  1.00  0.00     0.022 A 
BRANCH  79  83
ATOM     83  S   UNL     1      -2.753   4.950 -10.200  1.00  0.00     0.124 S 
ATOM     84  O   UNL     1      -3.660   5.437 -11.235  1.00  0.00    -0.237 OA
ATOM     85  O   UNL     1      -1.841   3.884 -10.610  1.00  0.00    -0.237 OA
ATOM     86  O   UNL     1      -3.337   4.792  -8.873  1.00  0.00    -0.744 OA
ENDBRANCH  79  83
ENDBRANCH  52  76
BRANCH  64  87
ATOM     87  C   UNL     1       0.239  13.977  -5.127  1.00  0.00     0.023 A 
ATOM     88  C   UNL     1       1.283  14.923  -5.086  1.00  0.00     0.031 A 
ATOM     89  C   UNL     1      -1.071  14.447  -5.326  1.00  0.00     0.131 A 
ATOM     90  C   UNL     1       0.993  16.291  -5.178  1.00  0.00     0.055 A 
ATOM     91  C   UNL     1      -1.348  15.807  -5.478  1.00  0.00     0.041 A 
ATOM     92  F   UNL     1      -2.104  13.591  -5.365  1.00  0.00    -0.206 F 
ATOM     93  C   UNL     1      -0.316  16.738  -5.384  1.00  0.00     0.022 A 
BRANCH  90  94
ATOM     94  S   UNL     1       2.283  17.542  -4.929  1.00  0.00     0.124 S 
ATOM     95  O   UNL     1       2.230  18.287  -6.185  1.00  0.00    -0.237 OA
ATOM     96  O   UNL     1       1.791  18.261  -3.757  1.00  0.00    -0.237 OA
ATOM     97  O   UNL     1       3.498  16.760  -4.723  1.00  0.00    -0.744 OA
ENDBRANCH  90  94
ENDBRANCH  64  87
ENDBRANCH  38  39
ENDBRANCH  31  33
ENDBRANCH  30  31
ENDBRANCH   1  30
TORSDOF 16
