REMARK SMILES O=C(OCCOC(=O)[C@@H]1CCn2c(C(=O)c3ccccc3)ccc21)c1ccc(-c2c3nc(c(-c4cc(S(=O)(=O)[O-])ccc4F)c4ccc([nH]4)c(-c4cc(S(=O)(=O)[O-])ccc4F)c4nc(c(-c5cc(S(=O)(=O)[O-])ccc5F)c5ccc2[nH]5)C=C4)C=C3)cc1
REMARK SMILES IDX 4 1 3 2 2 3 1 4 25 5 26 6 87 7 27 8 86 9 28 10 29 11 30 12
REMARK SMILES IDX 80 13 31 14 85 15 79 16 81 17 32 18 84 19 78 20 77 21 33 23
REMARK SMILES IDX 65 24 45 25 64 26 46 27 49 28 63 29 82 30 47 31 48 32 62 34
REMARK SMILES IDX 83 35 50 36 34 37 35 38 43 39 36 40 42 41 44 42 41 43 37 44
REMARK SMILES IDX 38 45 39 46 40 47 66 48 67 49 75 50 68 51 74 52 76 53 73 54
REMARK SMILES IDX 69 55 70 56 71 57 72 58 51 59 52 60 60 61 53 62 59 63 61 64
REMARK SMILES IDX 58 65 54 66 55 67 56 68 57 69 5 70 6 71 7 72 8 73 9 74 10 75
REMARK SMILES IDX 24 76 11 77 12 78 23 79 13 80 22 81 14 82 15 83 16 84 17 85
REMARK SMILES IDX 21 86 18 87 20 88 19 89
REMARK H PARENT 81 22 49 33
REMARK Flexibility Score: inf
ROOT
ATOM      1  C   UNL     1       3.908  -1.148  -1.222  1.00  0.00     0.275 C 
ENDROOT
BRANCH   1   2
ATOM      2  O   UNL     1       3.159  -1.179  -0.004  1.00  0.00    -0.458 OA
BRANCH   2   3
ATOM      3  C   UNL     1       3.266  -0.389   1.088  1.00  0.00     0.338 C 
ATOM      4  O   UNL     1       2.565  -0.653   2.064  1.00  0.00    -0.246 OA
BRANCH   3   5
ATOM      5  C   UNL     1       4.101   0.855   1.130  1.00  0.00     0.060 A 
ATOM      6  C   UNL     1       5.252   1.134   0.384  1.00  0.00     0.016 A 
ATOM      7  C   UNL     1       3.661   1.839   2.020  1.00  0.00     0.016 A 
ATOM      8  C   UNL     1       5.870   2.393   0.434  1.00  0.00     0.010 A 
ATOM      9  C   UNL     1       4.252   3.102   2.046  1.00  0.00     0.010 A 
ATOM     10  C   UNL     1       5.353   3.405   1.239  1.00  0.00    -0.014 A 
BRANCH  10  11
ATOM     11  C   UNL     1       5.996   4.743   1.343  1.00  0.00     0.031 A 
ATOM     12  C   UNL     1       6.474   5.200   2.693  1.00  0.00     0.074 A 
ATOM     13  C   UNL     1       6.081   5.562   0.275  1.00  0.00     0.049 A 
ATOM     14  N   UNL     1       6.919   6.369   3.072  1.00  0.00    -0.248 NA
ATOM     15  C   UNL     1       6.399   4.203   3.772  1.00  0.00     0.031 C 
ATOM     16  C   UNL     1       5.645   5.232  -1.081  1.00  0.00     0.029 A 
ATOM     17  N   UNL     1       6.540   6.851   0.162  1.00  0.00    -0.354 N 
ATOM     18  C   UNL     1       7.140   6.245   4.441  1.00  0.00     0.074 A 
ATOM     19  C   UNL     1       6.640   4.948   4.834  1.00  0.00     0.031 C 
ATOM     20  C   UNL     1       5.831   6.295  -1.882  1.00  0.00     0.029 A 
ATOM     21  C   UNL     1       6.381   7.392  -1.095  1.00  0.00     0.049 A 
ATOM     22  H   UNL     1       6.945   7.345   0.911  1.00  0.00     0.167 HD
ATOM     23  C   UNL     1       7.785   7.093   5.279  1.00  0.00     0.034 A 
ATOM     24  C   UNL     1       6.638   8.635  -1.552  1.00  0.00     0.034 A 
ATOM     25  C   UNL     1       8.297   8.366   4.851  1.00  0.00     0.049 A 
ATOM     26  C   UNL     1       7.258   9.623  -0.587  1.00  0.00     0.074 A 
ATOM     27  C   UNL     1       9.030   9.297   5.561  1.00  0.00     0.029 A 
ATOM     28  N   UNL     1       8.116   8.886   3.573  1.00  0.00    -0.354 N 
ATOM     29  N   UNL     1       7.545   9.464   0.687  1.00  0.00    -0.248 NA
ATOM     30  C   UNL     1       7.618  10.942  -1.120  1.00  0.00     0.031 C 
ATOM     31  C   UNL     1       9.259  10.395   4.722  1.00  0.00     0.029 A 
ATOM     32  C   UNL     1       8.720  10.126   3.472  1.00  0.00     0.049 A 
ATOM     33  H   UNL     1       7.628   8.435   2.845  1.00  0.00     0.167 HD
ATOM     34  C   UNL     1       8.201  10.627   1.081  1.00  0.00     0.074 A 
ATOM     35  C   UNL     1       8.231  11.493  -0.081  1.00  0.00     0.031 C 
ATOM     36  C   UNL     1       8.756  10.945   2.281  1.00  0.00     0.034 A 
BRANCH  23  37
ATOM     37  C   UNL     1       7.968   6.618   6.704  1.00  0.00     0.023 A 
ATOM     38  C   UNL     1       8.623   5.398   6.975  1.00  0.00     0.031 A 
ATOM     39  C   UNL     1       7.367   7.287   7.781  1.00  0.00     0.131 A 
ATOM     40  C   UNL     1       8.509   4.805   8.239  1.00  0.00     0.055 A 
ATOM     41  C   UNL     1       7.362   6.745   9.070  1.00  0.00     0.041 A 
ATOM     42  F   UNL     1       6.728   8.453   7.594  1.00  0.00    -0.206 F 
ATOM     43  C   UNL     1       7.903   5.481   9.298  1.00  0.00     0.022 A 
BRANCH  40  44
ATOM     44  S   UNL     1       8.948   3.050   8.403  1.00  0.00     0.124 S 
ATOM     45  O   UNL     1       8.028   2.425   7.455  1.00  0.00    -0.237 OA
ATOM     46  O   UNL     1      10.356   3.038   8.024  1.00  0.00    -0.237 OA
ATOM     47  O   UNL     1       8.677   2.758   9.809  1.00  0.00    -0.744 OA
ENDBRANCH  40  44
ENDBRANCH  23  37
BRANCH  24  48
ATOM     48  C   UNL     1       6.330   9.022  -2.966  1.00  0.00     0.023 A 
ATOM     49  C   UNL     1       7.345   9.412  -3.854  1.00  0.00     0.031 A 
ATOM     50  C   UNL     1       5.008   9.052  -3.449  1.00  0.00     0.131 A 
ATOM     51  C   UNL     1       7.020   9.884  -5.138  1.00  0.00     0.055 A 
ATOM     52  C   UNL     1       4.687   9.514  -4.728  1.00  0.00     0.041 A 
ATOM     53  F   UNL     1       3.999   8.592  -2.696  1.00  0.00    -0.206 F 
ATOM     54  C   UNL     1       5.696   9.951  -5.576  1.00  0.00     0.022 A 
BRANCH  51  55
ATOM     55  S   UNL     1       8.355  10.455  -6.226  1.00  0.00     0.124 S 
ATOM     56  O   UNL     1       8.991  11.480  -5.403  1.00  0.00    -0.237 OA
ATOM     57  O   UNL     1       9.119   9.226  -6.425  1.00  0.00    -0.237 OA
ATOM     58  O   UNL     1       7.650  10.945  -7.403  1.00  0.00    -0.744 OA
ENDBRANCH  51  55
ENDBRANCH  24  48
BRANCH  36  59
ATOM     59  C   UNL     1       9.541  12.230   2.354  1.00  0.00     0.023 A 
ATOM     60  C   UNL     1       8.923  13.488   2.288  1.00  0.00     0.031 A 
ATOM     61  C   UNL     1      10.938  12.180   2.515  1.00  0.00     0.131 A 
ATOM     62  C   UNL     1       9.708  14.650   2.339  1.00  0.00     0.055 A 
ATOM     63  C   UNL     1      11.706  13.339   2.628  1.00  0.00     0.041 A 
ATOM     64  F   UNL     1      11.577  11.001   2.580  1.00  0.00    -0.206 F 
ATOM     65  C   UNL     1      11.092  14.583   2.530  1.00  0.00     0.022 A 
BRANCH  62  66
ATOM     66  S   UNL     1       8.905  16.253   2.072  1.00  0.00     0.124 S 
ATOM     67  O   UNL     1       8.324  16.082   0.744  1.00  0.00    -0.237 OA
ATOM     68  O   UNL     1       7.956  16.316   3.179  1.00  0.00    -0.237 OA
ATOM     69  O   UNL     1      10.010  17.207   2.148  1.00  0.00    -0.744 OA
ENDBRANCH  62  66
ENDBRANCH  36  59
ENDBRANCH  10  11
ENDBRANCH   3   5
ENDBRANCH   2   3
ENDBRANCH   1   2
BRANCH   1  70
ATOM     70  C   UNL     1       3.420  -0.143  -2.267  1.00  0.00     0.274 C 
BRANCH  70  71
ATOM     71  O   UNL     1       3.066   1.168  -1.789  1.00  0.00    -0.462 OA
BRANCH  71  72
ATOM     72  C   UNL     1       1.732   1.380  -1.590  1.00  0.00     0.315 C 
ATOM     73  O   UNL     1       0.904   0.474  -1.541  1.00  0.00    -0.251 OA
BRANCH  72  74
ATOM     74  C   UNL     1       1.330   2.850  -1.557  1.00  0.00     0.148 C 
ATOM     75  C   UNL     1       2.237   3.827  -2.348  1.00  0.00     0.043 C 
ATOM     76  C   UNL     1       1.304   3.482  -0.211  1.00  0.00     0.033 A 
ATOM     77  C   UNL     1       2.106   5.176  -1.619  1.00  0.00     0.124 C 
ATOM     78  N   UNL     1       1.762   4.775  -0.267  1.00  0.00    -0.341 N 
ATOM     79  C   UNL     1       0.912   3.228   1.074  1.00  0.00     0.025 A 
ATOM     80  C   UNL     1       1.822   5.346   0.967  1.00  0.00     0.090 A 
ATOM     81  C   UNL     1       1.253   4.394   1.818  1.00  0.00     0.032 A 
BRANCH  80  82
ATOM     82  C   UNL     1       2.412   6.611   1.387  1.00  0.00     0.209 C 
ATOM     83  O   UNL     1       2.913   6.737   2.505  1.00  0.00    -0.287 OA
BRANCH  82  84
ATOM     84  C   UNL     1       2.355   7.824   0.528  1.00  0.00     0.024 A 
ATOM     85  C   UNL     1       3.385   8.771   0.609  1.00  0.00     0.012 A 
ATOM     86  C   UNL     1       1.239   8.085  -0.277  1.00  0.00     0.012 A 
ATOM     87  C   UNL     1       3.314   9.950  -0.137  1.00  0.00     0.001 A 
ATOM     88  C   UNL     1       1.179   9.257  -1.035  1.00  0.00     0.001 A 
ATOM     89  C   UNL     1       2.216  10.188  -0.965  1.00  0.00     0.000 A 
ENDBRANCH  82  84
ENDBRANCH  80  82
ENDBRANCH  72  74
ENDBRANCH  71  72
ENDBRANCH  70  71
ENDBRANCH   1  70
TORSDOF 16
