REMARK SMILES CC(=O)OCc1ccc(C(=O)OCCOCCOC(=O)c2ccc(-c3c4nc(c(-c5cc(S(=O)(=O)[O-])ccc5F)c5ccc([nH]5)c(-c5cc(S(=O)(=O)[O-])ccc5F)c5nc(c(-c6cc(S(=O)(=O)[O-])ccc6F)c6ccc3[nH]6)C=C5)C=C4)cc2)o1
REMARK SMILES IDX 15 1 14 2 13 3 12 4 10 5 11 6 9 7 6 8 7 9 84 10 8 11 5 12
REMARK SMILES IDX 4 13 2 14 1 15 3 16 16 17 17 18 18 19 19 20 20 21 21 22
REMARK SMILES IDX 22 23 83 24 23 25 82 26 24 27 25 28 26 29 76 30 27 31 81 32
REMARK SMILES IDX 75 33 77 34 28 35 80 36 74 37 73 38 29 40 61 41 41 42 60 43
REMARK SMILES IDX 42 44 45 45 59 46 78 47 43 48 44 49 58 51 79 52 46 53 30 54
REMARK SMILES IDX 31 55 39 56 32 57 38 58 40 59 37 60 33 61 34 62 35 63 36 64
REMARK SMILES IDX 62 65 63 66 71 67 64 68 70 69 72 70 69 71 65 72 66 73 67 74
REMARK SMILES IDX 68 75 47 76 48 77 56 78 49 79 55 80 57 81 54 82 50 83 51 84
REMARK SMILES IDX 52 85 53 86
REMARK H PARENT 77 39 45 50
REMARK Flexibility Score: inf
ROOT
ATOM      1  O   UNL     1       2.352   0.348   9.708  1.00  0.00    -0.374 OA
ENDROOT
BRANCH   1   2
ATOM      2  C   UNL     1       2.863   1.682   9.630  1.00  0.00     0.202 C 
BRANCH   2   3
ATOM      3  C   UNL     1       3.838   1.901   8.469  1.00  0.00     0.261 C 
BRANCH   3   4
ATOM      4  O   UNL     1       3.104   1.953   7.233  1.00  0.00    -0.457 OA
BRANCH   4   5
ATOM      5  C   UNL     1       3.303   0.921   6.366  1.00  0.00     0.374 C 
ATOM      6  O   UNL     1       4.220   0.112   6.435  1.00  0.00    -0.242 OA
BRANCH   5   7
ATOM      7  C   UNL     1       2.192   0.863   5.443  1.00  0.00     0.211 A 
ATOM      8  C   UNL     1       0.845  -0.169   4.036  1.00  0.00     0.142 A 
ATOM      9  C   UNL     1       0.293   1.075   4.255  1.00  0.00     0.050 A 
ATOM     10  O   UNL     1       2.004  -0.296   4.739  1.00  0.00    -0.450 OA
ATOM     11  C   UNL     1       1.157   1.739   5.158  1.00  0.00     0.058 A 
BRANCH   8  12
ATOM     12  C   UNL     1       0.441  -1.334   3.214  1.00  0.00     0.308 C 
BRANCH  12  13
ATOM     13  O   UNL     1       0.993  -1.143   1.906  1.00  0.00    -0.458 OA
BRANCH  13  14
ATOM     14  C   UNL     1       0.218  -0.428   1.051  1.00  0.00     0.303 C 
ATOM     15  C   UNL     1       0.959  -0.173  -0.225  1.00  0.00     0.139 C 
ATOM     16  O   UNL     1      -0.929  -0.059   1.262  1.00  0.00    -0.253 OA
ENDBRANCH  13  14
ENDBRANCH  12  13
ENDBRANCH   8  12
ENDBRANCH   5   7
ENDBRANCH   4   5
ENDBRANCH   3   4
ENDBRANCH   2   3
ENDBRANCH   1   2
BRANCH   1  17
ATOM     17  C   UNL     1       1.180   0.075   8.938  1.00  0.00     0.202 C 
BRANCH  17  18
ATOM     18  C   UNL     1      -0.144   0.408   9.632  1.00  0.00     0.261 C 
BRANCH  18  19
ATOM     19  O   UNL     1      -0.331   1.831   9.739  1.00  0.00    -0.460 OA
BRANCH  19  20
ATOM     20  C   UNL     1      -0.154   2.334  10.986  1.00  0.00     0.338 C 
ATOM     21  O   UNL     1       0.054   1.698  12.006  1.00  0.00    -0.246 OA
BRANCH  20  22
ATOM     22  C   UNL     1      -0.070   3.809  10.928  1.00  0.00     0.060 A 
ATOM     23  C   UNL     1       0.937   4.421  11.683  1.00  0.00     0.016 A 
ATOM     24  C   UNL     1      -0.973   4.584  10.195  1.00  0.00     0.016 A 
ATOM     25  C   UNL     1       1.016   5.811  11.747  1.00  0.00     0.010 A 
ATOM     26  C   UNL     1      -0.893   5.981  10.262  1.00  0.00     0.010 A 
ATOM     27  C   UNL     1       0.082   6.601  11.064  1.00  0.00    -0.014 A 
BRANCH  27  28
ATOM     28  C   UNL     1       0.057   8.066  11.304  1.00  0.00     0.031 A 
ATOM     29  C   UNL     1      -0.950   8.634  12.268  1.00  0.00     0.074 A 
ATOM     30  C   UNL     1       0.951   8.874  10.706  1.00  0.00     0.049 A 
ATOM     31  N   UNL     1      -1.137   9.874  12.639  1.00  0.00    -0.248 NA
ATOM     32  C   UNL     1      -1.868   7.671  12.893  1.00  0.00     0.031 C 
ATOM     33  C   UNL     1       1.994   8.437   9.778  1.00  0.00     0.029 A 
ATOM     34  N   UNL     1       1.127  10.232  10.792  1.00  0.00    -0.354 N 
ATOM     35  C   UNL     1      -2.192   9.843  13.545  1.00  0.00     0.074 A 
ATOM     36  C   UNL     1      -2.630   8.466  13.630  1.00  0.00     0.031 C 
ATOM     37  C   UNL     1       2.698   9.509   9.377  1.00  0.00     0.029 A 
ATOM     38  C   UNL     1       2.140  10.710   9.995  1.00  0.00     0.049 A 
ATOM     39  H   UNL     1       0.578  10.811  11.370  1.00  0.00     0.167 HD
ATOM     40  C   UNL     1      -2.736  10.866  14.250  1.00  0.00     0.034 A 
ATOM     41  C   UNL     1       2.559  11.974   9.778  1.00  0.00     0.034 A 
ATOM     42  C   UNL     1      -2.299  12.238  14.145  1.00  0.00     0.049 A 
ATOM     43  C   UNL     1       1.890  13.107  10.517  1.00  0.00     0.074 A 
ATOM     44  C   UNL     1      -2.770  13.348  14.825  1.00  0.00     0.029 A 
ATOM     45  N   UNL     1      -1.298  12.691  13.295  1.00  0.00    -0.354 N 
ATOM     46  N   UNL     1       0.907  13.061  11.387  1.00  0.00    -0.248 NA
ATOM     47  C   UNL     1       2.397  14.460  10.254  1.00  0.00     0.031 C 
ATOM     48  C   UNL     1      -2.103  14.478  14.338  1.00  0.00     0.029 A 
ATOM     49  C   UNL     1      -1.161  14.066  13.409  1.00  0.00     0.049 A 
ATOM     50  H   UNL     1      -0.764  12.119  12.698  1.00  0.00     0.167 HD
ATOM     51  C   UNL     1       0.701  14.376  11.797  1.00  0.00     0.074 A 
ATOM     52  C   UNL     1       1.668  15.188  11.088  1.00  0.00     0.031 C 
ATOM     53  C   UNL     1      -0.200  14.867  12.686  1.00  0.00     0.034 A 
BRANCH  40  54
ATOM     54  C   UNL     1      -3.898  10.538  15.157  1.00  0.00     0.023 A 
ATOM     55  C   UNL     1      -3.751   9.694  16.272  1.00  0.00     0.031 A 
ATOM     56  C   UNL     1      -5.178  11.051  14.884  1.00  0.00     0.131 A 
ATOM     57  C   UNL     1      -4.876   9.331  17.028  1.00  0.00     0.055 A 
ATOM     58  C   UNL     1      -6.280  10.747  15.687  1.00  0.00     0.041 A 
ATOM     59  F   UNL     1      -5.385  11.844  13.821  1.00  0.00    -0.206 F 
ATOM     60  C   UNL     1      -6.136   9.870  16.758  1.00  0.00     0.022 A 
BRANCH  57  61
ATOM     61  S   UNL     1      -4.697   8.031  18.282  1.00  0.00     0.124 S 
ATOM     62  O   UNL     1      -4.207   6.913  17.479  1.00  0.00    -0.237 OA
ATOM     63  O   UNL     1      -3.740   8.620  19.211  1.00  0.00    -0.237 OA
ATOM     64  O   UNL     1      -6.053   7.868  18.802  1.00  0.00    -0.744 OA
ENDBRANCH  57  61
ENDBRANCH  40  54
BRANCH  41  65
ATOM     65  C   UNL     1       3.647  12.247   8.796  1.00  0.00     0.023 A 
ATOM     66  C   UNL     1       4.878  12.785   9.201  1.00  0.00     0.031 A 
ATOM     67  C   UNL     1       3.446  12.017   7.423  1.00  0.00     0.131 A 
ATOM     68  C   UNL     1       5.846  13.116   8.240  1.00  0.00     0.055 A 
ATOM     69  C   UNL     1       4.430  12.302   6.475  1.00  0.00     0.041 A 
ATOM     70  F   UNL     1       2.287  11.503   6.982  1.00  0.00    -0.206 F 
ATOM     71  C   UNL     1       5.635  12.867   6.881  1.00  0.00     0.022 A 
BRANCH  68  72
ATOM     72  S   UNL     1       7.363  13.949   8.784  1.00  0.00     0.124 S 
ATOM     73  O   UNL     1       6.831  15.152   9.414  1.00  0.00    -0.237 OA
ATOM     74  O   UNL     1       7.947  12.958   9.681  1.00  0.00    -0.237 OA
ATOM     75  O   UNL     1       8.096  14.168   7.539  1.00  0.00    -0.744 OA
ENDBRANCH  68  72
ENDBRANCH  41  65
BRANCH  53  76
ATOM     76  C   UNL     1      -0.145  16.349  12.974  1.00  0.00     0.023 A 
ATOM     77  C   UNL     1      -0.486  17.307  12.004  1.00  0.00     0.031 A 
ATOM     78  C   UNL     1       0.267  16.806  14.239  1.00  0.00     0.131 A 
ATOM     79  C   UNL     1      -0.357  18.674  12.296  1.00  0.00     0.055 A 
ATOM     80  C   UNL     1       0.339  18.166  14.542  1.00  0.00     0.041 A 
ATOM     81  F   UNL     1       0.606  15.935  15.203  1.00  0.00    -0.206 F 
ATOM     82  C   UNL     1       0.038  19.109  13.563  1.00  0.00     0.022 A 
BRANCH  79  83
ATOM     83  S   UNL     1      -0.629  19.880  10.967  1.00  0.00     0.124 S 
ATOM     84  O   UNL     1       0.354  19.463   9.973  1.00  0.00    -0.237 OA
ATOM     85  O   UNL     1      -2.027  19.649  10.618  1.00  0.00    -0.237 OA
ATOM     86  O   UNL     1      -0.356  21.165  11.609  1.00  0.00    -0.744 OA
ENDBRANCH  79  83
ENDBRANCH  53  76
ENDBRANCH  27  28
ENDBRANCH  20  22
ENDBRANCH  19  20
ENDBRANCH  18  19
ENDBRANCH  17  18
ENDBRANCH   1  17
TORSDOF 20
