REMARK SMILES Cc1cccc(CC(=O)N2CCC3(CCC(=O)N([C@H](C)C(=O)OCCOCCOC(=O)c4ccc(-c5c6nc(c(-c7cc(S(=O)(=O)[O-])ccc7F)c7ccc([nH]7)c(-c7cc(S(=O)(=O)[O-])ccc7F)c7nc(c(-c8cc(S(=O)(=O)[O-])ccc8F)c8ccc5[nH]8)C=C7)C=C6)cc4)C3)CC2)c1
REMARK SMILES IDX 26 1 25 2 24 3 23 4 21 5 22 6 19 7 20 8 18 9 8 10 9 11 10 12
REMARK SMILES IDX 11 13 97 14 12 15 96 16 13 17 14 18 95 19 15 20 16 21 17 22
REMARK SMILES IDX 7 23 6 24 1 25 2 26 3 27 98 28 4 29 5 30 27 31 28 32 29 33
REMARK SMILES IDX 30 34 31 35 32 36 33 37 94 38 34 39 93 40 35 41 36 42 37 43
REMARK SMILES IDX 87 44 38 45 92 46 86 47 88 48 39 49 91 50 85 51 84 52 40 54
REMARK SMILES IDX 72 55 52 56 71 57 53 58 56 59 70 60 89 61 54 62 55 63 69 65
REMARK SMILES IDX 90 66 57 67 41 68 42 69 50 70 43 71 49 72 51 73 48 74 44 75
REMARK SMILES IDX 45 76 46 77 47 78 73 79 74 80 82 81 75 82 81 83 83 84 80 85
REMARK SMILES IDX 76 86 77 87 78 88 79 89 58 90 59 91 67 92 60 93 66 94 68 95
REMARK SMILES IDX 65 96 61 97 62 98 63 99 64 100
REMARK H PARENT 88 53 56 64
REMARK Flexibility Score: inf
ROOT
ATOM      1  O   UNL     1      -2.484   5.882  -5.355  1.00  0.00    -0.374 OA
ENDROOT
BRANCH   1   2
ATOM      2  C   UNL     1      -2.567   5.039  -6.500  1.00  0.00     0.202 C 
BRANCH   2   3
ATOM      3  C   UNL     1      -2.021   5.886  -7.595  1.00  0.00     0.261 C 
BRANCH   3   4
ATOM      4  O   UNL     1      -0.638   6.013  -7.324  1.00  0.00    -0.462 OA
BRANCH   4   5
ATOM      5  C   UNL     1      -0.042   6.866  -6.461  1.00  0.00     0.328 C 
ATOM      6  O   UNL     1      -0.511   7.793  -5.835  1.00  0.00    -0.250 OA
BRANCH   5   7
ATOM      7  C   UNL     1       1.380   6.349  -6.334  1.00  0.00     0.192 C 
ATOM      8  C   UNL     1       1.325   4.849  -5.989  1.00  0.00     0.044 C 
BRANCH   7   9
ATOM      9  N   UNL     1       2.199   6.614  -7.527  1.00  0.00    -0.329 N 
ATOM     10  C   UNL     1       8.235   5.229  -6.958  1.00  0.00     0.226 C 
ATOM     11  O   UNL     1       8.466   4.044  -6.686  1.00  0.00    -0.275 OA
ATOM     12  N   UNL     1       7.177   5.578  -7.780  1.00  0.00    -0.342 N 
ATOM     13  C   UNL     1       6.040   4.671  -7.850  1.00  0.00     0.120 C 
ATOM     14  C   UNL     1       6.996   6.821  -8.533  1.00  0.00     0.120 C 
ATOM     15  C   UNL     1       4.825   5.406  -7.300  1.00  0.00     0.030 C 
ATOM     16  C   UNL     1       5.814   7.613  -7.992  1.00  0.00     0.030 C 
ATOM     17  C   UNL     1       4.555   6.739  -8.061  1.00  0.00    -0.008 C 
ATOM     18  C   UNL     1       4.168   6.534  -9.546  1.00  0.00     0.019 C 
ATOM     19  C   UNL     1       3.376   7.444  -7.394  1.00  0.00     0.127 C 
ATOM     20  C   UNL     1       2.942   5.674  -9.676  1.00  0.00     0.101 C 
ATOM     21  C   UNL     1       1.834   6.165  -8.795  1.00  0.00     0.223 C 
ATOM     22  O   UNL     1       0.688   6.079  -9.205  1.00  0.00    -0.275 OA
BRANCH  10  23
ATOM     23  C   UNL     1       8.984   6.306  -6.182  1.00  0.00     0.135 C 
BRANCH  23  24
ATOM     24  C   UNL     1       9.522   7.474  -6.958  1.00  0.00    -0.038 A 
ATOM     25  C   UNL     1       8.754  11.195  -7.259  1.00  0.00     0.044 C 
ATOM     26  C   UNL     1       9.346   9.839  -7.512  1.00  0.00    -0.051 A 
ATOM     27  C   UNL     1      10.142   9.615  -8.642  1.00  0.00     0.003 A 
ATOM     28  C   UNL     1       9.063   8.769  -6.659  1.00  0.00     0.007 A 
ATOM     29  C   UNL     1      10.653   8.343  -8.912  1.00  0.00     0.001 A 
ATOM     30  C   UNL     1      10.357   7.275  -8.067  1.00  0.00     0.004 A 
ENDBRANCH  23  24
ENDBRANCH  10  23
ENDBRANCH   7   9
ENDBRANCH   5   7
ENDBRANCH   4   5
ENDBRANCH   3   4
ENDBRANCH   2   3
ENDBRANCH   1   2
BRANCH   1  31
ATOM     31  C   UNL     1      -2.715   5.282  -4.109  1.00  0.00     0.202 C 
BRANCH  31  32
ATOM     32  C   UNL     1      -4.107   4.658  -4.051  1.00  0.00     0.261 C 
BRANCH  32  33
ATOM     33  O   UNL     1      -5.122   5.684  -4.202  1.00  0.00    -0.460 OA
BRANCH  33  34
ATOM     34  C   UNL     1      -5.635   5.852  -5.458  1.00  0.00     0.338 C 
ATOM     35  O   UNL     1      -6.266   5.001  -6.064  1.00  0.00    -0.246 OA
BRANCH  34  36
ATOM     36  C   UNL     1      -5.198   7.160  -6.043  1.00  0.00     0.060 A 
ATOM     37  C   UNL     1      -5.312   7.417  -7.427  1.00  0.00     0.016 A 
ATOM     38  C   UNL     1      -4.399   7.981  -5.257  1.00  0.00     0.016 A 
ATOM     39  C   UNL     1      -4.505   8.397  -8.041  1.00  0.00     0.010 A 
ATOM     40  C   UNL     1      -3.511   8.824  -5.885  1.00  0.00     0.010 A 
ATOM     41  C   UNL     1      -3.537   9.040  -7.275  1.00  0.00    -0.014 A 
BRANCH  41  42
ATOM     42  C   UNL     1      -2.435   9.896  -7.737  1.00  0.00     0.031 A 
ATOM     43  C   UNL     1      -2.372  11.265  -7.155  1.00  0.00     0.074 A 
ATOM     44  C   UNL     1      -1.341   9.397  -8.373  1.00  0.00     0.049 A 
ATOM     45  N   UNL     1      -1.504  12.155  -7.476  1.00  0.00    -0.248 NA
ATOM     46  C   UNL     1      -3.317  11.766  -6.156  1.00  0.00     0.031 C 
ATOM     47  C   UNL     1       0.013   9.959  -8.363  1.00  0.00     0.029 A 
ATOM     48  N   UNL     1      -1.227   8.319  -9.258  1.00  0.00    -0.354 N 
ATOM     49  C   UNL     1      -1.536  13.155  -6.533  1.00  0.00     0.074 A 
ATOM     50  C   UNL     1      -2.748  12.919  -5.798  1.00  0.00     0.031 C 
ATOM     51  C   UNL     1       0.722   9.448  -9.380  1.00  0.00     0.029 A 
ATOM     52  C   UNL     1      -0.179   8.616 -10.150  1.00  0.00     0.049 A 
ATOM     53  H   UNL     1      -1.778   7.503  -9.257  1.00  0.00     0.167 HD
ATOM     54  C   UNL     1      -0.454  13.978  -6.443  1.00  0.00     0.034 A 
ATOM     55  C   UNL     1      -0.336   8.591 -11.498  1.00  0.00     0.034 A 
ATOM     56  C   UNL     1       0.478  13.707  -7.550  1.00  0.00     0.049 A 
ATOM     57  C   UNL     1      -0.070   9.993 -11.998  1.00  0.00     0.074 A 
ATOM     58  C   UNL     1       1.720  13.103  -7.643  1.00  0.00     0.029 A 
ATOM     59  N   UNL     1       0.004  13.819  -8.856  1.00  0.00    -0.354 N 
ATOM     60  N   UNL     1      -0.116  11.037 -11.208  1.00  0.00    -0.248 NA
ATOM     61  C   UNL     1       0.398  10.339 -13.335  1.00  0.00     0.031 C 
ATOM     62  C   UNL     1       1.952  12.796  -9.017  1.00  0.00     0.029 A 
ATOM     63  C   UNL     1       0.870  13.246  -9.761  1.00  0.00     0.049 A 
ATOM     64  H   UNL     1      -0.845  14.253  -9.101  1.00  0.00     0.167 HD
ATOM     65  C   UNL     1       0.397  12.127 -11.841  1.00  0.00     0.074 A 
ATOM     66  C   UNL     1       0.659  11.653 -13.191  1.00  0.00     0.031 C 
ATOM     67  C   UNL     1       0.596  13.316 -11.194  1.00  0.00     0.034 A 
BRANCH  54  68
ATOM     68  C   UNL     1      -0.113  14.915  -5.298  1.00  0.00     0.023 A 
ATOM     69  C   UNL     1       1.159  15.529  -5.295  1.00  0.00     0.031 A 
ATOM     70  C   UNL     1      -0.913  15.220  -4.175  1.00  0.00     0.131 A 
ATOM     71  C   UNL     1       1.590  16.349  -4.234  1.00  0.00     0.055 A 
ATOM     72  C   UNL     1      -0.489  16.045  -3.123  1.00  0.00     0.041 A 
ATOM     73  F   UNL     1      -2.150  14.750  -4.014  1.00  0.00    -0.206 F 
ATOM     74  C   UNL     1       0.770  16.612  -3.144  1.00  0.00     0.022 A 
BRANCH  71  75
ATOM     75  S   UNL     1       3.256  17.059  -4.291  1.00  0.00     0.124 S 
ATOM     76  O   UNL     1       4.098  15.867  -4.256  1.00  0.00    -0.237 OA
ATOM     77  O   UNL     1       3.236  17.801  -5.546  1.00  0.00    -0.237 OA
ATOM     78  O   UNL     1       3.313  17.887  -3.087  1.00  0.00    -0.744 OA
ENDBRANCH  71  75
ENDBRANCH  54  68
BRANCH  55  79
ATOM     79  C   UNL     1      -1.345   7.558 -11.903  1.00  0.00     0.023 A 
ATOM     80  C   UNL     1      -0.980   6.187 -11.735  1.00  0.00     0.031 A 
ATOM     81  C   UNL     1      -2.713   7.868 -11.872  1.00  0.00     0.131 A 
ATOM     82  C   UNL     1      -1.943   5.222 -11.378  1.00  0.00     0.055 A 
ATOM     83  C   UNL     1      -3.669   6.903 -11.519  1.00  0.00     0.041 A 
ATOM     84  F   UNL     1      -3.128   9.136 -12.010  1.00  0.00    -0.206 F 
ATOM     85  C   UNL     1      -3.283   5.592 -11.230  1.00  0.00     0.022 A 
BRANCH  82  86
ATOM     86  S   UNL     1      -1.461   3.523 -10.867  1.00  0.00     0.124 S 
ATOM     87  O   UNL     1      -1.634   2.777 -12.110  1.00  0.00    -0.237 OA
ATOM     88  O   UNL     1      -0.082   3.635 -10.408  1.00  0.00    -0.237 OA
ATOM     89  O   UNL     1      -2.430   3.205  -9.815  1.00  0.00    -0.744 OA
ENDBRANCH  82  86
ENDBRANCH  55  79
BRANCH  67  90
ATOM     90  C   UNL     1       0.609  14.659 -11.883  1.00  0.00     0.023 A 
ATOM     91  C   UNL     1       0.284  14.800 -13.234  1.00  0.00     0.031 A 
ATOM     92  C   UNL     1       0.817  15.868 -11.175  1.00  0.00     0.131 A 
ATOM     93  C   UNL     1       0.278  16.055 -13.855  1.00  0.00     0.055 A 
ATOM     94  C   UNL     1       0.702  17.127 -11.770  1.00  0.00     0.041 A 
ATOM     95  F   UNL     1       1.116  15.893  -9.869  1.00  0.00    -0.206 F 
ATOM     96  C   UNL     1       0.453  17.227 -13.128  1.00  0.00     0.022 A 
BRANCH  93  97
ATOM     97  S   UNL     1       0.133  16.084 -15.655  1.00  0.00     0.124 S 
ATOM     98  O   UNL     1       1.317  15.330 -16.059  1.00  0.00    -0.237 OA
ATOM     99  O   UNL     1      -1.146  15.418 -15.880  1.00  0.00    -0.237 OA
ATOM    100  O   UNL     1       0.161  17.508 -15.979  1.00  0.00    -0.744 OA
ENDBRANCH  93  97
ENDBRANCH  67  90
ENDBRANCH  41  42
ENDBRANCH  34  36
ENDBRANCH  33  34
ENDBRANCH  32  33
ENDBRANCH  31  32
ENDBRANCH   1  31
TORSDOF 20
