REMARK SMILES CCc1ccc(C[N@H+]2CC[C@@H](C(=O)OCCOCCOC(=O)c3ccc(-c4c5nc(c(-c6cc(S(=O)(=O)[O-])ccc6F)c6ccc([nH]6)c(-c6cc(S(=O)(=O)[O-])ccc6F)c6nc(c(-c7cc(S(=O)(=O)[O-])ccc7F)c7ccc4[nH]7)C=C6)C=C5)cc3)[C@@H]2C)cc1
REMARK SMILES IDX 17 1 16 2 15 3 14 4 12 5 13 6 11 7 8 8 9 9 86 10 10 12 87 13
REMARK SMILES IDX 7 14 6 15 3 16 4 17 89 18 5 19 88 20 2 21 1 22 18 23 19 24
REMARK SMILES IDX 20 25 21 26 22 27 23 28 24 29 85 30 25 31 84 32 26 33 27 34
REMARK SMILES IDX 28 35 78 36 29 37 83 38 77 39 79 40 30 41 82 42 76 43 75 44
REMARK SMILES IDX 31 46 63 47 43 48 62 49 44 50 47 51 61 52 80 53 45 54 46 55
REMARK SMILES IDX 60 57 81 58 48 59 32 60 33 61 41 62 34 63 40 64 42 65 39 66
REMARK SMILES IDX 35 67 36 68 37 69 38 70 64 71 65 72 73 73 66 74 72 75 74 76
REMARK SMILES IDX 71 77 67 78 68 79 69 80 70 81 49 82 50 83 58 84 51 85 57 86
REMARK SMILES IDX 59 87 56 88 52 89 53 90 54 91 55 92
REMARK H PARENT 8 11 79 45 47 56
REMARK Flexibility Score: inf
ROOT
ATOM      1  O   UNL     1      -1.252  -5.060   1.145  1.00  0.00    -0.374 OA
ENDROOT
BRANCH   1   2
ATOM      2  C   UNL     1      -0.720  -3.756   0.895  1.00  0.00     0.202 C 
BRANCH   2   3
ATOM      3  C   UNL     1       0.798  -3.672   1.077  1.00  0.00     0.261 C 
BRANCH   3   4
ATOM      4  O   UNL     1       1.477  -4.270  -0.044  1.00  0.00    -0.463 OA
BRANCH   4   5
ATOM      5  C   UNL     1       2.348  -5.276   0.211  1.00  0.00     0.315 C 
ATOM      6  O   UNL     1       2.628  -5.698   1.327  1.00  0.00    -0.252 OA
BRANCH   5   7
ATOM      7  C   UNL     1       2.992  -5.821  -1.047  1.00  0.00     0.162 C 
ATOM      8  N   UNL     1       2.799  -5.636  -3.452  1.00  0.00    -0.328 N 
ATOM      9  C   UNL     1       4.162  -5.295  -3.036  1.00  0.00     0.263 C 
ATOM     10  C   UNL     1       2.049  -6.035  -2.241  1.00  0.00     0.195 C 
ATOM     11  H   UNL     1       2.824  -6.423  -4.101  1.00  0.00     0.348 HD
ATOM     12  C   UNL     1       4.070  -4.895  -1.576  1.00  0.00     0.083 C 
ATOM     13  C   UNL     1       1.635  -7.503  -2.367  1.00  0.00     0.076 C 
BRANCH   8  14
ATOM     14  C   UNL     1       2.140  -4.591  -4.267  1.00  0.00     0.299 C 
BRANCH  14  15
ATOM     15  C   UNL     1       1.879  -3.257  -3.596  1.00  0.00     0.006 A 
ATOM     16  C   UNL     1       1.472  -0.873  -2.125  1.00  0.00    -0.048 A 
ATOM     17  C   UNL     1       0.484  -1.858  -2.180  1.00  0.00     0.004 A 
ATOM     18  C   UNL     1       2.641  -1.060  -2.869  1.00  0.00     0.004 A 
ATOM     19  C   UNL     1       0.675  -3.026  -2.919  1.00  0.00     0.010 A 
ATOM     20  C   UNL     1       2.840  -2.237  -3.600  1.00  0.00     0.010 A 
BRANCH  16  21
ATOM     21  C   UNL     1       1.261   0.377  -1.307  1.00  0.00     0.032 C 
ATOM     22  C   UNL     1       1.795   0.273   0.108  1.00  0.00     0.009 C 
ENDBRANCH  16  21
ENDBRANCH  14  15
ENDBRANCH   8  14
ENDBRANCH   5   7
ENDBRANCH   4   5
ENDBRANCH   3   4
ENDBRANCH   2   3
ENDBRANCH   1   2
BRANCH   1  23
ATOM     23  C   UNL     1      -1.168  -5.972   0.052  1.00  0.00     0.202 C 
BRANCH  23  24
ATOM     24  C   UNL     1      -2.372  -5.944  -0.895  1.00  0.00     0.261 C 
BRANCH  24  25
ATOM     25  O   UNL     1      -2.426  -4.735  -1.676  1.00  0.00    -0.460 OA
BRANCH  25  26
ATOM     26  C   UNL     1      -3.361  -3.832  -1.282  1.00  0.00     0.338 C 
ATOM     27  O   UNL     1      -4.142  -3.953  -0.352  1.00  0.00    -0.246 OA
BRANCH  26  28
ATOM     28  C   UNL     1      -3.223  -2.579  -2.059  1.00  0.00     0.060 A 
ATOM     29  C   UNL     1      -3.320  -1.366  -1.366  1.00  0.00     0.016 A 
ATOM     30  C   UNL     1      -3.019  -2.577  -3.444  1.00  0.00     0.016 A 
ATOM     31  C   UNL     1      -3.223  -0.153  -2.053  1.00  0.00     0.010 A 
ATOM     32  C   UNL     1      -2.932  -1.358  -4.133  1.00  0.00     0.010 A 
ATOM     33  C   UNL     1      -3.050  -0.139  -3.446  1.00  0.00    -0.014 A 
BRANCH  33  34
ATOM     34  C   UNL     1      -3.108   1.154  -4.182  1.00  0.00     0.031 A 
ATOM     35  C   UNL     1      -4.411   1.603  -4.766  1.00  0.00     0.074 A 
ATOM     36  C   UNL     1      -2.022   1.939  -4.305  1.00  0.00     0.049 A 
ATOM     37  N   UNL     1      -4.679   2.683  -5.451  1.00  0.00    -0.248 NA
ATOM     38  C   UNL     1      -5.555   0.701  -4.575  1.00  0.00     0.031 C 
ATOM     39  C   UNL     1      -0.705   1.584  -3.807  1.00  0.00     0.029 A 
ATOM     40  N   UNL     1      -1.838   3.178  -4.867  1.00  0.00    -0.354 N 
ATOM     41  C   UNL     1      -6.020   2.587  -5.792  1.00  0.00     0.074 A 
ATOM     42  C   UNL     1      -6.502   1.331  -5.253  1.00  0.00     0.031 C 
ATOM     43  C   UNL     1       0.144   2.602  -4.018  1.00  0.00     0.029 A 
ATOM     44  C   UNL     1      -0.550   3.655  -4.749  1.00  0.00     0.049 A 
ATOM     45  H   UNL     1      -2.559   3.679  -5.313  1.00  0.00     0.167 HD
ATOM     46  C   UNL     1      -6.773   3.466  -6.498  1.00  0.00     0.034 A 
ATOM     47  C   UNL     1       0.016   4.792  -5.208  1.00  0.00     0.034 A 
ATOM     48  C   UNL     1      -6.267   4.698  -7.052  1.00  0.00     0.049 A 
ATOM     49  C   UNL     1      -0.835   5.728  -6.029  1.00  0.00     0.074 A 
ATOM     50  C   UNL     1      -6.947   5.658  -7.780  1.00  0.00     0.029 A 
ATOM     51  N   UNL     1      -4.950   5.134  -6.956  1.00  0.00    -0.354 N 
ATOM     52  N   UNL     1      -2.107   5.627  -6.340  1.00  0.00    -0.248 NA
ATOM     53  C   UNL     1      -0.172   6.914  -6.586  1.00  0.00     0.031 C 
ATOM     54  C   UNL     1      -6.030   6.637  -8.181  1.00  0.00     0.029 A 
ATOM     55  C   UNL     1      -4.791   6.330  -7.641  1.00  0.00     0.049 A 
ATOM     56  H   UNL     1      -4.234   4.662  -6.472  1.00  0.00     0.167 HD
ATOM     57  C   UNL     1      -2.394   6.735  -7.131  1.00  0.00     0.074 A 
ATOM     58  C   UNL     1      -1.173   7.510  -7.217  1.00  0.00     0.031 C 
ATOM     59  C   UNL     1      -3.558   7.076  -7.741  1.00  0.00     0.034 A 
BRANCH  46  60
ATOM     60  C   UNL     1      -8.204   3.072  -6.763  1.00  0.00     0.023 A 
ATOM     61  C   UNL     1      -9.133   2.922  -5.718  1.00  0.00     0.031 A 
ATOM     62  C   UNL     1      -8.627   2.781  -8.071  1.00  0.00     0.131 A 
ATOM     63  C   UNL     1     -10.412   2.417  -5.990  1.00  0.00     0.055 A 
ATOM     64  C   UNL     1      -9.928   2.357  -8.345  1.00  0.00     0.041 A 
ATOM     65  F   UNL     1      -7.774   2.880  -9.103  1.00  0.00    -0.206 F 
ATOM     66  C   UNL     1     -10.825   2.157  -7.299  1.00  0.00     0.022 A 
BRANCH  63  67
ATOM     67  S   UNL     1     -11.476   1.959  -4.595  1.00  0.00     0.124 S 
ATOM     68  O   UNL     1     -10.657   0.956  -3.918  1.00  0.00    -0.237 OA
ATOM     69  O   UNL     1     -11.641   3.228  -3.894  1.00  0.00    -0.237 OA
ATOM     70  O   UNL     1     -12.681   1.440  -5.238  1.00  0.00    -0.744 OA
ENDBRANCH  63  67
ENDBRANCH  46  60
BRANCH  47  71
ATOM     71  C   UNL     1       1.464   5.084  -4.979  1.00  0.00     0.023 A 
ATOM     72  C   UNL     1       1.875   6.234  -4.282  1.00  0.00     0.031 A 
ATOM     73  C   UNL     1       2.466   4.252  -5.512  1.00  0.00     0.131 A 
ATOM     74  C   UNL     1       3.243   6.538  -4.173  1.00  0.00     0.055 A 
ATOM     75  C   UNL     1       3.825   4.527  -5.348  1.00  0.00     0.041 A 
ATOM     76  F   UNL     1       2.137   3.146  -6.199  1.00  0.00    -0.206 F 
ATOM     77  C   UNL     1       4.221   5.684  -4.686  1.00  0.00     0.022 A 
BRANCH  74  78
ATOM     78  S   UNL     1       3.731   8.122  -3.432  1.00  0.00     0.124 S 
ATOM     79  O   UNL     1       3.047   9.078  -4.296  1.00  0.00    -0.237 OA
ATOM     80  O   UNL     1       3.209   7.995  -2.075  1.00  0.00    -0.237 OA
ATOM     81  O   UNL     1       5.188   8.114  -3.539  1.00  0.00    -0.744 OA
ENDBRANCH  74  78
ENDBRANCH  47  71
BRANCH  59  82
ATOM     82  C   UNL     1      -3.556   8.357  -8.538  1.00  0.00     0.023 A 
ATOM     83  C   UNL     1      -2.812   8.485  -9.725  1.00  0.00     0.031 A 
ATOM     84  C   UNL     1      -4.296   9.468  -8.097  1.00  0.00     0.131 A 
ATOM     85  C   UNL     1      -2.784   9.714 -10.402  1.00  0.00     0.055 A 
ATOM     86  C   UNL     1      -4.310  10.669  -8.806  1.00  0.00     0.041 A 
ATOM     87  F   UNL     1      -5.020   9.401  -6.968  1.00  0.00    -0.206 F 
ATOM     88  C   UNL     1      -3.542  10.801  -9.960  1.00  0.00     0.022 A 
BRANCH  85  89
ATOM     89  S   UNL     1      -1.675   9.900 -11.826  1.00  0.00     0.124 S 
ATOM     90  O   UNL     1      -0.369   9.640 -11.229  1.00  0.00    -0.237 OA
ATOM     91  O   UNL     1      -2.170   8.881 -12.745  1.00  0.00    -0.237 OA
ATOM     92  O   UNL     1      -1.897  11.280 -12.255  1.00  0.00    -0.744 OA
ENDBRANCH  85  89
ENDBRANCH  59  82
ENDBRANCH  33  34
ENDBRANCH  26  28
ENDBRANCH  25  26
ENDBRANCH  24  25
ENDBRANCH  23  24
ENDBRANCH   1  23
TORSDOF 20
