REMARK SMILES Cc1[nH]cnc1C[NH+]1CCC(Oc2cccc(F)c2)(C(=O)OCCOCCOC(=O)c2ccc(-c3c4nc(c(-c5cc(S(=O)(=O)[O-])ccc5F)c5ccc([nH]5)c(-c5cc(S(=O)(=O)[O-])ccc5F)c5nc(c(-c6cc(S(=O)(=O)[O-])ccc6F)c6ccc3[nH]6)C=C5)C=C4)cc2)CC1
REMARK SMILES IDX 26 1 25 2 24 3 23 4 22 5 20 6 21 7 11 8 8 9 9 10 95 11 10 13
REMARK SMILES IDX 94 14 7 15 6 16 1 17 2 18 3 19 4 20 5 22 12 23 13 24 14 25
REMARK SMILES IDX 19 26 15 27 17 28 16 29 18 30 27 31 28 32 29 33 30 34 31 35
REMARK SMILES IDX 32 36 93 37 33 38 92 39 34 40 35 41 36 42 86 43 37 44 91 45
REMARK SMILES IDX 85 46 87 47 38 48 90 49 84 50 83 51 39 53 71 54 51 55 70 56
REMARK SMILES IDX 52 57 55 58 69 59 88 60 53 61 54 62 68 64 89 65 56 66 40 67
REMARK SMILES IDX 41 68 49 69 42 70 48 71 50 72 47 73 43 74 44 75 45 76 46 77
REMARK SMILES IDX 72 78 73 79 81 80 74 81 80 82 82 83 79 84 75 85 76 86 77 87
REMARK SMILES IDX 78 88 57 89 58 90 66 91 59 92 65 93 67 94 64 95 60 96 61 97
REMARK SMILES IDX 62 98 63 99
REMARK H PARENT 8 12 3 21 87 52 55 63
REMARK Flexibility Score: inf
ROOT
ATOM      1  C   UNL     1      -2.418   0.541   2.787  1.00  0.00     0.202 C 
ENDROOT
BRANCH   1   2
ATOM      2  O   UNL     1      -3.031   1.272   3.837  1.00  0.00    -0.374 OA
BRANCH   2   3
ATOM      3  C   UNL     1      -2.862   0.780   5.168  1.00  0.00     0.202 C 
BRANCH   3   4
ATOM      4  C   UNL     1      -3.203  -0.690   5.436  1.00  0.00     0.261 C 
BRANCH   4   5
ATOM      5  O   UNL     1      -2.248  -1.618   4.868  1.00  0.00    -0.460 OA
BRANCH   5   6
ATOM      6  C   UNL     1      -2.774  -2.598   4.077  1.00  0.00     0.351 C 
ATOM      7  O   UNL     1      -3.959  -2.629   3.748  1.00  0.00    -0.247 OA
BRANCH   6   8
ATOM      8  C   UNL     1      -1.778  -3.721   3.699  1.00  0.00     0.216 C 
ATOM      9  N   UNL     1      -0.369  -3.403   1.115  1.00  0.00    -0.330 N 
ATOM     10  C   UNL     1       0.353  -3.004   2.313  1.00  0.00     0.267 C 
ATOM     11  C   UNL     1      -1.818  -3.353   1.212  1.00  0.00     0.267 C 
ATOM     12  H   UNL     1      -0.168  -4.401   1.057  1.00  0.00     0.348 HD
ATOM     13  C   UNL     1      -0.286  -3.331   3.676  1.00  0.00     0.122 C 
ATOM     14  C   UNL     1      -2.236  -4.288   2.341  1.00  0.00     0.122 C 
BRANCH   9  15
ATOM     15  C   UNL     1       0.164  -2.838  -0.140  1.00  0.00     0.321 C 
BRANCH  15  16
ATOM     16  C   UNL     1      -0.034  -1.355  -0.319  1.00  0.00     0.115 A 
ATOM     17  C   UNL     1       2.351  -0.287  -0.005  1.00  0.00     0.066 C 
ATOM     18  C   UNL     1       0.898  -0.328  -0.282  1.00  0.00     0.040 A 
ATOM     19  N   UNL     1       0.188   0.814  -0.565  1.00  0.00    -0.348 N 
ATOM     20  C   UNL     1      -1.112   0.455  -0.769  1.00  0.00     0.197 A 
ATOM     21  H   UNL     1       0.552   1.727  -0.613  1.00  0.00     0.167 HD
ATOM     22  N   UNL     1      -1.282  -0.838  -0.624  1.00  0.00    -0.236 NA
ENDBRANCH  15  16
ENDBRANCH   9  15
BRANCH   8  23
ATOM     23  O   UNL     1      -2.030  -4.574   4.865  1.00  0.00    -0.475 OA
BRANCH  23  24
ATOM     24  C   UNL     1      -1.915  -5.920   4.688  1.00  0.00     0.123 A 
ATOM     25  C   UNL     1      -0.700  -6.557   4.940  1.00  0.00     0.047 A 
ATOM     26  C   UNL     1      -3.051  -6.666   4.387  1.00  0.00     0.085 A 
ATOM     27  C   UNL     1      -0.598  -7.943   4.814  1.00  0.00     0.007 A 
ATOM     28  C   UNL     1      -2.940  -8.046   4.269  1.00  0.00     0.126 A 
ATOM     29  C   UNL     1      -1.722  -8.690   4.469  1.00  0.00     0.039 A 
ATOM     30  F   UNL     1      -4.023  -8.773   3.964  1.00  0.00    -0.207 F 
ENDBRANCH  23  24
ENDBRANCH   8  23
ENDBRANCH   6   8
ENDBRANCH   5   6
ENDBRANCH   4   5
ENDBRANCH   3   4
ENDBRANCH   2   3
ENDBRANCH   1   2
BRANCH   1  31
ATOM     31  C   UNL     1      -0.890   0.565   2.720  1.00  0.00     0.261 C 
BRANCH  31  32
ATOM     32  O   UNL     1      -0.230   0.592   3.987  1.00  0.00    -0.460 OA
BRANCH  32  33
ATOM     33  C   UNL     1       0.543   1.689   4.179  1.00  0.00     0.338 C 
ATOM     34  O   UNL     1       0.862   2.527   3.355  1.00  0.00    -0.246 OA
BRANCH  33  35
ATOM     35  C   UNL     1       0.860   1.814   5.608  1.00  0.00     0.060 A 
ATOM     36  C   UNL     1       0.198   2.809   6.334  1.00  0.00     0.016 A 
ATOM     37  C   UNL     1       1.866   1.043   6.193  1.00  0.00     0.016 A 
ATOM     38  C   UNL     1       0.582   3.073   7.645  1.00  0.00     0.010 A 
ATOM     39  C   UNL     1       2.251   1.312   7.511  1.00  0.00     0.010 A 
ATOM     40  C   UNL     1       1.638   2.356   8.226  1.00  0.00    -0.014 A 
BRANCH  40  41
ATOM     41  C   UNL     1       2.192   2.831   9.516  1.00  0.00     0.031 A 
ATOM     42  C   UNL     1       3.404   3.723   9.499  1.00  0.00     0.074 A 
ATOM     43  C   UNL     1       1.563   2.554  10.672  1.00  0.00     0.049 A 
ATOM     44  N   UNL     1       4.005   4.321  10.494  1.00  0.00    -0.248 NA
ATOM     45  C   UNL     1       4.013   3.981   8.184  1.00  0.00     0.031 C 
ATOM     46  C   UNL     1       0.351   1.744  10.796  1.00  0.00     0.029 A 
ATOM     47  N   UNL     1       1.839   2.946  11.957  1.00  0.00    -0.354 N 
ATOM     48  C   UNL     1       5.051   5.040   9.925  1.00  0.00     0.074 A 
ATOM     49  C   UNL     1       5.031   4.764   8.505  1.00  0.00     0.031 C 
ATOM     50  C   UNL     1      -0.029   1.723  12.085  1.00  0.00     0.029 A 
ATOM     51  C   UNL     1       0.927   2.492  12.880  1.00  0.00     0.049 A 
ATOM     52  H   UNL     1       2.617   3.499  12.195  1.00  0.00     0.167 HD
ATOM     53  C   UNL     1       5.933   5.872  10.530  1.00  0.00     0.034 A 
ATOM     54  C   UNL     1       0.872   2.675  14.214  1.00  0.00     0.034 A 
ATOM     55  C   UNL     1       5.945   6.132  11.945  1.00  0.00     0.049 A 
ATOM     56  C   UNL     1       1.931   3.514  14.882  1.00  0.00     0.074 A 
ATOM     57  C   UNL     1       6.792   6.959  12.662  1.00  0.00     0.029 A 
ATOM     58  N   UNL     1       5.074   5.560  12.863  1.00  0.00    -0.354 N 
ATOM     59  N   UNL     1       2.925   4.173  14.334  1.00  0.00    -0.248 NA
ATOM     60  C   UNL     1       1.867   3.628  16.346  1.00  0.00     0.031 C 
ATOM     61  C   UNL     1       6.473   6.839  14.018  1.00  0.00     0.029 A 
ATOM     62  C   UNL     1       5.387   5.985  14.142  1.00  0.00     0.049 A 
ATOM     63  H   UNL     1       4.341   4.942  12.636  1.00  0.00     0.167 HD
ATOM     64  C   UNL     1       3.598   4.789  15.383  1.00  0.00     0.074 A 
ATOM     65  C   UNL     1       2.897   4.427  16.599  1.00  0.00     0.031 C 
ATOM     66  C   UNL     1       4.692   5.590  15.343  1.00  0.00     0.034 A 
BRANCH  53  67
ATOM     67  C   UNL     1       6.974   6.528   9.662  1.00  0.00     0.023 A 
ATOM     68  C   UNL     1       6.630   7.503   8.711  1.00  0.00     0.031 A 
ATOM     69  C   UNL     1       8.328   6.168   9.784  1.00  0.00     0.131 A 
ATOM     70  C   UNL     1       7.622   8.050   7.883  1.00  0.00     0.055 A 
ATOM     71  C   UNL     1       9.318   6.763   9.001  1.00  0.00     0.041 A 
ATOM     72  F   UNL     1       8.707   5.226  10.662  1.00  0.00    -0.206 F 
ATOM     73  C   UNL     1       8.966   7.704   8.038  1.00  0.00     0.022 A 
BRANCH  70  74
ATOM     74  S   UNL     1       7.119   9.155   6.536  1.00  0.00     0.124 S 
ATOM     75  O   UNL     1       6.324   8.257   5.701  1.00  0.00    -0.237 OA
ATOM     76  O   UNL     1       6.379  10.197   7.238  1.00  0.00    -0.237 OA
ATOM     77  O   UNL     1       8.388   9.580   5.950  1.00  0.00    -0.744 OA
ENDBRANCH  70  74
ENDBRANCH  53  67
BRANCH  54  78
ATOM     78  C   UNL     1      -0.213   2.032  15.005  1.00  0.00     0.023 A 
ATOM     79  C   UNL     1      -1.237   2.793  15.587  1.00  0.00     0.031 A 
ATOM     80  C   UNL     1      -0.245   0.636  15.171  1.00  0.00     0.131 A 
ATOM     81  C   UNL     1      -2.251   2.152  16.318  1.00  0.00     0.055 A 
ATOM     82  C   UNL     1      -1.271   0.001  15.872  1.00  0.00     0.041 A 
ATOM     83  F   UNL     1       0.711  -0.133  14.627  1.00  0.00    -0.206 F 
ATOM     84  C   UNL     1      -2.281   0.761  16.453  1.00  0.00     0.022 A 
BRANCH  81  85
ATOM     85  S   UNL     1      -3.537   3.163  17.102  1.00  0.00     0.124 S 
ATOM     86  O   UNL     1      -2.769   3.897  18.102  1.00  0.00    -0.237 OA
ATOM     87  O   UNL     1      -4.040   3.945  15.977  1.00  0.00    -0.237 OA
ATOM     88  O   UNL     1      -4.471   2.173  17.634  1.00  0.00    -0.744 OA
ENDBRANCH  81  85
ENDBRANCH  54  78
BRANCH  66  89
ATOM     89  C   UNL     1       5.204   6.137  16.646  1.00  0.00     0.023 A 
ATOM     90  C   UNL     1       5.929   5.331  17.539  1.00  0.00     0.031 A 
ATOM     91  C   UNL     1       5.037   7.498  16.957  1.00  0.00     0.131 A 
ATOM     92  C   UNL     1       6.454   5.892  18.712  1.00  0.00     0.055 A 
ATOM     93  C   UNL     1       5.593   8.059  18.106  1.00  0.00     0.041 A 
ATOM     94  F   UNL     1       4.359   8.308  16.128  1.00  0.00    -0.206 F 
ATOM     95  C   UNL     1       6.306   7.255  18.991  1.00  0.00     0.022 A 
BRANCH  92  96
ATOM     96  S   UNL     1       7.341   4.821  19.874  1.00  0.00     0.124 S 
ATOM     97  O   UNL     1       6.266   3.980  20.389  1.00  0.00    -0.237 OA
ATOM     98  O   UNL     1       8.315   4.154  19.015  1.00  0.00    -0.237 OA
ATOM     99  O   UNL     1       7.912   5.759  20.838  1.00  0.00    -0.744 OA
ENDBRANCH  92  96
ENDBRANCH  66  89
ENDBRANCH  40  41
ENDBRANCH  33  35
ENDBRANCH  32  33
ENDBRANCH  31  32
ENDBRANCH   1  31
TORSDOF 21
