REMARK SMILES O=C(N[C@@H](CS)C(=O)N[C@@H](CO)C(=O)OCCOCCOC(=O)c1ccc(-c2c3nc(c(-c4cc(S(=O)(=O)[O-])ccc4F)c4ccc([nH]4)c(-c4cc(S(=O)(=O)[O-])ccc4F)c4nc(c(-c5cc(S(=O)(=O)[O-])ccc5F)c5ccc2[nH]5)C=C4)C=C3)cc1)c1ccc(F)cc1
REMARK SMILES IDX 17 1 16 2 15 3 13 4 14 5 10 6 9 7 7 8 8 9 4 11 3 12 1 13
REMARK SMILES IDX 2 14 87 16 88 17 93 18 89 19 92 20 90 21 91 22 5 23 6 24
REMARK SMILES IDX 11 26 12 27 18 29 19 30 20 31 21 32 22 33 23 34 24 35 25 36
REMARK SMILES IDX 86 37 26 38 85 39 27 40 28 41 29 42 79 43 30 44 84 45 78 46
REMARK SMILES IDX 80 47 31 48 83 49 77 50 76 51 32 53 64 54 44 55 63 56 45 57
REMARK SMILES IDX 48 58 62 59 81 60 46 61 47 62 61 64 82 65 49 66 33 67 34 68
REMARK SMILES IDX 42 69 35 70 41 71 43 72 40 73 36 74 37 75 38 76 39 77 65 78
REMARK SMILES IDX 66 79 74 80 67 81 73 82 75 83 72 84 68 85 69 86 70 87 71 88
REMARK SMILES IDX 50 89 51 90 59 91 52 92 58 93 60 94 57 95 53 96 54 97 55 98
REMARK SMILES IDX 56 99
REMARK H PARENT 9 10 3 15 6 25 12 28 80 52 48 63
REMARK Flexibility Score: inf
ROOT
ATOM      1  C   UNL     1       6.436   2.835   6.690  1.00  0.00     0.202 C 
ENDROOT
BRANCH   1   2
ATOM      2  C   UNL     1       4.960   2.491   6.902  1.00  0.00     0.261 C 
BRANCH   2   3
ATOM      3  O   UNL     1       4.544   1.459   5.989  1.00  0.00    -0.462 OA
BRANCH   3   4
ATOM      4  C   UNL     1       3.290   1.599   5.477  1.00  0.00     0.331 C 
ATOM      5  O   UNL     1       2.459   2.416   5.857  1.00  0.00    -0.250 OA
BRANCH   4   6
ATOM      6  C   UNL     1       3.013   0.593   4.348  1.00  0.00     0.218 C 
BRANCH   6   7
ATOM      7  N   UNL     1       4.202  -0.135   3.876  1.00  0.00    -0.339 N 
ATOM      8  C   UNL     1       4.785  -0.270   2.659  1.00  0.00     0.244 C 
ATOM      9  O   UNL     1       5.876  -0.852   2.638  1.00  0.00    -0.273 OA
ATOM     10  H   UNL     1       4.670  -0.625   4.590  1.00  0.00     0.164 HD
BRANCH   8  11
ATOM     11  C   UNL     1       4.252   0.342   1.345  1.00  0.00     0.181 C 
BRANCH  11  12
ATOM     12  N   UNL     1       2.830   0.123   1.069  1.00  0.00    -0.339 N 
ATOM     13  O   UNL     1       0.983  -0.120  -0.179  1.00  0.00    -0.269 OA
ATOM     14  C   UNL     1       2.207  -0.179  -0.115  1.00  0.00     0.251 C 
ATOM     15  H   UNL     1       2.233   0.203   1.849  1.00  0.00     0.164 HD
BRANCH  14  16
ATOM     16  C   UNL     1       2.980  -0.533  -1.328  1.00  0.00     0.040 A 
ATOM     17  C   UNL     1       3.950  -1.544  -1.318  1.00  0.00     0.017 A 
ATOM     18  C   UNL     1       2.666   0.123  -2.526  1.00  0.00     0.017 A 
ATOM     19  C   UNL     1       4.658  -1.840  -2.485  1.00  0.00     0.040 A 
ATOM     20  C   UNL     1       3.364  -0.188  -3.695  1.00  0.00     0.040 A 
ATOM     21  C   UNL     1       4.362  -1.157  -3.660  1.00  0.00     0.123 A 
ATOM     22  F   UNL     1       5.038  -1.446  -4.779  1.00  0.00    -0.207 F 
ENDBRANCH  14  16
ENDBRANCH  11  12
BRANCH  11  23
ATOM     23  C   UNL     1       4.723   1.791   1.118  1.00  0.00     0.101 C 
BRANCH  23  24
ATOM     24  S   UNL     1       3.717   3.101   1.882  1.00  0.00    -0.177 SA
ATOM     25  H   UNL     1       2.472   3.093   1.335  1.00  0.00     0.102 HD
ENDBRANCH  23  24
ENDBRANCH  11  23
ENDBRANCH   8  11
ENDBRANCH   6   7
BRANCH   6  26
ATOM     26  C   UNL     1       1.938  -0.384   4.830  1.00  0.00     0.193 C 
BRANCH  26  27
ATOM     27  O   UNL     1       2.449  -1.279   5.815  1.00  0.00    -0.394 OA
ATOM     28  H   UNL     1       3.171  -1.801   5.434  1.00  0.00     0.210 HD
ENDBRANCH  26  27
ENDBRANCH   6  26
ENDBRANCH   4   6
ENDBRANCH   3   4
ENDBRANCH   2   3
ENDBRANCH   1   2
BRANCH   1  29
ATOM     29  O   UNL     1       6.766   3.425   5.430  1.00  0.00    -0.374 OA
BRANCH  29  30
ATOM     30  C   UNL     1       6.710   2.589   4.277  1.00  0.00     0.202 C 
BRANCH  30  31
ATOM     31  C   UNL     1       7.860   1.595   4.072  1.00  0.00     0.261 C 
BRANCH  31  32
ATOM     32  O   UNL     1       8.023   0.689   5.174  1.00  0.00    -0.460 OA
BRANCH  32  33
ATOM     33  C   UNL     1       9.168   0.880   5.872  1.00  0.00     0.338 C 
ATOM     34  O   UNL     1      10.069   1.669   5.604  1.00  0.00    -0.246 OA
BRANCH  33  35
ATOM     35  C   UNL     1       9.137   0.137   7.142  1.00  0.00     0.060 A 
ATOM     36  C   UNL     1       9.363   0.874   8.310  1.00  0.00     0.016 A 
ATOM     37  C   UNL     1       8.991  -1.252   7.192  1.00  0.00     0.016 A 
ATOM     38  C   UNL     1       9.511   0.218   9.527  1.00  0.00     0.010 A 
ATOM     39  C   UNL     1       9.145  -1.911   8.420  1.00  0.00     0.010 A 
ATOM     40  C   UNL     1       9.449  -1.181   9.584  1.00  0.00    -0.014 A 
BRANCH  40  41
ATOM     41  C   UNL     1       9.864  -1.849  10.842  1.00  0.00     0.031 A 
ATOM     42  C   UNL     1      11.267  -2.381  10.958  1.00  0.00     0.074 A 
ATOM     43  C   UNL     1       9.033  -1.884  11.899  1.00  0.00     0.049 A 
ATOM     44  N   UNL     1      11.876  -2.901  11.993  1.00  0.00    -0.248 NA
ATOM     45  C   UNL     1      12.094  -2.315   9.743  1.00  0.00     0.031 C 
ATOM     46  C   UNL     1       7.664  -1.368  11.910  1.00  0.00     0.029 A 
ATOM     47  N   UNL     1       9.224  -2.355  13.173  1.00  0.00    -0.354 N 
ATOM     48  C   UNL     1      13.162  -3.213  11.560  1.00  0.00     0.074 A 
ATOM     49  C   UNL     1      13.224  -2.870  10.154  1.00  0.00     0.031 C 
ATOM     50  C   UNL     1       7.142  -1.542  13.136  1.00  0.00     0.029 A 
ATOM     51  C   UNL     1       8.130  -2.199  13.990  1.00  0.00     0.049 A 
ATOM     52  H   UNL     1      10.067  -2.767  13.473  1.00  0.00     0.167 HD
ATOM     53  C   UNL     1      14.198  -3.722  12.272  1.00  0.00     0.034 A 
ATOM     54  C   UNL     1       7.947  -2.548  15.279  1.00  0.00     0.034 A 
ATOM     55  C   UNL     1      14.113  -4.075  13.669  1.00  0.00     0.049 A 
ATOM     56  C   UNL     1       9.095  -3.171  16.035  1.00  0.00     0.074 A 
ATOM     57  C   UNL     1      15.098  -4.596  14.491  1.00  0.00     0.029 A 
ATOM     58  N   UNL     1      12.970  -3.954  14.452  1.00  0.00    -0.354 N 
ATOM     59  N   UNL     1      10.312  -3.441  15.618  1.00  0.00    -0.248 NA
ATOM     60  C   UNL     1       8.849  -3.518  17.439  1.00  0.00     0.031 C 
ATOM     61  C   UNL     1      14.534  -4.852  15.746  1.00  0.00     0.029 A 
ATOM     62  C   UNL     1      13.217  -4.420  15.735  1.00  0.00     0.049 A 
ATOM     63  H   UNL     1      12.110  -3.591  14.140  1.00  0.00     0.167 HD
ATOM     64  C   UNL     1      10.983  -3.965  16.721  1.00  0.00     0.074 A 
ATOM     65  C   UNL     1      10.042  -3.948  17.822  1.00  0.00     0.031 C 
ATOM     66  C   UNL     1      12.260  -4.417  16.818  1.00  0.00     0.034 A 
BRANCH  53  67
ATOM     67  C   UNL     1      15.490  -3.973  11.530  1.00  0.00     0.023 A 
ATOM     68  C   UNL     1      16.239  -2.923  10.968  1.00  0.00     0.031 A 
ATOM     69  C   UNL     1      15.962  -5.285  11.351  1.00  0.00     0.131 A 
ATOM     70  C   UNL     1      17.378  -3.208  10.198  1.00  0.00     0.055 A 
ATOM     71  C   UNL     1      17.138  -5.556  10.648  1.00  0.00     0.041 A 
ATOM     72  F   UNL     1      15.278  -6.330  11.842  1.00  0.00    -0.206 F 
ATOM     73  C   UNL     1      17.845  -4.516  10.054  1.00  0.00     0.022 A 
BRANCH  70  74
ATOM     74  S   UNL     1      18.160  -1.859   9.269  1.00  0.00     0.124 S 
ATOM     75  O   UNL     1      17.057  -1.403   8.427  1.00  0.00    -0.237 OA
ATOM     76  O   UNL     1      18.576  -0.947  10.328  1.00  0.00    -0.237 OA
ATOM     77  O   UNL     1      19.248  -2.523   8.553  1.00  0.00    -0.744 OA
ENDBRANCH  70  74
ENDBRANCH  53  67
BRANCH  54  78
ATOM     78  C   UNL     1       6.625  -2.340  15.938  1.00  0.00     0.023 A 
ATOM     79  C   UNL     1       6.481  -1.472  17.033  1.00  0.00     0.031 A 
ATOM     80  C   UNL     1       5.492  -3.055  15.511  1.00  0.00     0.131 A 
ATOM     81  C   UNL     1       5.245  -1.377  17.692  1.00  0.00     0.055 A 
ATOM     82  C   UNL     1       4.253  -2.918  16.137  1.00  0.00     0.041 A 
ATOM     83  F   UNL     1       5.575  -3.898  14.469  1.00  0.00    -0.206 F 
ATOM     84  C   UNL     1       4.127  -2.084  17.243  1.00  0.00     0.022 A 
BRANCH  81  85
ATOM     85  S   UNL     1       5.138  -0.375  19.200  1.00  0.00     0.124 S 
ATOM     86  O   UNL     1       6.146  -1.002  20.047  1.00  0.00    -0.237 OA
ATOM     87  O   UNL     1       5.457   0.958  18.700  1.00  0.00    -0.237 OA
ATOM     88  O   UNL     1       3.755  -0.560  19.634  1.00  0.00    -0.744 OA
ENDBRANCH  81  85
ENDBRANCH  54  78
BRANCH  66  89
ATOM     89  C   UNL     1      12.709  -4.899  18.177  1.00  0.00     0.023 A 
ATOM     90  C   UNL     1      12.138  -6.032  18.785  1.00  0.00     0.031 A 
ATOM     91  C   UNL     1      13.693  -4.193  18.892  1.00  0.00     0.131 A 
ATOM     92  C   UNL     1      12.498  -6.380  20.096  1.00  0.00     0.055 A 
ATOM     93  C   UNL     1      14.097  -4.584  20.170  1.00  0.00     0.041 A 
ATOM     94  F   UNL     1      14.273  -3.104  18.363  1.00  0.00    -0.206 F 
ATOM     95  C   UNL     1      13.485  -5.672  20.786  1.00  0.00     0.022 A 
BRANCH  92  96
ATOM     96  S   UNL     1      11.569  -7.694  20.933  1.00  0.00     0.124 S 
ATOM     97  O   UNL     1      10.196  -7.213  20.824  1.00  0.00    -0.237 OA
ATOM     98  O   UNL     1      11.899  -8.867  20.130  1.00  0.00    -0.237 OA
ATOM     99  O   UNL     1      12.120  -7.694  22.287  1.00  0.00    -0.744 OA
ENDBRANCH  92  96
ENDBRANCH  66  89
ENDBRANCH  40  41
ENDBRANCH  33  35
ENDBRANCH  32  33
ENDBRANCH  31  32
ENDBRANCH  30  31
ENDBRANCH  29  30
ENDBRANCH   1  29
TORSDOF 25
