REMARK SMILES CC[C@H](C)CN(CC)c1ccc(/C=C/C(=O)OCCOCCOC(=O)c2ccc(-c3c4nc(c(-c5cc(S(=O)(=O)[O-])ccc5F)c5ccc([nH]5)c(-c5cc(S(=O)(=O)[O-])ccc5F)c5nc(c(-c6cc(S(=O)(=O)[O-])ccc6F)c6ccc3[nH]6)C=C5)C=C4)cc2)cc1F
REMARK SMILES IDX 19 1 18 2 17 3 15 4 16 5 14 6 13 7 12 8 9 9 10 10 90 11
REMARK SMILES IDX 11 12 89 13 91 14 6 15 5 16 3 17 4 18 2 19 1 20 7 21 8 22
REMARK SMILES IDX 20 23 21 24 22 25 23 26 24 27 25 28 26 29 27 30 88 31 28 32
REMARK SMILES IDX 87 33 29 34 30 35 31 36 81 37 32 38 86 39 80 40 82 41 33 42
REMARK SMILES IDX 85 43 79 44 78 45 34 47 66 48 46 49 65 50 47 51 50 52 64 53
REMARK SMILES IDX 83 54 48 55 49 56 63 58 84 59 51 60 35 61 36 62 44 63 37 64
REMARK SMILES IDX 43 65 45 66 42 67 38 68 39 69 40 70 41 71 67 72 68 73 76 74
REMARK SMILES IDX 69 75 75 76 77 77 74 78 70 79 71 80 72 81 73 82 52 83 53 84
REMARK SMILES IDX 61 85 54 86 60 87 62 88 59 89 55 90 56 91 57 92 58 93
REMARK H PARENT 82 46 50 57
REMARK Flexibility Score: inf
ROOT
ATOM      1  C   UNL     1      -0.240   4.791  -8.960  1.00  0.00     0.202 C 
ENDROOT
BRANCH   1   2
ATOM      2  C   UNL     1      -1.437   4.488  -8.054  1.00  0.00     0.261 C 
BRANCH   2   3
ATOM      3  O   UNL     1      -1.140   3.418  -7.142  1.00  0.00    -0.460 OA
BRANCH   3   4
ATOM      4  C   UNL     1      -1.849   2.286  -7.344  1.00  0.00     0.330 C 
ATOM      5  O   UNL     1      -2.796   2.137  -8.102  1.00  0.00    -0.247 OA
BRANCH   4   6
ATOM      6  C   UNL     1      -1.298   1.135  -6.600  1.00  0.00     0.094 C 
ATOM      7  C   UNL     1      -0.320   1.158  -5.680  1.00  0.00     0.016 C 
BRANCH   7   8
ATOM      8  C   UNL     1       0.170  -0.040  -4.965  1.00  0.00    -0.022 A 
ATOM      9  C   UNL     1       0.968  -2.261  -3.365  1.00  0.00     0.073 A 
ATOM     10  C   UNL     1      -0.015  -2.394  -4.345  1.00  0.00     0.029 A 
ATOM     11  C   UNL     1       1.599  -1.011  -3.259  1.00  0.00     0.147 A 
ATOM     12  C   UNL     1      -0.397  -1.310  -5.141  1.00  0.00     0.010 A 
ATOM     13  C   UNL     1       1.200   0.088  -4.027  1.00  0.00     0.049 A 
ATOM     14  F   UNL     1       2.566  -0.825  -2.345  1.00  0.00    -0.205 F 
BRANCH   9  15
ATOM     15  N   UNL     1       1.219  -3.297  -2.476  1.00  0.00    -0.369 N 
BRANCH  15  16
ATOM     16  C   UNL     1       0.354  -3.419  -1.292  1.00  0.00     0.120 C 
BRANCH  16  17
ATOM     17  C   UNL     1       0.662  -2.326  -0.236  1.00  0.00     0.005 C 
ATOM     18  C   UNL     1      -0.303  -1.137  -0.380  1.00  0.00     0.009 C 
BRANCH  17  19
ATOM     19  C   UNL     1       0.575  -2.888   1.199  1.00  0.00     0.002 C 
ATOM     20  C   UNL     1       1.293  -2.004   2.214  1.00  0.00     0.004 C 
ENDBRANCH  17  19
ENDBRANCH  16  17
ENDBRANCH  15  16
BRANCH  15  21
ATOM     21  C   UNL     1       2.065  -4.414  -2.889  1.00  0.00     0.113 C 
ATOM     22  C   UNL     1       1.372  -5.349  -3.872  1.00  0.00     0.027 C 
ENDBRANCH  15  21
ENDBRANCH   9  15
ENDBRANCH   7   8
ENDBRANCH   4   6
ENDBRANCH   3   4
ENDBRANCH   2   3
ENDBRANCH   1   2
BRANCH   1  23
ATOM     23  O   UNL     1       0.219   3.712  -9.775  1.00  0.00    -0.374 OA
BRANCH  23  24
ATOM     24  C   UNL     1       1.067   2.741  -9.157  1.00  0.00     0.202 C 
BRANCH  24  25
ATOM     25  C   UNL     1       2.524   3.152  -8.911  1.00  0.00     0.261 C 
BRANCH  25  26
ATOM     26  O   UNL     1       2.637   4.183  -7.913  1.00  0.00    -0.460 OA
BRANCH  26  27
ATOM     27  C   UNL     1       3.080   5.374  -8.382  1.00  0.00     0.338 C 
ATOM     28  O   UNL     1       3.462   5.616  -9.522  1.00  0.00    -0.246 OA
BRANCH  27  29
ATOM     29  C   UNL     1       2.872   6.434  -7.380  1.00  0.00     0.060 A 
ATOM     30  C   UNL     1       2.176   7.577  -7.793  1.00  0.00     0.016 A 
ATOM     31  C   UNL     1       3.414   6.359  -6.094  1.00  0.00     0.016 A 
ATOM     32  C   UNL     1       2.072   8.675  -6.943  1.00  0.00     0.010 A 
ATOM     33  C   UNL     1       3.315   7.469  -5.244  1.00  0.00     0.010 A 
ATOM     34  C   UNL     1       2.680   8.645  -5.681  1.00  0.00    -0.014 A 
BRANCH  34  35
ATOM     35  C   UNL     1       2.781   9.909  -4.908  1.00  0.00     0.031 A 
ATOM     36  C   UNL     1       4.060  10.701  -4.974  1.00  0.00     0.074 A 
ATOM     37  C   UNL     1       1.721  10.390  -4.233  1.00  0.00     0.049 A 
ATOM     38  N   UNL     1       4.353  11.849  -4.421  1.00  0.00    -0.248 NA
ATOM     39  C   UNL     1       5.152  10.124  -5.776  1.00  0.00     0.031 C 
ATOM     40  C   UNL     1       0.414   9.741  -4.144  1.00  0.00     0.029 A 
ATOM     41  N   UNL     1       1.572  11.547  -3.510  1.00  0.00    -0.354 N 
ATOM     42  C   UNL     1       5.656  12.137  -4.811  1.00  0.00     0.074 A 
ATOM     43  C   UNL     1       6.111  11.025  -5.617  1.00  0.00     0.031 C 
ATOM     44  C   UNL     1      -0.410  10.517  -3.420  1.00  0.00     0.029 A 
ATOM     45  C   UNL     1       0.318  11.702  -2.968  1.00  0.00     0.049 A 
ATOM     46  H   UNL     1       2.295  12.204  -3.391  1.00  0.00     0.167 HD
ATOM     47  C   UNL     1       6.399  13.235  -4.536  1.00  0.00     0.034 A 
ATOM     48  C   UNL     1      -0.183  12.682  -2.188  1.00  0.00     0.034 A 
ATOM     49  C   UNL     1       5.937  14.340  -3.738  1.00  0.00     0.049 A 
ATOM     50  C   UNL     1       0.695  13.850  -1.814  1.00  0.00     0.074 A 
ATOM     51  C   UNL     1       6.607  15.508  -3.417  1.00  0.00     0.029 A 
ATOM     52  N   UNL     1       4.693  14.414  -3.128  1.00  0.00    -0.354 N 
ATOM     53  N   UNL     1       1.931  14.097  -2.177  1.00  0.00    -0.248 NA
ATOM     54  C   UNL     1       0.114  14.865  -0.924  1.00  0.00     0.031 C 
ATOM     55  C   UNL     1       5.794  16.257  -2.562  1.00  0.00     0.029 A 
ATOM     56  C   UNL     1       4.591  15.589  -2.403  1.00  0.00     0.049 A 
ATOM     57  H   UNL     1       3.987  13.731  -3.200  1.00  0.00     0.167 HD
ATOM     58  C   UNL     1       2.270  15.305  -1.573  1.00  0.00     0.074 A 
ATOM     59  C   UNL     1       1.109  15.738  -0.823  1.00  0.00     0.031 C 
ATOM     60  C   UNL     1       3.435  15.996  -1.643  1.00  0.00     0.034 A 
BRANCH  47  61
ATOM     61  C   UNL     1       7.804  13.281  -5.074  1.00  0.00     0.023 A 
ATOM     62  C   UNL     1       8.063  13.432  -6.446  1.00  0.00     0.031 A 
ATOM     63  C   UNL     1       8.898  13.193  -4.195  1.00  0.00     0.131 A 
ATOM     64  C   UNL     1       9.389  13.454  -6.905  1.00  0.00     0.055 A 
ATOM     65  C   UNL     1      10.214  13.275  -4.652  1.00  0.00     0.041 A 
ATOM     66  F   UNL     1       8.703  13.029  -2.877  1.00  0.00    -0.206 F 
ATOM     67  C   UNL     1      10.465  13.400  -6.016  1.00  0.00     0.022 A 
BRANCH  64  68
ATOM     68  S   UNL     1       9.691  13.484  -8.693  1.00  0.00     0.124 S 
ATOM     69  O   UNL     1       9.152  12.190  -9.103  1.00  0.00    -0.237 OA
ATOM     70  O   UNL     1       8.938  14.656  -9.124  1.00  0.00    -0.237 OA
ATOM     71  O   UNL     1      11.144  13.607  -8.792  1.00  0.00    -0.744 OA
ENDBRANCH  64  68
ENDBRANCH  47  61
BRANCH  48  72
ATOM     72  C   UNL     1      -1.578  12.583  -1.678  1.00  0.00     0.023 A 
ATOM     73  C   UNL     1      -2.583  13.454  -2.128  1.00  0.00     0.031 A 
ATOM     74  C   UNL     1      -1.923  11.608  -0.724  1.00  0.00     0.131 A 
ATOM     75  C   UNL     1      -3.884  13.342  -1.611  1.00  0.00     0.055 A 
ATOM     76  C   UNL     1      -3.225  11.479  -0.240  1.00  0.00     0.041 A 
ATOM     77  F   UNL     1      -0.997  10.751  -0.266  1.00  0.00    -0.206 F 
ATOM     78  C   UNL     1      -4.214  12.353  -0.680  1.00  0.00     0.022 A 
BRANCH  75  79
ATOM     79  S   UNL     1      -5.146  14.524  -2.158  1.00  0.00     0.124 S 
ATOM     80  O   UNL     1      -4.630  15.778  -1.622  1.00  0.00    -0.237 OA
ATOM     81  O   UNL     1      -5.096  14.375  -3.609  1.00  0.00    -0.237 OA
ATOM     82  O   UNL     1      -6.369  14.031  -1.527  1.00  0.00    -0.744 OA
ENDBRANCH  75  79
ENDBRANCH  48  72
BRANCH  60  83
ATOM     83  C   UNL     1       3.519  17.305  -0.907  1.00  0.00     0.023 A 
ATOM     84  C   UNL     1       3.664  17.351   0.489  1.00  0.00     0.031 A 
ATOM     85  C   UNL     1       3.536  18.517  -1.621  1.00  0.00     0.131 A 
ATOM     86  C   UNL     1       3.809  18.589   1.132  1.00  0.00     0.055 A 
ATOM     87  C   UNL     1       3.720  19.742  -0.981  1.00  0.00     0.041 A 
ATOM     88  F   UNL     1       3.409  18.521  -2.958  1.00  0.00    -0.206 F 
ATOM     89  C   UNL     1       3.857  19.782   0.405  1.00  0.00     0.022 A 
BRANCH  86  90
ATOM     90  S   UNL     1       3.938  18.628   2.941  1.00  0.00     0.124 S 
ATOM     91  O   UNL     1       2.600  18.207   3.347  1.00  0.00    -0.237 OA
ATOM     92  O   UNL     1       5.012  17.675   3.205  1.00  0.00    -0.237 OA
ATOM     93  O   UNL     1       4.266  20.022   3.232  1.00  0.00    -0.744 OA
ENDBRANCH  86  90
ENDBRANCH  60  83
ENDBRANCH  34  35
ENDBRANCH  27  29
ENDBRANCH  26  27
ENDBRANCH  25  26
ENDBRANCH  24  25
ENDBRANCH  23  24
ENDBRANCH   1  23
TORSDOF 23
