REMARK SMILES O=C(OCCOCCOC(=O)[C@@H]1[C@@H](C(=O)Nc2cccc(C(F)(F)F)c2)[C@@H]2C=C[C@H]1O2)c1ccc(-c2c3nc(c(-c4cc(S(=O)(=O)[O-])ccc4F)c4ccc([nH]4)c(-c4cc(S(=O)(=O)[O-])ccc4F)c4nc(c(-c5cc(S(=O)(=O)[O-])ccc5F)c5ccc2[nH]5)C=C4)C=C3)cc1
REMARK SMILES IDX 6 1 5 2 4 3 3 4 2 5 1 6 32 7 33 8 94 9 34 10 93 11 35 12
REMARK SMILES IDX 36 13 37 14 87 15 38 16 92 17 86 18 88 19 39 20 91 21 85 22
REMARK SMILES IDX 84 23 40 25 72 26 52 27 71 28 53 29 56 30 70 31 89 32 54 33
REMARK SMILES IDX 55 34 69 36 90 37 57 38 41 39 42 40 50 41 43 42 49 43 51 44
REMARK SMILES IDX 48 45 44 46 45 47 46 48 47 49 73 50 74 51 82 52 75 53 81 54
REMARK SMILES IDX 83 55 80 56 76 57 77 58 78 59 79 60 58 61 59 62 67 63 60 64
REMARK SMILES IDX 66 65 68 66 65 67 61 68 62 69 63 70 64 71 7 72 8 73 9 74
REMARK SMILES IDX 10 75 11 76 12 77 13 78 30 79 27 80 29 81 31 82 28 83 14 84
REMARK SMILES IDX 15 85 16 86 17 88 18 89 26 90 19 91 21 92 20 93 22 94 23 95
REMARK SMILES IDX 24 96 25 97
REMARK H PARENT 88 24 56 35 16 87
REMARK Flexibility Score: inf
ROOT
ATOM      1  O   UNL     1       3.843   1.762  -0.582  1.00  0.00    -0.374 OA
ENDROOT
BRANCH   1   2
ATOM      2  C   UNL     1       4.212   0.489  -1.089  1.00  0.00     0.202 C 
BRANCH   2   3
ATOM      3  C   UNL     1       3.662  -0.758  -0.396  1.00  0.00     0.261 C 
BRANCH   3   4
ATOM      4  O   UNL     1       2.239  -0.661  -0.196  1.00  0.00    -0.460 OA
BRANCH   4   5
ATOM      5  C   UNL     1       1.627  -0.510   1.011  1.00  0.00     0.338 C 
ATOM      6  O   UNL     1       0.411  -0.618   1.117  1.00  0.00    -0.246 OA
BRANCH   5   7
ATOM      7  C   UNL     1       2.448  -0.231   2.212  1.00  0.00     0.060 A 
ATOM      8  C   UNL     1       3.496   0.676   2.155  1.00  0.00     0.016 A 
ATOM      9  C   UNL     1       2.169  -0.848   3.429  1.00  0.00     0.016 A 
ATOM     10  C   UNL     1       4.403   0.811   3.171  1.00  0.00     0.010 A 
ATOM     11  C   UNL     1       2.972  -0.563   4.541  1.00  0.00     0.010 A 
ATOM     12  C   UNL     1       4.103   0.259   4.402  1.00  0.00    -0.014 A 
BRANCH  12  13
ATOM     13  C   UNL     1       5.035   0.572   5.495  1.00  0.00     0.031 A 
ATOM     14  C   UNL     1       5.825  -0.542   6.090  1.00  0.00     0.074 A 
ATOM     15  C   UNL     1       5.248   1.865   5.818  1.00  0.00     0.049 A 
ATOM     16  N   UNL     1       6.588  -0.537   7.143  1.00  0.00    -0.248 NA
ATOM     17  C   UNL     1       5.737  -1.844   5.407  1.00  0.00     0.031 C 
ATOM     18  C   UNL     1       4.625   3.021   5.155  1.00  0.00     0.029 A 
ATOM     19  N   UNL     1       6.075   2.436   6.745  1.00  0.00    -0.354 N 
ATOM     20  C   UNL     1       7.025  -1.846   7.290  1.00  0.00     0.074 A 
ATOM     21  C   UNL     1       6.441  -2.618   6.216  1.00  0.00     0.031 C 
ATOM     22  C   UNL     1       5.130   4.153   5.662  1.00  0.00     0.029 A 
ATOM     23  C   UNL     1       5.998   3.810   6.775  1.00  0.00     0.049 A 
ATOM     24  H   UNL     1       6.668   1.915   7.333  1.00  0.00     0.167 HD
ATOM     25  C   UNL     1       7.829  -2.339   8.261  1.00  0.00     0.034 A 
ATOM     26  C   UNL     1       6.515   4.684   7.658  1.00  0.00     0.034 A 
ATOM     27  C   UNL     1       8.376  -1.503   9.299  1.00  0.00     0.049 A 
ATOM     28  C   UNL     1       7.313   4.098   8.791  1.00  0.00     0.074 A 
ATOM     29  C   UNL     1       9.134  -1.861  10.396  1.00  0.00     0.029 A 
ATOM     30  N   UNL     1       8.216  -0.119   9.358  1.00  0.00    -0.354 N 
ATOM     31  N   UNL     1       7.624   2.838   9.011  1.00  0.00    -0.248 NA
ATOM     32  C   UNL     1       7.812   5.032   9.800  1.00  0.00     0.031 C 
ATOM     33  C   UNL     1       9.373  -0.707  11.151  1.00  0.00     0.029 A 
ATOM     34  C   UNL     1       8.840   0.388  10.483  1.00  0.00     0.049 A 
ATOM     35  H   UNL     1       7.728   0.420   8.694  1.00  0.00     0.167 HD
ATOM     36  C   UNL     1       8.375   2.831  10.179  1.00  0.00     0.074 A 
ATOM     37  C   UNL     1       8.488   4.218  10.597  1.00  0.00     0.031 C 
ATOM     38  C   UNL     1       8.919   1.784  10.853  1.00  0.00     0.034 A 
BRANCH  25  39
ATOM     39  C   UNL     1       8.030  -3.833   8.285  1.00  0.00     0.023 A 
ATOM     40  C   UNL     1       8.659  -4.522   7.232  1.00  0.00     0.031 A 
ATOM     41  C   UNL     1       7.473  -4.595   9.328  1.00  0.00     0.131 A 
ATOM     42  C   UNL     1       8.633  -5.925   7.201  1.00  0.00     0.055 A 
ATOM     43  C   UNL     1       7.530  -5.990   9.335  1.00  0.00     0.041 A 
ATOM     44  F   UNL     1       6.825  -3.997  10.340  1.00  0.00    -0.206 F 
ATOM     45  C   UNL     1       8.096  -6.664   8.258  1.00  0.00     0.022 A 
BRANCH  42  46
ATOM     46  S   UNL     1       9.145  -6.769   5.678  1.00  0.00     0.124 S 
ATOM     47  O   UNL     1       8.185  -6.240   4.711  1.00  0.00    -0.237 OA
ATOM     48  O   UNL     1      10.524  -6.322   5.516  1.00  0.00    -0.237 OA
ATOM     49  O   UNL     1       8.981  -8.185   5.997  1.00  0.00    -0.744 OA
ENDBRANCH  42  46
ENDBRANCH  25  39
BRANCH  26  50
ATOM     50  C   UNL     1       6.210   6.144   7.570  1.00  0.00     0.023 A 
ATOM     51  C   UNL     1       7.232   7.099   7.462  1.00  0.00     0.031 A 
ATOM     52  C   UNL     1       4.883   6.616   7.638  1.00  0.00     0.131 A 
ATOM     53  C   UNL     1       6.918   8.469   7.471  1.00  0.00     0.055 A 
ATOM     54  C   UNL     1       4.572   7.975   7.579  1.00  0.00     0.041 A 
ATOM     55  F   UNL     1       3.858   5.755   7.750  1.00  0.00    -0.206 F 
ATOM     56  C   UNL     1       5.595   8.913   7.511  1.00  0.00     0.022 A 
BRANCH  53  57
ATOM     57  S   UNL     1       8.275   9.672   7.534  1.00  0.00     0.124 S 
ATOM     58  O   UNL     1       8.994   9.244   8.729  1.00  0.00    -0.237 OA
ATOM     59  O   UNL     1       8.947   9.437   6.261  1.00  0.00    -0.237 OA
ATOM     60  O   UNL     1       7.586  10.956   7.647  1.00  0.00    -0.744 OA
ENDBRANCH  53  57
ENDBRANCH  26  50
BRANCH  38  61
ATOM     61  C   UNL     1       9.725   2.130  12.075  1.00  0.00     0.023 A 
ATOM     62  C   UNL     1       9.126   2.671  13.223  1.00  0.00     0.031 A 
ATOM     63  C   UNL     1      11.115   1.921  12.079  1.00  0.00     0.131 A 
ATOM     64  C   UNL     1       9.927   3.044  14.310  1.00  0.00     0.055 A 
ATOM     65  C   UNL     1      11.895   2.225  13.191  1.00  0.00     0.041 A 
ATOM     66  F   UNL     1      11.732   1.410  11.001  1.00  0.00    -0.206 F 
ATOM     67  C   UNL     1      11.304   2.804  14.310  1.00  0.00     0.022 A 
BRANCH  64  68
ATOM     68  S   UNL     1       9.157   3.946  15.681  1.00  0.00     0.124 S 
ATOM     69  O   UNL     1       8.615   5.119  15.003  1.00  0.00    -0.237 OA
ATOM     70  O   UNL     1       8.176   2.986  16.175  1.00  0.00    -0.237 OA
ATOM     71  O   UNL     1      10.275   4.212  16.584  1.00  0.00    -0.744 OA
ENDBRANCH  64  68
ENDBRANCH  38  61
ENDBRANCH  12  13
ENDBRANCH   5   7
ENDBRANCH   4   5
ENDBRANCH   3   4
ENDBRANCH   2   3
ENDBRANCH   1   2
BRANCH   1  72
ATOM     72  C   UNL     1       2.561   2.263  -0.949  1.00  0.00     0.202 C 
BRANCH  72  73
ATOM     73  C   UNL     1       2.764   3.555  -1.733  1.00  0.00     0.261 C 
BRANCH  73  74
ATOM     74  O   UNL     1       3.361   3.221  -2.999  1.00  0.00    -0.463 OA
BRANCH  74  75
ATOM     75  C   UNL     1       4.721   3.091  -3.026  1.00  0.00     0.312 C 
ATOM     76  O   UNL     1       5.499   3.500  -2.174  1.00  0.00    -0.252 OA
BRANCH  75  77
ATOM     77  C   UNL     1       5.134   2.427  -4.304  1.00  0.00     0.147 C 
ATOM     78  C   UNL     1       4.137   1.339  -4.801  1.00  0.00     0.129 C 
ATOM     79  C   UNL     1       6.445   1.633  -4.251  1.00  0.00     0.157 C 
ATOM     80  C   UNL     1       5.101   0.212  -5.218  1.00  0.00     0.155 C 
ATOM     81  C   UNL     1       6.436   0.394  -3.400  1.00  0.00     0.004 C 
ATOM     82  O   UNL     1       6.302   0.970  -5.548  1.00  0.00    -0.365 OA
ATOM     83  C   UNL     1       5.617  -0.483  -3.997  1.00  0.00     0.004 C 
BRANCH  78  84
ATOM     84  C   UNL     1       3.308   1.802  -5.976  1.00  0.00     0.231 C 
ATOM     85  O   UNL     1       3.457   2.907  -6.500  1.00  0.00    -0.274 OA
ATOM     86  N   UNL     1       2.405   0.948  -6.544  1.00  0.00    -0.326 N 
ATOM     87  H   UNL     1       2.137   1.198  -7.458  1.00  0.00     0.169 HD
BRANCH  86  88
ATOM     88  C   UNL     1       1.788  -0.217  -6.068  1.00  0.00     0.041 A 
ATOM     89  C   UNL     1       1.504  -1.206  -7.013  1.00  0.00     0.026 A 
ATOM     90  C   UNL     1       1.347  -0.380  -4.751  1.00  0.00     0.039 A 
ATOM     91  C   UNL     1       0.849  -2.378  -6.641  1.00  0.00     0.003 A 
ATOM     92  C   UNL     1       0.636  -1.538  -4.376  1.00  0.00     0.058 A 
ATOM     93  C   UNL     1       0.418  -2.546  -5.328  1.00  0.00     0.013 A 
BRANCH  92  94
ATOM     94  C   UNL     1       0.066  -1.698  -2.983  1.00  0.00     0.416 C 
ATOM     95  F   UNL     1      -1.262  -2.003  -3.008  1.00  0.00    -0.166 F 
ATOM     96  F   UNL     1       0.670  -2.701  -2.292  1.00  0.00    -0.166 F 
ATOM     97  F   UNL     1       0.179  -0.574  -2.230  1.00  0.00    -0.166 F 
ENDBRANCH  92  94
ENDBRANCH  86  88
ENDBRANCH  78  84
ENDBRANCH  75  77
ENDBRANCH  74  75
ENDBRANCH  73  74
ENDBRANCH  72  73
ENDBRANCH   1  72
TORSDOF 20
