REMARK SMILES O=C(OCCOCCOC(=O)[C@@H](Cc1ccc(O)cc1)Nc1c2ccccc2nc2ccccc12)c1ccc(-c2c3nc(c(-c4cc(S(=O)(=O)[O-])ccc4F)c4ccc([nH]4)c(-c4cc(S(=O)(=O)[O-])ccc4F)c4nc(c(-c5cc(S(=O)(=O)[O-])ccc5F)c5ccc2[nH]5)C=C4)C=C3)cc1
REMARK SMILES IDX 6 1 5 2 4 3 3 4 2 5 1 6 36 7 37 8 98 9 38 10 97 11 39 12
REMARK SMILES IDX 40 13 41 14 91 15 42 16 96 17 90 18 92 19 43 20 95 21 89 22
REMARK SMILES IDX 88 23 44 25 76 26 56 27 75 28 57 29 60 30 74 31 93 32 58 33
REMARK SMILES IDX 59 34 73 36 94 37 61 38 45 39 46 40 54 41 47 42 53 43 55 44
REMARK SMILES IDX 52 45 48 46 49 47 50 48 51 49 77 50 78 51 86 52 79 53 85 54
REMARK SMILES IDX 87 55 84 56 80 57 81 58 82 59 83 60 62 61 63 62 71 63 64 64
REMARK SMILES IDX 70 65 72 66 69 67 65 68 66 69 67 70 68 71 7 72 8 73 9 74
REMARK SMILES IDX 10 75 11 76 12 77 13 78 14 79 15 80 20 81 16 82 19 83 17 84
REMARK SMILES IDX 18 85 21 87 22 89 23 90 35 91 24 92 28 93 30 94 34 95 25 96
REMARK SMILES IDX 27 97 29 98 31 99 33 100 26 101 32 102
REMARK H PARENT 92 24 60 35 18 86 21 88
REMARK Flexibility Score: inf
ROOT
ATOM      1  O   UNL     1       4.349   0.285  -1.748  1.00  0.00    -0.374 OA
ENDROOT
BRANCH   1   2
ATOM      2  C   UNL     1       4.680  -0.852  -0.950  1.00  0.00     0.202 C 
BRANCH   2   3
ATOM      3  C   UNL     1       4.292  -0.874   0.542  1.00  0.00     0.261 C 
BRANCH   3   4
ATOM      4  O   UNL     1       2.888  -0.637   0.746  1.00  0.00    -0.460 OA
BRANCH   4   5
ATOM      5  C   UNL     1       2.271   0.522   1.081  1.00  0.00     0.338 C 
ATOM      6  O   UNL     1       1.073   0.486   1.357  1.00  0.00    -0.246 OA
BRANCH   5   7
ATOM      7  C   UNL     1       2.956   1.851   1.046  1.00  0.00     0.060 A 
ATOM      8  C   UNL     1       4.210   2.071   0.485  1.00  0.00     0.016 A 
ATOM      9  C   UNL     1       2.260   2.969   1.541  1.00  0.00     0.016 A 
ATOM     10  C   UNL     1       4.763   3.321   0.382  1.00  0.00     0.010 A 
ATOM     11  C   UNL     1       2.815   4.252   1.457  1.00  0.00     0.010 A 
ATOM     12  C   UNL     1       4.070   4.415   0.868  1.00  0.00    -0.014 A 
BRANCH  12  13
ATOM     13  C   UNL     1       4.842   5.657   0.855  1.00  0.00     0.031 A 
ATOM     14  C   UNL     1       5.652   5.965   2.071  1.00  0.00     0.074 A 
ATOM     15  C   UNL     1       5.044   6.263  -0.328  1.00  0.00     0.049 A 
ATOM     16  N   UNL     1       6.482   6.943   2.286  1.00  0.00    -0.248 NA
ATOM     17  C   UNL     1       5.541   5.004   3.184  1.00  0.00     0.031 C 
ATOM     18  C   UNL     1       4.463   5.824  -1.604  1.00  0.00     0.029 A 
ATOM     19  N   UNL     1       5.843   7.313  -0.671  1.00  0.00    -0.354 N 
ATOM     20  C   UNL     1       6.976   6.734   3.568  1.00  0.00     0.074 A 
ATOM     21  C   UNL     1       6.364   5.529   4.076  1.00  0.00     0.031 C 
ATOM     22  C   UNL     1       4.949   6.591  -2.592  1.00  0.00     0.029 A 
ATOM     23  C   UNL     1       5.799   7.621  -2.010  1.00  0.00     0.049 A 
ATOM     24  H   UNL     1       6.398   7.804  -0.022  1.00  0.00     0.167 HD
ATOM     25  C   UNL     1       7.847   7.512   4.252  1.00  0.00     0.034 A 
ATOM     26  C   UNL     1       6.352   8.659  -2.665  1.00  0.00     0.034 A 
ATOM     27  C   UNL     1       8.384   8.725   3.691  1.00  0.00     0.049 A 
ATOM     28  C   UNL     1       7.175   9.613  -1.837  1.00  0.00     0.074 A 
ATOM     29  C   UNL     1       9.143   9.707   4.296  1.00  0.00     0.029 A 
ATOM     30  N   UNL     1       8.198   9.121   2.367  1.00  0.00    -0.354 N 
ATOM     31  N   UNL     1       7.518   9.516  -0.570  1.00  0.00    -0.248 NA
ATOM     32  C   UNL     1       7.662  10.819  -2.507  1.00  0.00     0.031 C 
ATOM     33  C   UNL     1       9.356  10.726   3.357  1.00  0.00     0.029 A 
ATOM     34  C   UNL     1       8.798  10.346   2.143  1.00  0.00     0.049 A 
ATOM     35  H   UNL     1       7.708   8.602   1.689  1.00  0.00     0.167 HD
ATOM     36  C   UNL     1       8.266  10.651  -0.289  1.00  0.00     0.074 A 
ATOM     37  C   UNL     1       8.347  11.400  -1.532  1.00  0.00     0.031 C 
ATOM     38  C   UNL     1       8.829  11.053   0.881  1.00  0.00     0.034 A 
BRANCH  25  39
ATOM     39  C   UNL     1       8.095   7.132   5.691  1.00  0.00     0.023 A 
ATOM     40  C   UNL     1       8.722   5.924   6.049  1.00  0.00     0.031 A 
ATOM     41  C   UNL     1       7.549   7.920   6.720  1.00  0.00     0.131 A 
ATOM     42  C   UNL     1       8.699   5.495   7.387  1.00  0.00     0.055 A 
ATOM     43  C   UNL     1       7.605   7.527   8.059  1.00  0.00     0.041 A 
ATOM     44  F   UNL     1       6.901   9.060   6.436  1.00  0.00    -0.206 F 
ATOM     45  C   UNL     1       8.164   6.299   8.397  1.00  0.00     0.022 A 
BRANCH  42  46
ATOM     46  S   UNL     1       9.198   3.789   7.764  1.00  0.00     0.124 S 
ATOM     47  O   UNL     1       8.257   3.020   6.952  1.00  0.00    -0.237 OA
ATOM     48  O   UNL     1      10.589   3.763   7.327  1.00  0.00    -0.237 OA
ATOM     49  O   UNL     1       8.995   3.682   9.207  1.00  0.00    -0.744 OA
ENDBRANCH  42  46
ENDBRANCH  25  39
BRANCH  26  50
ATOM     50  C   UNL     1       6.051   8.902  -4.107  1.00  0.00     0.023 A 
ATOM     51  C   UNL     1       7.065   8.984  -5.074  1.00  0.00     0.031 A 
ATOM     52  C   UNL     1       4.722   9.096  -4.537  1.00  0.00     0.131 A 
ATOM     53  C   UNL     1       6.737   9.277  -6.410  1.00  0.00     0.055 A 
ATOM     54  C   UNL     1       4.397   9.331  -5.873  1.00  0.00     0.041 A 
ATOM     55  F   UNL     1       3.708   9.046  -3.658  1.00  0.00    -0.206 F 
ATOM     56  C   UNL     1       5.410   9.434  -6.818  1.00  0.00     0.022 A 
BRANCH  53  57
ATOM     57  S   UNL     1       8.078   9.531  -7.606  1.00  0.00     0.124 S 
ATOM     58  O   UNL     1       8.837  10.607  -6.977  1.00  0.00    -0.237 OA
ATOM     59  O   UNL     1       8.717   8.220  -7.627  1.00  0.00    -0.237 OA
ATOM     60  O   UNL     1       7.375   9.899  -8.833  1.00  0.00    -0.744 OA
ENDBRANCH  53  57
ENDBRANCH  26  50
BRANCH  38  61
ATOM     61  C   UNL     1       9.592  12.348   0.835  1.00  0.00     0.023 A 
ATOM     62  C   UNL     1       8.936  13.576   0.657  1.00  0.00     0.031 A 
ATOM     63  C   UNL     1      10.991  12.345   0.965  1.00  0.00     0.131 A 
ATOM     64  C   UNL     1       9.687  14.753   0.556  1.00  0.00     0.055 A 
ATOM     65  C   UNL     1      11.728  13.527   0.925  1.00  0.00     0.041 A 
ATOM     66  F   UNL     1      11.660  11.194   1.137  1.00  0.00    -0.206 F 
ATOM     67  C   UNL     1      11.077  14.739   0.707  1.00  0.00     0.022 A 
BRANCH  64  68
ATOM     68  S   UNL     1       8.830  16.293   0.135  1.00  0.00     0.124 S 
ATOM     69  O   UNL     1       8.239  15.966  -1.159  1.00  0.00    -0.237 OA
ATOM     70  O   UNL     1       7.894  16.443   1.244  1.00  0.00    -0.237 OA
ATOM     71  O   UNL     1       9.905  17.282   0.094  1.00  0.00    -0.744 OA
ENDBRANCH  64  68
ENDBRANCH  38  61
ENDBRANCH  12  13
ENDBRANCH   5   7
ENDBRANCH   4   5
ENDBRANCH   3   4
ENDBRANCH   2   3
ENDBRANCH   1   2
BRANCH   1  72
ATOM     72  C   UNL     1       3.020   0.382  -2.268  1.00  0.00     0.202 C 
BRANCH  72  73
ATOM     73  C   UNL     1       2.835  -0.265  -3.647  1.00  0.00     0.261 C 
BRANCH  73  74
ATOM     74  O   UNL     1       3.008  -1.691  -3.565  1.00  0.00    -0.462 OA
BRANCH  74  75
ATOM     75  C   UNL     1       4.272  -2.132  -3.780  1.00  0.00     0.328 C 
ATOM     76  O   UNL     1       5.161  -1.449  -4.281  1.00  0.00    -0.250 OA
BRANCH  75  77
ATOM     77  C   UNL     1       4.498  -3.587  -3.331  1.00  0.00     0.194 C 
BRANCH  77  78
ATOM     78  C   UNL     1       3.816  -4.142  -2.050  1.00  0.00     0.072 C 
BRANCH  78  79
ATOM     79  C   UNL     1       2.310  -4.161  -1.924  1.00  0.00    -0.045 A 
ATOM     80  C   UNL     1       1.609  -3.053  -1.428  1.00  0.00     0.007 A 
ATOM     81  C   UNL     1       1.583  -5.319  -2.216  1.00  0.00     0.007 A 
ATOM     82  C   UNL     1       0.222  -3.056  -1.299  1.00  0.00     0.046 A 
ATOM     83  C   UNL     1       0.194  -5.344  -2.054  1.00  0.00     0.046 A 
ATOM     84  C   UNL     1      -0.478  -4.206  -1.620  1.00  0.00     0.115 A 
BRANCH  84  85
ATOM     85  O   UNL     1      -1.835  -4.256  -1.512  1.00  0.00    -0.508 OA
ATOM     86  H   UNL     1      -2.310  -3.502  -1.222  1.00  0.00     0.293 HD
ENDBRANCH  84  85
ENDBRANCH  78  79
ENDBRANCH  77  78
BRANCH  77  87
ATOM     87  N   UNL     1       4.287  -4.522  -4.447  1.00  0.00    -0.371 N 
ATOM     88  H   UNL     1       3.442  -5.020  -4.540  1.00  0.00     0.161 HD
BRANCH  87  89
ATOM     89  C   UNL     1       5.334  -4.683  -5.381  1.00  0.00     0.054 A 
ATOM     90  C   UNL     1       6.571  -5.290  -5.004  1.00  0.00     0.024 A 
ATOM     91  C   UNL     1       5.187  -4.164  -6.699  1.00  0.00     0.024 A 
ATOM     92  C   UNL     1       6.891  -5.753  -3.699  1.00  0.00     0.012 A 
ATOM     93  C   UNL     1       7.543  -5.444  -6.009  1.00  0.00     0.073 A 
ATOM     94  C   UNL     1       6.227  -4.421  -7.611  1.00  0.00     0.073 A 
ATOM     95  C   UNL     1       4.086  -3.381  -7.138  1.00  0.00     0.012 A 
ATOM     96  C   UNL     1       8.145  -6.272  -3.384  1.00  0.00     0.001 A 
ATOM     97  C   UNL     1       8.771  -6.009  -5.685  1.00  0.00     0.029 A 
ATOM     98  N   UNL     1       7.351  -5.069  -7.279  1.00  0.00    -0.248 NA
ATOM     99  C   UNL     1       6.107  -3.969  -8.919  1.00  0.00     0.029 A 
ATOM    100  C   UNL     1       4.009  -2.900  -8.445  1.00  0.00     0.001 A 
ATOM    101  C   UNL     1       9.090  -6.404  -4.385  1.00  0.00     0.002 A 
ATOM    102  C   UNL     1       5.014  -3.213  -9.345  1.00  0.00     0.002 A 
ENDBRANCH  87  89
ENDBRANCH  77  87
ENDBRANCH  75  77
ENDBRANCH  74  75
ENDBRANCH  73  74
ENDBRANCH  72  73
ENDBRANCH   1  72
TORSDOF 22
