REMARK SMILES COc1ccc(-n2c(=O)[nH]c3cc(C(=O)OCCOCCOC(=O)c4ccc(-c5c6nc(c(-c7cc(S(=O)(=O)[O-])ccc7F)c7ccc([nH]7)c(-c7cc(S(=O)(=O)[O-])ccc7F)c7nc(c(-c8cc(S(=O)(=O)[O-])ccc8F)c8ccc5[nH]8)C=C7)C=C6)cc4)ccc3c2=O)cc1
REMARK SMILES IDX 20 1 19 2 18 3 17 4 16 5 14 6 15 7 13 8 7 9 8 10 91 11 9 12
REMARK SMILES IDX 10 13 90 14 92 15 11 16 89 18 12 19 88 20 6 21 3 22 4 23
REMARK SMILES IDX 94 24 5 25 93 26 2 27 1 28 21 29 22 30 23 31 24 32 25 33
REMARK SMILES IDX 26 34 87 35 27 36 86 37 28 38 29 39 30 40 80 41 31 42 85 43
REMARK SMILES IDX 79 44 81 45 32 46 84 47 78 48 77 49 33 51 65 52 45 53 64 54
REMARK SMILES IDX 46 55 49 56 63 57 82 58 47 59 48 60 62 62 83 63 50 64 34 65
REMARK SMILES IDX 35 66 43 67 36 68 42 69 44 70 41 71 37 72 38 73 39 74 40 75
REMARK SMILES IDX 66 76 67 77 75 78 68 79 74 80 76 81 73 82 69 83 70 84 71 85
REMARK SMILES IDX 72 86 51 87 52 88 60 89 53 90 59 91 61 92 58 93 54 94 55 95
REMARK SMILES IDX 56 96 57 97
REMARK H PARENT 10 17 81 50 49 61
REMARK Flexibility Score: inf
ROOT
ATOM      1  C   UNL     1       4.665   7.926  10.915  1.00  0.00     0.202 C 
ENDROOT
BRANCH   1   2
ATOM      2  O   UNL     1       5.014   9.299  11.091  1.00  0.00    -0.374 OA
BRANCH   2   3
ATOM      3  C   UNL     1       3.971  10.187  11.500  1.00  0.00     0.202 C 
BRANCH   3   4
ATOM      4  C   UNL     1       3.057  10.713  10.389  1.00  0.00     0.261 C 
BRANCH   4   5
ATOM      5  O   UNL     1       2.352   9.642   9.736  1.00  0.00    -0.460 OA
BRANCH   5   6
ATOM      6  C   UNL     1       2.778   9.382   8.483  1.00  0.00     0.338 C 
ATOM      7  O   UNL     1       3.580  10.027   7.819  1.00  0.00    -0.246 OA
BRANCH   6   8
ATOM      8  C   UNL     1       2.293   8.066   8.026  1.00  0.00     0.062 A 
ATOM      9  N   UNL     1       2.065   4.022   5.085  1.00  0.00    -0.228 N 
ATOM     10  C   UNL     1       3.427   4.215   5.343  1.00  0.00     0.333 A 
ATOM     11  C   UNL     1       1.095   4.538   5.969  1.00  0.00     0.268 A 
ATOM     12  O   UNL     1       4.381   3.571   4.907  1.00  0.00    -0.247 OA
ATOM     13  N   UNL     1       3.751   5.271   6.149  1.00  0.00    -0.306 N 
ATOM     14  C   UNL     1       1.490   5.702   6.793  1.00  0.00     0.064 A 
ATOM     15  O   UNL     1      -0.044   4.102   6.130  1.00  0.00    -0.268 OA
ATOM     16  C   UNL     1       2.822   6.078   6.778  1.00  0.00     0.056 A 
ATOM     17  H   UNL     1       4.705   5.468   6.290  1.00  0.00     0.171 HD
ATOM     18  C   UNL     1       0.561   6.458   7.524  1.00  0.00     0.017 A 
ATOM     19  C   UNL     1       3.235   7.255   7.384  1.00  0.00     0.042 A 
ATOM     20  C   UNL     1       0.965   7.646   8.152  1.00  0.00     0.016 A 
BRANCH   9  21
ATOM     21  C   UNL     1       1.637   3.253   3.926  1.00  0.00     0.054 A 
ATOM     22  C   UNL     1       0.810   1.921   1.539  1.00  0.00     0.119 A 
ATOM     23  C   UNL     1      -0.059   2.767   2.216  1.00  0.00     0.048 A 
ATOM     24  C   UNL     1       2.097   1.753   2.031  1.00  0.00     0.048 A 
ATOM     25  C   UNL     1       0.345   3.416   3.393  1.00  0.00     0.031 A 
ATOM     26  C   UNL     1       2.498   2.408   3.207  1.00  0.00     0.031 A 
BRANCH  22  27
ATOM     27  O   UNL     1       0.320   1.345   0.401  1.00  0.00    -0.497 OA
ATOM     28  C   UNL     1       0.920   0.106   0.040  1.00  0.00     0.278 C 
ENDBRANCH  22  27
ENDBRANCH   9  21
ENDBRANCH   6   8
ENDBRANCH   5   6
ENDBRANCH   4   5
ENDBRANCH   3   4
ENDBRANCH   2   3
ENDBRANCH   1   2
BRANCH   1  29
ATOM     29  C   UNL     1       4.527   7.070  12.180  1.00  0.00     0.261 C 
BRANCH  29  30
ATOM     30  O   UNL     1       3.407   7.474  12.984  1.00  0.00    -0.460 OA
BRANCH  30  31
ATOM     31  C   UNL     1       3.741   8.106  14.135  1.00  0.00     0.338 C 
ATOM     32  O   UNL     1       4.873   8.274  14.574  1.00  0.00    -0.246 OA
BRANCH  31  33
ATOM     33  C   UNL     1       2.555   8.762  14.716  1.00  0.00     0.060 A 
ATOM     34  C   UNL     1       2.686  10.106  15.088  1.00  0.00     0.016 A 
ATOM     35  C   UNL     1       1.357   8.078  14.938  1.00  0.00     0.016 A 
ATOM     36  C   UNL     1       1.639  10.755  15.737  1.00  0.00     0.010 A 
ATOM     37  C   UNL     1       0.308   8.731  15.595  1.00  0.00     0.010 A 
ATOM     38  C   UNL     1       0.459  10.060  16.030  1.00  0.00    -0.014 A 
BRANCH  38  39
ATOM     39  C   UNL     1      -0.544  10.689  16.925  1.00  0.00     0.031 A 
ATOM     40  C   UNL     1      -0.571  10.302  18.378  1.00  0.00     0.074 A 
ATOM     41  C   UNL     1      -1.377  11.637  16.462  1.00  0.00     0.049 A 
ATOM     42  N   UNL     1      -1.331  10.746  19.345  1.00  0.00    -0.248 NA
ATOM     43  C   UNL     1       0.391   9.270  18.790  1.00  0.00     0.031 C 
ATOM     44  C   UNL     1      -1.413  12.126  15.084  1.00  0.00     0.029 A 
ATOM     45  N   UNL     1      -2.345  12.364  17.105  1.00  0.00    -0.354 N 
ATOM     46  C   UNL     1      -0.937  10.052  20.485  1.00  0.00     0.074 A 
ATOM     47  C   UNL     1       0.089   9.118  20.069  1.00  0.00     0.031 C 
ATOM     48  C   UNL     1      -2.350  13.085  14.989  1.00  0.00     0.029 A 
ATOM     49  C   UNL     1      -3.000  13.253  16.287  1.00  0.00     0.049 A 
ATOM     50  H   UNL     1      -2.552  12.260  18.061  1.00  0.00     0.167 HD
ATOM     51  C   UNL     1      -1.375  10.194  21.762  1.00  0.00     0.034 A 
ATOM     52  C   UNL     1      -4.014  14.099  16.555  1.00  0.00     0.034 A 
ATOM     53  C   UNL     1      -2.420  11.111  22.153  1.00  0.00     0.049 A 
ATOM     54  C   UNL     1      -4.563  14.164  17.958  1.00  0.00     0.074 A 
ATOM     55  C   UNL     1      -2.939  11.345  23.415  1.00  0.00     0.029 A 
ATOM     56  N   UNL     1      -3.121  11.937  21.281  1.00  0.00    -0.354 N 
ATOM     57  N   UNL     1      -4.176  13.514  19.031  1.00  0.00    -0.248 NA
ATOM     58  C   UNL     1      -5.683  15.087  18.183  1.00  0.00     0.031 C 
ATOM     59  C   UNL     1      -4.003  12.248  23.293  1.00  0.00     0.029 A 
ATOM     60  C   UNL     1      -4.095  12.647  21.969  1.00  0.00     0.049 A 
ATOM     61  H   UNL     1      -2.951  12.008  20.314  1.00  0.00     0.167 HD
ATOM     62  C   UNL     1      -4.989  13.971  20.066  1.00  0.00     0.074 A 
ATOM     63  C   UNL     1      -5.874  14.962  19.488  1.00  0.00     0.031 C 
ATOM     64  C   UNL     1      -4.997  13.611  21.377  1.00  0.00     0.034 A 
BRANCH  51  65
ATOM     65  C   UNL     1      -0.757   9.285  22.801  1.00  0.00     0.023 A 
ATOM     66  C   UNL     1       0.623   9.311  23.079  1.00  0.00     0.031 A 
ATOM     67  C   UNL     1      -1.539   8.325  23.467  1.00  0.00     0.131 A 
ATOM     68  C   UNL     1       1.190   8.333  23.910  1.00  0.00     0.055 A 
ATOM     69  C   UNL     1      -0.982   7.415  24.368  1.00  0.00     0.041 A 
ATOM     70  F   UNL     1      -2.857   8.233  23.230  1.00  0.00    -0.206 F 
ATOM     71  C   UNL     1       0.394   7.400  24.576  1.00  0.00     0.022 A 
BRANCH  68  72
ATOM     72  S   UNL     1       2.998   8.174  23.947  1.00  0.00     0.124 S 
ATOM     73  O   UNL     1       3.309   8.003  22.529  1.00  0.00    -0.237 OA
ATOM     74  O   UNL     1       3.413   9.438  24.545  1.00  0.00    -0.237 OA
ATOM     75  O   UNL     1       3.221   6.988  24.772  1.00  0.00    -0.744 OA
ENDBRANCH  68  72
ENDBRANCH  51  65
BRANCH  52  76
ATOM     76  C   UNL     1      -4.588  14.946  15.473  1.00  0.00     0.023 A 
ATOM     77  C   UNL     1      -4.466  16.344  15.507  1.00  0.00     0.031 A 
ATOM     78  C   UNL     1      -5.289  14.368  14.399  1.00  0.00     0.131 A 
ATOM     79  C   UNL     1      -5.063  17.121  14.502  1.00  0.00     0.055 A 
ATOM     80  C   UNL     1      -5.843  15.143  13.379  1.00  0.00     0.041 A 
ATOM     81  F   UNL     1      -5.431  13.036  14.320  1.00  0.00    -0.206 F 
ATOM     82  C   UNL     1      -5.739  16.529  13.432  1.00  0.00     0.022 A 
BRANCH  79  83
ATOM     83  S   UNL     1      -4.985  18.928  14.639  1.00  0.00     0.124 S 
ATOM     84  O   UNL     1      -5.702  19.163  15.887  1.00  0.00    -0.237 OA
ATOM     85  O   UNL     1      -3.546  19.167  14.670  1.00  0.00    -0.237 OA
ATOM     86  O   UNL     1      -5.664  19.390  13.431  1.00  0.00    -0.744 OA
ENDBRANCH  79  83
ENDBRANCH  52  76
BRANCH  64  87
ATOM     87  C   UNL     1      -5.983  14.324  22.274  1.00  0.00     0.023 A 
ATOM     88  C   UNL     1      -7.372  14.182  22.109  1.00  0.00     0.031 A 
ATOM     89  C   UNL     1      -5.526  15.188  23.286  1.00  0.00     0.131 A 
ATOM     90  C   UNL     1      -8.253  14.944  22.892  1.00  0.00     0.055 A 
ATOM     91  C   UNL     1      -6.408  15.891  24.109  1.00  0.00     0.041 A 
ATOM     92  F   UNL     1      -4.211  15.368  23.489  1.00  0.00    -0.206 F 
ATOM     93  C   UNL     1      -7.780  15.784  23.903  1.00  0.00     0.022 A 
BRANCH  90  94
ATOM     94  S   UNL     1     -10.023  14.912  22.493  1.00  0.00     0.124 S 
ATOM     95  O   UNL     1     -10.026  15.329  21.095  1.00  0.00    -0.237 OA
ATOM     96  O   UNL     1     -10.375  13.519  22.745  1.00  0.00    -0.237 OA
ATOM     97  O   UNL     1     -10.603  15.876  23.427  1.00  0.00    -0.744 OA
ENDBRANCH  90  94
ENDBRANCH  64  87
ENDBRANCH  38  39
ENDBRANCH  31  33
ENDBRANCH  30  31
ENDBRANCH  29  30
ENDBRANCH   1  29
TORSDOF 19
