REMARK SMILES C[C@H]1CCCCC[C@H]1NC(=O)c1csc(/C=C/C(=O)OCCOCCOC(=O)c2ccc(-c3c4nc(c(-c5cc(S(=O)(=O)[O-])ccc5F)c5ccc([nH]5)c(-c5cc(S(=O)(=O)[O-])ccc5F)c5nc(c(-c6cc(S(=O)(=O)[O-])ccc6F)c6ccc3[nH]6)C=C5)C=C4)cc2)c1
REMARK SMILES IDX 21 1 20 2 18 3 19 4 17 5 16 6 15 7 12 8 13 9 92 10 14 11
REMARK SMILES IDX 10 12 9 13 11 15 8 16 2 17 1 18 3 19 7 21 6 22 5 23 4 24
REMARK SMILES IDX 22 26 23 27 24 28 25 29 26 30 27 31 28 32 29 33 30 34 91 35
REMARK SMILES IDX 31 36 90 37 32 38 33 39 34 40 84 41 35 42 89 43 83 44 85 45
REMARK SMILES IDX 36 46 88 47 82 48 81 49 37 51 69 52 49 53 68 54 50 55 53 56
REMARK SMILES IDX 67 57 86 58 51 59 52 60 66 62 87 63 54 64 38 65 39 66 47 67
REMARK SMILES IDX 40 68 46 69 48 70 45 71 41 72 42 73 43 74 44 75 70 76 71 77
REMARK SMILES IDX 79 78 72 79 78 80 80 81 77 82 73 83 74 84 75 85 76 86 55 87
REMARK SMILES IDX 56 88 64 89 57 90 63 91 65 92 62 93 58 94 59 95 60 96 61 97
REMARK H PARENT 9 14 85 50 53 61
REMARK Flexibility Score: 80.00
ROOT
ATOM      1  C   UNL     1      10.310  -0.806  -4.465  1.00  0.00     0.261 C 
ENDROOT
BRANCH   1   2
ATOM      2  O   UNL     1       9.332  -0.208  -3.595  1.00  0.00    -0.460 OA
BRANCH   2   3
ATOM      3  C   UNL     1       9.239   1.138  -3.663  1.00  0.00     0.330 C 
ATOM      4  O   UNL     1       9.966   1.891  -4.295  1.00  0.00    -0.247 OA
BRANCH   3   5
ATOM      5  C   UNL     1       8.068   1.660  -2.932  1.00  0.00     0.095 C 
ATOM      6  C   UNL     1       7.229   0.960  -2.151  1.00  0.00     0.026 C 
BRANCH   6   7
ATOM      7  C   UNL     1       6.118   1.573  -1.485  1.00  0.00     0.028 A 
ATOM      8  C   UNL     1       4.415   2.024   0.112  1.00  0.00     0.051 A 
ATOM      9  C   UNL     1       4.323   3.113  -0.730  1.00  0.00     0.079 A 
ATOM     10  C   UNL     1       5.469   1.147  -0.335  1.00  0.00     0.033 A 
ATOM     11  S   UNL     1       5.361   3.008  -2.073  1.00  0.00    -0.144 S 
BRANCH   8  12
ATOM     12  C   UNL     1       3.655   1.851   1.348  1.00  0.00     0.252 C 
ATOM     13  N   UNL     1       2.332   2.216   1.415  1.00  0.00    -0.349 N 
ATOM     14  H   UNL     1       1.971   2.296   2.328  1.00  0.00     0.164 HD
ATOM     15  O   UNL     1       4.178   1.386   2.359  1.00  0.00    -0.269 OA
BRANCH  13  16
ATOM     16  C   UNL     1       1.371   2.505   0.347  1.00  0.00     0.085 C 
BRANCH  16  17
ATOM     17  C   UNL     1       0.293   1.402   0.259  1.00  0.00     0.008 C 
ATOM     18  C   UNL     1      -0.504   1.189   1.554  1.00  0.00     0.010 C 
BRANCH  17  19
ATOM     19  C   UNL     1      -0.628   1.589  -0.967  1.00  0.00     0.005 CG0
ATOM     20  G   UNL     1      -1.614   2.755  -0.903  1.00  0.00     0.000 G0
ENDBRANCH  17  19
ENDBRANCH  16  17
BRANCH  16  21
ATOM     21  C   UNL     1       0.821   3.929   0.506  1.00  0.00     0.025 C 
BRANCH  21  22
ATOM     22  C   UNL     1       0.343   4.507  -0.822  1.00  0.00     0.002 C 
BRANCH  22  23
ATOM     23  C   UNL     1      -1.073   4.140  -1.248  1.00  0.00     0.000 C 
BRANCH  23  24
ATOM     24  C   UNL     1      -1.614   2.755  -0.903  1.00  0.00     0.000 CG0
ATOM     25  G   UNL     1      -0.628   1.589  -0.967  1.00  0.00     0.000 G0
ENDBRANCH  23  24
ENDBRANCH  22  23
ENDBRANCH  21  22
ENDBRANCH  16  21
ENDBRANCH  13  16
ENDBRANCH   8  12
ENDBRANCH   6   7
ENDBRANCH   3   5
ENDBRANCH   2   3
ENDBRANCH   1   2
BRANCH   1  26
ATOM     26  C   UNL     1       9.632  -1.683  -5.520  1.00  0.00     0.202 C 
BRANCH  26  27
ATOM     27  O   UNL     1       8.819  -0.966  -6.453  1.00  0.00    -0.374 OA
BRANCH  27  28
ATOM     28  C   UNL     1       7.475  -0.702  -6.045  1.00  0.00     0.202 C 
BRANCH  28  29
ATOM     29  C   UNL     1       6.486  -1.851  -6.277  1.00  0.00     0.261 C 
BRANCH  29  30
ATOM     30  O   UNL     1       6.767  -2.973  -5.420  1.00  0.00    -0.460 OA
BRANCH  30  31
ATOM     31  C   UNL     1       7.269  -4.058  -6.057  1.00  0.00     0.338 C 
ATOM     32  O   UNL     1       7.399  -4.199  -7.266  1.00  0.00    -0.246 OA
BRANCH  31  33
ATOM     33  C   UNL     1       7.820  -5.022  -5.083  1.00  0.00     0.060 A 
ATOM     34  C   UNL     1       9.076  -5.569  -5.371  1.00  0.00     0.016 A 
ATOM     35  C   UNL     1       7.115  -5.435  -3.948  1.00  0.00     0.016 A 
ATOM     36  C   UNL     1       9.606  -6.570  -4.560  1.00  0.00     0.010 A 
ATOM     37  C   UNL     1       7.650  -6.444  -3.134  1.00  0.00     0.010 A 
ATOM     38  C   UNL     1       8.881  -7.043  -3.458  1.00  0.00    -0.014 A 
BRANCH  38  39
ATOM     39  C   UNL     1       9.372  -8.250  -2.746  1.00  0.00     0.031 A 
ATOM     40  C   UNL     1       8.773  -9.592  -3.074  1.00  0.00     0.074 A 
ATOM     41  C   UNL     1      10.391  -8.160  -1.871  1.00  0.00     0.049 A 
ATOM     42  N   UNL     1       9.106 -10.780  -2.637  1.00  0.00    -0.248 NA
ATOM     43  C   UNL     1       7.646  -9.594  -4.020  1.00  0.00     0.031 C 
ATOM     44  C   UNL     1      11.061  -6.919  -1.483  1.00  0.00     0.029 A 
ATOM     45  N   UNL     1      11.046  -9.132  -1.157  1.00  0.00    -0.354 N 
ATOM     46  C   UNL     1       8.235 -11.671  -3.256  1.00  0.00     0.074 A 
ATOM     47  C   UNL     1       7.334 -10.880  -4.067  1.00  0.00     0.031 C 
ATOM     48  C   UNL     1      12.032  -7.205  -0.599  1.00  0.00     0.029 A 
ATOM     49  C   UNL     1      12.043  -8.644  -0.344  1.00  0.00     0.049 A 
ATOM     50  H   UNL     1      10.824 -10.088  -1.220  1.00  0.00     0.167 HD
ATOM     51  C   UNL     1       8.199 -13.024  -3.166  1.00  0.00     0.034 A 
ATOM     52  C   UNL     1      12.864  -9.284   0.513  1.00  0.00     0.034 A 
ATOM     53  C   UNL     1       9.101 -13.801  -2.350  1.00  0.00     0.049 A 
ATOM     54  C   UNL     1      12.779 -10.787   0.623  1.00  0.00     0.074 A 
ATOM     55  C   UNL     1       9.175 -15.177  -2.218  1.00  0.00     0.029 A 
ATOM     56  N   UNL     1      10.078 -13.271  -1.516  1.00  0.00    -0.354 N 
ATOM     57  N   UNL     1      11.983 -11.620  -0.008  1.00  0.00    -0.248 NA
ATOM     58  C   UNL     1      13.720 -11.437   1.545  1.00  0.00     0.031 C 
ATOM     59  C   UNL     1      10.146 -15.475  -1.255  1.00  0.00     0.029 A 
ATOM     60  C   UNL     1      10.732 -14.290  -0.840  1.00  0.00     0.049 A 
ATOM     61  H   UNL     1      10.276 -12.312  -1.419  1.00  0.00     0.167 HD
ATOM     62  C   UNL     1      12.345 -12.894   0.427  1.00  0.00     0.074 A 
ATOM     63  C   UNL     1      13.448 -12.718   1.349  1.00  0.00     0.031 C 
ATOM     64  C   UNL     1      11.816 -14.100   0.096  1.00  0.00     0.034 A 
BRANCH  51  65
ATOM     65  C   UNL     1       7.117 -13.743  -3.934  1.00  0.00     0.023 A 
ATOM     66  C   UNL     1       7.086 -13.756  -5.340  1.00  0.00     0.031 A 
ATOM     67  C   UNL     1       6.095 -14.420  -3.246  1.00  0.00     0.131 A 
ATOM     68  C   UNL     1       6.023 -14.383  -6.010  1.00  0.00     0.055 A 
ATOM     69  C   UNL     1       5.079 -15.100  -3.919  1.00  0.00     0.041 A 
ATOM     70  F   UNL     1       6.062 -14.424  -1.904  1.00  0.00    -0.206 F 
ATOM     71  C   UNL     1       5.032 -15.075  -5.310  1.00  0.00     0.022 A 
BRANCH  68  72
ATOM     72  S   UNL     1       5.889 -14.184  -7.808  1.00  0.00     0.124 S 
ATOM     73  O   UNL     1       5.772 -12.733  -7.937  1.00  0.00    -0.237 OA
ATOM     74  O   UNL     1       7.136 -14.769  -8.285  1.00  0.00    -0.237 OA
ATOM     75  O   UNL     1       4.680 -14.932  -8.147  1.00  0.00    -0.744 OA
ENDBRANCH  68  72
ENDBRANCH  51  65
BRANCH  52  76
ATOM     76  C   UNL     1      13.817  -8.516   1.365  1.00  0.00     0.023 A 
ATOM     77  C   UNL     1      15.206  -8.679   1.241  1.00  0.00     0.031 A 
ATOM     78  C   UNL     1      13.341  -7.652   2.368  1.00  0.00     0.131 A 
ATOM     79  C   UNL     1      16.069  -8.029   2.139  1.00  0.00     0.055 A 
ATOM     80  C   UNL     1      14.205  -6.968   3.225  1.00  0.00     0.041 A 
ATOM     81  F   UNL     1      12.022  -7.460   2.529  1.00  0.00    -0.206 F 
ATOM     82  C   UNL     1      15.578  -7.167   3.122  1.00  0.00     0.022 A 
BRANCH  79  83
ATOM     83  S   UNL     1      17.843  -8.402   2.064  1.00  0.00     0.124 S 
ATOM     84  O   UNL     1      17.851  -9.850   2.234  1.00  0.00    -0.237 OA
ATOM     85  O   UNL     1      18.198  -7.910   0.737  1.00  0.00    -0.237 OA
ATOM     86  O   UNL     1      18.399  -7.638   3.179  1.00  0.00    -0.744 OA
ENDBRANCH  79  83
ENDBRANCH  52  76
BRANCH  64  87
ATOM     87  C   UNL     1      12.452 -15.318   0.723  1.00  0.00     0.023 A 
ATOM     88  C   UNL     1      12.393 -15.549   2.109  1.00  0.00     0.031 A 
ATOM     89  C   UNL     1      13.159 -16.239  -0.070  1.00  0.00     0.131 A 
ATOM     90  C   UNL     1      13.088 -16.632   2.668  1.00  0.00     0.055 A 
ATOM     91  C   UNL     1      13.794 -17.351   0.485  1.00  0.00     0.041 A 
ATOM     92  F   UNL     1      13.249 -16.070  -1.399  1.00  0.00    -0.206 F 
ATOM     93  C   UNL     1      13.777 -17.543   1.863  1.00  0.00     0.022 A 
BRANCH  90  94
ATOM     94  S   UNL     1      13.180 -16.766   4.475  1.00  0.00     0.124 S 
ATOM     95  O   UNL     1      13.743 -15.472   4.848  1.00  0.00    -0.237 OA
ATOM     96  O   UNL     1      11.785 -16.983   4.843  1.00  0.00    -0.237 OA
ATOM     97  O   UNL     1      14.063 -17.911   4.690  1.00  0.00    -0.744 OA
ENDBRANCH  90  94
ENDBRANCH  64  87
ENDBRANCH  38  39
ENDBRANCH  31  33
ENDBRANCH  30  31
ENDBRANCH  29  30
ENDBRANCH  28  29
ENDBRANCH  27  28
ENDBRANCH  26  27
ENDBRANCH   1  26
TORSDOF 20
