REMARK SMILES Cc1n[nH]c(CN(C)C(=O)N[C@](C)(C(=O)OCCOCCOC(=O)c2ccc(-c3c4nc(c(-c5cc(S(=O)(=O)[O-])ccc5F)c5ccc([nH]5)c(-c5cc(S(=O)(=O)[O-])ccc5F)c5nc(c(-c6cc(S(=O)(=O)[O-])ccc6F)c6ccc3[nH]6)C=C5)C=C4)cc2)C(F)(F)F)n1
REMARK SMILES IDX 18 1 17 2 16 3 14 4 15 5 12 6 13 7 11 8 9 9 10 10 7 12 8 13
REMARK SMILES IDX 6 14 5 15 1 16 2 17 3 18 92 19 4 20 88 22 89 23 90 24 91 25
REMARK SMILES IDX 19 26 20 27 21 28 22 29 23 30 24 31 25 32 26 33 87 34 27 35
REMARK SMILES IDX 86 36 28 37 29 38 30 39 80 40 31 41 85 42 79 43 81 44 32 45
REMARK SMILES IDX 84 46 78 47 77 48 33 50 65 51 45 52 64 53 46 54 49 55 63 56
REMARK SMILES IDX 82 57 47 58 48 59 62 61 83 62 50 63 34 64 35 65 43 66 36 67
REMARK SMILES IDX 42 68 44 69 41 70 37 71 38 72 39 73 40 74 66 75 67 76 75 77
REMARK SMILES IDX 68 78 74 79 76 80 73 81 69 82 70 83 71 84 72 85 51 86 52 87
REMARK SMILES IDX 60 88 53 89 59 90 61 91 58 92 54 93 55 94 56 95 57 96
REMARK H PARENT 11 11 4 21 81 49 49 60
REMARK Flexibility Score: inf
ROOT
ATOM      1  C   UNL     1       3.827   4.555   5.332  1.00  0.00     0.202 C 
ENDROOT
BRANCH   1   2
ATOM      2  C   UNL     1       3.606   4.113   6.775  1.00  0.00     0.261 C 
BRANCH   2   3
ATOM      3  O   UNL     1       3.080   2.772   6.826  1.00  0.00    -0.461 OA
BRANCH   3   4
ATOM      4  C   UNL     1       1.853   2.650   7.404  1.00  0.00     0.341 C 
ATOM      5  O   UNL     1       1.291   3.571   7.987  1.00  0.00    -0.249 OA
BRANCH   4   6
ATOM      6  C   UNL     1       1.311   1.219   7.351  1.00  0.00     0.232 C 
ATOM      7  C   UNL     1       1.598   0.449   6.062  1.00  0.00     0.058 C 
BRANCH   6   8
ATOM      8  N   UNL     1       1.723   0.565   8.634  1.00  0.00    -0.315 N 
ATOM      9  C   UNL     1       2.619  -0.236   9.202  1.00  0.00     0.318 C 
ATOM     10  O   UNL     1       2.473  -0.334  10.429  1.00  0.00    -0.249 OA
ATOM     11  H   UNL     1       1.078   0.834   9.328  1.00  0.00     0.166 HD
BRANCH   9  12
ATOM     12  N   UNL     1       3.591  -0.937   8.568  1.00  0.00    -0.320 N 
ATOM     13  C   UNL     1       4.059  -0.830   7.202  1.00  0.00     0.149 C 
BRANCH  12  14
ATOM     14  C   UNL     1       4.422  -1.793   9.414  1.00  0.00     0.197 C 
BRANCH  14  15
ATOM     15  C   UNL     1       5.500  -0.966  10.025  1.00  0.00     0.144 A 
ATOM     16  C   UNL     1       7.998   1.510  10.316  1.00  0.00     0.092 C 
ATOM     17  C   UNL     1       7.012   0.427  10.492  1.00  0.00     0.147 A 
ATOM     18  N   UNL     1       6.675  -0.052  11.696  1.00  0.00    -0.159 NA
ATOM     19  N   UNL     1       6.333  -0.129   9.440  1.00  0.00    -0.215 NA
ATOM     20  N   UNL     1       5.701  -0.919  11.373  1.00  0.00    -0.262 N 
ATOM     21  H   UNL     1       5.196  -1.454  12.028  1.00  0.00     0.192 HD
ENDBRANCH  14  15
ENDBRANCH  12  14
ENDBRANCH   9  12
ENDBRANCH   6   8
BRANCH   6  22
ATOM     22  C   UNL     1      -0.228   1.427   7.347  1.00  0.00     0.422 C 
ATOM     23  F   UNL     1      -0.647   2.150   6.282  1.00  0.00    -0.168 F 
ATOM     24  F   UNL     1      -0.865   0.228   7.276  1.00  0.00    -0.168 F 
ATOM     25  F   UNL     1      -0.687   2.024   8.470  1.00  0.00    -0.168 F 
ENDBRANCH   6  22
ENDBRANCH   4   6
ENDBRANCH   3   4
ENDBRANCH   2   3
ENDBRANCH   1   2
BRANCH   1  26
ATOM     26  O   UNL     1       2.668   4.669   4.504  1.00  0.00    -0.374 OA
BRANCH  26  27
ATOM     27  C   UNL     1       1.970   3.496   4.097  1.00  0.00     0.202 C 
BRANCH  27  28
ATOM     28  C   UNL     1       2.628   2.583   3.069  1.00  0.00     0.261 C 
BRANCH  28  29
ATOM     29  O   UNL     1       3.830   2.015   3.566  1.00  0.00    -0.460 OA
BRANCH  29  30
ATOM     30  C   UNL     1       4.954   2.616   3.111  1.00  0.00     0.338 C 
ATOM     31  O   UNL     1       5.029   3.689   2.529  1.00  0.00    -0.246 OA
BRANCH  30  32
ATOM     32  C   UNL     1       6.083   1.712   3.329  1.00  0.00     0.060 A 
ATOM     33  C   UNL     1       7.247   2.024   2.629  1.00  0.00     0.016 A 
ATOM     34  C   UNL     1       5.875   0.455   3.916  1.00  0.00     0.016 A 
ATOM     35  C   UNL     1       8.064   0.986   2.259  1.00  0.00     0.010 A 
ATOM     36  C   UNL     1       6.691  -0.582   3.543  1.00  0.00     0.010 A 
ATOM     37  C   UNL     1       7.703  -0.315   2.628  1.00  0.00    -0.014 A 
BRANCH  37  38
ATOM     38  C   UNL     1       8.494  -1.406   2.110  1.00  0.00     0.031 A 
ATOM     39  C   UNL     1       9.810  -1.470   2.769  1.00  0.00     0.074 A 
ATOM     40  C   UNL     1       8.033  -2.271   1.188  1.00  0.00     0.049 A 
ATOM     41  N   UNL     1      10.937  -1.071   2.286  1.00  0.00    -0.248 NA
ATOM     42  C   UNL     1       9.838  -1.744   4.216  1.00  0.00     0.031 C 
ATOM     43  C   UNL     1       6.676  -2.403   0.653  1.00  0.00     0.029 A 
ATOM     44  N   UNL     1       8.693  -3.292   0.584  1.00  0.00    -0.354 N 
ATOM     45  C   UNL     1      11.863  -1.311   3.289  1.00  0.00     0.074 A 
ATOM     46  C   UNL     1      11.105  -1.445   4.501  1.00  0.00     0.031 C 
ATOM     47  C   UNL     1       6.569  -3.580  -0.010  1.00  0.00     0.029 A 
ATOM     48  C   UNL     1       7.876  -4.219  -0.056  1.00  0.00     0.049 A 
ATOM     49  H   UNL     1       9.674  -3.371   0.598  1.00  0.00     0.167 HD
ATOM     50  C   UNL     1      13.129  -1.696   2.978  1.00  0.00     0.034 A 
ATOM     51  C   UNL     1       8.248  -5.445  -0.522  1.00  0.00     0.034 A 
ATOM     52  C   UNL     1      13.425  -1.399   1.590  1.00  0.00     0.049 A 
ATOM     53  C   UNL     1       9.725  -5.397  -0.703  1.00  0.00     0.074 A 
ATOM     54  C   UNL     1      13.457  -0.241   0.837  1.00  0.00     0.029 A 
ATOM     55  N   UNL     1      13.349  -2.434   0.681  1.00  0.00    -0.354 N 
ATOM     56  N   UNL     1      10.301  -4.634  -1.593  1.00  0.00    -0.248 NA
ATOM     57  C   UNL     1      10.571  -5.762   0.427  1.00  0.00     0.031 C 
ATOM     58  C   UNL     1      12.916  -0.609  -0.430  1.00  0.00     0.029 A 
ATOM     59  C   UNL     1      12.664  -1.983  -0.422  1.00  0.00     0.049 A 
ATOM     60  H   UNL     1      13.720  -3.337   0.802  1.00  0.00     0.167 HD
ATOM     61  C   UNL     1      11.388  -4.068  -0.940  1.00  0.00     0.074 A 
ATOM     62  C   UNL     1      11.559  -4.872   0.270  1.00  0.00     0.031 C 
ATOM     63  C   UNL     1      11.852  -2.828  -1.282  1.00  0.00     0.034 A 
BRANCH  50  64
ATOM     64  C   UNL     1      13.921  -2.709   3.775  1.00  0.00     0.023 A 
ATOM     65  C   UNL     1      15.189  -3.045   3.270  1.00  0.00     0.031 A 
ATOM     66  C   UNL     1      13.420  -3.563   4.786  1.00  0.00     0.131 A 
ATOM     67  C   UNL     1      15.826  -4.234   3.656  1.00  0.00     0.055 A 
ATOM     68  C   UNL     1      14.091  -4.709   5.217  1.00  0.00     0.041 A 
ATOM     69  F   UNL     1      12.223  -3.405   5.360  1.00  0.00    -0.206 F 
ATOM     70  C   UNL     1      15.284  -5.073   4.623  1.00  0.00     0.022 A 
BRANCH  67  71
ATOM     71  S   UNL     1      17.282  -4.756   2.721  1.00  0.00     0.124 S 
ATOM     72  O   UNL     1      16.770  -4.742   1.355  1.00  0.00    -0.237 OA
ATOM     73  O   UNL     1      18.244  -3.713   3.061  1.00  0.00    -0.237 OA
ATOM     74  O   UNL     1      17.575  -6.079   3.266  1.00  0.00    -0.744 OA
ENDBRANCH  67  71
ENDBRANCH  50  64
BRANCH  51  75
ATOM     75  C   UNL     1       7.455  -6.709  -0.422  1.00  0.00     0.023 A 
ATOM     76  C   UNL     1       7.667  -7.846  -1.236  1.00  0.00     0.031 A 
ATOM     77  C   UNL     1       6.584  -6.881   0.679  1.00  0.00     0.131 A 
ATOM     78  C   UNL     1       7.013  -9.072  -0.938  1.00  0.00     0.055 A 
ATOM     79  C   UNL     1       5.942  -8.087   0.966  1.00  0.00     0.041 A 
ATOM     80  F   UNL     1       6.389  -5.895   1.570  1.00  0.00    -0.206 F 
ATOM     81  C   UNL     1       6.158  -9.191   0.161  1.00  0.00     0.022 A 
BRANCH  78  82
ATOM     82  S   UNL     1       7.301 -10.568  -1.946  1.00  0.00     0.124 S 
ATOM     83  O   UNL     1       6.841 -10.154  -3.265  1.00  0.00    -0.237 OA
ATOM     84  O   UNL     1       8.736 -10.775  -1.792  1.00  0.00    -0.237 OA
ATOM     85  O   UNL     1       6.466 -11.583  -1.300  1.00  0.00    -0.744 OA
ENDBRANCH  78  82
ENDBRANCH  51  75
BRANCH  63  86
ATOM     86  C   UNL     1      11.333  -2.199  -2.563  1.00  0.00     0.023 A 
ATOM     87  C   UNL     1       9.975  -1.906  -2.834  1.00  0.00     0.031 A 
ATOM     88  C   UNL     1      12.290  -1.767  -3.498  1.00  0.00     0.131 A 
ATOM     89  C   UNL     1       9.623  -1.215  -4.012  1.00  0.00     0.055 A 
ATOM     90  C   UNL     1      11.940  -1.063  -4.649  1.00  0.00     0.041 A 
ATOM     91  F   UNL     1      13.597  -1.989  -3.285  1.00  0.00    -0.206 F 
ATOM     92  C   UNL     1      10.604  -0.789  -4.914  1.00  0.00     0.022 A 
BRANCH  89  93
ATOM     93  S   UNL     1       7.876  -0.868  -4.404  1.00  0.00     0.124 S 
ATOM     94  O   UNL     1       7.224  -2.160  -4.224  1.00  0.00    -0.237 OA
ATOM     95  O   UNL     1       7.531   0.163  -3.429  1.00  0.00    -0.237 OA
ATOM     96  O   UNL     1       7.925  -0.399  -5.790  1.00  0.00    -0.744 OA
ENDBRANCH  89  93
ENDBRANCH  63  86
ENDBRANCH  37  38
ENDBRANCH  30  32
ENDBRANCH  29  30
ENDBRANCH  28  29
ENDBRANCH  27  28
ENDBRANCH  26  27
ENDBRANCH   1  26
TORSDOF 22
