REMARK SMILES O=C(OCCOCCOC(=O)c1ccc2c(=O)n(CCc3c[nH]c4ccccc34)c(=O)[nH]c2c1)c1ccc(-c2c3nc(c(-c4cc(S(=O)(=O)[O-])ccc4F)c4ccc([nH]4)c(-c4cc(S(=O)(=O)[O-])ccc4F)c4nc(c(-c5cc(S(=O)(=O)[O-])ccc5F)c5ccc2[nH]5)C=C4)C=C3)cc1
REMARK SMILES IDX 6 1 5 2 4 3 3 4 2 5 1 6 35 7 36 8 97 9 37 10 96 11 38 12
REMARK SMILES IDX 39 13 40 14 90 15 41 16 95 17 89 18 91 19 42 20 94 21 88 22
REMARK SMILES IDX 87 23 43 25 75 26 55 27 74 28 56 29 59 30 73 31 92 32 57 33
REMARK SMILES IDX 58 34 72 36 93 37 60 38 44 39 45 40 53 41 46 42 52 43 54 44
REMARK SMILES IDX 51 45 47 46 48 47 49 48 50 49 76 50 77 51 85 52 78 53 84 54
REMARK SMILES IDX 86 55 83 56 79 57 80 58 81 59 82 60 61 61 62 62 70 63 63 64
REMARK SMILES IDX 69 65 71 66 68 67 64 68 65 69 66 70 67 71 7 72 8 73 9 74
REMARK SMILES IDX 10 75 11 76 12 77 13 78 34 79 14 80 33 81 15 82 32 83 16 84
REMARK SMILES IDX 30 85 17 87 18 88 31 89 19 90 20 91 21 92 22 93 29 94 23 95
REMARK SMILES IDX 24 96 28 97 25 99 27 100 26 101
REMARK H PARENT 91 24 59 35 32 86 23 98
REMARK Flexibility Score: inf
ROOT
ATOM      1  O   UNL     1       4.059  -0.841  -1.081  1.00  0.00    -0.374 OA
ENDROOT
BRANCH   1   2
ATOM      2  C   UNL     1       4.504  -1.270   0.201  1.00  0.00     0.202 C 
BRANCH   2   3
ATOM      3  C   UNL     1       4.205  -0.297   1.340  1.00  0.00     0.261 C 
BRANCH   3   4
ATOM      4  O   UNL     1       2.813   0.035   1.378  1.00  0.00    -0.460 OA
BRANCH   4   5
ATOM      5  C   UNL     1       2.192   1.116   0.852  1.00  0.00     0.338 C 
ATOM      6  O   UNL     1       0.996   1.255   1.115  1.00  0.00    -0.246 OA
BRANCH   5   7
ATOM      7  C   UNL     1       2.822   2.122  -0.075  1.00  0.00     0.060 A 
ATOM      8  C   UNL     1       2.018   3.223  -0.428  1.00  0.00     0.016 A 
ATOM      9  C   UNL     1       4.078   2.032  -0.681  1.00  0.00     0.016 A 
ATOM     10  C   UNL     1       2.432   4.159  -1.382  1.00  0.00     0.010 A 
ATOM     11  C   UNL     1       4.500   2.956  -1.635  1.00  0.00     0.010 A 
ATOM     12  C   UNL     1       3.672   4.012  -2.004  1.00  0.00    -0.014 A 
BRANCH  12  13
ATOM     13  C   UNL     1       4.182   4.986  -2.985  1.00  0.00     0.031 A 
ATOM     14  C   UNL     1       4.143   4.677  -4.450  1.00  0.00     0.074 A 
ATOM     15  C   UNL     1       4.806   6.077  -2.507  1.00  0.00     0.049 A 
ATOM     16  N   UNL     1       4.587   5.393  -5.446  1.00  0.00    -0.248 NA
ATOM     17  C   UNL     1       3.540   3.394  -4.851  1.00  0.00     0.031 C 
ATOM     18  C   UNL     1       4.958   6.386  -1.084  1.00  0.00     0.029 A 
ATOM     19  N   UNL     1       5.467   7.091  -3.146  1.00  0.00    -0.354 N 
ATOM     20  C   UNL     1       4.304   4.663  -6.595  1.00  0.00     0.074 A 
ATOM     21  C   UNL     1       3.688   3.426  -6.171  1.00  0.00     0.031 C 
ATOM     22  C   UNL     1       5.702   7.494  -0.956  1.00  0.00     0.029 A 
ATOM     23  C   UNL     1       6.087   7.964  -2.284  1.00  0.00     0.049 A 
ATOM     24  H   UNL     1       5.496   7.185  -4.125  1.00  0.00     0.167 HD
ATOM     25  C   UNL     1       4.532   5.020  -7.880  1.00  0.00     0.034 A 
ATOM     26  C   UNL     1       6.889   9.018  -2.538  1.00  0.00     0.034 A 
ATOM     27  C   UNL     1       5.168   6.260  -8.248  1.00  0.00     0.049 A 
ATOM     28  C   UNL     1       7.106   9.409  -3.975  1.00  0.00     0.074 A 
ATOM     29  C   UNL     1       5.374   6.770  -9.517  1.00  0.00     0.029 A 
ATOM     30  N   UNL     1       5.710   7.175  -7.355  1.00  0.00    -0.354 N 
ATOM     31  N   UNL     1       6.694   8.794  -5.060  1.00  0.00    -0.248 NA
ATOM     32  C   UNL     1       7.855  10.644  -4.237  1.00  0.00     0.031 C 
ATOM     33  C   UNL     1       6.101   7.952  -9.395  1.00  0.00     0.029 A 
ATOM     34  C   UNL     1       6.277   8.229  -8.047  1.00  0.00     0.049 A 
ATOM     35  H   UNL     1       5.694   7.085  -6.375  1.00  0.00     0.167 HD
ATOM     36  C   UNL     1       7.103   9.582  -6.129  1.00  0.00     0.074 A 
ATOM     37  C   UNL     1       7.785  10.726  -5.561  1.00  0.00     0.031 C 
ATOM     38  C   UNL     1       6.928   9.376  -7.458  1.00  0.00     0.034 A 
BRANCH  25  39
ATOM     39  C   UNL     1       4.068   4.122  -9.001  1.00  0.00     0.023 A 
ATOM     40  C   UNL     1       4.996   3.613  -9.932  1.00  0.00     0.031 A 
ATOM     41  C   UNL     1       2.698   3.948  -9.267  1.00  0.00     0.131 A 
ATOM     42  C   UNL     1       4.540   3.010 -11.112  1.00  0.00     0.055 A 
ATOM     43  C   UNL     1       2.251   3.308 -10.424  1.00  0.00     0.041 A 
ATOM     44  F   UNL     1       1.773   4.420  -8.416  1.00  0.00    -0.206 F 
ATOM     45  C   UNL     1       3.173   2.852 -11.361  1.00  0.00     0.022 A 
BRANCH  42  46
ATOM     46  S   UNL     1       5.697   2.481 -12.406  1.00  0.00     0.124 S 
ATOM     47  O   UNL     1       5.314   1.085 -12.602  1.00  0.00    -0.237 OA
ATOM     48  O   UNL     1       5.357   3.380 -13.504  1.00  0.00    -0.237 OA
ATOM     49  O   UNL     1       7.011   2.683 -11.805  1.00  0.00    -0.744 OA
ENDBRANCH  42  46
ENDBRANCH  25  39
BRANCH  26  50
ATOM     50  C   UNL     1       7.449   9.783  -1.388  1.00  0.00     0.023 A 
ATOM     51  C   UNL     1       8.316   9.163  -0.466  1.00  0.00     0.031 A 
ATOM     52  C   UNL     1       7.005  11.084  -1.103  1.00  0.00     0.131 A 
ATOM     53  C   UNL     1       8.652   9.818   0.726  1.00  0.00     0.055 A 
ATOM     54  C   UNL     1       7.398  11.760   0.054  1.00  0.00     0.041 A 
ATOM     55  F   UNL     1       6.157  11.707  -1.937  1.00  0.00    -0.206 F 
ATOM     56  C   UNL     1       8.210  11.119   0.985  1.00  0.00     0.022 A 
BRANCH  53  57
ATOM     57  S   UNL     1       9.535   8.943   2.050  1.00  0.00     0.124 S 
ATOM     58  O   UNL     1      10.793   9.679   2.113  1.00  0.00    -0.237 OA
ATOM     59  O   UNL     1       8.637   9.131   3.188  1.00  0.00    -0.237 OA
ATOM     60  O   UNL     1       9.625   7.573   1.558  1.00  0.00    -0.744 OA
ENDBRANCH  53  57
ENDBRANCH  26  50
BRANCH  38  61
ATOM     61  C   UNL     1       7.457  10.402  -8.428  1.00  0.00     0.023 A 
ATOM     62  C   UNL     1       6.559  11.091  -9.265  1.00  0.00     0.031 A 
ATOM     63  C   UNL     1       8.834  10.530  -8.671  1.00  0.00     0.131 A 
ATOM     64  C   UNL     1       7.047  11.826 -10.350  1.00  0.00     0.055 A 
ATOM     65  C   UNL     1       9.318  11.307  -9.724  1.00  0.00     0.041 A 
ATOM     66  F   UNL     1       9.725   9.881  -7.905  1.00  0.00    -0.206 F 
ATOM     67  C   UNL     1       8.422  11.942 -10.581  1.00  0.00     0.022 A 
BRANCH  64  68
ATOM     68  S   UNL     1       5.916  12.563 -11.562  1.00  0.00     0.124 S 
ATOM     69  O   UNL     1       6.302  13.971 -11.518  1.00  0.00    -0.237 OA
ATOM     70  O   UNL     1       6.277  11.855 -12.787  1.00  0.00    -0.237 OA
ATOM     71  O   UNL     1       4.589  12.268 -11.032  1.00  0.00    -0.744 OA
ENDBRANCH  64  68
ENDBRANCH  38  61
ENDBRANCH  12  13
ENDBRANCH   5   7
ENDBRANCH   4   5
ENDBRANCH   3   4
ENDBRANCH   2   3
ENDBRANCH   1   2
BRANCH   1  72
ATOM     72  C   UNL     1       2.785  -1.333  -1.508  1.00  0.00     0.202 C 
BRANCH  72  73
ATOM     73  C   UNL     1       2.916  -1.936  -2.912  1.00  0.00     0.261 C 
BRANCH  73  74
ATOM     74  O   UNL     1       3.840  -3.038  -2.877  1.00  0.00    -0.460 OA
BRANCH  74  75
ATOM     75  C   UNL     1       5.138  -2.716  -3.114  1.00  0.00     0.338 C 
ATOM     76  O   UNL     1       5.600  -1.657  -3.499  1.00  0.00    -0.246 OA
BRANCH  75  77
ATOM     77  C   UNL     1       5.952  -3.821  -2.584  1.00  0.00     0.062 A 
ATOM     78  C   UNL     1       5.689  -5.142  -2.966  1.00  0.00     0.016 A 
ATOM     79  C   UNL     1       6.877  -3.525  -1.574  1.00  0.00     0.042 A 
ATOM     80  C   UNL     1       6.325  -6.184  -2.300  1.00  0.00     0.017 A 
ATOM     81  C   UNL     1       7.434  -4.575  -0.855  1.00  0.00     0.056 A 
ATOM     82  C   UNL     1       7.165  -5.892  -1.222  1.00  0.00     0.064 A 
ATOM     83  N   UNL     1       8.155  -4.319   0.312  1.00  0.00    -0.307 N 
ATOM     84  C   UNL     1       7.657  -6.974  -0.358  1.00  0.00     0.264 A 
ATOM     85  C   UNL     1       8.437  -5.286   1.239  1.00  0.00     0.328 A 
ATOM     86  H   UNL     1       8.474  -3.402   0.476  1.00  0.00     0.171 HD
ATOM     87  O   UNL     1       7.646  -8.132  -0.766  1.00  0.00    -0.268 OA
ATOM     88  N   UNL     1       8.072  -6.583   0.908  1.00  0.00    -0.260 N 
ATOM     89  O   UNL     1       8.939  -4.968   2.315  1.00  0.00    -0.248 OA
BRANCH  88  90
ATOM     90  C   UNL     1       8.110  -7.599   1.947  1.00  0.00     0.136 C 
BRANCH  90  91
ATOM     91  C   UNL     1       6.913  -7.480   2.904  1.00  0.00     0.060 C 
BRANCH  91  92
ATOM     92  C   UNL     1       5.553  -7.824   2.351  1.00  0.00    -0.021 A 
ATOM     93  C   UNL     1       4.946  -9.063   2.453  1.00  0.00     0.087 A 
ATOM     94  C   UNL     1       4.593  -6.960   1.713  1.00  0.00     0.003 A 
ATOM     95  N   UNL     1       3.644  -8.945   2.053  1.00  0.00    -0.361 N 
ATOM     96  C   UNL     1       3.403  -7.681   1.578  1.00  0.00     0.046 A 
ATOM     97  C   UNL     1       4.596  -5.625   1.260  1.00  0.00     0.010 A 
ATOM     98  H   UNL     1       2.975  -9.666   2.098  1.00  0.00     0.166 HD
ATOM     99  C   UNL     1       2.222  -7.135   1.057  1.00  0.00     0.026 A 
ATOM    100  C   UNL     1       3.449  -5.101   0.648  1.00  0.00     0.001 A 
ATOM    101  C   UNL     1       2.272  -5.831   0.573  1.00  0.00     0.002 A 
ENDBRANCH  91  92
ENDBRANCH  90  91
ENDBRANCH  88  90
ENDBRANCH  75  77
ENDBRANCH  74  75
ENDBRANCH  73  74
ENDBRANCH  72  73
ENDBRANCH   1  72
TORSDOF 20
