REMARK SMILES CO[C@H]1C[C@@H](C(=O)OCCOCCOC(=O)c2ccc(-c3c4nc(c(-c5cc(S(=O)(=O)[O-])ccc5F)c5ccc([nH]5)c(-c5cc(S(=O)(=O)[O-])ccc5F)c5nc(c(-c6cc(S(=O)(=O)[O-])ccc6F)c6ccc3[nH]6)C=C5)C=C4)cc2)N(C(=O)CSc2cccs2)C1
REMARK SMILES IDX 10 1 9 2 8 3 6 4 7 5 5 6 3 7 4 8 90 9 80 10 2 11 1 12 81 13
REMARK SMILES IDX 82 14 83 15 84 16 85 17 86 18 89 19 87 20 88 21 11 22 12 23
REMARK SMILES IDX 13 24 14 25 15 26 16 27 17 28 18 29 79 30 19 31 78 32 20 33
REMARK SMILES IDX 21 34 22 35 72 36 23 37 77 38 71 39 73 40 24 41 76 42 70 43
REMARK SMILES IDX 69 44 25 46 57 47 37 48 56 49 38 50 41 51 55 52 74 53 39 54
REMARK SMILES IDX 40 55 54 57 75 58 42 59 26 60 27 61 35 62 28 63 34 64 36 65
REMARK SMILES IDX 33 66 29 67 30 68 31 69 32 70 58 71 59 72 67 73 60 74 66 75
REMARK SMILES IDX 68 76 65 77 61 78 62 79 63 80 64 81 43 82 44 83 52 84 45 85
REMARK SMILES IDX 51 86 53 87 50 88 46 89 47 90 48 91 49 92
REMARK H PARENT 73 45 41 56
REMARK Flexibility Score: inf
ROOT
ATOM      1  C   UNL     1       3.982   5.835   1.044  1.00  0.00     0.202 C 
ENDROOT
BRANCH   1   2
ATOM      2  C   UNL     1       4.277   4.916  -0.144  1.00  0.00     0.261 C 
BRANCH   2   3
ATOM      3  O   UNL     1       3.081   4.341  -0.713  1.00  0.00    -0.462 OA
BRANCH   3   4
ATOM      4  C   UNL     1       2.801   3.103  -0.249  1.00  0.00     0.329 C 
ATOM      5  O   UNL     1       3.464   2.516   0.604  1.00  0.00    -0.250 OA
BRANCH   4   6
ATOM      6  C   UNL     1       1.526   2.471  -0.824  1.00  0.00     0.197 C 
ATOM      7  C   UNL     1       0.961   0.593  -2.262  1.00  0.00     0.140 C 
ATOM      8  C   UNL     1       2.038   1.110  -1.328  1.00  0.00     0.071 C 
ATOM      9  C   UNL     1       0.340   1.859  -2.840  1.00  0.00     0.152 C 
ATOM     10  N   UNL     1       0.708   2.962  -1.952  1.00  0.00    -0.325 N 
BRANCH   7  11
ATOM     11  O   UNL     1       1.348  -0.343  -3.262  1.00  0.00    -0.380 OA
ATOM     12  C   UNL     1       2.701  -0.314  -3.691  1.00  0.00     0.195 C 
ENDBRANCH   7  11
BRANCH  10  13
ATOM     13  C   UNL     1      -0.050   4.119  -2.088  1.00  0.00     0.233 C 
ATOM     14  O   UNL     1      -0.872   4.203  -3.005  1.00  0.00    -0.274 OA
BRANCH  13  15
ATOM     15  C   UNL     1       0.171   5.257  -1.112  1.00  0.00     0.175 C 
BRANCH  15  16
ATOM     16  S   UNL     1      -1.184   6.462  -1.125  1.00  0.00    -0.105 SA
BRANCH  16  17
ATOM     17  C   UNL     1      -2.389   5.809  -0.034  1.00  0.00     0.060 A 
ATOM     18  C   UNL     1      -2.758   4.494   0.160  1.00  0.00     0.027 A 
ATOM     19  S   UNL     1      -3.363   6.871   0.898  1.00  0.00    -0.137 S 
ATOM     20  C   UNL     1      -3.897   4.369   1.014  1.00  0.00     0.013 A 
ATOM     21  C   UNL     1      -4.339   5.590   1.468  1.00  0.00     0.066 A 
ENDBRANCH  16  17
ENDBRANCH  15  16
ENDBRANCH  13  15
ENDBRANCH  10  13
ENDBRANCH   4   6
ENDBRANCH   3   4
ENDBRANCH   2   3
ENDBRANCH   1   2
BRANCH   1  22
ATOM     22  O   UNL     1       3.432   5.237   2.215  1.00  0.00    -0.374 OA
BRANCH  22  23
ATOM     23  C   UNL     1       2.018   5.056   2.270  1.00  0.00     0.202 C 
BRANCH  23  24
ATOM     24  C   UNL     1       1.144   6.309   2.443  1.00  0.00     0.261 C 
BRANCH  24  25
ATOM     25  O   UNL     1       1.188   7.171   1.290  1.00  0.00    -0.460 OA
BRANCH  25  26
ATOM     26  C   UNL     1       1.855   8.340   1.465  1.00  0.00     0.338 C 
ATOM     27  O   UNL     1       2.357   8.738   2.508  1.00  0.00    -0.246 OA
BRANCH  26  28
ATOM     28  C   UNL     1       2.128   8.966   0.153  1.00  0.00     0.060 A 
ATOM     29  C   UNL     1       3.453   9.315  -0.141  1.00  0.00     0.016 A 
ATOM     30  C   UNL     1       1.114   9.246  -0.762  1.00  0.00     0.016 A 
ATOM     31  C   UNL     1       3.758   9.993  -1.322  1.00  0.00     0.010 A 
ATOM     32  C   UNL     1       1.423   9.908  -1.957  1.00  0.00     0.010 A 
ATOM     33  C   UNL     1       2.739  10.334  -2.220  1.00  0.00    -0.014 A 
BRANCH  33  34
ATOM     34  C   UNL     1       3.007  11.319  -3.305  1.00  0.00     0.031 A 
ATOM     35  C   UNL     1       2.501  12.729  -3.135  1.00  0.00     0.074 A 
ATOM     36  C   UNL     1       3.728  10.998  -4.396  1.00  0.00     0.049 A 
ATOM     37  N   UNL     1       2.574  13.748  -3.953  1.00  0.00    -0.248 NA
ATOM     38  C   UNL     1       1.813  13.023  -1.868  1.00  0.00     0.031 C 
ATOM     39  C   UNL     1       4.331   9.694  -4.658  1.00  0.00     0.029 A 
ATOM     40  N   UNL     1       4.077  11.755  -5.489  1.00  0.00    -0.354 N 
ATOM     41  C   UNL     1       1.936  14.801  -3.303  1.00  0.00     0.074 A 
ATOM     42  C   UNL     1       1.433  14.277  -2.051  1.00  0.00     0.031 C 
ATOM     43  C   UNL     1       4.982   9.744  -5.834  1.00  0.00     0.029 A 
ATOM     44  C   UNL     1       4.803  11.067  -6.432  1.00  0.00     0.049 A 
ATOM     45  H   UNL     1       3.829  12.703  -5.588  1.00  0.00     0.167 HD
ATOM     46  C   UNL     1       1.798  16.091  -3.699  1.00  0.00     0.034 A 
ATOM     47  C   UNL     1       5.252  11.451  -7.646  1.00  0.00     0.034 A 
ATOM     48  C   UNL     1       2.290  16.603  -4.954  1.00  0.00     0.049 A 
ATOM     49  C   UNL     1       4.976  12.858  -8.128  1.00  0.00     0.074 A 
ATOM     50  C   UNL     1       2.199  17.891  -5.454  1.00  0.00     0.029 A 
ATOM     51  N   UNL     1       2.955  15.852  -5.915  1.00  0.00    -0.354 N 
ATOM     52  N   UNL     1       4.362  13.841  -7.510  1.00  0.00    -0.248 NA
ATOM     53  C   UNL     1       5.460  13.208  -9.471  1.00  0.00     0.031 C 
ATOM     54  C   UNL     1       2.732  17.899  -6.747  1.00  0.00     0.029 A 
ATOM     55  C   UNL     1       3.247  16.642  -7.018  1.00  0.00     0.049 A 
ATOM     56  H   UNL     1       3.185  14.899  -5.827  1.00  0.00     0.167 HD
ATOM     57  C   UNL     1       4.432  14.936  -8.371  1.00  0.00     0.074 A 
ATOM     58  C   UNL     1       5.144  14.493  -9.550  1.00  0.00     0.031 C 
ATOM     59  C   UNL     1       3.962  16.197  -8.193  1.00  0.00     0.034 A 
BRANCH  46  60
ATOM     60  C   UNL     1       1.035  17.016  -2.779  1.00  0.00     0.023 A 
ATOM     61  C   UNL     1       1.480  17.291  -1.474  1.00  0.00     0.031 A 
ATOM     62  C   UNL     1      -0.180  17.589  -3.192  1.00  0.00     0.131 A 
ATOM     63  C   UNL     1       0.673  18.036  -0.601  1.00  0.00     0.055 A 
ATOM     64  C   UNL     1      -0.932  18.410  -2.350  1.00  0.00     0.041 A 
ATOM     65  F   UNL     1      -0.670  17.345  -4.418  1.00  0.00    -0.206 F 
ATOM     66  C   UNL     1      -0.516  18.622  -1.038  1.00  0.00     0.022 A 
BRANCH  63  67
ATOM     67  S   UNL     1       1.111  18.074   1.159  1.00  0.00     0.124 S 
ATOM     68  O   UNL     1       1.137  16.650   1.487  1.00  0.00    -0.237 OA
ATOM     69  O   UNL     1       2.401  18.752   1.149  1.00  0.00    -0.237 OA
ATOM     70  O   UNL     1       0.015  18.825   1.769  1.00  0.00    -0.744 OA
ENDBRANCH  63  67
ENDBRANCH  46  60
BRANCH  47  71
ATOM     71  C   UNL     1       5.988  10.490  -8.520  1.00  0.00     0.023 A 
ATOM     72  C   UNL     1       7.316  10.734  -8.909  1.00  0.00     0.031 A 
ATOM     73  C   UNL     1       5.353   9.345  -9.034  1.00  0.00     0.131 A 
ATOM     74  C   UNL     1       7.948   9.874  -9.820  1.00  0.00     0.055 A 
ATOM     75  C   UNL     1       6.007   8.460  -9.893  1.00  0.00     0.041 A 
ATOM     76  F   UNL     1       4.082   9.066  -8.702  1.00  0.00    -0.206 F 
ATOM     77  C   UNL     1       7.309   8.730 -10.302  1.00  0.00     0.022 A 
BRANCH  74  78
ATOM     78  S   UNL     1       9.592  10.323 -10.442  1.00  0.00     0.124 S 
ATOM     79  O   UNL     1       9.330  11.615 -11.064  1.00  0.00    -0.237 OA
ATOM     80  O   UNL     1      10.384  10.348  -9.216  1.00  0.00    -0.237 OA
ATOM     81  O   UNL     1       9.914   9.238 -11.366  1.00  0.00    -0.744 OA
ENDBRANCH  74  78
ENDBRANCH  47  71
BRANCH  59  82
ATOM     82  C   UNL     1       4.270  17.221  -9.263  1.00  0.00     0.023 A 
ATOM     83  C   UNL     1       3.733  17.141 -10.559  1.00  0.00     0.031 A 
ATOM     84  C   UNL     1       5.109  18.311  -8.964  1.00  0.00     0.131 A 
ATOM     85  C   UNL     1       4.075  18.108 -11.519  1.00  0.00     0.055 A 
ATOM     86  C   UNL     1       5.395  19.303  -9.902  1.00  0.00     0.041 A 
ATOM     87  F   UNL     1       5.656  18.438  -7.744  1.00  0.00    -0.206 F 
ATOM     88  C   UNL     1       4.885  19.199 -11.192  1.00  0.00     0.022 A 
BRANCH  85  89
ATOM     89  S   UNL     1       3.515  17.882 -13.230  1.00  0.00     0.124 S 
ATOM     90  O   UNL     1       4.096  16.588 -13.572  1.00  0.00    -0.237 OA
ATOM     91  O   UNL     1       2.063  17.912 -13.091  1.00  0.00    -0.237 OA
ATOM     92  O   UNL     1       4.092  19.026 -13.935  1.00  0.00    -0.744 OA
ENDBRANCH  85  89
ENDBRANCH  59  82
ENDBRANCH  33  34
ENDBRANCH  26  28
ENDBRANCH  25  26
ENDBRANCH  24  25
ENDBRANCH  23  24
ENDBRANCH  22  23
ENDBRANCH   1  22
TORSDOF 22
