REMARK SMILES N#C/C(=C/c1cccc(OCC(=O)OCCOCCOC(=O)c2ccc(-c3c4nc(c(-c5cc(S(=O)(=O)[O-])ccc5F)c5ccc([nH]5)c(-c5cc(S(=O)(=O)[O-])ccc5F)c5nc(c(-c6cc(S(=O)(=O)[O-])ccc6F)c6ccc3[nH]6)C=C5)C=C4)cc2)c1)c1nc2ccccc2[nH]1
REMARK SMILES IDX 16 1 15 2 14 3 12 4 13 5 11 6 10 7 9 8 5 9 6 10 86 11 7 12
REMARK SMILES IDX 8 13 4 14 3 15 2 16 1 17 87 18 88 19 95 20 89 21 94 22 90 24
REMARK SMILES IDX 93 25 91 26 92 27 17 28 18 29 19 30 20 31 21 32 22 33 23 34
REMARK SMILES IDX 24 35 85 36 25 37 84 38 26 39 27 40 28 41 78 42 29 43 83 44
REMARK SMILES IDX 77 45 79 46 30 47 82 48 76 49 75 50 31 52 63 53 43 54 62 55
REMARK SMILES IDX 44 56 47 57 61 58 80 59 45 60 46 61 60 63 81 64 48 65 32 66
REMARK SMILES IDX 33 67 41 68 34 69 40 70 42 71 39 72 35 73 36 74 37 75 38 76
REMARK SMILES IDX 64 77 65 78 73 79 66 80 72 81 74 82 71 83 67 84 68 85 69 86
REMARK SMILES IDX 70 87 49 88 50 89 58 90 51 91 57 92 59 93 56 94 52 95 53 96
REMARK SMILES IDX 54 97 55 98
REMARK H PARENT 95 23 79 51 47 62
REMARK Flexibility Score: inf
ROOT
ATOM      1  C   UNL     1       5.550   2.949  -3.550  1.00  0.00     0.202 C 
ENDROOT
BRANCH   1   2
ATOM      2  C   UNL     1       6.897   3.899  -3.204  1.00  0.00     0.261 C 
BRANCH   2   3
ATOM      3  O   UNL     1       7.873   3.552  -1.452  1.00  0.00    -0.461 OA
BRANCH   3   4
ATOM      4  C   UNL     1       8.417   3.931  -0.126  1.00  0.00     0.344 C 
ATOM      5  O   UNL     1       8.586   5.107   0.246  1.00  0.00    -0.248 OA
BRANCH   4   6
ATOM      6  C   UNL     1       8.492   2.846   1.108  1.00  0.00     0.351 C 
BRANCH   6   7
ATOM      7  O   UNL     1       8.874   1.492   1.293  1.00  0.00    -0.482 OA
BRANCH   7   8
ATOM      8  C   UNL     1       8.070   0.501   1.862  1.00  0.00     0.120 A 
ATOM      9  C   UNL     1       5.885  -0.582   1.634  1.00  0.00    -0.021 A 
ATOM     10  C   UNL     1       6.519  -1.833   1.590  1.00  0.00     0.008 A 
ATOM     11  C   UNL     1       6.671   0.554   1.996  1.00  0.00     0.054 A 
ATOM     12  C   UNL     1       7.907  -1.927   1.766  1.00  0.00     0.004 A 
ATOM     13  C   UNL     1       8.684  -0.762   1.870  1.00  0.00     0.046 A 
BRANCH   9  14
ATOM     14  C   UNL     1       4.466  -0.472   1.105  1.00  0.00     0.031 C 
ATOM     15  C   UNL     1       3.857   0.065  -0.006  1.00  0.00     0.095 C 
BRANCH  15  16
ATOM     16  C   UNL     1       2.337   0.065  -0.006  1.00  0.00     0.103 C 
ATOM     17  N   UNL     1       1.075   0.065  -0.006  1.00  0.00    -0.192 NA
ENDBRANCH  15  16
BRANCH  15  18
ATOM     18  C   UNL     1       4.407   0.836  -1.166  1.00  0.00     0.149 A 
ATOM     19  N   UNL     1       5.700   0.536  -2.260  1.00  0.00    -0.228 NA
ATOM     20  N   UNL     1       4.513   2.594  -0.633  1.00  0.00    -0.337 N 
ATOM     21  C   UNL     1       6.953   2.030  -2.296  1.00  0.00     0.089 A 
ATOM     22  C   UNL     1       6.002   3.382  -1.279  1.00  0.00     0.066 A 
ATOM     23  H   UNL     1       3.845   3.046  -0.069  1.00  0.00     0.168 HD
ATOM     24  C   UNL     1       8.562   2.443  -2.925  1.00  0.00     0.030 A 
ATOM     25  C   UNL     1       6.562   5.069  -1.403  1.00  0.00     0.028 A 
ATOM     26  C   UNL     1       9.128   4.123  -2.886  1.00  0.00     0.002 A 
ATOM     27  C   UNL     1       8.135   5.405  -2.211  1.00  0.00     0.002 A 
ENDBRANCH  15  18
ENDBRANCH   9  14
ENDBRANCH   7   8
ENDBRANCH   6   7
ENDBRANCH   4   6
ENDBRANCH   3   4
ENDBRANCH   2   3
ENDBRANCH   1   2
BRANCH   1  28
ATOM     28  O   UNL     1       5.131   2.140  -2.293  1.00  0.00    -0.374 OA
BRANCH  28  29
ATOM     29  C   UNL     1       6.286   1.352  -0.735  1.00  0.00     0.202 C 
BRANCH  29  30
ATOM     30  C   UNL     1       7.236  -0.208  -1.065  1.00  0.00     0.261 C 
BRANCH  30  31
ATOM     31  O   UNL     1       8.022  -0.316  -2.284  1.00  0.00    -0.460 OA
BRANCH  31  32
ATOM     32  C   UNL     1       7.542  -0.969  -3.376  1.00  0.00     0.338 C 
ATOM     33  O   UNL     1       6.587  -1.709  -3.500  1.00  0.00    -0.246 OA
BRANCH  32  34
ATOM     34  C   UNL     1       8.449  -0.537  -4.455  1.00  0.00     0.060 A 
ATOM     35  C   UNL     1       8.017   0.337  -5.464  1.00  0.00     0.016 A 
ATOM     36  C   UNL     1       9.799  -0.871  -4.319  1.00  0.00     0.016 A 
ATOM     37  C   UNL     1       8.953   0.866  -6.358  1.00  0.00     0.010 A 
ATOM     38  C   UNL     1      10.728  -0.339  -5.202  1.00  0.00     0.010 A 
ATOM     39  C   UNL     1      10.301   0.495  -6.250  1.00  0.00    -0.014 A 
BRANCH  39  40
ATOM     40  C   UNL     1      11.231   0.717  -7.379  1.00  0.00     0.031 A 
ATOM     41  C   UNL     1      11.474  -0.457  -8.288  1.00  0.00     0.074 A 
ATOM     42  C   UNL     1      11.848   1.895  -7.575  1.00  0.00     0.049 A 
ATOM     43  N   UNL     1      12.306  -0.578  -9.286  1.00  0.00    -0.248 NA
ATOM     44  C   UNL     1      10.677  -1.667  -8.017  1.00  0.00     0.031 C 
ATOM     45  C   UNL     1      11.648   3.100  -6.771  1.00  0.00     0.029 A 
ATOM     46  N   UNL     1      12.779   2.266  -8.511  1.00  0.00    -0.354 N 
ATOM     47  C   UNL     1      12.143  -1.880  -9.747  1.00  0.00     0.074 A 
ATOM     48  C   UNL     1      11.169  -2.521  -8.897  1.00  0.00     0.031 C 
ATOM     49  C   UNL     1      12.437   4.078  -7.251  1.00  0.00     0.029 A 
ATOM     50  C   UNL     1      13.234   3.555  -8.360  1.00  0.00     0.049 A 
ATOM     51  H   UNL     1      13.092   1.665  -9.225  1.00  0.00     0.167 HD
ATOM     52  C   UNL     1      12.753  -2.480 -10.795  1.00  0.00     0.034 A 
ATOM     53  C   UNL     1      14.205   4.215  -9.025  1.00  0.00     0.034 A 
ATOM     54  C   UNL     1      13.725  -1.816 -11.622  1.00  0.00     0.049 A 
ATOM     55  C   UNL     1      14.931   3.493 -10.140  1.00  0.00     0.074 A 
ATOM     56  C   UNL     1      14.388  -2.309 -12.730  1.00  0.00     0.029 A 
ATOM     57  N   UNL     1      14.190  -0.523 -11.416  1.00  0.00    -0.354 N 
ATOM     58  N   UNL     1      14.752   2.270 -10.590  1.00  0.00    -0.248 NA
ATOM     59  C   UNL     1      15.984   4.239 -10.842  1.00  0.00     0.031 C 
ATOM     60  C   UNL     1      15.327  -1.356 -13.129  1.00  0.00     0.029 A 
ATOM     61  C   UNL     1      15.169  -0.221 -12.347  1.00  0.00     0.049 A 
ATOM     62  H   UNL     1      13.871   0.087 -10.713  1.00  0.00     0.167 HD
ATOM     63  C   UNL     1      15.640   2.120 -11.653  1.00  0.00     0.074 A 
ATOM     64  C   UNL     1      16.341   3.380 -11.785  1.00  0.00     0.031 C 
ATOM     65  C   UNL     1      15.856   1.044 -12.455  1.00  0.00     0.034 A 
BRANCH  52  66
ATOM     66  C   UNL     1      12.439  -3.932 -11.053  1.00  0.00     0.023 A 
ATOM     67  C   UNL     1      11.149  -4.372 -11.398  1.00  0.00     0.031 A 
ATOM     68  C   UNL     1      13.454  -4.898 -10.934  1.00  0.00     0.131 A 
ATOM     69  C   UNL     1      10.897  -5.744 -11.555  1.00  0.00     0.055 A 
ATOM     70  C   UNL     1      13.217  -6.250 -11.177  1.00  0.00     0.041 A 
ATOM     71  F   UNL     1      14.696  -4.542 -10.568  1.00  0.00    -0.206 F 
ATOM     72  C   UNL     1      11.929  -6.682 -11.479  1.00  0.00     0.022 A 
BRANCH  69  73
ATOM     73  S   UNL     1       9.179  -6.300 -11.716  1.00  0.00     0.124 S 
ATOM     74  O   UNL     1       8.586  -5.789 -10.482  1.00  0.00    -0.237 OA
ATOM     75  O   UNL     1       8.750  -5.649 -12.948  1.00  0.00    -0.237 OA
ATOM     76  O   UNL     1       9.295  -7.755 -11.786  1.00  0.00    -0.744 OA
ENDBRANCH  69  73
ENDBRANCH  52  66
BRANCH  53  77
ATOM     77  C   UNL     1      14.588   5.607  -8.644  1.00  0.00     0.023 A 
ATOM     78  C   UNL     1      14.515   6.661  -9.569  1.00  0.00     0.031 A 
ATOM     79  C   UNL     1      15.118   5.890  -7.372  1.00  0.00     0.131 A 
ATOM     80  C   UNL     1      15.025   7.926  -9.234  1.00  0.00     0.055 A 
ATOM     81  C   UNL     1      15.554   7.169  -7.018  1.00  0.00     0.041 A 
ATOM     82  F   UNL     1      15.225   4.922  -6.448  1.00  0.00    -0.206 F 
ATOM     83  C   UNL     1      15.526   8.192  -7.959  1.00  0.00     0.022 A 
BRANCH  80  84
ATOM     84  S   UNL     1      15.154   9.181 -10.538  1.00  0.00     0.124 S 
ATOM     85  O   UNL     1      15.960   8.486 -11.535  1.00  0.00    -0.237 OA
ATOM     86  O   UNL     1      13.755   9.403 -10.884  1.00  0.00    -0.237 OA
ATOM     87  O   UNL     1      15.815  10.300  -9.869  1.00  0.00    -0.744 OA
ENDBRANCH  80  84
ENDBRANCH  53  77
BRANCH  65  88
ATOM     88  C   UNL     1      16.846   1.207 -13.584  1.00  0.00     0.023 A 
ATOM     89  C   UNL     1      18.210   1.445 -13.350  1.00  0.00     0.031 A 
ATOM     90  C   UNL     1      16.410   1.117 -14.919  1.00  0.00     0.131 A 
ATOM     91  C   UNL     1      19.076   1.651 -14.433  1.00  0.00     0.055 A 
ATOM     92  C   UNL     1      17.292   1.237 -15.991  1.00  0.00     0.041 A 
ATOM     93  F   UNL     1      15.115   0.897 -15.203  1.00  0.00    -0.206 F 
ATOM     94  C   UNL     1      18.632   1.522 -15.752  1.00  0.00     0.022 A 
BRANCH  91  95
ATOM     95  S   UNL     1      20.766   2.215 -14.097  1.00  0.00     0.124 S 
ATOM     96  O   UNL     1      20.529   3.442 -13.342  1.00  0.00    -0.237 OA
ATOM     97  O   UNL     1      21.324   1.099 -13.340  1.00  0.00    -0.237 OA
ATOM     98  O   UNL     1      21.335   2.407 -15.430  1.00  0.00    -0.744 OA
ENDBRANCH  91  95
ENDBRANCH  65  88
ENDBRANCH  39  40
ENDBRANCH  32  34
ENDBRANCH  31  32
ENDBRANCH  30  31
ENDBRANCH  29  30
ENDBRANCH  28  29
ENDBRANCH   1  28
TORSDOF 22
