REMARK SMILES O=C(OCCOCCOC(=O)[C@H]1CC=CC[C@@H]1C(=O)Nc1ccccc1C(=O)NCc1ccco1)c1ccc(-c2c3nc(c(-c4cc(S(=O)(=O)[O-])ccc4F)c4ccc([nH]4)c(-c4cc(S(=O)(=O)[O-])ccc4F)c4nc(c(-c5cc(S(=O)(=O)[O-])ccc5F)c5ccc2[nH]5)C=C4)C=C3)cc1
REMARK SMILES IDX 7 1 6 2 5 3 4 4 3 5 2 6 1 7 36 8 37 9 98 10 38 11 97 12
REMARK SMILES IDX 39 13 40 14 41 15 91 16 42 17 96 18 90 19 92 20 43 21 95 22
REMARK SMILES IDX 89 23 88 24 44 26 76 27 56 28 75 29 57 30 60 31 74 32 93 33
REMARK SMILES IDX 58 34 59 35 73 37 94 38 61 39 45 40 46 41 54 42 47 43 53 44
REMARK SMILES IDX 55 45 52 46 48 47 49 48 50 49 51 50 77 51 78 52 86 53 79 54
REMARK SMILES IDX 85 55 87 56 84 57 80 58 81 59 82 60 83 61 62 62 63 63 71 64
REMARK SMILES IDX 64 65 70 66 72 67 69 68 65 69 66 70 67 71 68 72 8 73 9 74
REMARK SMILES IDX 10 75 11 76 12 77 13 78 17 79 14 80 16 81 15 82 18 83 19 84
REMARK SMILES IDX 20 85 21 87 22 88 26 89 23 90 25 91 24 92 27 93 28 94 29 95
REMARK SMILES IDX 30 97 31 98 32 99 35 100 33 101 34 102
REMARK H PARENT 92 25 60 36 20 86 29 96
REMARK Flexibility Score: inf
ROOT
ATOM      1  C   UNL     1       2.837   1.741  -0.776  1.00  0.00     0.202 C 
ENDROOT
BRANCH   1   2
ATOM      2  O   UNL     1       4.253   1.560  -0.694  1.00  0.00    -0.374 OA
BRANCH   2   3
ATOM      3  C   UNL     1       4.817   0.349  -1.212  1.00  0.00     0.202 C 
BRANCH   3   4
ATOM      4  C   UNL     1       4.423  -1.000  -0.572  1.00  0.00     0.261 C 
BRANCH   4   5
ATOM      5  O   UNL     1       3.036  -1.099  -0.211  1.00  0.00    -0.460 OA
BRANCH   5   6
ATOM      6  C   UNL     1       2.468  -0.850   0.997  1.00  0.00     0.338 C 
ATOM      7  O   UNL     1       1.290  -1.167   1.159  1.00  0.00    -0.246 OA
BRANCH   6   8
ATOM      8  C   UNL     1       3.161  -0.121   2.112  1.00  0.00     0.060 A 
ATOM      9  C   UNL     1       4.419   0.471   2.020  1.00  0.00     0.016 A 
ATOM     10  C   UNL     1       2.458   0.044   3.322  1.00  0.00     0.016 A 
ATOM     11  C   UNL     1       4.983   1.171   3.064  1.00  0.00     0.010 A 
ATOM     12  C   UNL     1       3.018   0.751   4.395  1.00  0.00     0.010 A 
ATOM     13  C   UNL     1       4.297   1.296   4.262  1.00  0.00    -0.014 A 
BRANCH  13  14
ATOM     14  C   UNL     1       5.100   1.820   5.376  1.00  0.00     0.031 A 
ATOM     15  C   UNL     1       5.798   0.815   6.239  1.00  0.00     0.074 A 
ATOM     16  C   UNL     1       5.417   3.127   5.388  1.00  0.00     0.049 A 
ATOM     17  N   UNL     1       6.670   1.000   7.191  1.00  0.00    -0.248 NA
ATOM     18  C   UNL     1       5.501  -0.601   5.958  1.00  0.00     0.031 C 
ATOM     19  C   UNL     1       4.921   4.117   4.425  1.00  0.00     0.029 A 
ATOM     20  N   UNL     1       6.285   3.831   6.173  1.00  0.00    -0.354 N 
ATOM     21  C   UNL     1       7.012  -0.272   7.634  1.00  0.00     0.074 A 
ATOM     22  C   UNL     1       6.255  -1.220   6.849  1.00  0.00     0.031 C 
ATOM     23  C   UNL     1       5.529   5.292   4.655  1.00  0.00     0.029 A 
ATOM     24  C   UNL     1       6.399   5.155   5.817  1.00  0.00     0.049 A 
ATOM     25  H   UNL     1       6.782   3.429   6.922  1.00  0.00     0.167 HD
ATOM     26  C   UNL     1       7.875  -0.605   8.623  1.00  0.00     0.034 A 
ATOM     27  C   UNL     1       7.114   6.140   6.394  1.00  0.00     0.034 A 
ATOM     28  C   UNL     1       8.580   0.386   9.394  1.00  0.00     0.049 A 
ATOM     29  C   UNL     1       7.951   5.764   7.592  1.00  0.00     0.074 A 
ATOM     30  C   UNL     1       9.375   0.220  10.511  1.00  0.00     0.029 A 
ATOM     31  N   UNL     1       8.559   1.752   9.118  1.00  0.00    -0.354 N 
ATOM     32  N   UNL     1       8.175   4.571   8.100  1.00  0.00    -0.248 NA
ATOM     33  C   UNL     1       8.616   6.859   8.303  1.00  0.00     0.031 C 
ATOM     34  C   UNL     1       9.781   1.488  10.945  1.00  0.00     0.029 A 
ATOM     35  C   UNL     1       9.301   2.442  10.059  1.00  0.00     0.049 A 
ATOM     36  H   UNL     1       8.083   2.166   8.361  1.00  0.00     0.167 HD
ATOM     37  C   UNL     1       9.016   4.771   9.188  1.00  0.00     0.074 A 
ATOM     38  C   UNL     1       9.280   6.198   9.240  1.00  0.00     0.031 C 
ATOM     39  C   UNL     1       9.521   3.871  10.072  1.00  0.00     0.034 A 
BRANCH  26  40
ATOM     40  C   UNL     1       7.951  -2.069   8.982  1.00  0.00     0.023 A 
ATOM     41  C   UNL     1       8.442  -3.037   8.085  1.00  0.00     0.031 A 
ATOM     42  C   UNL     1       7.381  -2.517  10.186  1.00  0.00     0.131 A 
ATOM     43  C   UNL     1       8.267  -4.402   8.367  1.00  0.00     0.055 A 
ATOM     44  C   UNL     1       7.285  -3.875  10.497  1.00  0.00     0.041 A 
ATOM     45  F   UNL     1       6.860  -1.643  11.062  1.00  0.00    -0.206 F 
ATOM     46  C   UNL     1       7.710  -4.827   9.576  1.00  0.00     0.022 A 
BRANCH  43  47
ATOM     47  S   UNL     1       8.601  -5.614   7.056  1.00  0.00     0.124 S 
ATOM     48  O   UNL     1       7.690  -5.169   6.003  1.00  0.00    -0.237 OA
ATOM     49  O   UNL     1      10.022  -5.417   6.797  1.00  0.00    -0.237 OA
ATOM     50  O   UNL     1       8.250  -6.893   7.671  1.00  0.00    -0.744 OA
ENDBRANCH  43  47
ENDBRANCH  26  40
BRANCH  27  51
ATOM     51  C   UNL     1       7.007   7.552   5.918  1.00  0.00     0.023 A 
ATOM     52  C   UNL     1       8.132   8.280   5.498  1.00  0.00     0.031 A 
ATOM     53  C   UNL     1       5.766   8.219   5.929  1.00  0.00     0.131 A 
ATOM     54  C   UNL     1       7.999   9.633   5.139  1.00  0.00     0.055 A 
ATOM     55  C   UNL     1       5.630   9.546   5.519  1.00  0.00     0.041 A 
ATOM     56  F   UNL     1       4.655   7.584   6.336  1.00  0.00    -0.206 F 
ATOM     57  C   UNL     1       6.754  10.266   5.132  1.00  0.00     0.022 A 
BRANCH  54  58
ATOM     58  S   UNL     1       9.495  10.593   4.765  1.00  0.00     0.124 S 
ATOM     59  O   UNL     1      10.279  10.409   5.981  1.00  0.00    -0.237 OA
ATOM     60  O   UNL     1       9.995   9.922   3.570  1.00  0.00    -0.237 OA
ATOM     61  O   UNL     1       8.986  11.946   4.550  1.00  0.00    -0.744 OA
ENDBRANCH  54  58
ENDBRANCH  27  51
BRANCH  39  62
ATOM     62  C   UNL     1      10.426   4.426  11.139  1.00  0.00     0.023 A 
ATOM     63  C   UNL     1       9.932   5.257  12.159  1.00  0.00     0.031 A 
ATOM     64  C   UNL     1      11.800   4.132  11.121  1.00  0.00     0.131 A 
ATOM     65  C   UNL     1      10.819   5.818  13.086  1.00  0.00     0.055 A 
ATOM     66  C   UNL     1      12.668   4.644  12.084  1.00  0.00     0.041 A 
ATOM     67  F   UNL     1      12.318   3.342  10.166  1.00  0.00    -0.206 F 
ATOM     68  C   UNL     1      12.181   5.504  13.065  1.00  0.00     0.022 A 
BRANCH  65  69
ATOM     69  S   UNL     1      10.183   7.042  14.262  1.00  0.00     0.124 S 
ATOM     70  O   UNL     1       9.643   8.065  13.373  1.00  0.00    -0.237 OA
ATOM     71  O   UNL     1       9.201   6.269  15.016  1.00  0.00    -0.237 OA
ATOM     72  O   UNL     1      11.370   7.440  15.017  1.00  0.00    -0.744 OA
ENDBRANCH  65  69
ENDBRANCH  39  62
ENDBRANCH  13  14
ENDBRANCH   6   8
ENDBRANCH   5   6
ENDBRANCH   4   5
ENDBRANCH   3   4
ENDBRANCH   2   3
ENDBRANCH   1   2
BRANCH   1  73
ATOM     73  C   UNL     1       2.481   3.050  -1.478  1.00  0.00     0.261 C 
BRANCH  73  74
ATOM     74  O   UNL     1       2.580   2.806  -2.885  1.00  0.00    -0.463 OA
BRANCH  74  75
ATOM     75  C   UNL     1       3.831   2.959  -3.374  1.00  0.00     0.310 C 
ATOM     76  O   UNL     1       4.654   3.770  -2.973  1.00  0.00    -0.252 OA
BRANCH  75  77
ATOM     77  C   UNL     1       4.090   2.036  -4.540  1.00  0.00     0.116 C 
ATOM     78  C   UNL     1       3.378   0.671  -4.472  1.00  0.00     0.043 C 
ATOM     79  C   UNL     1       3.878   2.833  -5.815  1.00  0.00     0.097 C 
ATOM     80  C   UNL     1       2.138   0.533  -5.283  1.00  0.00    -0.030 C 
ATOM     81  C   UNL     1       2.378   2.831  -6.217  1.00  0.00     0.041 C 
ATOM     82  C   UNL     1       1.671   1.516  -6.056  1.00  0.00    -0.030 C 
BRANCH  79  83
ATOM     83  C   UNL     1       4.765   2.420  -6.982  1.00  0.00     0.228 C 
ATOM     84  O   UNL     1       4.273   2.029  -8.050  1.00  0.00    -0.274 OA
ATOM     85  N   UNL     1       6.121   2.575  -7.014  1.00  0.00    -0.325 N 
ATOM     86  H   UNL     1       6.478   2.442  -7.922  1.00  0.00     0.169 HD
BRANCH  85  87
ATOM     87  C   UNL     1       7.146   2.875  -6.096  1.00  0.00     0.054 A 
ATOM     88  C   UNL     1       7.909   3.995  -6.498  1.00  0.00     0.027 A 
ATOM     89  C   UNL     1       7.606   2.114  -4.995  1.00  0.00     0.063 A 
ATOM     90  C   UNL     1       9.014   4.443  -5.776  1.00  0.00     0.002 A 
ATOM     91  C   UNL     1       8.693   2.628  -4.243  1.00  0.00     0.016 A 
ATOM     92  C   UNL     1       9.388   3.776  -4.624  1.00  0.00     0.001 A 
BRANCH  89  93
ATOM     93  C   UNL     1       7.225   0.733  -4.524  1.00  0.00     0.253 C 
ATOM     94  O   UNL     1       7.267   0.479  -3.318  1.00  0.00    -0.269 OA
ATOM     95  N   UNL     1       6.896  -0.305  -5.357  1.00  0.00    -0.345 N 
ATOM     96  H   UNL     1       6.871  -1.196  -4.939  1.00  0.00     0.164 HD
BRANCH  95  97
ATOM     97  C   UNL     1       6.585  -0.263  -6.751  1.00  0.00     0.191 C 
BRANCH  97  98
ATOM     98  C   UNL     1       6.348  -1.576  -7.380  1.00  0.00     0.122 A 
ATOM     99  C   UNL     1       6.154  -1.896  -8.708  1.00  0.00     0.047 A 
ATOM    100  O   UNL     1       6.127  -2.665  -6.592  1.00  0.00    -0.467 OA
ATOM    101  C   UNL     1       5.785  -3.256  -8.738  1.00  0.00     0.042 A 
ATOM    102  C   UNL     1       5.786  -3.682  -7.429  1.00  0.00     0.195 A 
ENDBRANCH  97  98
ENDBRANCH  95  97
ENDBRANCH  89  93
ENDBRANCH  85  87
ENDBRANCH  79  83
ENDBRANCH  75  77
ENDBRANCH  74  75
ENDBRANCH  73  74
ENDBRANCH   1  73
TORSDOF 22
