REMARK SMILES CCC(CC)(NC(=O)CN1CCCCCC1=O)C(=O)OCCOCCOC(=O)c1ccc(-c2c3nc(c(-c4cc(S(=O)(=O)[O-])ccc4F)c4ccc([nH]4)c(-c4cc(S(=O)(=O)[O-])ccc4F)c4nc(c(-c5cc(S(=O)(=O)[O-])ccc5F)c5ccc2[nH]5)C=C4)C=C3)cc1
REMARK SMILES IDX 21 1 20 2 18 3 19 4 3 5 2 6 1 7 4 8 5 9 6 10 7 11 8 13 9 14
REMARK SMILES IDX 10 15 11 16 12 17 13 18 14 19 16 21 17 22 15 23 22 25 23 26
REMARK SMILES IDX 24 27 25 28 26 29 27 30 28 31 29 32 30 33 91 34 31 35 90 36
REMARK SMILES IDX 32 37 33 38 34 39 84 40 35 41 89 42 83 43 85 44 36 45 88 46
REMARK SMILES IDX 82 47 81 48 37 50 69 51 49 52 68 53 50 54 53 55 67 56 86 57
REMARK SMILES IDX 51 58 52 59 66 61 87 62 54 63 38 64 39 65 47 66 40 67 46 68
REMARK SMILES IDX 48 69 45 70 41 71 42 72 43 73 44 74 70 75 71 76 79 77 72 78
REMARK SMILES IDX 78 79 80 80 77 81 73 82 74 83 75 84 76 85 55 86 56 87 64 88
REMARK SMILES IDX 57 89 63 90 65 91 62 92 58 93 59 94 60 95 61 96
REMARK H PARENT 6 12 85 49 53 60
REMARK Flexibility Score: 80.00
ROOT
ATOM      1  C   UNL     1       4.164   1.628  -1.625  1.00  0.00     0.261 C 
ENDROOT
BRANCH   1   2
ATOM      2  O   UNL     1       2.906   2.258  -1.593  1.00  0.00    -0.461 OA
BRANCH   2   3
ATOM      3  C   UNL     1       1.857   1.436  -1.728  1.00  0.00     0.331 C 
ATOM      4  O   UNL     1       1.958   0.236  -1.966  1.00  0.00    -0.249 OA
BRANCH   3   5
ATOM      5  C   UNL     1       0.519   2.169  -1.530  1.00  0.00     0.137 C 
BRANCH   5   6
ATOM      6  C   UNL     1      -0.265   1.495  -0.360  1.00  0.00     0.037 C 
ATOM      7  C   UNL     1      -0.338  -0.036  -0.374  1.00  0.00     0.007 C 
ENDBRANCH   5   6
BRANCH   5   8
ATOM      8  C   UNL     1      -0.210   1.936  -2.901  1.00  0.00     0.037 C 
ATOM      9  C   UNL     1      -1.719   2.153  -2.904  1.00  0.00     0.007 C 
ENDBRANCH   5   8
BRANCH   5  10
ATOM     10  N   UNL     1       0.545   3.673  -1.377  1.00  0.00    -0.339 N 
ATOM     11  C   UNL     1       1.225   4.691  -0.796  1.00  0.00     0.240 C 
ATOM     12  H   UNL     1      -0.208   4.052  -1.887  1.00  0.00     0.164 HD
ATOM     13  O   UNL     1       0.573   5.755  -0.801  1.00  0.00    -0.273 OA
BRANCH  11  14
ATOM     14  C   UNL     1       2.732   4.789  -0.395  1.00  0.00     0.219 C 
BRANCH  14  15
ATOM     15  N   UNL     1       3.460   3.791   0.385  1.00  0.00    -0.333 N 
BRANCH  15  16
ATOM     16  C   UNL     1       5.282   3.913   0.405  1.00  0.00     0.120 C 
BRANCH  16  17
ATOM     17  C   UNL     1       6.496   2.682   1.232  1.00  0.00     0.022 C 
BRANCH  17  18
ATOM     18  C   UNL     1       5.979   1.107   2.097  1.00  0.00     0.002 C 
BRANCH  18  19
ATOM     19  C   UNL     1       4.303   0.402   2.166  1.00  0.00     0.010 CG0
ATOM     20  G   UNL     1       2.771   1.284   1.904  1.00  0.00     0.000 G0
ENDBRANCH  18  19
ENDBRANCH  17  18
ENDBRANCH  16  17
ENDBRANCH  15  16
BRANCH  15  21
ATOM     21  C   UNL     1       2.473   2.939   1.224  1.00  0.00     0.223 C 
ATOM     22  O   UNL     1       1.364   3.422   1.511  1.00  0.00    -0.275 OA
BRANCH  21  23
ATOM     23  C   UNL     1       2.771   1.284   1.904  1.00  0.00     0.100 CG0
ATOM     24  G   UNL     1       4.303   0.402   2.166  1.00  0.00     0.000 G0
ENDBRANCH  21  23
ENDBRANCH  15  21
ENDBRANCH  14  15
ENDBRANCH  11  14
ENDBRANCH   5  10
ENDBRANCH   3   5
ENDBRANCH   2   3
ENDBRANCH   1   2
BRANCH   1  25
ATOM     25  C   UNL     1       4.975   1.627  -0.308  1.00  0.00     0.202 C 
BRANCH  25  26
ATOM     26  O   UNL     1       4.413   2.147   1.059  1.00  0.00    -0.374 OA
BRANCH  26  27
ATOM     27  C   UNL     1       4.581   3.146   2.551  1.00  0.00     0.202 C 
BRANCH  27  28
ATOM     28  C   UNL     1       3.953   4.626   2.955  1.00  0.00     0.261 C 
BRANCH  28  29
ATOM     29  O   UNL     1       4.018   5.786   2.076  1.00  0.00    -0.460 OA
BRANCH  29  30
ATOM     30  C   UNL     1       5.081   6.634   2.089  1.00  0.00     0.338 C 
ATOM     31  O   UNL     1       5.996   6.596   2.899  1.00  0.00    -0.246 OA
BRANCH  30  32
ATOM     32  C   UNL     1       5.165   7.347   0.760  1.00  0.00     0.060 A 
ATOM     33  C   UNL     1       6.298   7.124  -0.046  1.00  0.00     0.016 A 
ATOM     34  C   UNL     1       4.159   8.186   0.273  1.00  0.00     0.016 A 
ATOM     35  C   UNL     1       6.440   7.737  -1.305  1.00  0.00     0.010 A 
ATOM     36  C   UNL     1       4.319   8.834  -0.974  1.00  0.00     0.010 A 
ATOM     37  C   UNL     1       5.476   8.645  -1.761  1.00  0.00    -0.014 A 
BRANCH  37  38
ATOM     38  C   UNL     1       5.825   9.634  -2.837  1.00  0.00     0.031 A 
ATOM     39  C   UNL     1       6.399  10.957  -2.385  1.00  0.00     0.074 A 
ATOM     40  C   UNL     1       5.680   9.424  -4.162  1.00  0.00     0.049 A 
ATOM     41  N   UNL     1       6.649  12.048  -3.065  1.00  0.00    -0.248 NA
ATOM     42  C   UNL     1       6.726  11.050  -0.955  1.00  0.00     0.031 C 
ATOM     43  C   UNL     1       5.232   8.184  -4.788  1.00  0.00     0.029 A 
ATOM     44  N   UNL     1       5.887  10.278  -5.228  1.00  0.00    -0.354 N 
ATOM     45  C   UNL     1       7.133  12.967  -2.138  1.00  0.00     0.074 A 
ATOM     46  C   UNL     1       7.120  12.307  -0.850  1.00  0.00     0.031 C 
ATOM     47  C   UNL     1       5.166   8.367  -6.122  1.00  0.00     0.029 A 
ATOM     48  C   UNL     1       5.521   9.751  -6.448  1.00  0.00     0.049 A 
ATOM     49  H   UNL     1       6.262  11.182  -5.126  1.00  0.00     0.167 HD
ATOM     50  C   UNL     1       7.549  14.244  -2.329  1.00  0.00     0.034 A 
ATOM     51  C   UNL     1       5.434  10.322  -7.673  1.00  0.00     0.034 A 
ATOM     52  C   UNL     1       7.552  14.916  -3.603  1.00  0.00     0.049 A 
ATOM     53  C   UNL     1       5.791  11.784  -7.858  1.00  0.00     0.074 A 
ATOM     54  C   UNL     1       7.951  16.210  -3.893  1.00  0.00     0.029 A 
ATOM     55  N   UNL     1       7.119  14.358  -4.798  1.00  0.00    -0.354 N 
ATOM     56  N   UNL     1       6.212  12.654  -6.970  1.00  0.00    -0.248 NA
ATOM     57  C   UNL     1       5.651  12.343  -9.214  1.00  0.00     0.031 C 
ATOM     58  C   UNL     1       7.691  16.458  -5.245  1.00  0.00     0.029 A 
ATOM     59  C   UNL     1       7.209  15.293  -5.819  1.00  0.00     0.049 A 
ATOM     60  H   UNL     1       6.796  13.435  -4.905  1.00  0.00     0.167 HD
ATOM     61  C   UNL     1       6.413  13.848  -7.664  1.00  0.00     0.074 A 
ATOM     62  C   UNL     1       6.067  13.591  -9.045  1.00  0.00     0.031 C 
ATOM     63  C   UNL     1       6.858  15.044  -7.198  1.00  0.00     0.034 A 
BRANCH  50  64
ATOM     64  C   UNL     1       7.950  15.014  -1.093  1.00  0.00     0.023 A 
ATOM     65  C   UNL     1       9.041  14.622  -0.297  1.00  0.00     0.031 A 
ATOM     66  C   UNL     1       7.169  16.098  -0.655  1.00  0.00     0.131 A 
ATOM     67  C   UNL     1       9.254  15.237   0.945  1.00  0.00     0.055 A 
ATOM     68  C   UNL     1       7.446  16.769   0.537  1.00  0.00     0.041 A 
ATOM     69  F   UNL     1       6.101  16.502  -1.361  1.00  0.00    -0.206 F 
ATOM     70  C   UNL     1       8.479  16.324   1.356  1.00  0.00     0.022 A 
BRANCH  67  71
ATOM     71  S   UNL     1      10.421  14.465   2.100  1.00  0.00     0.124 S 
ATOM     72  O   UNL     1       9.899  13.103   2.184  1.00  0.00    -0.237 OA
ATOM     73  O   UNL     1      11.696  14.619   1.408  1.00  0.00    -0.237 OA
ATOM     74  O   UNL     1      10.271  15.257   3.319  1.00  0.00    -0.744 OA
ENDBRANCH  67  71
ENDBRANCH  50  64
BRANCH  51  75
ATOM     75  C   UNL     1       4.894   9.543  -8.830  1.00  0.00     0.023 A 
ATOM     76  C   UNL     1       5.685   9.226  -9.948  1.00  0.00     0.031 A 
ATOM     77  C   UNL     1       3.541   9.155  -8.852  1.00  0.00     0.131 A 
ATOM     78  C   UNL     1       5.110   8.565 -11.049  1.00  0.00     0.055 A 
ATOM     79  C   UNL     1       2.987   8.460  -9.928  1.00  0.00     0.041 A 
ATOM     80  F   UNL     1       2.737   9.446  -7.818  1.00  0.00    -0.206 F 
ATOM     81  C   UNL     1       3.771   8.167 -11.038  1.00  0.00     0.022 A 
BRANCH  78  82
ATOM     82  S   UNL     1       6.124   8.264 -12.525  1.00  0.00     0.124 S 
ATOM     83  O   UNL     1       6.400   9.623 -12.978  1.00  0.00    -0.237 OA
ATOM     84  O   UNL     1       7.257   7.529 -11.973  1.00  0.00    -0.237 OA
ATOM     85  O   UNL     1       5.243   7.483 -13.391  1.00  0.00    -0.744 OA
ENDBRANCH  78  82
ENDBRANCH  51  75
BRANCH  63  86
ATOM     86  C   UNL     1       7.065  16.164  -8.193  1.00  0.00     0.023 A 
ATOM     87  C   UNL     1       5.994  16.817  -8.828  1.00  0.00     0.031 A 
ATOM     88  C   UNL     1       8.370  16.613  -8.475  1.00  0.00     0.131 A 
ATOM     89  C   UNL     1       6.248  17.863  -9.732  1.00  0.00     0.055 A 
ATOM     90  C   UNL     1       8.613  17.683  -9.338  1.00  0.00     0.041 A 
ATOM     91  F   UNL     1       9.432  16.028  -7.899  1.00  0.00    -0.206 F 
ATOM     92  C   UNL     1       7.549  18.310  -9.978  1.00  0.00     0.022 A 
BRANCH  89  93
ATOM     93  S   UNL     1       4.858  18.608 -10.632  1.00  0.00     0.124 S 
ATOM     94  O   UNL     1       4.314  17.462 -11.355  1.00  0.00    -0.237 OA
ATOM     95  O   UNL     1       4.030  19.133  -9.552  1.00  0.00    -0.237 OA
ATOM     96  O   UNL     1       5.495  19.622 -11.471  1.00  0.00    -0.744 OA
ENDBRANCH  89  93
ENDBRANCH  63  86
ENDBRANCH  37  38
ENDBRANCH  30  32
ENDBRANCH  29  30
ENDBRANCH  28  29
ENDBRANCH  27  28
ENDBRANCH  26  27
ENDBRANCH  25  26
ENDBRANCH   1  25
TORSDOF 22
