REMARK SMILES Cn1nc(N2CCC(CC(=O)OCCOCCOC(=O)c3ccc(-c4c5nc(c(-c6cc(S(=O)(=O)[O-])ccc6F)c6ccc([nH]6)c(-c6cc(S(=O)(=O)[O-])ccc6F)c6nc(c(-c7cc(S(=O)(=O)[O-])ccc7F)c7ccc4[nH]7)C=C6)C=C5)cc3)CC2)c(=O)n(C)c1=O
REMARK SMILES IDX 16 1 15 2 14 3 13 4 12 5 10 6 11 7 9 8 8 9 5 10 6 11 85 12
REMARK SMILES IDX 7 13 84 14 4 15 1 16 2 17 3 18 90 19 88 20 91 21 86 22 89 23
REMARK SMILES IDX 87 24 17 25 18 26 19 27 20 28 21 29 22 30 83 31 23 32 82 33
REMARK SMILES IDX 24 34 25 35 26 36 76 37 27 38 81 39 75 40 77 41 28 42 80 43
REMARK SMILES IDX 74 44 73 45 29 47 61 48 41 49 60 50 42 51 45 52 59 53 78 54
REMARK SMILES IDX 43 55 44 56 58 58 79 59 46 60 30 61 31 62 39 63 32 64 38 65
REMARK SMILES IDX 40 66 37 67 33 68 34 69 35 70 36 71 62 72 63 73 71 74 64 75
REMARK SMILES IDX 70 76 72 77 69 78 65 79 66 80 67 81 68 82 47 83 48 84 56 85
REMARK SMILES IDX 49 86 55 87 57 88 54 89 50 90 51 91 52 92 53 93
REMARK H PARENT 77 46 45 57
REMARK Flexibility Score: inf
ROOT
ATOM      1  C   UNL     1      -1.973  -8.239  -4.951  1.00  0.00     0.202 C 
ENDROOT
BRANCH   1   2
ATOM      2  O   UNL     1      -2.141  -9.330  -4.049  1.00  0.00    -0.374 OA
BRANCH   2   3
ATOM      3  C   UNL     1      -2.234  -9.022  -2.658  1.00  0.00     0.202 C 
BRANCH   3   4
ATOM      4  C   UNL     1      -0.922  -8.708  -1.936  1.00  0.00     0.261 C 
BRANCH   4   5
ATOM      5  O   UNL     1      -0.360  -7.464  -2.392  1.00  0.00    -0.463 OA
BRANCH   5   6
ATOM      6  C   UNL     1       0.785  -7.538  -3.109  1.00  0.00     0.306 C 
ATOM      7  O   UNL     1       1.412  -8.569  -3.329  1.00  0.00    -0.252 OA
BRANCH   6   8
ATOM      8  C   UNL     1       1.261  -6.185  -3.601  1.00  0.00     0.126 C 
BRANCH   8   9
ATOM      9  C   UNL     1       0.220  -5.150  -4.083  1.00  0.00     0.003 C 
ATOM     10  N   UNL     1      -0.645  -2.388  -4.035  1.00  0.00    -0.351 N 
ATOM     11  C   UNL     1      -1.473  -3.386  -3.378  1.00  0.00     0.118 C 
ATOM     12  C   UNL     1       0.056  -2.849  -5.222  1.00  0.00     0.118 C 
ATOM     13  C   UNL     1      -0.617  -4.564  -2.929  1.00  0.00     0.026 C 
ATOM     14  C   UNL     1       0.963  -4.022  -4.840  1.00  0.00     0.026 C 
BRANCH  10  15
ATOM     15  C   UNL     1      -0.301  -1.207  -3.391  1.00  0.00     0.215 A 
ATOM     16  C   UNL     1       0.822  -0.135  -0.152  1.00  0.00     0.180 C 
ATOM     17  N   UNL     1       0.353  -0.026  -1.524  1.00  0.00    -0.216 N 
ATOM     18  N   UNL     1       0.042  -1.208  -2.135  1.00  0.00    -0.145 NA
ATOM     19  C   UNL     1       0.274   1.230  -2.118  1.00  0.00     0.346 A 
ATOM     20  N   UNL     1      -0.164   1.257  -3.426  1.00  0.00    -0.259 N 
ATOM     21  O   UNL     1       0.603   2.257  -1.520  1.00  0.00    -0.246 OA
ATOM     22  C   UNL     1      -0.369   0.115  -4.169  1.00  0.00     0.299 A 
ATOM     23  C   UNL     1      -0.356   2.527  -4.093  1.00  0.00     0.159 C 
ATOM     24  O   UNL     1      -0.611   0.100  -5.373  1.00  0.00    -0.265 OA
ENDBRANCH  10  15
ENDBRANCH   8   9
ENDBRANCH   6   8
ENDBRANCH   5   6
ENDBRANCH   4   5
ENDBRANCH   3   4
ENDBRANCH   2   3
ENDBRANCH   1   2
BRANCH   1  25
ATOM     25  C   UNL     1      -3.212  -7.387  -5.259  1.00  0.00     0.261 C 
BRANCH  25  26
ATOM     26  O   UNL     1      -3.669  -6.639  -4.116  1.00  0.00    -0.460 OA
BRANCH  26  27
ATOM     27  C   UNL     1      -4.844  -7.074  -3.593  1.00  0.00     0.338 C 
ATOM     28  O   UNL     1      -5.557  -7.964  -4.035  1.00  0.00    -0.246 OA
BRANCH  27  29
ATOM     29  C   UNL     1      -5.066  -6.462  -2.270  1.00  0.00     0.060 A 
ATOM     30  C   UNL     1      -5.250  -7.325  -1.184  1.00  0.00     0.016 A 
ATOM     31  C   UNL     1      -5.155  -5.078  -2.099  1.00  0.00     0.016 A 
ATOM     32  C   UNL     1      -5.559  -6.811   0.072  1.00  0.00     0.010 A 
ATOM     33  C   UNL     1      -5.475  -4.564  -0.836  1.00  0.00     0.010 A 
ATOM     34  C   UNL     1      -5.707  -5.429   0.250  1.00  0.00    -0.014 A 
BRANCH  34  35
ATOM     35  C   UNL     1      -6.236  -4.923   1.543  1.00  0.00     0.031 A 
ATOM     36  C   UNL     1      -7.688  -4.541   1.644  1.00  0.00     0.074 A 
ATOM     37  C   UNL     1      -5.451  -4.886   2.636  1.00  0.00     0.049 A 
ATOM     38  N   UNL     1      -8.363  -4.122   2.683  1.00  0.00    -0.248 NA
ATOM     39  C   UNL     1      -8.487  -4.651   0.413  1.00  0.00     0.031 C 
ATOM     40  C   UNL     1      -4.044  -5.283   2.675  1.00  0.00     0.029 A 
ATOM     41  N   UNL     1      -5.731  -4.518   3.929  1.00  0.00    -0.354 N 
ATOM     42  C   UNL     1      -9.665  -3.931   2.237  1.00  0.00     0.074 A 
ATOM     43  C   UNL     1      -9.676  -4.232   0.822  1.00  0.00     0.031 C 
ATOM     44  C   UNL     1      -3.590  -5.157   3.934  1.00  0.00     0.029 A 
ATOM     45  C   UNL     1      -4.660  -4.638   4.784  1.00  0.00     0.049 A 
ATOM     46  H   UNL     1      -6.616  -4.197   4.217  1.00  0.00     0.167 HD
ATOM     47  C   UNL     1     -10.757  -3.557   2.947  1.00  0.00     0.034 A 
ATOM     48  C   UNL     1      -4.551  -4.356   6.099  1.00  0.00     0.034 A 
ATOM     49  C   UNL     1     -10.739  -3.260   4.356  1.00  0.00     0.049 A 
ATOM     50  C   UNL     1      -5.756  -3.839   6.845  1.00  0.00     0.074 A 
ATOM     51  C   UNL     1     -11.796  -2.881   5.166  1.00  0.00     0.029 A 
ATOM     52  N   UNL     1      -9.613  -3.302   5.165  1.00  0.00    -0.354 N 
ATOM     53  N   UNL     1      -6.977  -3.649   6.404  1.00  0.00    -0.248 NA
ATOM     54  C   UNL     1      -5.569  -3.495   8.263  1.00  0.00     0.031 C 
ATOM     55  C   UNL     1     -11.296  -2.624   6.445  1.00  0.00     0.029 A 
ATOM     56  C   UNL     1      -9.942  -2.918   6.454  1.00  0.00     0.049 A 
ATOM     57  H   UNL     1      -8.712  -3.565   4.866  1.00  0.00     0.167 HD
ATOM     58  C   UNL     1      -7.708  -3.187   7.496  1.00  0.00     0.074 A 
ATOM     59  C   UNL     1      -6.794  -3.128   8.617  1.00  0.00     0.031 C 
ATOM     60  C   UNL     1      -9.021  -2.851   7.562  1.00  0.00     0.034 A 
BRANCH  47  61
ATOM     61  C   UNL     1     -12.063  -3.424   2.209  1.00  0.00     0.023 A 
ATOM     62  C   UNL     1     -12.732  -4.546   1.693  1.00  0.00     0.031 A 
ATOM     63  C   UNL     1     -12.663  -2.162   2.050  1.00  0.00     0.131 A 
ATOM     64  C   UNL     1     -13.947  -4.381   1.012  1.00  0.00     0.055 A 
ATOM     65  C   UNL     1     -13.902  -2.011   1.427  1.00  0.00     0.041 A 
ATOM     66  F   UNL     1     -12.056  -1.056   2.509  1.00  0.00    -0.206 F 
ATOM     67  C   UNL     1     -14.548  -3.124   0.897  1.00  0.00     0.022 A 
BRANCH  64  68
ATOM     68  S   UNL     1     -14.695  -5.823   0.208  1.00  0.00     0.124 S 
ATOM     69  O   UNL     1     -13.678  -6.168  -0.783  1.00  0.00    -0.237 OA
ATOM     70  O   UNL     1     -14.851  -6.758   1.315  1.00  0.00    -0.237 OA
ATOM     71  O   UNL     1     -15.942  -5.298  -0.345  1.00  0.00    -0.744 OA
ENDBRANCH  64  68
ENDBRANCH  47  61
BRANCH  48  72
ATOM     72  C   UNL     1      -3.245  -4.540   6.793  1.00  0.00     0.023 A 
ATOM     73  C   UNL     1      -3.082  -5.519   7.784  1.00  0.00     0.031 A 
ATOM     74  C   UNL     1      -2.139  -3.731   6.473  1.00  0.00     0.131 A 
ATOM     75  C   UNL     1      -1.845  -5.655   8.434  1.00  0.00     0.055 A 
ATOM     76  C   UNL     1      -0.900  -3.897   7.094  1.00  0.00     0.041 A 
ATOM     77  F   UNL     1      -2.244  -2.781   5.530  1.00  0.00    -0.206 F 
ATOM     78  C   UNL     1      -0.750  -4.861   8.085  1.00  0.00     0.022 A 
BRANCH  75  79
ATOM     79  S   UNL     1      -1.691  -6.872   9.770  1.00  0.00     0.124 S 
ATOM     80  O   UNL     1      -2.624  -6.345  10.759  1.00  0.00    -0.237 OA
ATOM     81  O   UNL     1      -2.088  -8.108   9.104  1.00  0.00    -0.237 OA
ATOM     82  O   UNL     1      -0.279  -6.794  10.139  1.00  0.00    -0.744 OA
ENDBRANCH  75  79
ENDBRANCH  48  72
BRANCH  60  83
ATOM     83  C   UNL     1      -9.570  -2.406   8.893  1.00  0.00     0.023 A 
ATOM     84  C   UNL     1      -9.257  -1.147   9.431  1.00  0.00     0.031 A 
ATOM     85  C   UNL     1     -10.490  -3.216   9.583  1.00  0.00     0.131 A 
ATOM     86  C   UNL     1      -9.850  -0.738  10.635  1.00  0.00     0.055 A 
ATOM     87  C   UNL     1     -11.110  -2.786  10.757  1.00  0.00     0.041 A 
ATOM     88  F   UNL     1     -10.827  -4.425   9.105  1.00  0.00    -0.206 F 
ATOM     89  C   UNL     1     -10.789  -1.541  11.290  1.00  0.00     0.022 A 
BRANCH  86  90
ATOM     90  S   UNL     1      -9.370   0.859  11.347  1.00  0.00     0.124 S 
ATOM     91  O   UNL     1      -7.965   0.636  11.670  1.00  0.00    -0.237 OA
ATOM     92  O   UNL     1      -9.633   1.786  10.251  1.00  0.00    -0.237 OA
ATOM     93  O   UNL     1     -10.257   1.001  12.501  1.00  0.00    -0.744 OA
ENDBRANCH  86  90
ENDBRANCH  60  83
ENDBRANCH  34  35
ENDBRANCH  27  29
ENDBRANCH  26  27
ENDBRANCH  25  26
ENDBRANCH   1  25
TORSDOF 19
