REMARK SMILES C[C@H](NC(=O)c1cccc(NC(=O)c2ccccc2C(=O)OCCOCCOC(=O)c2ccc(-c3c4nc(c(-c5cc(S(=O)(=O)[O-])ccc5F)c5ccc([nH]5)c(-c5cc(S(=O)(=O)[O-])ccc5F)c5nc(c(-c6cc(S(=O)(=O)[O-])ccc6F)c6ccc3[nH]6)C=C5)C=C4)cc2)c1)c1ccccc1
REMARK SMILES IDX 24 1 23 2 22 3 20 4 21 5 19 6 14 7 15 8 16 9 18 10 17 11
REMARK SMILES IDX 12 12 11 13 13 15 10 16 6 17 7 18 94 19 8 20 9 21 4 22 3 23
REMARK SMILES IDX 5 25 2 26 1 27 95 28 96 29 100 30 97 31 99 32 98 33 25 34
REMARK SMILES IDX 26 35 27 36 28 37 29 38 30 39 31 40 32 41 93 42 33 43 92 44
REMARK SMILES IDX 34 45 35 46 36 47 86 48 37 49 91 50 85 51 87 52 38 53 90 54
REMARK SMILES IDX 84 55 83 56 39 58 71 59 51 60 70 61 52 62 55 63 69 64 88 65
REMARK SMILES IDX 53 66 54 67 68 69 89 70 56 71 40 72 41 73 49 74 42 75 48 76
REMARK SMILES IDX 50 77 47 78 43 79 44 80 45 81 46 82 72 83 73 84 81 85 74 86
REMARK SMILES IDX 80 87 82 88 79 89 75 90 76 91 77 92 78 93 57 94 58 95 66 96
REMARK SMILES IDX 59 97 65 98 67 99 64 100 60 101 61 102 62 103 63 104
REMARK H PARENT 11 14 3 24 87 57 55 68
REMARK Flexibility Score: inf
ROOT
ATOM      1  C   UNL     1      -0.492  -2.590  -4.800  1.00  0.00     0.202 C 
ENDROOT
BRANCH   1   2
ATOM      2  C   UNL     1       0.910  -2.346  -4.236  1.00  0.00     0.261 C 
BRANCH   2   3
ATOM      3  O   UNL     1       2.027  -2.871  -4.947  1.00  0.00    -0.460 OA
BRANCH   3   4
ATOM      4  C   UNL     1       2.503  -4.025  -4.441  1.00  0.00     0.339 C 
ATOM      5  O   UNL     1       1.944  -4.768  -3.642  1.00  0.00    -0.246 OA
BRANCH   4   6
ATOM      6  C   UNL     1       3.806  -4.351  -5.037  1.00  0.00     0.072 A 
ATOM      7  C   UNL     1       4.847  -3.430  -5.228  1.00  0.00     0.054 A 
ATOM      8  C   UNL     1       6.033  -3.879  -5.842  1.00  0.00     0.015 A 
ATOM      9  C   UNL     1       6.200  -5.219  -6.203  1.00  0.00     0.001 A 
ATOM     10  C   UNL     1       3.991  -5.704  -5.381  1.00  0.00     0.016 A 
ATOM     11  C   UNL     1       5.182  -6.135  -5.962  1.00  0.00     0.001 A 
BRANCH   7  12
ATOM     12  C   UNL     1       4.802  -1.978  -4.933  1.00  0.00     0.256 C 
ATOM     13  N   UNL     1       4.438  -1.408  -3.732  1.00  0.00    -0.322 N 
ATOM     14  H   UNL     1       4.430  -0.424  -3.762  1.00  0.00     0.170 HD
ATOM     15  O   UNL     1       5.130  -1.223  -5.853  1.00  0.00    -0.269 OA
BRANCH  13  16
ATOM     16  C   UNL     1       4.076  -1.919  -2.474  1.00  0.00     0.042 A 
ATOM     17  C   UNL     1       2.731  -1.551  -0.470  1.00  0.00     0.041 A 
ATOM     18  C   UNL     1       2.913  -2.903  -0.140  1.00  0.00     0.014 A 
ATOM     19  C   UNL     1       3.381  -1.054  -1.603  1.00  0.00     0.040 A 
ATOM     20  C   UNL     1       3.731  -3.725  -0.913  1.00  0.00     0.003 A 
ATOM     21  C   UNL     1       4.325  -3.226  -2.070  1.00  0.00     0.026 A 
BRANCH  17  22
ATOM     22  C   UNL     1       1.983  -0.729   0.516  1.00  0.00     0.251 C 
ATOM     23  N   UNL     1       1.070   0.254   0.257  1.00  0.00    -0.346 N 
ATOM     24  H   UNL     1       0.796   0.679   1.102  1.00  0.00     0.164 HD
ATOM     25  O   UNL     1       2.187  -0.987   1.707  1.00  0.00    -0.269 OA
BRANCH  23  26
ATOM     26  C   UNL     1       0.364   0.887  -0.861  1.00  0.00     0.109 C 
ATOM     27  C   UNL     1       0.741   0.488  -2.268  1.00  0.00     0.036 C 
BRANCH  26  28
ATOM     28  C   UNL     1      -1.148   0.717  -0.741  1.00  0.00    -0.026 A 
ATOM     29  C   UNL     1      -1.979   1.845  -0.857  1.00  0.00     0.006 A 
ATOM     30  C   UNL     1      -1.744  -0.552  -0.676  1.00  0.00     0.006 A 
ATOM     31  C   UNL     1      -3.365   1.706  -0.932  1.00  0.00     0.000 A 
ATOM     32  C   UNL     1      -3.134  -0.688  -0.754  1.00  0.00     0.000 A 
ATOM     33  C   UNL     1      -3.942   0.440  -0.890  1.00  0.00     0.000 A 
ENDBRANCH  26  28
ENDBRANCH  23  26
ENDBRANCH  17  22
ENDBRANCH  13  16
ENDBRANCH   7  12
ENDBRANCH   4   6
ENDBRANCH   3   4
ENDBRANCH   2   3
ENDBRANCH   1   2
BRANCH   1  34
ATOM     34  O   UNL     1      -0.749  -3.760  -5.555  1.00  0.00    -0.374 OA
BRANCH  34  35
ATOM     35  C   UNL     1       0.022  -3.997  -6.725  1.00  0.00     0.202 C 
BRANCH  35  36
ATOM     36  C   UNL     1       0.103  -2.924  -7.820  1.00  0.00     0.261 C 
BRANCH  36  37
ATOM     37  O   UNL     1       0.604  -1.643  -7.396  1.00  0.00    -0.460 OA
BRANCH  37  38
ATOM     38  C   UNL     1      -0.307  -0.638  -7.456  1.00  0.00     0.338 C 
ATOM     39  O   UNL     1      -1.491  -0.748  -7.740  1.00  0.00    -0.246 OA
BRANCH  38  40
ATOM     40  C   UNL     1       0.267   0.644  -7.008  1.00  0.00     0.060 A 
ATOM     41  C   UNL     1      -0.420   1.365  -6.022  1.00  0.00     0.016 A 
ATOM     42  C   UNL     1       1.353   1.216  -7.673  1.00  0.00     0.016 A 
ATOM     43  C   UNL     1      -0.062   2.685  -5.742  1.00  0.00     0.010 A 
ATOM     44  C   UNL     1       1.703   2.543  -7.399  1.00  0.00     0.010 A 
ATOM     45  C   UNL     1       0.969   3.299  -6.466  1.00  0.00    -0.014 A 
BRANCH  45  46
ATOM     46  C   UNL     1       1.156   4.771  -6.386  1.00  0.00     0.031 A 
ATOM     47  C   UNL     1       0.533   5.642  -7.446  1.00  0.00     0.074 A 
ATOM     48  C   UNL     1       1.858   5.331  -5.386  1.00  0.00     0.049 A 
ATOM     49  N   UNL     1       0.610   6.937  -7.612  1.00  0.00    -0.248 NA
ATOM     50  C   UNL     1      -0.281   4.949  -8.455  1.00  0.00     0.031 C 
ATOM     51  C   UNL     1       2.467   4.606  -4.274  1.00  0.00     0.029 A 
ATOM     52  N   UNL     1       2.182   6.644  -5.153  1.00  0.00    -0.354 N 
ATOM     53  C   UNL     1      -0.144   7.219  -8.748  1.00  0.00     0.074 A 
ATOM     54  C   UNL     1      -0.632   5.949  -9.248  1.00  0.00     0.031 C 
ATOM     55  C   UNL     1       3.104   5.485  -3.480  1.00  0.00     0.029 A 
ATOM     56  C   UNL     1       2.979   6.827  -4.049  1.00  0.00     0.049 A 
ATOM     57  H   UNL     1       1.872   7.385  -5.723  1.00  0.00     0.167 HD
ATOM     58  C   UNL     1      -0.412   8.422  -9.317  1.00  0.00     0.034 A 
ATOM     59  C   UNL     1       3.562   7.944  -3.568  1.00  0.00     0.034 A 
ATOM     60  C   UNL     1       0.101   9.678  -8.824  1.00  0.00     0.049 A 
ATOM     61  C   UNL     1       3.346   9.258  -4.278  1.00  0.00     0.074 A 
ATOM     62  C   UNL     1      -0.120  10.954  -9.313  1.00  0.00     0.029 A 
ATOM     63  N   UNL     1       0.957   9.816  -7.738  1.00  0.00    -0.354 N 
ATOM     64  N   UNL     1       2.627   9.515  -5.347  1.00  0.00    -0.248 NA
ATOM     65  C   UNL     1       4.021  10.434  -3.712  1.00  0.00     0.031 C 
ATOM     66  C   UNL     1       0.659  11.851  -8.573  1.00  0.00     0.029 A 
ATOM     67  C   UNL     1       1.304  11.148  -7.568  1.00  0.00     0.049 A 
ATOM     68  H   UNL     1       1.272   9.075  -7.171  1.00  0.00     0.167 HD
ATOM     69  C   UNL     1       2.736  10.888  -5.558  1.00  0.00     0.074 A 
ATOM     70  C   UNL     1       3.588  11.403  -4.506  1.00  0.00     0.031 C 
ATOM     71  C   UNL     1       2.169  11.654  -6.526  1.00  0.00     0.034 A 
BRANCH  58  72
ATOM     72  C   UNL     1      -1.252   8.413 -10.574  1.00  0.00     0.023 A 
ATOM     73  C   UNL     1      -2.577   7.943 -10.575  1.00  0.00     0.031 A 
ATOM     74  C   UNL     1      -0.699   8.819 -11.802  1.00  0.00     0.131 A 
ATOM     75  C   UNL     1      -3.270   7.800 -11.787  1.00  0.00     0.055 A 
ATOM     76  C   UNL     1      -1.425   8.757 -12.993  1.00  0.00     0.041 A 
ATOM     77  F   UNL     1       0.568   9.258 -11.870  1.00  0.00    -0.206 F 
ATOM     78  C   UNL     1      -2.711   8.225 -12.994  1.00  0.00     0.022 A 
BRANCH  75  79
ATOM     79  S   UNL     1      -4.835   6.882 -11.786  1.00  0.00     0.124 S 
ATOM     80  O   UNL     1      -4.434   5.615 -11.178  1.00  0.00    -0.237 OA
ATOM     81  O   UNL     1      -5.698   7.734 -10.977  1.00  0.00    -0.237 OA
ATOM     82  O   UNL     1      -5.186   6.800 -13.202  1.00  0.00    -0.744 OA
ENDBRANCH  75  79
ENDBRANCH  58  72
BRANCH  59  83
ATOM     83  C   UNL     1       4.436   7.870  -2.365  1.00  0.00     0.023 A 
ATOM     84  C   UNL     1       4.065   8.491  -1.163  1.00  0.00     0.031 A 
ATOM     85  C   UNL     1       5.673   7.202  -2.412  1.00  0.00     0.131 A 
ATOM     86  C   UNL     1       4.935   8.457  -0.063  1.00  0.00     0.055 A 
ATOM     87  C   UNL     1       6.516   7.135  -1.302  1.00  0.00     0.041 A 
ATOM     88  F   UNL     1       6.071   6.590  -3.539  1.00  0.00    -0.206 F 
ATOM     89  C   UNL     1       6.152   7.774  -0.120  1.00  0.00     0.022 A 
BRANCH  86  90
ATOM     90  S   UNL     1       4.472   9.365   1.437  1.00  0.00     0.124 S 
ATOM     91  O   UNL     1       4.419  10.738   0.948  1.00  0.00    -0.237 OA
ATOM     92  O   UNL     1       3.192   8.754   1.777  1.00  0.00    -0.237 OA
ATOM     93  O   UNL     1       5.565   9.071   2.362  1.00  0.00    -0.744 OA
ENDBRANCH  86  90
ENDBRANCH  59  83
BRANCH  71  94
ATOM     94  C   UNL     1       2.412  13.144  -6.459  1.00  0.00     0.023 A 
ATOM     95  C   UNL     1       3.681  13.705  -6.687  1.00  0.00     0.031 A 
ATOM     96  C   UNL     1       1.350  14.015  -6.156  1.00  0.00     0.131 A 
ATOM     97  C   UNL     1       3.865  15.091  -6.562  1.00  0.00     0.055 A 
ATOM     98  C   UNL     1       1.527  15.398  -6.088  1.00  0.00     0.041 A 
ATOM     99  F   UNL     1       0.117  13.536  -5.925  1.00  0.00    -0.206 F 
ATOM    100  C   UNL     1       2.793  15.943  -6.280  1.00  0.00     0.022 A 
BRANCH  97 101
ATOM    101  S   UNL     1       5.545  15.766  -6.692  1.00  0.00     0.124 S 
ATOM    102  O   UNL     1       6.240  15.059  -5.622  1.00  0.00    -0.237 OA
ATOM    103  O   UNL     1       5.925  15.399  -8.052  1.00  0.00    -0.237 OA
ATOM    104  O   UNL     1       5.358  17.199  -6.468  1.00  0.00    -0.744 OA
ENDBRANCH  97 101
ENDBRANCH  71  94
ENDBRANCH  45  46
ENDBRANCH  38  40
ENDBRANCH  37  38
ENDBRANCH  36  37
ENDBRANCH  35  36
ENDBRANCH  34  35
ENDBRANCH   1  34
TORSDOF 22
