REMARK SMILES CC(=O)N[C@@H](CCc1nc2ccccc2[nH]1)C(=O)OCCOCCOC(=O)c1ccc(-c2c3nc(c(-c4cc(S(=O)(=O)[O-])ccc4F)c4ccc([nH]4)c(-c4cc(S(=O)(=O)[O-])ccc4F)c4nc(c(-c5cc(S(=O)(=O)[O-])ccc5F)c5ccc2[nH]5)C=C4)C=C3)cc1
REMARK SMILES IDX 22 1 21 2 20 3 19 4 17 5 18 6 5 7 4 8 1 9 2 10 3 11 6 13
REMARK SMILES IDX 7 14 8 15 9 16 16 17 10 18 15 19 11 21 14 22 12 23 13 24
REMARK SMILES IDX 23 25 24 26 25 27 26 28 27 29 28 30 29 31 90 32 30 33 89 34
REMARK SMILES IDX 31 35 32 36 33 37 83 38 34 39 88 40 82 41 84 42 35 43 87 44
REMARK SMILES IDX 81 45 80 46 36 48 68 49 48 50 67 51 49 52 52 53 66 54 85 55
REMARK SMILES IDX 50 56 51 57 65 59 86 60 53 61 37 62 38 63 46 64 39 65 45 66
REMARK SMILES IDX 47 67 44 68 40 69 41 70 42 71 43 72 69 73 70 74 78 75 71 76
REMARK SMILES IDX 77 77 79 78 76 79 72 80 73 81 74 82 75 83 54 84 55 85 63 86
REMARK SMILES IDX 56 87 62 88 64 89 61 90 57 91 58 92 59 93 60 94
REMARK H PARENT 4 12 16 20 84 47 52 58
REMARK Flexibility Score: inf
ROOT
ATOM      1  O   UNL     1      -1.679  -3.934   2.330  1.00  0.00    -0.374 OA
ENDROOT
BRANCH   1   2
ATOM      2  C   UNL     1      -1.528  -4.144   3.730  1.00  0.00     0.202 C 
BRANCH   2   3
ATOM      3  C   UNL     1      -0.133  -3.901   4.311  1.00  0.00     0.261 C 
BRANCH   3   4
ATOM      4  O   UNL     1       0.408  -2.614   3.968  1.00  0.00    -0.462 OA
BRANCH   4   5
ATOM      5  C   UNL     1       1.641  -2.632   3.378  1.00  0.00     0.328 C 
ATOM      6  O   UNL     1       2.316  -3.634   3.165  1.00  0.00    -0.250 OA
BRANCH   5   7
ATOM      7  C   UNL     1       2.122  -1.219   2.993  1.00  0.00     0.192 C 
BRANCH   7   8
ATOM      8  N   UNL     1       1.057  -0.212   2.890  1.00  0.00    -0.343 N 
ATOM      9  C   UNL     1       1.163   0.018   0.432  1.00  0.00     0.114 C 
ATOM     10  C   UNL     1       0.549   0.364   1.763  1.00  0.00     0.217 C 
ATOM     11  O   UNL     1      -0.406   1.132   1.850  1.00  0.00    -0.275 OA
ATOM     12  H   UNL     1       0.661   0.085   3.741  1.00  0.00     0.164 HD
ENDBRANCH   7   8
BRANCH   7  13
ATOM     13  C   UNL     1       3.281  -0.714   3.869  1.00  0.00     0.045 C 
BRANCH  13  14
ATOM     14  C   UNL     1       2.921  -0.275   5.297  1.00  0.00     0.078 C 
BRANCH  14  15
ATOM     15  C   UNL     1       2.490  -1.411   6.154  1.00  0.00     0.107 A 
ATOM     16  N   UNL     1       2.987  -2.630   6.130  1.00  0.00    -0.233 NA
ATOM     17  N   UNL     1       1.454  -1.321   7.051  1.00  0.00    -0.342 N 
ATOM     18  C   UNL     1       2.176  -3.378   6.946  1.00  0.00     0.089 A 
ATOM     19  C   UNL     1       1.193  -2.583   7.521  1.00  0.00     0.065 A 
ATOM     20  H   UNL     1       0.983  -0.497   7.312  1.00  0.00     0.168 HD
ATOM     21  C   UNL     1       2.182  -4.756   7.202  1.00  0.00     0.030 A 
ATOM     22  C   UNL     1       0.193  -3.091   8.349  1.00  0.00     0.028 A 
ATOM     23  C   UNL     1       1.183  -5.291   8.027  1.00  0.00     0.002 A 
ATOM     24  C   UNL     1       0.207  -4.468   8.591  1.00  0.00     0.002 A 
ENDBRANCH  14  15
ENDBRANCH  13  14
ENDBRANCH   7  13
ENDBRANCH   5   7
ENDBRANCH   4   5
ENDBRANCH   3   4
ENDBRANCH   2   3
ENDBRANCH   1   2
BRANCH   1  25
ATOM     25  C   UNL     1      -1.649  -2.585   1.864  1.00  0.00     0.202 C 
BRANCH  25  26
ATOM     26  C   UNL     1      -2.748  -1.635   2.360  1.00  0.00     0.261 C 
BRANCH  26  27
ATOM     27  O   UNL     1      -2.639  -1.290   3.759  1.00  0.00    -0.460 OA
BRANCH  27  28
ATOM     28  C   UNL     1      -3.738  -1.592   4.494  1.00  0.00     0.338 C 
ATOM     29  O   UNL     1      -4.747  -2.167   4.096  1.00  0.00    -0.246 OA
BRANCH  28  30
ATOM     30  C   UNL     1      -3.569  -1.252   5.918  1.00  0.00     0.060 A 
ATOM     31  C   UNL     1      -3.744  -2.275   6.857  1.00  0.00     0.016 A 
ATOM     32  C   UNL     1      -3.466   0.078   6.337  1.00  0.00     0.016 A 
ATOM     33  C   UNL     1      -3.890  -1.966   8.210  1.00  0.00     0.010 A 
ATOM     34  C   UNL     1      -3.614   0.386   7.698  1.00  0.00     0.010 A 
ATOM     35  C   UNL     1      -3.876  -0.629   8.636  1.00  0.00    -0.014 A 
BRANCH  35  36
ATOM     36  C   UNL     1      -4.290  -0.309  10.031  1.00  0.00     0.031 A 
ATOM     37  C   UNL     1      -5.707   0.125  10.303  1.00  0.00     0.074 A 
ATOM     38  C   UNL     1      -3.435  -0.465  11.058  1.00  0.00     0.049 A 
ATOM     39  N   UNL     1      -6.281   0.411  11.443  1.00  0.00    -0.248 NA
ATOM     40  C   UNL     1      -6.585   0.263   9.133  1.00  0.00     0.031 C 
ATOM     41  C   UNL     1      -2.045  -0.883  10.925  1.00  0.00     0.029 A 
ATOM     42  N   UNL     1      -3.606  -0.304  12.410  1.00  0.00    -0.354 N 
ATOM     43  C   UNL     1      -7.589   0.767  11.132  1.00  0.00     0.074 A 
ATOM     44  C   UNL     1      -7.708   0.693   9.690  1.00  0.00     0.031 C 
ATOM     45  C   UNL     1      -1.493  -0.982  12.145  1.00  0.00     0.029 A 
ATOM     46  C   UNL     1      -2.477  -0.582  13.147  1.00  0.00     0.049 A 
ATOM     47  H   UNL     1      -4.456  -0.018  12.815  1.00  0.00     0.167 HD
ATOM     48  C   UNL     1      -8.598   1.117  11.969  1.00  0.00     0.034 A 
ATOM     49  C   UNL     1      -2.255  -0.505  14.474  1.00  0.00     0.034 A 
ATOM     50  C   UNL     1      -8.467   1.199  13.404  1.00  0.00     0.049 A 
ATOM     51  C   UNL     1      -3.378  -0.069  15.380  1.00  0.00     0.074 A 
ATOM     52  C   UNL     1      -9.430   1.535  14.341  1.00  0.00     0.029 A 
ATOM     53  N   UNL     1      -7.298   0.952  14.113  1.00  0.00    -0.354 N 
ATOM     54  N   UNL     1      -4.611   0.258  15.068  1.00  0.00    -0.248 NA
ATOM     55  C   UNL     1      -3.079   0.006  16.817  1.00  0.00     0.031 C 
ATOM     56  C   UNL     1      -8.829   1.550  15.606  1.00  0.00     0.029 A 
ATOM     57  C   UNL     1      -7.508   1.156  15.469  1.00  0.00     0.049 A 
ATOM     58  H   UNL     1      -6.444   0.673  13.711  1.00  0.00     0.167 HD
ATOM     59  C   UNL     1      -5.238   0.561  16.274  1.00  0.00     0.074 A 
ATOM     60  C   UNL     1      -4.255   0.356  17.317  1.00  0.00     0.031 C 
ATOM     61  C   UNL     1      -6.513   0.970  16.498  1.00  0.00     0.034 A 
BRANCH  48  62
ATOM     62  C   UNL     1      -9.917   1.487  11.337  1.00  0.00     0.023 A 
ATOM     63  C   UNL     1     -10.695   0.545  10.641  1.00  0.00     0.031 A 
ATOM     64  C   UNL     1     -10.388   2.811  11.403  1.00  0.00     0.131 A 
ATOM     65  C   UNL     1     -11.864   0.954   9.982  1.00  0.00     0.055 A 
ATOM     66  C   UNL     1     -11.590   3.195  10.806  1.00  0.00     0.041 A 
ATOM     67  F   UNL     1      -9.677   3.757  12.037  1.00  0.00    -0.206 F 
ATOM     68  C   UNL     1     -12.329   2.268  10.078  1.00  0.00     0.022 A 
BRANCH  65  69
ATOM     69  S   UNL     1     -12.699  -0.225   8.885  1.00  0.00     0.124 S 
ATOM     70  O   UNL     1     -11.641  -0.535   7.926  1.00  0.00    -0.237 OA
ATOM     71  O   UNL     1     -13.068  -1.299   9.799  1.00  0.00    -0.237 OA
ATOM     72  O   UNL     1     -13.816   0.544   8.341  1.00  0.00    -0.744 OA
ENDBRANCH  65  69
ENDBRANCH  48  62
BRANCH  49  73
ATOM     73  C   UNL     1      -0.905  -0.804  15.032  1.00  0.00     0.023 A 
ATOM     74  C   UNL     1      -0.700  -1.887  15.901  1.00  0.00     0.031 A 
ATOM     75  C   UNL     1       0.193   0.026  14.741  1.00  0.00     0.131 A 
ATOM     76  C   UNL     1       0.562  -2.088  16.481  1.00  0.00     0.055 A 
ATOM     77  C   UNL     1       1.458  -0.207  15.282  1.00  0.00     0.041 A 
ATOM     78  F   UNL     1       0.050   1.074  13.914  1.00  0.00    -0.206 F 
ATOM     79  C   UNL     1       1.645  -1.263  16.168  1.00  0.00     0.022 A 
BRANCH  76  80
ATOM     80  S   UNL     1       0.752  -3.404  17.715  1.00  0.00     0.124 S 
ATOM     81  O   UNL     1      -0.228  -3.012  18.721  1.00  0.00    -0.237 OA
ATOM     82  O   UNL     1       0.432  -4.596  16.937  1.00  0.00    -0.237 OA
ATOM     83  O   UNL     1       2.150  -3.287  18.125  1.00  0.00    -0.744 OA
ENDBRANCH  76  80
ENDBRANCH  49  73
BRANCH  61  84
ATOM     84  C   UNL     1      -6.913   1.189  17.937  1.00  0.00     0.023 A 
ATOM     85  C   UNL     1      -6.372   2.238  18.702  1.00  0.00     0.031 A 
ATOM     86  C   UNL     1      -7.825   0.319  18.558  1.00  0.00     0.131 A 
ATOM     87  C   UNL     1      -6.702   2.354  20.060  1.00  0.00     0.055 A 
ATOM     88  C   UNL     1      -8.192   0.472  19.896  1.00  0.00     0.041 A 
ATOM     89  F   UNL     1      -8.371  -0.700  17.875  1.00  0.00    -0.206 F 
ATOM     90  C   UNL     1      -7.619   1.486  20.659  1.00  0.00     0.022 A 
BRANCH  87  91
ATOM     91  S   UNL     1      -5.844   3.600  21.062  1.00  0.00     0.124 S 
ATOM     92  O   UNL     1      -4.445   3.227  20.880  1.00  0.00    -0.237 OA
ATOM     93  O   UNL     1      -6.258   4.848  20.430  1.00  0.00    -0.237 OA
ATOM     94  O   UNL     1      -6.373   3.382  22.408  1.00  0.00    -0.744 OA
ENDBRANCH  87  91
ENDBRANCH  61  84
ENDBRANCH  35  36
ENDBRANCH  28  30
ENDBRANCH  27  28
ENDBRANCH  26  27
ENDBRANCH  25  26
ENDBRANCH   1  25
TORSDOF 21
