REMARK SMILES O=C(Cc1cccc(-c2ccn(C(F)F)c(=O)c2)c1)OCCOCCOC(=O)c1ccc(-c2c3nc(c(-c4cc(S(=O)(=O)[O-])ccc4F)c4ccc([nH]4)c(-c4cc(S(=O)(=O)[O-])ccc4F)c4nc(c(-c5cc(S(=O)(=O)[O-])ccc5F)c5ccc2[nH]5)C=C4)C=C3)cc1
REMARK SMILES IDX 23 1 22 2 21 3 20 4 2 5 1 6 3 7 4 8 5 9 19 10 6 11 8 12 7 13
REMARK SMILES IDX 9 14 10 15 18 16 11 17 16 18 12 19 17 20 13 21 14 22 15 23
REMARK SMILES IDX 24 24 25 25 26 26 27 27 28 28 29 29 30 30 91 31 31 32 90 33
REMARK SMILES IDX 32 34 33 35 34 36 84 37 35 38 89 39 83 40 85 41 36 42 88 43
REMARK SMILES IDX 82 44 81 45 37 47 69 48 49 49 68 50 50 51 53 52 67 53 86 54
REMARK SMILES IDX 51 55 52 56 66 58 87 59 54 60 38 61 39 62 47 63 40 64 46 65
REMARK SMILES IDX 48 66 45 67 41 68 42 69 43 70 44 71 70 72 71 73 79 74 72 75
REMARK SMILES IDX 78 76 80 77 77 78 73 79 74 80 75 81 76 82 55 83 56 84 64 85
REMARK SMILES IDX 57 86 63 87 65 88 62 89 58 90 59 91 60 92 61 93
REMARK H PARENT 85 46 53 57
REMARK Flexibility Score: inf
ROOT
ATOM      1  O   UNL     1       4.037  -1.802   0.009  1.00  0.00    -0.374 OA
ENDROOT
BRANCH   1   2
ATOM      2  C   UNL     1       4.546  -0.702   0.755  1.00  0.00     0.202 C 
BRANCH   2   3
ATOM      3  C   UNL     1       3.995   0.678   0.416  1.00  0.00     0.261 C 
BRANCH   3   4
ATOM      4  O   UNL     1       2.563   0.733   0.279  1.00  0.00    -0.463 OA
BRANCH   4   5
ATOM      5  C   UNL     1       1.845   0.403  -0.821  1.00  0.00     0.310 C 
ATOM      6  O   UNL     1       0.614   0.408  -0.753  1.00  0.00    -0.252 OA
BRANCH   5   7
ATOM      7  C   UNL     1       2.534  -0.004  -2.114  1.00  0.00     0.158 C 
BRANCH   7   8
ATOM      8  C   UNL     1       3.560   0.977  -2.606  1.00  0.00    -0.036 A 
ATOM      9  C   UNL     1       4.851   0.575  -2.970  1.00  0.00     0.004 A 
ATOM     10  C   UNL     1       3.258   2.338  -2.549  1.00  0.00     0.013 A 
ATOM     11  C   UNL     1       5.844   1.536  -3.180  1.00  0.00     0.001 A 
ATOM     12  C   UNL     1       4.260   3.298  -2.701  1.00  0.00    -0.018 A 
ATOM     13  C   UNL     1       5.558   2.898  -3.021  1.00  0.00     0.009 A 
BRANCH  12  14
ATOM     14  C   UNL     1       3.865   4.678  -2.400  1.00  0.00    -0.011 A 
ATOM     15  C   UNL     1       3.652   5.130  -1.038  1.00  0.00     0.027 A 
ATOM     16  C   UNL     1       3.457   5.439  -3.426  1.00  0.00     0.080 A 
ATOM     17  C   UNL     1       2.971   6.256  -0.802  1.00  0.00     0.095 A 
ATOM     18  C   UNL     1       2.731   6.713  -3.176  1.00  0.00     0.255 A 
ATOM     19  N   UNL     1       2.502   7.031  -1.846  1.00  0.00    -0.258 N 
ATOM     20  O   UNL     1       2.347   7.361  -4.145  1.00  0.00    -0.269 OA
BRANCH  19  21
ATOM     21  C   UNL     1       1.697   8.194  -1.582  1.00  0.00     0.451 C 
ATOM     22  F   UNL     1       2.227   9.302  -2.154  1.00  0.00    -0.185 F 
ATOM     23  F   UNL     1       0.443   8.030  -2.076  1.00  0.00    -0.185 F 
ENDBRANCH  19  21
ENDBRANCH  12  14
ENDBRANCH   7   8
ENDBRANCH   5   7
ENDBRANCH   4   5
ENDBRANCH   3   4
ENDBRANCH   2   3
ENDBRANCH   1   2
BRANCH   1  24
ATOM     24  C   UNL     1       2.803  -2.364   0.475  1.00  0.00     0.202 C 
BRANCH  24  25
ATOM     25  C   UNL     1       2.880  -3.330   1.661  1.00  0.00     0.261 C 
BRANCH  25  26
ATOM     26  O   UNL     1       3.256  -2.657   2.872  1.00  0.00    -0.460 OA
BRANCH  26  27
ATOM     27  C   UNL     1       4.562  -2.790   3.200  1.00  0.00     0.338 C 
ATOM     28  O   UNL     1       5.394  -3.475   2.619  1.00  0.00    -0.246 OA
BRANCH  27  29
ATOM     29  C   UNL     1       4.920  -1.802   4.237  1.00  0.00     0.060 A 
ATOM     30  C   UNL     1       6.156  -1.155   4.104  1.00  0.00     0.016 A 
ATOM     31  C   UNL     1       4.092  -1.538   5.332  1.00  0.00     0.016 A 
ATOM     32  C   UNL     1       6.619  -0.327   5.119  1.00  0.00     0.010 A 
ATOM     33  C   UNL     1       4.557  -0.705   6.351  1.00  0.00     0.010 A 
ATOM     34  C   UNL     1       5.849  -0.153   6.275  1.00  0.00    -0.014 A 
BRANCH  34  35
ATOM     35  C   UNL     1       6.500   0.395   7.487  1.00  0.00     0.031 A 
ATOM     36  C   UNL     1       6.964  -0.575   8.542  1.00  0.00     0.074 A 
ATOM     37  C   UNL     1       6.732   1.712   7.609  1.00  0.00     0.049 A 
ATOM     38  N   UNL     1       7.561  -0.344   9.681  1.00  0.00    -0.248 NA
ATOM     39  C   UNL     1       6.711  -2.000   8.274  1.00  0.00     0.031 C 
ATOM     40  C   UNL     1       6.373   2.727   6.619  1.00  0.00     0.029 A 
ATOM     41  N   UNL     1       7.332   2.420   8.617  1.00  0.00    -0.354 N 
ATOM     42  C   UNL     1       7.742  -1.592  10.272  1.00  0.00     0.074 A 
ATOM     43  C   UNL     1       7.150  -2.568   9.384  1.00  0.00     0.031 C 
ATOM     44  C   UNL     1       6.771   3.930   7.067  1.00  0.00     0.029 A 
ATOM     45  C   UNL     1       7.373   3.775   8.389  1.00  0.00     0.049 A 
ATOM     46  H   UNL     1       7.700   1.999   9.426  1.00  0.00     0.167 HD
ATOM     47  C   UNL     1       8.354  -1.893  11.443  1.00  0.00     0.034 A 
ATOM     48  C   UNL     1       7.831   4.772   9.172  1.00  0.00     0.034 A 
ATOM     49  C   UNL     1       8.934  -0.897  12.310  1.00  0.00     0.049 A 
ATOM     50  C   UNL     1       8.438   4.420  10.509  1.00  0.00     0.074 A 
ATOM     51  C   UNL     1       9.598  -1.079  13.510  1.00  0.00     0.029 A 
ATOM     52  N   UNL     1       8.905   0.474  12.077  1.00  0.00    -0.354 N 
ATOM     53  N   UNL     1       8.616   3.237  11.054  1.00  0.00    -0.248 NA
ATOM     54  C   UNL     1       8.918   5.538  11.329  1.00  0.00     0.031 C 
ATOM     55  C   UNL     1       9.893   0.182  14.042  1.00  0.00     0.029 A 
ATOM     56  C   UNL     1       9.502   1.150  13.129  1.00  0.00     0.049 A 
ATOM     57  H   UNL     1       8.516   0.901  11.280  1.00  0.00     0.167 HD
ATOM     58  C   UNL     1       9.267   3.470  12.264  1.00  0.00     0.074 A 
ATOM     59  C   UNL     1       9.460   4.903  12.357  1.00  0.00     0.031 C 
ATOM     60  C   UNL     1       9.676   2.583  13.209  1.00  0.00     0.034 A 
BRANCH  47  61
ATOM     61  C   UNL     1       8.362  -3.342  11.872  1.00  0.00     0.023 A 
ATOM     62  C   UNL     1       8.995  -4.344  11.115  1.00  0.00     0.031 A 
ATOM     63  C   UNL     1       7.682  -3.736  13.039  1.00  0.00     0.131 A 
ATOM     64  C   UNL     1       8.864  -5.692  11.485  1.00  0.00     0.055 A 
ATOM     65  C   UNL     1       7.632  -5.069  13.451  1.00  0.00     0.041 A 
ATOM     66  F   UNL     1       7.033  -2.831  13.790  1.00  0.00    -0.206 F 
ATOM     67  C   UNL     1       8.210  -6.059  12.664  1.00  0.00     0.022 A 
BRANCH  64  68
ATOM     68  S   UNL     1       9.414  -6.970  10.320  1.00  0.00     0.124 S 
ATOM     69  O   UNL     1       8.629  -6.644   9.132  1.00  0.00    -0.237 OA
ATOM     70  O   UNL     1      10.847  -6.718  10.229  1.00  0.00    -0.237 OA
ATOM     71  O   UNL     1       9.040  -8.220  10.980  1.00  0.00    -0.744 OA
ENDBRANCH  64  68
ENDBRANCH  47  61
BRANCH  48  72
ATOM     72  C   UNL     1       7.727   6.191   8.729  1.00  0.00     0.023 A 
ATOM     73  C   UNL     1       8.875   6.973   8.531  1.00  0.00     0.031 A 
ATOM     74  C   UNL     1       6.474   6.804   8.547  1.00  0.00     0.131 A 
ATOM     75  C   UNL     1       8.749   8.334   8.211  1.00  0.00     0.055 A 
ATOM     76  C   UNL     1       6.354   8.143   8.172  1.00  0.00     0.041 A 
ATOM     77  F   UNL     1       5.342   6.103   8.722  1.00  0.00    -0.206 F 
ATOM     78  C   UNL     1       7.497   8.921   8.016  1.00  0.00     0.022 A 
BRANCH  75  79
ATOM     79  S   UNL     1      10.249   9.351   8.141  1.00  0.00     0.124 S 
ATOM     80  O   UNL     1      10.791   9.170   9.482  1.00  0.00    -0.237 OA
ATOM     81  O   UNL     1      10.992   8.717   7.056  1.00  0.00    -0.237 OA
ATOM     82  O   UNL     1       9.739  10.688   7.846  1.00  0.00    -0.744 OA
ENDBRANCH  75  79
ENDBRANCH  48  72
BRANCH  60  83
ATOM     83  C   UNL     1      10.424   3.143  14.396  1.00  0.00     0.023 A 
ATOM     84  C   UNL     1       9.819   4.023  15.310  1.00  0.00     0.031 A 
ATOM     85  C   UNL     1      11.776   2.811  14.598  1.00  0.00     0.131 A 
ATOM     86  C   UNL     1      10.582   4.598  16.337  1.00  0.00     0.055 A 
ATOM     87  C   UNL     1      12.509   3.326  15.668  1.00  0.00     0.041 A 
ATOM     88  F   UNL     1      12.410   1.978  13.756  1.00  0.00    -0.206 F 
ATOM     89  C   UNL     1      11.918   4.240  16.534  1.00  0.00     0.022 A 
BRANCH  86  90
ATOM     90  S   UNL     1       9.841   5.921  17.332  1.00  0.00     0.124 S 
ATOM     91  O   UNL     1       9.451   6.886  16.310  1.00  0.00    -0.237 OA
ATOM     92  O   UNL     1       8.747   5.229  18.006  1.00  0.00    -0.237 OA
ATOM     93  O   UNL     1      10.934   6.348  18.204  1.00  0.00    -0.744 OA
ENDBRANCH  86  90
ENDBRANCH  60  83
ENDBRANCH  34  35
ENDBRANCH  27  29
ENDBRANCH  26  27
ENDBRANCH  25  26
ENDBRANCH  24  25
ENDBRANCH   1  24
TORSDOF 20
