REMARK SMILES CC1=Nc2ncnn2[C@H](c2ccc(F)cc2)[C@@H]1C(=O)OCCOCCOC(=O)c1ccc(-c2c3nc(c(-c4cc(S(=O)(=O)[O-])ccc4F)c4ccc([nH]4)c(-c4cc(S(=O)(=O)[O-])ccc4F)c4nc(c(-c5cc(S(=O)(=O)[O-])ccc5F)c5ccc2[nH]5)C=C4)C=C3)cc1
REMARK SMILES IDX 24 1 23 2 22 3 21 4 20 5 18 6 19 7 17 8 1 9 2 10 3 11 4 12
REMARK SMILES IDX 9 13 5 14 8 15 6 16 7 17 10 18 11 19 16 20 12 21 15 22 13 23
REMARK SMILES IDX 14 24 25 25 26 26 27 27 28 28 29 29 30 30 91 31 31 32 90 33
REMARK SMILES IDX 32 34 33 35 34 36 84 37 35 38 89 39 83 40 85 41 36 42 88 43
REMARK SMILES IDX 82 44 81 45 37 47 69 48 49 49 68 50 50 51 53 52 67 53 86 54
REMARK SMILES IDX 51 55 52 56 66 58 87 59 54 60 38 61 39 62 47 63 40 64 46 65
REMARK SMILES IDX 48 66 45 67 41 68 42 69 43 70 44 71 70 72 71 73 79 74 72 75
REMARK SMILES IDX 78 76 80 77 77 78 73 79 74 80 75 81 76 82 55 83 56 84 64 85
REMARK SMILES IDX 57 86 63 87 65 88 62 89 58 90 59 91 60 92 61 93
REMARK H PARENT 85 46 53 57
REMARK Flexibility Score: inf
ROOT
ATOM      1  C   UNL     1      -0.816   1.627   4.901  1.00  0.00     0.202 C 
ENDROOT
BRANCH   1   2
ATOM      2  O   UNL     1      -0.654   0.043   5.202  1.00  0.00    -0.374 OA
BRANCH   2   3
ATOM      3  C   UNL     1       0.383  -0.884   4.811  1.00  0.00     0.202 C 
BRANCH   3   4
ATOM      4  C   UNL     1       0.496  -1.449   3.383  1.00  0.00     0.261 C 
BRANCH   4   5
ATOM      5  O   UNL     1       0.638  -0.469   2.348  1.00  0.00    -0.463 OA
BRANCH   5   6
ATOM      6  C   UNL     1      -0.511   0.015   1.824  1.00  0.00     0.317 C 
ATOM      7  O   UNL     1      -1.632  -0.402   2.080  1.00  0.00    -0.251 OA
BRANCH   6   8
ATOM      8  C   UNL     1      -0.260   1.186   0.915  1.00  0.00     0.173 C 
ATOM      9  C   UNL     1       1.397  -0.183  -0.574  1.00  0.00     0.063 C 
ATOM     10  C   UNL     1       0.996   1.133   0.061  1.00  0.00     0.036 C 
ATOM     11  N   UNL     1       1.663   2.177  -0.328  1.00  0.00    -0.220 NA
ATOM     12  C   UNL     1       1.244   3.404   0.060  1.00  0.00     0.248 A 
ATOM     13  C   UNL     1      -0.423   2.517   1.663  1.00  0.00     0.161 C 
ATOM     14  N   UNL     1       1.636   4.594  -0.341  1.00  0.00    -0.198 NA
ATOM     15  N   UNL     1       0.254   3.591   0.980  1.00  0.00    -0.221 N 
ATOM     16  C   UNL     1       0.835   5.461   0.352  1.00  0.00     0.248 A 
ATOM     17  N   UNL     1      -0.089   4.883   1.125  1.00  0.00    -0.157 NA
BRANCH  13  18
ATOM     18  C   UNL     1      -0.144   2.608   3.160  1.00  0.00    -0.022 A 
ATOM     19  C   UNL     1      -1.380   3.542   4.091  1.00  0.00     0.009 A 
ATOM     20  C   UNL     1       1.031   1.590   4.063  1.00  0.00     0.009 A 
ATOM     21  C   UNL     1      -1.419   3.507   5.868  1.00  0.00     0.039 A 
ATOM     22  C   UNL     1       0.954   1.529   5.910  1.00  0.00     0.039 A 
ATOM     23  C   UNL     1      -0.293   2.461   6.783  1.00  0.00     0.123 A 
ATOM     24  F   UNL     1      -0.309   2.490   8.120  1.00  0.00    -0.207 F 
ENDBRANCH  13  18
ENDBRANCH   6   8
ENDBRANCH   5   6
ENDBRANCH   4   5
ENDBRANCH   3   4
ENDBRANCH   2   3
ENDBRANCH   1   2
BRANCH   1  25
ATOM     25  C   UNL     1       0.544   3.334   5.039  1.00  0.00     0.261 C 
BRANCH  25  26
ATOM     26  O   UNL     1       2.099   3.357   4.747  1.00  0.00    -0.460 OA
BRANCH  26  27
ATOM     27  C   UNL     1       3.031   3.050   5.684  1.00  0.00     0.338 C 
ATOM     28  O   UNL     1       2.902   3.023   6.895  1.00  0.00    -0.246 OA
BRANCH  27  29
ATOM     29  C   UNL     1       4.227   2.571   4.963  1.00  0.00     0.060 A 
ATOM     30  C   UNL     1       5.280   2.178   5.781  1.00  0.00     0.016 A 
ATOM     31  C   UNL     1       4.439   3.105   3.691  1.00  0.00     0.016 A 
ATOM     32  C   UNL     1       6.441   2.886   5.618  1.00  0.00     0.010 A 
ATOM     33  C   UNL     1       5.626   3.744   3.490  1.00  0.00     0.010 A 
ATOM     34  C   UNL     1       6.506   3.805   4.563  1.00  0.00    -0.014 A 
BRANCH  34  35
ATOM     35  C   UNL     1       7.611   4.731   4.471  1.00  0.00     0.031 A 
ATOM     36  C   UNL     1       8.813   3.975   4.077  1.00  0.00     0.074 A 
ATOM     37  C   UNL     1       7.505   6.071   4.633  1.00  0.00     0.049 A 
ATOM     38  N   UNL     1       9.720   3.538   4.885  1.00  0.00    -0.248 NA
ATOM     39  C   UNL     1       8.832   3.324   2.754  1.00  0.00     0.031 C 
ATOM     40  C   UNL     1       6.338   6.912   4.917  1.00  0.00     0.029 A 
ATOM     41  N   UNL     1       8.503   6.998   4.529  1.00  0.00    -0.354 N 
ATOM     42  C   UNL     1      10.595   2.833   4.080  1.00  0.00     0.074 A 
ATOM     43  C   UNL     1       9.856   2.482   2.900  1.00  0.00     0.031 C 
ATOM     44  C   UNL     1       6.654   8.222   4.731  1.00  0.00     0.029 A 
ATOM     45  C   UNL     1       8.075   8.335   4.444  1.00  0.00     0.049 A 
ATOM     46  H   UNL     1       9.455   6.748   4.515  1.00  0.00     0.167 HD
ATOM     47  C   UNL     1      11.932   2.930   4.291  1.00  0.00     0.034 A 
ATOM     48  C   UNL     1       8.871   9.421   4.175  1.00  0.00     0.034 A 
ATOM     49  C   UNL     1      12.206   3.461   5.609  1.00  0.00     0.049 A 
ATOM     50  C   UNL     1      10.243   9.007   4.581  1.00  0.00     0.074 A 
ATOM     51  C   UNL     1      11.940   3.044   6.899  1.00  0.00     0.029 A 
ATOM     52  N   UNL     1      12.449   4.814   5.696  1.00  0.00    -0.354 N 
ATOM     53  N   UNL     1      10.555   8.756   5.825  1.00  0.00    -0.248 NA
ATOM     54  C   UNL     1      11.050   8.324   3.579  1.00  0.00     0.031 C 
ATOM     55  C   UNL     1      11.568   4.229   7.603  1.00  0.00     0.029 A 
ATOM     56  C   UNL     1      11.726   5.322   6.749  1.00  0.00     0.049 A 
ATOM     57  H   UNL     1      13.041   5.330   5.103  1.00  0.00     0.167 HD
ATOM     58  C   UNL     1      11.273   7.572   5.776  1.00  0.00     0.074 A 
ATOM     59  C   UNL     1      11.572   7.367   4.354  1.00  0.00     0.031 C 
ATOM     60  C   UNL     1      11.276   6.700   6.829  1.00  0.00     0.034 A 
BRANCH  47  61
ATOM     61  C   UNL     1      12.943   2.980   3.175  1.00  0.00     0.023 A 
ATOM     62  C   UNL     1      14.296   2.975   3.543  1.00  0.00     0.031 A 
ATOM     63  C   UNL     1      12.668   3.311   1.825  1.00  0.00     0.131 A 
ATOM     64  C   UNL     1      15.290   3.351   2.626  1.00  0.00     0.055 A 
ATOM     65  C   UNL     1      13.663   3.636   0.904  1.00  0.00     0.041 A 
ATOM     66  F   UNL     1      11.428   3.433   1.338  1.00  0.00    -0.206 F 
ATOM     67  C   UNL     1      14.983   3.685   1.309  1.00  0.00     0.022 A 
BRANCH  64  68
ATOM     68  S   UNL     1      16.989   3.507   3.222  1.00  0.00     0.124 S 
ATOM     69  O   UNL     1      16.846   4.508   4.273  1.00  0.00    -0.237 OA
ATOM     70  O   UNL     1      17.275   2.146   3.664  1.00  0.00    -0.237 OA
ATOM     71  O   UNL     1      17.724   3.943   2.037  1.00  0.00    -0.744 OA
ENDBRANCH  64  68
ENDBRANCH  47  61
BRANCH  48  72
ATOM     72  C   UNL     1       8.656  10.523   3.165  1.00  0.00     0.023 A 
ATOM     73  C   UNL     1       9.532  11.639   3.025  1.00  0.00     0.031 A 
ATOM     74  C   UNL     1       7.733  10.331   2.118  1.00  0.00     0.131 A 
ATOM     75  C   UNL     1       9.467  12.477   1.876  1.00  0.00     0.055 A 
ATOM     76  C   UNL     1       7.687  11.148   0.982  1.00  0.00     0.041 A 
ATOM     77  F   UNL     1       6.896   9.284   2.115  1.00  0.00    -0.206 F 
ATOM     78  C   UNL     1       8.561  12.215   0.849  1.00  0.00     0.022 A 
BRANCH  75  79
ATOM     79  S   UNL     1      10.628  13.874   1.624  1.00  0.00     0.124 S 
ATOM     80  O   UNL     1      10.106  14.881   2.542  1.00  0.00    -0.237 OA
ATOM     81  O   UNL     1      11.919  13.290   1.970  1.00  0.00    -0.237 OA
ATOM     82  O   UNL     1      10.469  14.201   0.205  1.00  0.00    -0.744 OA
ENDBRANCH  75  79
ENDBRANCH  48  72
BRANCH  60  83
ATOM     83  C   UNL     1      10.660   7.155   8.142  1.00  0.00     0.023 A 
ATOM     84  C   UNL     1       9.293   7.466   8.361  1.00  0.00     0.031 A 
ATOM     85  C   UNL     1      11.512   7.155   9.258  1.00  0.00     0.131 A 
ATOM     86  C   UNL     1       8.840   7.770   9.666  1.00  0.00     0.055 A 
ATOM     87  C   UNL     1      11.056   7.431  10.544  1.00  0.00     0.041 A 
ATOM     88  F   UNL     1      12.811   6.842   9.117  1.00  0.00    -0.206 F 
ATOM     89  C   UNL     1       9.719   7.744  10.754  1.00  0.00     0.022 A 
BRANCH  86  90
ATOM     90  S   UNL     1       7.093   8.203   9.986  1.00  0.00     0.124 S 
ATOM     91  O   UNL     1       6.857   9.325   9.085  1.00  0.00    -0.237 OA
ATOM     92  O   UNL     1       6.393   6.964   9.663  1.00  0.00    -0.237 OA
ATOM     93  O   UNL     1       7.081   8.553  11.409  1.00  0.00    -0.744 OA
ENDBRANCH  86  90
ENDBRANCH  60  83
ENDBRANCH  34  35
ENDBRANCH  27  29
ENDBRANCH  26  27
ENDBRANCH  25  26
ENDBRANCH   1  25
TORSDOF 18
