REMARK SMILES CCc1cc(C(=O)c2[nH]c3cc(Cl)ccc3c2CC(=O)OCCOCCOC(=O)c2ccc(-c3c4nc(c(-c5cc(S(=O)(=O)[O-])ccc5F)c5ccc([nH]5)c(-c5cc(S(=O)(=O)[O-])ccc5F)c5nc(c(-c6cc(S(=O)(=O)[O-])ccc6F)c6ccc3[nH]6)C=C5)C=C4)cc2)ncc1Cl
REMARK SMILES IDX 23 1 22 2 21 3 19 4 20 5 18 6 17 7 8 8 9 9 10 10 16 12 11 13
REMARK SMILES IDX 15 14 12 15 14 16 13 17 6 18 7 19 5 20 3 21 4 22 95 23 94 24
REMARK SMILES IDX 96 25 93 26 2 27 1 28 24 29 25 30 26 31 27 32 28 33 29 34
REMARK SMILES IDX 30 35 31 36 92 37 32 38 91 39 33 40 34 41 35 42 85 43 36 44
REMARK SMILES IDX 90 45 84 46 86 47 37 48 89 49 83 50 82 51 38 53 70 54 50 55
REMARK SMILES IDX 69 56 51 57 54 58 68 59 87 60 52 61 53 62 67 64 88 65 55 66
REMARK SMILES IDX 39 67 40 68 48 69 41 70 47 71 49 72 46 73 42 74 43 75 44 76
REMARK SMILES IDX 45 77 71 78 72 79 80 80 73 81 79 82 81 83 78 84 74 85 75 86
REMARK SMILES IDX 76 87 77 88 56 89 57 90 65 91 58 92 64 93 66 94 63 95 59 96
REMARK SMILES IDX 60 97 61 98 62 99
REMARK H PARENT 9 11 86 52 54 63
REMARK Flexibility Score: inf
ROOT
ATOM      1  C   UNL     1      -0.146  10.876   0.097  1.00  0.00     0.202 C 
ENDROOT
BRANCH   1   2
ATOM      2  C   UNL     1      -1.643  10.625   0.310  1.00  0.00     0.261 C 
BRANCH   2   3
ATOM      3  O   UNL     1      -1.907   9.332   0.903  1.00  0.00    -0.463 OA
BRANCH   3   4
ATOM      4  C   UNL     1      -2.909   8.619   0.322  1.00  0.00     0.310 C 
ATOM      5  O   UNL     1      -3.618   9.046  -0.588  1.00  0.00    -0.252 OA
BRANCH   4   6
ATOM      6  C   UNL     1      -3.181   7.262   0.934  1.00  0.00     0.161 C 
BRANCH   6   7
ATOM      7  C   UNL     1      -2.155   6.646   1.851  1.00  0.00     0.000 A 
ATOM      8  C   UNL     1      -1.036   5.889   1.490  1.00  0.00     0.093 A 
ATOM      9  N   UNL     1      -0.388   5.561   2.664  1.00  0.00    -0.351 N 
ATOM     10  C   UNL     1      -1.195   5.817   3.747  1.00  0.00     0.048 A 
ATOM     11  H   UNL     1       0.524   5.195   2.717  1.00  0.00     0.167 HD
ATOM     12  C   UNL     1      -2.291   6.535   3.276  1.00  0.00     0.004 A 
ATOM     13  C   UNL     1      -1.043   5.463   5.096  1.00  0.00     0.047 A 
ATOM     14  C   UNL     1      -3.285   6.929   4.198  1.00  0.00     0.012 A 
ATOM     15  C   UNL     1      -2.067   5.827   5.976  1.00  0.00     0.043 A 
ATOM     16  C   UNL     1      -3.171   6.554   5.542  1.00  0.00     0.021 A 
ATOM     17  Cl  UNL     1      -1.974   5.338   7.625  1.00  0.00    -0.084 Cl
BRANCH   8  18
ATOM     18  C   UNL     1      -0.609   5.520   0.144  1.00  0.00     0.227 C 
ATOM     19  O   UNL     1      -1.075   6.054  -0.861  1.00  0.00    -0.285 OA
BRANCH  18  20
ATOM     20  C   UNL     1       0.371   4.413  -0.073  1.00  0.00     0.113 A 
ATOM     21  C   UNL     1       1.025   2.080   0.164  1.00  0.00    -0.026 A 
ATOM     22  C   UNL     1       0.188   3.165   0.520  1.00  0.00     0.037 A 
ATOM     23  C   UNL     1       2.041   2.336  -0.768  1.00  0.00     0.062 A 
ATOM     24  C   UNL     1       2.153   3.623  -1.296  1.00  0.00     0.132 A 
ATOM     25  Cl  UNL     1       3.184   1.175  -1.317  1.00  0.00    -0.082 Cl
ATOM     26  N   UNL     1       1.349   4.662  -0.972  1.00  0.00    -0.251 NA
BRANCH  21  27
ATOM     27  C   UNL     1       0.754   0.770   0.878  1.00  0.00     0.034 C 
ATOM     28  C   UNL     1       1.028  -0.549   0.169  1.00  0.00     0.009 C 
ENDBRANCH  21  27
ENDBRANCH  18  20
ENDBRANCH   8  18
ENDBRANCH   6   7
ENDBRANCH   4   6
ENDBRANCH   3   4
ENDBRANCH   2   3
ENDBRANCH   1   2
BRANCH   1  29
ATOM     29  O   UNL     1       0.482  10.111  -0.935  1.00  0.00    -0.374 OA
BRANCH  29  30
ATOM     30  C   UNL     1       0.620   8.713  -0.693  1.00  0.00     0.202 C 
BRANCH  30  31
ATOM     31  C   UNL     1       1.804   8.297   0.187  1.00  0.00     0.261 C 
BRANCH  31  32
ATOM     32  O   UNL     1       1.808   8.973   1.456  1.00  0.00    -0.460 OA
BRANCH  32  33
ATOM     33  C   UNL     1       2.836   9.840   1.607  1.00  0.00     0.338 C 
ATOM     34  O   UNL     1       3.816   9.951   0.876  1.00  0.00    -0.246 OA
BRANCH  33  35
ATOM     35  C   UNL     1       2.569  10.790   2.699  1.00  0.00     0.060 A 
ATOM     36  C   UNL     1       2.713  12.149   2.395  1.00  0.00     0.016 A 
ATOM     37  C   UNL     1       2.282  10.379   4.004  1.00  0.00     0.016 A 
ATOM     38  C   UNL     1       2.658  13.096   3.410  1.00  0.00     0.010 A 
ATOM     39  C   UNL     1       2.228  11.336   5.026  1.00  0.00     0.010 A 
ATOM     40  C   UNL     1       2.471  12.691   4.739  1.00  0.00    -0.014 A 
BRANCH  40  41
ATOM     41  C   UNL     1       2.732  13.688   5.808  1.00  0.00     0.031 A 
ATOM     42  C   UNL     1       4.090  13.707   6.460  1.00  0.00     0.074 A 
ATOM     43  C   UNL     1       1.820  14.633   6.097  1.00  0.00     0.049 A 
ATOM     44  N   UNL     1       4.597  14.569   7.302  1.00  0.00    -0.248 NA
ATOM     45  C   UNL     1       4.999  12.605   6.108  1.00  0.00     0.031 C 
ATOM     46  C   UNL     1       0.487  14.724   5.503  1.00  0.00     0.029 A 
ATOM     47  N   UNL     1       1.886  15.710   6.943  1.00  0.00    -0.354 N 
ATOM     48  C   UNL     1       5.889  14.124   7.569  1.00  0.00     0.074 A 
ATOM     49  C   UNL     1       6.064  12.886   6.842  1.00  0.00     0.031 C 
ATOM     50  C   UNL     1      -0.135  15.811   5.991  1.00  0.00     0.029 A 
ATOM     51  C   UNL     1       0.749  16.483   6.941  1.00  0.00     0.049 A 
ATOM     52  H   UNL     1       2.673  15.911   7.499  1.00  0.00     0.167 HD
ATOM     53  C   UNL     1       6.846  14.705   8.335  1.00  0.00     0.034 A 
ATOM     54  C   UNL     1       0.460  17.609   7.624  1.00  0.00     0.034 A 
ATOM     55  C   UNL     1       6.643  15.930   9.071  1.00  0.00     0.049 A 
ATOM     56  C   UNL     1       1.524  18.212   8.509  1.00  0.00     0.074 A 
ATOM     57  C   UNL     1       7.529  16.604   9.893  1.00  0.00     0.029 A 
ATOM     58  N   UNL     1       5.462  16.663   9.080  1.00  0.00    -0.354 N 
ATOM     59  N   UNL     1       2.748  17.791   8.738  1.00  0.00    -0.248 NA
ATOM     60  C   UNL     1       1.175  19.457   9.204  1.00  0.00     0.031 C 
ATOM     61  C   UNL     1       6.865  17.706  10.447  1.00  0.00     0.029 A 
ATOM     62  C   UNL     1       5.588  17.766   9.911  1.00  0.00     0.049 A 
ATOM     63  H   UNL     1       4.652  16.432   8.569  1.00  0.00     0.167 HD
ATOM     64  C   UNL     1       3.324  18.739   9.581  1.00  0.00     0.074 A 
ATOM     65  C   UNL     1       2.320  19.762   9.797  1.00  0.00     0.031 C 
ATOM     66  C   UNL     1       4.569  18.767  10.126  1.00  0.00     0.034 A 
BRANCH  53  67
ATOM     67  C   UNL     1       8.169  13.983   8.451  1.00  0.00     0.023 A 
ATOM     68  C   UNL     1       9.003  13.778   7.336  1.00  0.00     0.031 A 
ATOM     69  C   UNL     1       8.581  13.447   9.684  1.00  0.00     0.131 A 
ATOM     70  C   UNL     1      10.162  12.995   7.460  1.00  0.00     0.055 A 
ATOM     71  C   UNL     1       9.775  12.736   9.818  1.00  0.00     0.041 A 
ATOM     72  F   UNL     1       7.816  13.586  10.779  1.00  0.00    -0.206 F 
ATOM     73  C   UNL     1      10.566  12.493   8.699  1.00  0.00     0.022 A 
BRANCH  70  74
ATOM     74  S   UNL     1      11.055  12.515   5.955  1.00  0.00     0.124 S 
ATOM     75  O   UNL     1      10.020  11.796   5.216  1.00  0.00    -0.237 OA
ATOM     76  O   UNL     1      11.459  13.802   5.403  1.00  0.00    -0.237 OA
ATOM     77  O   UNL     1      12.145  11.680   6.455  1.00  0.00    -0.744 OA
ENDBRANCH  70  74
ENDBRANCH  53  67
BRANCH  54  78
ATOM     78  C   UNL     1      -0.888  18.239   7.510  1.00  0.00     0.023 A 
ATOM     79  C   UNL     1      -1.055  19.525   6.973  1.00  0.00     0.031 A 
ATOM     80  C   UNL     1      -2.031  17.571   7.987  1.00  0.00     0.131 A 
ATOM     81  C   UNL     1      -2.327  20.122   6.968  1.00  0.00     0.055 A 
ATOM     82  C   UNL     1      -3.300  18.148   7.934  1.00  0.00     0.041 A 
ATOM     83  F   UNL     1      -1.928  16.338   8.509  1.00  0.00    -0.206 F 
ATOM     84  C   UNL     1      -3.452  19.437   7.434  1.00  0.00     0.022 A 
BRANCH  81  85
ATOM     85  S   UNL     1      -2.480  21.844   6.418  1.00  0.00     0.124 S 
ATOM     86  O   UNL     1      -1.567  22.530   7.326  1.00  0.00    -0.237 OA
ATOM     87  O   UNL     1      -2.054  21.755   5.026  1.00  0.00    -0.237 OA
ATOM     88  O   UNL     1      -3.897  22.140   6.616  1.00  0.00    -0.744 OA
ENDBRANCH  81  85
ENDBRANCH  54  78
BRANCH  66  89
ATOM     89  C   UNL     1       4.912  19.969  10.973  1.00  0.00     0.023 A 
ATOM     90  C   UNL     1       4.247  20.235  12.184  1.00  0.00     0.031 A 
ATOM     91  C   UNL     1       5.889  20.884  10.542  1.00  0.00     0.131 A 
ATOM     92  C   UNL     1       4.510  21.424  12.880  1.00  0.00     0.055 A 
ATOM     93  C   UNL     1       6.195  22.032  11.274  1.00  0.00     0.041 A 
ATOM     94  F   UNL     1       6.556  20.682   9.395  1.00  0.00    -0.206 F 
ATOM     95  C   UNL     1       5.490  22.317  12.441  1.00  0.00     0.022 A 
BRANCH  92  96
ATOM     96  S   UNL     1       3.461  21.851  14.297  1.00  0.00     0.124 S 
ATOM     97  O   UNL     1       2.124  21.787  13.716  1.00  0.00    -0.237 OA
ATOM     98  O   UNL     1       3.790  20.801  15.255  1.00  0.00    -0.237 OA
ATOM     99  O   UNL     1       3.913  23.192  14.666  1.00  0.00    -0.744 OA
ENDBRANCH  92  96
ENDBRANCH  66  89
ENDBRANCH  40  41
ENDBRANCH  33  35
ENDBRANCH  32  33
ENDBRANCH  31  32
ENDBRANCH  30  31
ENDBRANCH  29  30
ENDBRANCH   1  29
TORSDOF 21
