REMARK SMILES COCCNc1cc(C)nc2cc(C(=O)OCCOCCOC(=O)c3ccc(-c4c5nc(c(-c6cc(S(=O)(=O)[O-])ccc6F)c6ccc([nH]6)c(-c6cc(S(=O)(=O)[O-])ccc6F)c6nc(c(-c7cc(S(=O)(=O)[O-])ccc7F)c7ccc4[nH]7)C=C6)C=C5)cc3)ccc12
REMARK SMILES IDX 18 1 17 2 16 3 14 4 15 5 13 6 6 7 7 8 90 9 8 10 11 11 89 12
REMARK SMILES IDX 9 13 10 14 12 15 88 16 5 17 4 19 3 20 2 21 1 22 19 23 20 24
REMARK SMILES IDX 21 25 22 26 23 27 24 28 25 29 26 30 87 31 27 32 86 33 28 34
REMARK SMILES IDX 29 35 30 36 80 37 31 38 85 39 79 40 81 41 32 42 84 43 78 44
REMARK SMILES IDX 77 45 33 47 65 48 45 49 64 50 46 51 49 52 63 53 82 54 47 55
REMARK SMILES IDX 48 56 62 58 83 59 50 60 34 61 35 62 43 63 36 64 42 65 44 66
REMARK SMILES IDX 41 67 37 68 38 69 39 70 40 71 66 72 67 73 75 74 68 75 74 76
REMARK SMILES IDX 76 77 73 78 69 79 70 80 71 81 72 82 51 83 52 84 60 85 53 86
REMARK SMILES IDX 59 87 61 88 58 89 54 90 55 91 56 92 57 93
REMARK H PARENT 5 18 81 46 49 57
REMARK Flexibility Score: inf
ROOT
ATOM      1  C   UNL     1       8.451   3.757   4.753  1.00  0.00     0.202 C 
ENDROOT
BRANCH   1   2
ATOM      2  C   UNL     1       8.765   3.766   3.253  1.00  0.00     0.261 C 
BRANCH   2   3
ATOM      3  O   UNL     1       7.587   4.035   2.474  1.00  0.00    -0.460 OA
BRANCH   3   4
ATOM      4  C   UNL     1       7.125   2.981   1.766  1.00  0.00     0.338 C 
ATOM      5  O   UNL     1       7.667   1.892   1.625  1.00  0.00    -0.246 OA
BRANCH   4   6
ATOM      6  C   UNL     1       5.749   3.233   1.290  1.00  0.00     0.062 A 
ATOM      7  C   UNL     1       1.927   3.658  -0.410  1.00  0.00     0.045 A 
ATOM      8  C   UNL     1       1.577   4.909  -0.913  1.00  0.00     0.049 A 
ATOM      9  C   UNL     1       3.174   3.516   0.235  1.00  0.00     0.023 A 
ATOM     10  C   UNL     1       2.477   5.960  -0.808  1.00  0.00     0.040 A 
ATOM     11  C   UNL     1       4.041   4.632   0.280  1.00  0.00     0.073 A 
ATOM     12  C   UNL     1       3.597   2.290   0.783  1.00  0.00     0.013 A 
ATOM     13  C   UNL     1       2.132   7.318  -1.343  1.00  0.00     0.067 C 
ATOM     14  N   UNL     1       3.689   5.827  -0.220  1.00  0.00    -0.253 NA
ATOM     15  C   UNL     1       5.313   4.478   0.825  1.00  0.00     0.044 A 
ATOM     16  C   UNL     1       4.878   2.144   1.293  1.00  0.00     0.016 A 
BRANCH   7  17
ATOM     17  N   UNL     1       1.026   2.598  -0.466  1.00  0.00    -0.382 N 
ATOM     18  H   UNL     1       0.747   2.157   0.368  1.00  0.00     0.160 HD
BRANCH  17  19
ATOM     19  C   UNL     1       0.489   2.130  -1.738  1.00  0.00     0.141 C 
BRANCH  19  20
ATOM     20  C   UNL     1       1.056   0.750  -2.112  1.00  0.00     0.181 C 
BRANCH  20  21
ATOM     21  O   UNL     1       0.413  -0.332  -1.426  1.00  0.00    -0.383 OA
ATOM     22  C   UNL     1       0.946  -0.579  -0.133  1.00  0.00     0.194 C 
ENDBRANCH  20  21
ENDBRANCH  19  20
ENDBRANCH  17  19
ENDBRANCH   7  17
ENDBRANCH   4   6
ENDBRANCH   3   4
ENDBRANCH   2   3
ENDBRANCH   1   2
BRANCH   1  23
ATOM     23  O   UNL     1       7.536   2.753   5.196  1.00  0.00    -0.374 OA
BRANCH  23  24
ATOM     24  C   UNL     1       6.144   3.036   5.042  1.00  0.00     0.202 C 
BRANCH  24  25
ATOM     25  C   UNL     1       5.513   3.973   6.080  1.00  0.00     0.261 C 
BRANCH  25  26
ATOM     26  O   UNL     1       5.998   5.321   5.956  1.00  0.00    -0.460 OA
BRANCH  26  27
ATOM     27  C   UNL     1       6.818   5.724   6.955  1.00  0.00     0.338 C 
ATOM     28  O   UNL     1       7.106   5.095   7.966  1.00  0.00    -0.246 OA
BRANCH  27  29
ATOM     29  C   UNL     1       7.497   6.978   6.576  1.00  0.00     0.060 A 
ATOM     30  C   UNL     1       8.892   7.022   6.707  1.00  0.00     0.016 A 
ATOM     31  C   UNL     1       6.790   8.105   6.151  1.00  0.00     0.016 A 
ATOM     32  C   UNL     1       9.580   8.207   6.460  1.00  0.00     0.010 A 
ATOM     33  C   UNL     1       7.483   9.297   5.912  1.00  0.00     0.010 A 
ATOM     34  C   UNL     1       8.876   9.363   6.098  1.00  0.00    -0.014 A 
BRANCH  34  35
ATOM     35  C   UNL     1       9.583  10.668   6.061  1.00  0.00     0.031 A 
ATOM     36  C   UNL     1       9.455  11.598   7.236  1.00  0.00     0.074 A 
ATOM     37  C   UNL     1      10.355  11.003   5.012  1.00  0.00     0.049 A 
ATOM     38  N   UNL     1       9.956  12.793   7.410  1.00  0.00    -0.248 NA
ATOM     39  C   UNL     1       8.647  11.111   8.364  1.00  0.00     0.031 C 
ATOM     40  C   UNL     1      10.593  10.165   3.838  1.00  0.00     0.029 A 
ATOM     41  N   UNL     1      11.081  12.142   4.765  1.00  0.00    -0.354 N 
ATOM     42  C   UNL     1       9.524  13.205   8.667  1.00  0.00     0.074 A 
ATOM     43  C   UNL     1       8.684  12.147   9.188  1.00  0.00     0.031 C 
ATOM     44  C   UNL     1      11.404  10.822   2.991  1.00  0.00     0.029 A 
ATOM     45  C   UNL     1      11.711  12.139   3.543  1.00  0.00     0.049 A 
ATOM     46  H   UNL     1      11.143  12.889   5.402  1.00  0.00     0.167 HD
ATOM     47  C   UNL     1       9.809  14.355   9.328  1.00  0.00     0.034 A 
ATOM     48  C   UNL     1      12.433  13.101   2.932  1.00  0.00     0.034 A 
ATOM     49  C   UNL     1      10.636  15.407   8.786  1.00  0.00     0.049 A 
ATOM     50  C   UNL     1      12.658  14.413   3.644  1.00  0.00     0.074 A 
ATOM     51  C   UNL     1      11.003  16.605   9.373  1.00  0.00     0.029 A 
ATOM     52  N   UNL     1      11.211  15.395   7.520  1.00  0.00    -0.354 N 
ATOM     53  N   UNL     1      12.253  14.788   4.836  1.00  0.00    -0.248 NA
ATOM     54  C   UNL     1      13.445  15.427   2.930  1.00  0.00     0.031 C 
ATOM     55  C   UNL     1      11.733  17.348   8.438  1.00  0.00     0.029 A 
ATOM     56  C   UNL     1      11.895  16.580   7.295  1.00  0.00     0.049 A 
ATOM     57  H   UNL     1      11.143  14.653   6.877  1.00  0.00     0.167 HD
ATOM     58  C   UNL     1      12.761  16.072   5.024  1.00  0.00     0.074 A 
ATOM     59  C   UNL     1      13.512  16.398   3.829  1.00  0.00     0.031 C 
ATOM     60  C   UNL     1      12.626  16.902   6.090  1.00  0.00     0.034 A 
BRANCH  47  61
ATOM     61  C   UNL     1       9.172  14.549  10.684  1.00  0.00     0.023 A 
ATOM     62  C   UNL     1       9.456  13.696  11.766  1.00  0.00     0.031 A 
ATOM     63  C   UNL     1       8.231  15.574  10.886  1.00  0.00     0.131 A 
ATOM     64  C   UNL     1       8.751  13.835  12.971  1.00  0.00     0.055 A 
ATOM     65  C   UNL     1       7.594  15.759  12.114  1.00  0.00     0.041 A 
ATOM     66  F   UNL     1       7.900  16.405   9.885  1.00  0.00    -0.206 F 
ATOM     67  C   UNL     1       7.840  14.876  13.161  1.00  0.00     0.022 A 
BRANCH  64  68
ATOM     68  S   UNL     1       8.925  12.541  14.231  1.00  0.00     0.124 S 
ATOM     69  O   UNL     1       8.521  11.349  13.489  1.00  0.00    -0.237 OA
ATOM     70  O   UNL     1      10.338  12.629  14.581  1.00  0.00    -0.237 OA
ATOM     71  O   UNL     1       7.995  12.956  15.280  1.00  0.00    -0.744 OA
ENDBRANCH  64  68
ENDBRANCH  47  61
BRANCH  48  72
ATOM     72  C   UNL     1      12.962  12.883   1.555  1.00  0.00     0.023 A 
ATOM     73  C   UNL     1      14.342  12.854   1.302  1.00  0.00     0.031 A 
ATOM     74  C   UNL     1      12.088  12.749   0.461  1.00  0.00     0.131 A 
ATOM     75  C   UNL     1      14.809  12.732  -0.016  1.00  0.00     0.055 A 
ATOM     76  C   UNL     1      12.557  12.577  -0.842  1.00  0.00     0.041 A 
ATOM     77  F   UNL     1      10.758  12.773   0.647  1.00  0.00    -0.206 F 
ATOM     78  C   UNL     1      13.926  12.580  -1.088  1.00  0.00     0.022 A 
BRANCH  75  79
ATOM     79  S   UNL     1      16.593  12.852  -0.322  1.00  0.00     0.124 S 
ATOM     80  O   UNL     1      16.895  14.181   0.198  1.00  0.00    -0.237 OA
ATOM     81  O   UNL     1      17.109  11.728   0.452  1.00  0.00    -0.237 OA
ATOM     82  O   UNL     1      16.700  12.708  -1.772  1.00  0.00    -0.744 OA
ENDBRANCH  75  79
ENDBRANCH  48  72
BRANCH  60  83
ATOM     83  C   UNL     1      13.344  18.230   6.023  1.00  0.00     0.023 A 
ATOM     84  C   UNL     1      12.976  19.227   5.101  1.00  0.00     0.031 A 
ATOM     85  C   UNL     1      14.420  18.496   6.889  1.00  0.00     0.131 A 
ATOM     86  C   UNL     1      13.713  20.419   5.030  1.00  0.00     0.055 A 
ATOM     87  C   UNL     1      15.110  19.709   6.856  1.00  0.00     0.041 A 
ATOM     88  F   UNL     1      14.816  17.580   7.787  1.00  0.00    -0.206 F 
ATOM     89  C   UNL     1      14.766  20.674   5.913  1.00  0.00     0.022 A 
BRANCH  86  90
ATOM     90  S   UNL     1      13.337  21.600   3.705  1.00  0.00     0.124 S 
ATOM     91  O   UNL     1      13.545  20.790   2.509  1.00  0.00    -0.237 OA
ATOM     92  O   UNL     1      11.955  21.966   3.995  1.00  0.00    -0.237 OA
ATOM     93  O   UNL     1      14.316  22.667   3.908  1.00  0.00    -0.744 OA
ENDBRANCH  86  90
ENDBRANCH  60  83
ENDBRANCH  34  35
ENDBRANCH  27  29
ENDBRANCH  26  27
ENDBRANCH  25  26
ENDBRANCH  24  25
ENDBRANCH  23  24
ENDBRANCH   1  23
TORSDOF 21
