REMARK SMILES CC1(C)C(C(=O)N2CCOC[C@H]2C(=O)OCCOCCOC(=O)c2ccc(-c3c4nc(c(-c5cc(S(=O)(=O)[O-])ccc5F)c5ccc([nH]5)c(-c5cc(S(=O)(=O)[O-])ccc5F)c5nc(c(-c6cc(S(=O)(=O)[O-])ccc6F)c6ccc3[nH]6)C=C5)C=C4)cc2)C1(C)C
REMARK SMILES IDX 19 1 18 2 17 3 16 4 15 5 13 6 14 7 12 8 7 9 8 10 9 11 11 12
REMARK SMILES IDX 10 13 5 14 6 15 4 16 1 17 2 18 3 19 87 20 88 21 89 22 20 23
REMARK SMILES IDX 21 24 22 25 23 26 24 27 25 28 86 29 26 30 85 31 27 32 28 33
REMARK SMILES IDX 29 34 79 35 30 36 84 37 78 38 80 39 31 40 83 41 77 42 76 43
REMARK SMILES IDX 32 45 64 46 44 47 63 48 45 49 48 50 62 51 81 52 46 53 47 54
REMARK SMILES IDX 61 56 82 57 49 58 33 59 34 60 42 61 35 62 41 63 43 64 40 65
REMARK SMILES IDX 36 66 37 67 38 68 39 69 65 70 66 71 74 72 67 73 73 74 75 75
REMARK SMILES IDX 72 76 68 77 69 78 70 79 71 80 50 81 51 82 59 83 52 84 58 85
REMARK SMILES IDX 60 86 57 87 53 88 54 89 55 90 56 91
REMARK H PARENT 80 44 48 55
REMARK Flexibility Score: inf
ROOT
ATOM      1  C   UNL     1      -5.365  -1.497  -2.869  1.00  0.00     0.202 C 
ENDROOT
BRANCH   1   2
ATOM      2  O   UNL     1      -6.780  -1.671  -2.792  1.00  0.00    -0.374 OA
BRANCH   2   3
ATOM      3  C   UNL     1      -7.389  -1.603  -1.503  1.00  0.00     0.202 C 
BRANCH   3   4
ATOM      4  C   UNL     1      -7.129  -2.790  -0.578  1.00  0.00     0.261 C 
BRANCH   4   5
ATOM      5  O   UNL     1      -5.731  -2.893  -0.263  1.00  0.00    -0.462 OA
BRANCH   5   6
ATOM      6  C   UNL     1      -5.151  -4.098  -0.499  1.00  0.00     0.331 C 
ATOM      7  O   UNL     1      -5.755  -5.098  -0.879  1.00  0.00    -0.250 OA
BRANCH   6   8
ATOM      8  C   UNL     1      -3.675  -4.150  -0.084  1.00  0.00     0.221 C 
ATOM      9  N   UNL     1      -2.833  -2.923  -0.043  1.00  0.00    -0.324 N 
ATOM     10  C   UNL     1      -3.134  -1.996   1.039  1.00  0.00     0.149 C 
ATOM     11  C   UNL     1      -3.236  -2.731   2.384  1.00  0.00     0.181 C 
ATOM     12  C   UNL     1      -3.656  -4.804   1.303  1.00  0.00     0.197 C 
ATOM     13  O   UNL     1      -4.093  -3.881   2.315  1.00  0.00    -0.377 OA
BRANCH   9  14
ATOM     14  C   UNL     1      -1.827  -2.816  -0.987  1.00  0.00     0.227 C 
ATOM     15  O   UNL     1      -1.894  -3.460  -2.034  1.00  0.00    -0.275 OA
BRANCH  14  16
ATOM     16  C   UNL     1      -0.572  -2.009  -0.815  1.00  0.00     0.091 C 
ATOM     17  C   UNL     1       1.276  -0.332  -0.157  1.00  0.00     0.012 C 
ATOM     18  C   UNL     1       0.343  -1.462   0.283  1.00  0.00    -0.017 C 
ATOM     19  C   UNL     1       0.011  -1.293   1.740  1.00  0.00     0.012 C 
ATOM     20  C   UNL     1       0.610  -2.861  -0.263  1.00  0.00    -0.017 C 
ATOM     21  C   UNL     1       1.819  -3.109  -1.135  1.00  0.00     0.012 C 
ATOM     22  C   UNL     1       0.287  -4.086   0.577  1.00  0.00     0.012 C 
ENDBRANCH  14  16
ENDBRANCH   9  14
ENDBRANCH   6   8
ENDBRANCH   5   6
ENDBRANCH   4   5
ENDBRANCH   3   4
ENDBRANCH   2   3
ENDBRANCH   1   2
BRANCH   1  23
ATOM     23  C   UNL     1      -4.829  -0.068  -2.711  1.00  0.00     0.261 C 
BRANCH  23  24
ATOM     24  O   UNL     1      -5.143   0.531  -1.440  1.00  0.00    -0.460 OA
BRANCH  24  25
ATOM     25  C   UNL     1      -6.066   1.523  -1.508  1.00  0.00     0.338 C 
ATOM     26  O   UNL     1      -6.595   1.960  -2.526  1.00  0.00    -0.246 OA
BRANCH  25  27
ATOM     27  C   UNL     1      -6.508   1.938  -0.164  1.00  0.00     0.060 A 
ATOM     28  C   UNL     1      -7.888   1.991   0.066  1.00  0.00     0.016 A 
ATOM     29  C   UNL     1      -5.613   2.372   0.818  1.00  0.00     0.016 A 
ATOM     30  C   UNL     1      -8.380   2.536   1.248  1.00  0.00     0.010 A 
ATOM     31  C   UNL     1      -6.112   2.922   2.009  1.00  0.00     0.010 A 
ATOM     32  C   UNL     1      -7.499   3.046   2.211  1.00  0.00    -0.014 A 
BRANCH  32  33
ATOM     33  C   UNL     1      -8.063   3.824   3.347  1.00  0.00     0.031 A 
ATOM     34  C   UNL     1      -8.036   5.330   3.296  1.00  0.00     0.074 A 
ATOM     35  C   UNL     1      -8.669   3.192   4.371  1.00  0.00     0.049 A 
ATOM     36  N   UNL     1      -8.560   6.198   4.123  1.00  0.00    -0.248 NA
ATOM     37  C   UNL     1      -7.325   5.939   2.161  1.00  0.00     0.031 C 
ATOM     38  C   UNL     1      -8.772   1.740   4.522  1.00  0.00     0.029 A 
ATOM     39  N   UNL     1      -9.323   3.689   5.470  1.00  0.00    -0.354 N 
ATOM     40  C   UNL     1      -8.240   7.453   3.614  1.00  0.00     0.074 A 
ATOM     41  C   UNL     1      -7.447   7.232   2.424  1.00  0.00     0.031 C 
ATOM     42  C   UNL     1      -9.455   1.465   5.646  1.00  0.00     0.029 A 
ATOM     43  C   UNL     1      -9.820   2.716   6.307  1.00  0.00     0.049 A 
ATOM     44  H   UNL     1      -9.428   4.653   5.644  1.00  0.00     0.167 HD
ATOM     45  C   UNL     1      -8.585   8.675   4.091  1.00  0.00     0.034 A 
ATOM     46  C   UNL     1     -10.489   2.823   7.474  1.00  0.00     0.034 A 
ATOM     47  C   UNL     1      -9.386   8.882   5.273  1.00  0.00     0.049 A 
ATOM     48  C   UNL     1     -10.836   4.199   7.992  1.00  0.00     0.074 A 
ATOM     49  C   UNL     1      -9.837  10.077   5.808  1.00  0.00     0.029 A 
ATOM     50  N   UNL     1      -9.845   7.876   6.112  1.00  0.00    -0.354 N 
ATOM     51  N   UNL     1     -10.580   5.374   7.463  1.00  0.00    -0.248 NA
ATOM     52  C   UNL     1     -11.585   4.260   9.255  1.00  0.00     0.031 C 
ATOM     53  C   UNL     1     -10.502   9.799   7.008  1.00  0.00     0.029 A 
ATOM     54  C   UNL     1     -10.537   8.425   7.182  1.00  0.00     0.049 A 
ATOM     55  H   UNL     1      -9.700   6.912   5.969  1.00  0.00     0.167 HD
ATOM     56  C   UNL     1     -11.163   6.309   8.316  1.00  0.00     0.074 A 
ATOM     57  C   UNL     1     -11.809   5.559   9.372  1.00  0.00     0.031 C 
ATOM     58  C   UNL     1     -11.163   7.666   8.239  1.00  0.00     0.034 A 
BRANCH  45  59
ATOM     59  C   UNL     1      -8.056   9.888   3.364  1.00  0.00     0.023 A 
ATOM     60  C   UNL     1      -8.465  10.218   2.060  1.00  0.00     0.031 A 
ATOM     61  C   UNL     1      -7.131  10.737   3.999  1.00  0.00     0.131 A 
ATOM     62  C   UNL     1      -7.916  11.339   1.418  1.00  0.00     0.055 A 
ATOM     63  C   UNL     1      -6.640  11.887   3.380  1.00  0.00     0.041 A 
ATOM     64  F   UNL     1      -6.688  10.459   5.236  1.00  0.00    -0.206 F 
ATOM     65  C   UNL     1      -7.025  12.189   2.078  1.00  0.00     0.022 A 
BRANCH  62  66
ATOM     66  S   UNL     1      -8.302  11.620  -0.333  1.00  0.00     0.124 S 
ATOM     67  O   UNL     1      -7.779  10.403  -0.949  1.00  0.00    -0.237 OA
ATOM     68  O   UNL     1      -9.754  11.756  -0.318  1.00  0.00    -0.237 OA
ATOM     69  O   UNL     1      -7.565  12.840  -0.655  1.00  0.00    -0.744 OA
ENDBRANCH  62  66
ENDBRANCH  45  59
BRANCH  46  70
ATOM     70  C   UNL     1     -10.854   1.607   8.260  1.00  0.00     0.023 A 
ATOM     71  C   UNL     1     -12.192   1.294   8.547  1.00  0.00     0.031 A 
ATOM     72  C   UNL     1      -9.854   0.787   8.815  1.00  0.00     0.131 A 
ATOM     73  C   UNL     1     -12.493   0.236   9.419  1.00  0.00     0.055 A 
ATOM     74  C   UNL     1     -10.161  -0.302   9.632  1.00  0.00     0.041 A 
ATOM     75  F   UNL     1      -8.557   1.040   8.575  1.00  0.00    -0.206 F 
ATOM     76  C   UNL     1     -11.487  -0.572   9.954  1.00  0.00     0.022 A 
BRANCH  73  77
ATOM     77  S   UNL     1     -14.215   0.005   9.944  1.00  0.00     0.124 S 
ATOM     78  O   UNL     1     -14.544   1.323  10.473  1.00  0.00    -0.237 OA
ATOM     79  O   UNL     1     -14.864  -0.365   8.691  1.00  0.00    -0.237 OA
ATOM     80  O   UNL     1     -14.126  -1.063  10.938  1.00  0.00    -0.744 OA
ENDBRANCH  73  77
ENDBRANCH  46  70
BRANCH  58  81
ATOM     81  C   UNL     1     -11.919   8.410   9.316  1.00  0.00     0.023 A 
ATOM     82  C   UNL     1     -11.525   8.353  10.665  1.00  0.00     0.031 A 
ATOM     83  C   UNL     1     -13.075   9.144   8.997  1.00  0.00     0.131 A 
ATOM     84  C   UNL     1     -12.325   8.946  11.653  1.00  0.00     0.055 A 
ATOM     85  C   UNL     1     -13.827   9.793   9.978  1.00  0.00     0.041 A 
ATOM     86  F   UNL     1     -13.500   9.234   7.727  1.00  0.00    -0.206 F 
ATOM     87  C   UNL     1     -13.465   9.679  11.317  1.00  0.00     0.022 A 
BRANCH  84  88
ATOM     88  S   UNL     1     -11.928   8.631  13.395  1.00  0.00     0.124 S 
ATOM     89  O   UNL     1     -11.918   7.172  13.446  1.00  0.00    -0.237 OA
ATOM     90  O   UNL     1     -10.630   9.282  13.541  1.00  0.00    -0.237 OA
ATOM     91  O   UNL     1     -13.026   9.269  14.118  1.00  0.00    -0.744 OA
ENDBRANCH  84  88
ENDBRANCH  58  81
ENDBRANCH  32  33
ENDBRANCH  25  27
ENDBRANCH  24  25
ENDBRANCH  23  24
ENDBRANCH   1  23
TORSDOF 19
