REMARK SMILES O=C(OCCOCCOC(=O)c1ccc(N2C(=O)[C@@H]3N=NC(c4ccccc4)=C3[C@H]2c2cccc(Br)c2)cc1)c1ccc(-c2c3nc(c(-c4cc(S(=O)(=O)[O-])ccc4F)c4ccc([nH]4)c(-c4cc(S(=O)(=O)[O-])ccc4F)c4nc(c(-c5cc(S(=O)(=O)[O-])ccc5F)c5ccc2[nH]5)C=C4)C=C3)cc1
REMARK SMILES IDX 5 1 4 2 3 3 2 4 1 5 40 6 41 7 102 8 42 9 101 10 43 11 44 12
REMARK SMILES IDX 45 13 95 14 46 15 100 16 94 17 96 18 47 19 99 20 93 21 92 22
REMARK SMILES IDX 48 24 80 25 60 26 79 27 61 28 64 29 78 30 97 31 62 32 63 33
REMARK SMILES IDX 77 35 98 36 65 37 49 38 50 39 58 40 51 41 57 42 59 43 56 44
REMARK SMILES IDX 52 45 53 46 54 47 55 48 81 49 82 50 90 51 83 52 89 53 91 54
REMARK SMILES IDX 88 55 84 56 85 57 86 58 87 59 66 60 67 61 75 62 68 63 74 64
REMARK SMILES IDX 76 65 73 66 69 67 70 68 71 69 72 70 6 71 7 72 8 73 9 74
REMARK SMILES IDX 10 75 11 76 12 77 13 78 39 79 14 80 38 81 15 82 16 83 17 84
REMARK SMILES IDX 30 85 19 86 18 87 29 88 20 89 22 90 21 91 31 92 32 93 37 94
REMARK SMILES IDX 33 95 35 96 34 97 36 98 23 99 24 100 28 101 25 102 27 103
REMARK SMILES IDX 26 104
REMARK H PARENT 96 23 64 34
REMARK Flexibility Score: inf
ROOT
ATOM      1  C   UNL     1       4.912  -0.443  -0.740  1.00  0.00     0.202 C 
ENDROOT
BRANCH   1   2
ATOM      2  C   UNL     1       4.506  -1.144   0.555  1.00  0.00     0.261 C 
BRANCH   2   3
ATOM      3  O   UNL     1       3.104  -1.450   0.599  1.00  0.00    -0.460 OA
BRANCH   3   4
ATOM      4  C   UNL     1       2.087  -0.579   0.774  1.00  0.00     0.338 C 
ATOM      5  O   UNL     1       1.024  -0.769   0.184  1.00  0.00    -0.246 OA
BRANCH   4   6
ATOM      6  C   UNL     1       2.148   0.473   1.817  1.00  0.00     0.060 A 
ATOM      7  C   UNL     1       3.307   0.994   2.389  1.00  0.00     0.016 A 
ATOM      8  C   UNL     1       0.900   0.869   2.325  1.00  0.00     0.016 A 
ATOM      9  C   UNL     1       3.240   1.611   3.623  1.00  0.00     0.010 A 
ATOM     10  C   UNL     1       0.821   1.556   3.517  1.00  0.00     0.010 A 
ATOM     11  C   UNL     1       1.994   1.825   4.210  1.00  0.00    -0.014 A 
BRANCH  11  12
ATOM     12  C   UNL     1       1.945   2.568   5.456  1.00  0.00     0.031 A 
ATOM     13  C   UNL     1       2.493   3.938   5.289  1.00  0.00     0.074 A 
ATOM     14  C   UNL     1       1.343   2.090   6.563  1.00  0.00     0.049 A 
ATOM     15  N   UNL     1       3.595   4.406   5.773  1.00  0.00    -0.248 NA
ATOM     16  C   UNL     1       1.896   4.797   4.247  1.00  0.00     0.031 C 
ATOM     17  C   UNL     1       0.612   0.829   6.705  1.00  0.00     0.029 A 
ATOM     18  N   UNL     1       1.158   2.675   7.778  1.00  0.00    -0.354 N 
ATOM     19  C   UNL     1       3.641   5.729   5.350  1.00  0.00     0.074 A 
ATOM     20  C   UNL     1       2.766   5.807   4.217  1.00  0.00     0.031 C 
ATOM     21  C   UNL     1      -0.139   0.870   7.830  1.00  0.00     0.029 A 
ATOM     22  C   UNL     1       0.138   2.107   8.544  1.00  0.00     0.049 A 
ATOM     23  H   UNL     1       1.698   3.436   8.091  1.00  0.00     0.167 HD
ATOM     24  C   UNL     1       4.083   6.696   6.201  1.00  0.00     0.034 A 
ATOM     25  C   UNL     1      -0.483   2.654   9.631  1.00  0.00     0.034 A 
ATOM     26  C   UNL     1       4.905   6.110   7.247  1.00  0.00     0.049 A 
ATOM     27  C   UNL     1       0.434   3.699  10.159  1.00  0.00     0.074 A 
ATOM     28  C   UNL     1       6.023   5.294   7.250  1.00  0.00     0.029 A 
ATOM     29  N   UNL     1       4.374   6.003   8.516  1.00  0.00    -0.354 N 
ATOM     30  N   UNL     1       1.596   3.420  10.685  1.00  0.00    -0.248 NA
ATOM     31  C   UNL     1       0.311   5.047   9.620  1.00  0.00     0.031 C 
ATOM     32  C   UNL     1       5.807   4.374   8.319  1.00  0.00     0.029 A 
ATOM     33  C   UNL     1       4.635   4.740   8.983  1.00  0.00     0.049 A 
ATOM     34  H   UNL     1       3.891   6.710   9.003  1.00  0.00     0.167 HD
ATOM     35  C   UNL     1       2.469   4.353  10.142  1.00  0.00     0.074 A 
ATOM     36  C   UNL     1       1.604   5.383   9.562  1.00  0.00     0.031 C 
ATOM     37  C   UNL     1       3.787   4.051   9.938  1.00  0.00     0.034 A 
BRANCH  24  38
ATOM     38  C   UNL     1       3.360   8.024   6.387  1.00  0.00     0.023 A 
ATOM     39  C   UNL     1       3.818   8.821   7.450  1.00  0.00     0.031 A 
ATOM     40  C   UNL     1       2.092   8.379   5.867  1.00  0.00     0.131 A 
ATOM     41  C   UNL     1       2.959   9.727   8.089  1.00  0.00     0.055 A 
ATOM     42  C   UNL     1       1.268   9.337   6.464  1.00  0.00     0.041 A 
ATOM     43  F   UNL     1       1.541   7.795   4.799  1.00  0.00    -0.206 F 
ATOM     44  C   UNL     1       1.678   9.981   7.615  1.00  0.00     0.022 A 
BRANCH  41  45
ATOM     45  S   UNL     1       3.483  10.377   9.692  1.00  0.00     0.124 S 
ATOM     46  O   UNL     1       3.679   9.139  10.437  1.00  0.00    -0.237 OA
ATOM     47  O   UNL     1       4.690  11.114   9.333  1.00  0.00    -0.237 OA
ATOM     48  O   UNL     1       2.349  11.197  10.109  1.00  0.00    -0.744 OA
ENDBRANCH  41  45
ENDBRANCH  24  38
BRANCH  25  49
ATOM     49  C   UNL     1      -1.935   2.567   9.995  1.00  0.00     0.023 A 
ATOM     50  C   UNL     1      -2.450   2.928  11.264  1.00  0.00     0.031 A 
ATOM     51  C   UNL     1      -2.894   2.336   8.980  1.00  0.00     0.131 A 
ATOM     52  C   UNL     1      -3.852   3.038  11.469  1.00  0.00     0.055 A 
ATOM     53  C   UNL     1      -4.271   2.444   9.188  1.00  0.00     0.041 A 
ATOM     54  F   UNL     1      -2.526   2.082   7.715  1.00  0.00    -0.206 F 
ATOM     55  C   UNL     1      -4.757   2.805  10.431  1.00  0.00     0.022 A 
BRANCH  52  56
ATOM     56  S   UNL     1      -4.541   3.568  13.077  1.00  0.00     0.124 S 
ATOM     57  O   UNL     1      -4.237   2.432  13.939  1.00  0.00    -0.237 OA
ATOM     58  O   UNL     1      -3.811   4.802  13.344  1.00  0.00    -0.237 OA
ATOM     59  O   UNL     1      -5.966   3.755  12.795  1.00  0.00    -0.744 OA
ENDBRANCH  52  56
ENDBRANCH  25  49
BRANCH  37  60
ATOM     60  C   UNL     1       4.362   2.819  10.609  1.00  0.00     0.023 A 
ATOM     61  C   UNL     1       3.864   1.502  10.474  1.00  0.00     0.031 A 
ATOM     62  C   UNL     1       5.541   2.995  11.355  1.00  0.00     0.131 A 
ATOM     63  C   UNL     1       4.535   0.429  11.096  1.00  0.00     0.055 A 
ATOM     64  C   UNL     1       6.212   1.929  11.949  1.00  0.00     0.041 A 
ATOM     65  F   UNL     1       6.082   4.216  11.497  1.00  0.00    -0.206 F 
ATOM     66  C   UNL     1       5.706   0.642  11.831  1.00  0.00     0.022 A 
BRANCH  63  67
ATOM     67  S   UNL     1       3.880  -1.270  10.997  1.00  0.00     0.124 S 
ATOM     68  O   UNL     1       2.453  -1.105  11.242  1.00  0.00    -0.237 OA
ATOM     69  O   UNL     1       4.255  -1.672   9.644  1.00  0.00    -0.237 OA
ATOM     70  O   UNL     1       4.603  -1.973  12.060  1.00  0.00    -0.744 OA
ENDBRANCH  63  67
ENDBRANCH  37  60
ENDBRANCH  11  12
ENDBRANCH   4   6
ENDBRANCH   3   4
ENDBRANCH   2   3
ENDBRANCH   1   2
BRANCH   1  71
ATOM     71  O   UNL     1       4.378   0.847  -1.016  1.00  0.00    -0.374 OA
BRANCH  71  72
ATOM     72  C   UNL     1       3.173   0.918  -1.784  1.00  0.00     0.202 C 
BRANCH  72  73
ATOM     73  C   UNL     1       3.176   0.486  -3.261  1.00  0.00     0.261 C 
BRANCH  73  74
ATOM     74  O   UNL     1       3.461  -0.914  -3.471  1.00  0.00    -0.460 OA
BRANCH  74  75
ATOM     75  C   UNL     1       4.713  -1.178  -3.929  1.00  0.00     0.338 C 
ATOM     76  O   UNL     1       5.575  -0.373  -4.210  1.00  0.00    -0.246 OA
BRANCH  75  77
ATOM     77  C   UNL     1       4.992  -2.633  -3.874  1.00  0.00     0.060 A 
ATOM     78  C   UNL     1       6.037  -3.058  -3.049  1.00  0.00     0.018 A 
ATOM     79  C   UNL     1       4.325  -3.556  -4.683  1.00  0.00     0.018 A 
ATOM     80  C   UNL     1       6.417  -4.401  -3.040  1.00  0.00     0.027 A 
ATOM     81  C   UNL     1       4.746  -4.902  -4.711  1.00  0.00     0.027 A 
ATOM     82  C   UNL     1       5.800  -5.328  -3.896  1.00  0.00     0.045 A 
BRANCH  82  83
ATOM     83  N   UNL     1       6.253  -6.684  -3.903  1.00  0.00    -0.299 N 
ATOM     84  C   UNL     1       6.452  -7.290  -2.617  1.00  0.00     0.259 C 
ATOM     85  C   UNL     1       7.330  -7.091  -4.841  1.00  0.00     0.152 C 
ATOM     86  C   UNL     1       7.671  -8.159  -2.704  1.00  0.00     0.248 C 
ATOM     87  O   UNL     1       5.782  -7.103  -1.611  1.00  0.00    -0.271 OA
ATOM     88  C   UNL     1       8.341  -7.443  -3.817  1.00  0.00     0.021 C 
ATOM     89  N   UNL     1       8.646  -8.027  -1.617  1.00  0.00    -0.170 NA
ATOM     90  C   UNL     1       9.573  -7.167  -3.397  1.00  0.00     0.097 C 
ATOM     91  N   UNL     1       9.736  -7.597  -2.092  1.00  0.00    -0.154 NA
BRANCH  85  92
ATOM     92  C   UNL     1       6.997  -8.328  -5.710  1.00  0.00    -0.020 A 
ATOM     93  C   UNL     1       7.773  -9.514  -5.630  1.00  0.00     0.006 A 
ATOM     94  C   UNL     1       5.954  -8.320  -6.648  1.00  0.00     0.022 A 
ATOM     95  C   UNL     1       7.492 -10.653  -6.386  1.00  0.00     0.002 A 
ATOM     96  C   UNL     1       5.700  -9.456  -7.438  1.00  0.00     0.018 A 
ATOM     97  C   UNL     1       6.451 -10.624  -7.298  1.00  0.00     0.016 A 
ATOM     98  Br  UNL     1       4.331  -9.417  -8.745  1.00  0.00    -0.051 Br
ENDBRANCH  85  92
BRANCH  90  99
ATOM     99  C   UNL     1      10.647  -6.349  -3.963  1.00  0.00     0.002 A 
ATOM    100  C   UNL     1      11.611  -6.908  -4.811  1.00  0.00     0.010 A 
ATOM    101  C   UNL     1      10.892  -5.099  -3.376  1.00  0.00     0.010 A 
ATOM    102  C   UNL     1      12.849  -6.274  -4.973  1.00  0.00     0.001 A 
ATOM    103  C   UNL     1      12.128  -4.473  -3.535  1.00  0.00     0.001 A 
ATOM    104  C   UNL     1      13.117  -5.077  -4.307  1.00  0.00     0.000 A 
ENDBRANCH  90  99
ENDBRANCH  82  83
ENDBRANCH  75  77
ENDBRANCH  74  75
ENDBRANCH  73  74
ENDBRANCH  72  73
ENDBRANCH  71  72
ENDBRANCH   1  71
TORSDOF 20
