REMARK SMILES O=C(OCCOCCOC(=O)c1cccc(Nc2ccc([N+](=O)[O-])cc2)c1)c1ccc(-c2c3nc(c(-c4cc(S(=O)(=O)[O-])ccc4F)c4ccc([nH]4)c(-c4cc(S(=O)(=O)[O-])ccc4F)c4nc(c(-c5cc(S(=O)(=O)[O-])ccc5F)c5ccc2[nH]5)C=C4)C=C3)cc1
REMARK SMILES IDX 6 1 5 2 4 3 3 4 2 5 1 6 28 7 29 8 90 9 30 10 89 11 31 12
REMARK SMILES IDX 32 13 33 14 83 15 34 16 88 17 82 18 84 19 35 20 87 21 81 22
REMARK SMILES IDX 80 23 36 25 68 26 48 27 67 28 49 29 52 30 66 31 85 32 50 33
REMARK SMILES IDX 51 34 65 36 86 37 53 38 37 39 38 40 46 41 39 42 45 43 47 44
REMARK SMILES IDX 44 45 40 46 41 47 42 48 43 49 69 50 70 51 78 52 71 53 77 54
REMARK SMILES IDX 79 55 76 56 72 57 73 58 74 59 75 60 54 61 55 62 63 63 56 64
REMARK SMILES IDX 62 65 64 66 61 67 57 68 58 69 59 70 60 71 7 72 8 73 9 74
REMARK SMILES IDX 10 75 11 76 12 77 13 78 27 79 14 80 16 81 15 82 17 83 18 85
REMARK SMILES IDX 19 86 26 87 20 88 25 89 21 90 22 91 23 92 24 93
REMARK H PARENT 84 24 52 35 17 84
REMARK Flexibility Score: inf
ROOT
ATOM      1  O   UNL     1       4.049   0.702  -1.468  1.00  0.00    -0.374 OA
ENDROOT
BRANCH   1   2
ATOM      2  C   UNL     1       4.245  -0.712  -1.529  1.00  0.00     0.202 C 
BRANCH   2   3
ATOM      3  C   UNL     1       3.878  -1.463  -0.246  1.00  0.00     0.261 C 
BRANCH   3   4
ATOM      4  O   UNL     1       2.504  -1.223   0.100  1.00  0.00    -0.460 OA
BRANCH   4   5
ATOM      5  C   UNL     1       2.010  -0.372   1.031  1.00  0.00     0.338 C 
ATOM      6  O   UNL     1       0.790  -0.317   1.180  1.00  0.00    -0.246 OA
BRANCH   5   7
ATOM      7  C   UNL     1       2.861   0.503   1.895  1.00  0.00     0.060 A 
ATOM      8  C   UNL     1       4.120   0.992   1.546  1.00  0.00     0.016 A 
ATOM      9  C   UNL     1       2.309   0.926   3.118  1.00  0.00     0.016 A 
ATOM     10  C   UNL     1       4.852   1.796   2.404  1.00  0.00     0.010 A 
ATOM     11  C   UNL     1       3.020   1.777   3.972  1.00  0.00     0.010 A 
ATOM     12  C   UNL     1       4.310   2.189   3.624  1.00  0.00    -0.014 A 
BRANCH  12  13
ATOM     13  C   UNL     1       5.201   2.909   4.551  1.00  0.00     0.031 A 
ATOM     14  C   UNL     1       5.817   2.135   5.676  1.00  0.00     0.074 A 
ATOM     15  C   UNL     1       5.580   4.166   4.259  1.00  0.00     0.049 A 
ATOM     16  N   UNL     1       6.661   2.527   6.590  1.00  0.00    -0.248 NA
ATOM     17  C   UNL     1       5.442   0.714   5.770  1.00  0.00     0.031 C 
ATOM     18  C   UNL     1       5.124   4.929   3.093  1.00  0.00     0.029 A 
ATOM     19  N   UNL     1       6.466   5.004   4.878  1.00  0.00    -0.354 N 
ATOM     20  C   UNL     1       6.901   1.410   7.382  1.00  0.00     0.074 A 
ATOM     21  C   UNL     1       6.103   0.330   6.849  1.00  0.00     0.031 C 
ATOM     22  C   UNL     1       5.768   6.107   3.061  1.00  0.00     0.029 A 
ATOM     23  C   UNL     1       6.622   6.212   4.238  1.00  0.00     0.049 A 
ATOM     24  H   UNL     1       6.948   4.765   5.703  1.00  0.00     0.167 HD
ATOM     25  C   UNL     1       7.713   1.310   8.462  1.00  0.00     0.034 A 
ATOM     26  C   UNL     1       7.357   7.286   4.588  1.00  0.00     0.034 A 
ATOM     27  C   UNL     1       8.477   2.424   8.965  1.00  0.00     0.049 A 
ATOM     28  C   UNL     1       8.170   7.183   5.855  1.00  0.00     0.074 A 
ATOM     29  C   UNL     1       9.265   2.499  10.098  1.00  0.00     0.029 A 
ATOM     30  N   UNL     1       8.539   3.674   8.353  1.00  0.00    -0.354 N 
ATOM     31  N   UNL     1       8.323   6.150   6.657  1.00  0.00    -0.248 NA
ATOM     32  C   UNL     1       8.902   8.383   6.270  1.00  0.00     0.031 C 
ATOM     33  C   UNL     1       9.750   3.808  10.204  1.00  0.00     0.029 A 
ATOM     34  C   UNL     1       9.331   4.532   9.097  1.00  0.00     0.049 A 
ATOM     35  H   UNL     1       8.085   3.913   7.513  1.00  0.00     0.167 HD
ATOM     36  C   UNL     1       9.188   6.572   7.660  1.00  0.00     0.074 A 
ATOM     37  C   UNL     1       9.540   7.944   7.345  1.00  0.00     0.031 C 
ATOM     38  C   UNL     1       9.650   5.898   8.746  1.00  0.00     0.034 A 
BRANCH  25  39
ATOM     39  C   UNL     1       7.697  -0.005   9.203  1.00  0.00     0.023 A 
ATOM     40  C   UNL     1       8.137  -1.204   8.611  1.00  0.00     0.031 A 
ATOM     41  C   UNL     1       7.119  -0.079  10.482  1.00  0.00     0.131 A 
ATOM     42  C   UNL     1       7.904  -2.430   9.256  1.00  0.00     0.055 A 
ATOM     43  C   UNL     1       6.969  -1.293  11.156  1.00  0.00     0.041 A 
ATOM     44  F   UNL     1       6.650   1.025  11.085  1.00  0.00    -0.206 F 
ATOM     45  C   UNL     1       7.344  -2.480  10.535  1.00  0.00     0.022 A 
BRANCH  42  46
ATOM     46  S   UNL     1       8.175  -3.967   8.329  1.00  0.00     0.124 S 
ATOM     47  O   UNL     1       7.266  -3.794   7.198  1.00  0.00    -0.237 OA
ATOM     48  O   UNL     1       9.598  -3.904   8.019  1.00  0.00    -0.237 OA
ATOM     49  O   UNL     1       7.788  -5.012   9.274  1.00  0.00    -0.744 OA
ENDBRANCH  42  46
ENDBRANCH  25  39
BRANCH  26  50
ATOM     50  C   UNL     1       7.312   8.546   3.787  1.00  0.00     0.023 A 
ATOM     51  C   UNL     1       8.472   9.100   3.220  1.00  0.00     0.031 A 
ATOM     52  C   UNL     1       6.104   9.250   3.620  1.00  0.00     0.131 A 
ATOM     53  C   UNL     1       8.406  10.336   2.552  1.00  0.00     0.055 A 
ATOM     54  C   UNL     1       6.033  10.447   2.905  1.00  0.00     0.041 A 
ATOM     55  F   UNL     1       4.963   8.778   4.147  1.00  0.00    -0.206 F 
ATOM     56  C   UNL     1       7.192  11.005   2.379  1.00  0.00     0.022 A 
BRANCH  53  57
ATOM     57  S   UNL     1       9.949  11.112   1.994  1.00  0.00     0.124 S 
ATOM     58  O   UNL     1      10.712  11.183   3.234  1.00  0.00    -0.237 OA
ATOM     59  O   UNL     1      10.426  10.156   1.000  1.00  0.00    -0.237 OA
ATOM     60  O   UNL     1       9.508  12.398   1.458  1.00  0.00    -0.744 OA
ENDBRANCH  53  57
ENDBRANCH  26  50
BRANCH  38  61
ATOM     61  C   UNL     1      10.621   6.638   9.629  1.00  0.00     0.023 A 
ATOM     62  C   UNL     1      10.225   7.755  10.385  1.00  0.00     0.031 A 
ATOM     63  C   UNL     1      11.964   6.229   9.696  1.00  0.00     0.131 A 
ATOM     64  C   UNL     1      11.180   8.466  11.125  1.00  0.00     0.055 A 
ATOM     65  C   UNL     1      12.895   6.901  10.487  1.00  0.00     0.041 A 
ATOM     66  F   UNL     1      12.391   5.168   8.993  1.00  0.00    -0.206 F 
ATOM     67  C   UNL     1      12.508   8.036  11.195  1.00  0.00     0.022 A 
BRANCH  64  68
ATOM     68  S   UNL     1      10.684  10.024  11.908  1.00  0.00     0.124 S 
ATOM     69  O   UNL     1      10.196  10.794  10.769  1.00  0.00    -0.237 OA
ATOM     70  O   UNL     1       9.670   9.585  12.861  1.00  0.00    -0.237 OA
ATOM     71  O   UNL     1      11.924  10.516  12.505  1.00  0.00    -0.744 OA
ENDBRANCH  64  68
ENDBRANCH  38  61
ENDBRANCH  12  13
ENDBRANCH   5   7
ENDBRANCH   4   5
ENDBRANCH   3   4
ENDBRANCH   2   3
ENDBRANCH   1   2
BRANCH   1  72
ATOM     72  C   UNL     1       2.735   1.168  -1.794  1.00  0.00     0.202 C 
BRANCH  72  73
ATOM     73  C   UNL     1       2.825   2.233  -2.890  1.00  0.00     0.261 C 
BRANCH  73  74
ATOM     74  O   UNL     1       3.400   1.628  -4.058  1.00  0.00    -0.460 OA
BRANCH  74  75
ATOM     75  C   UNL     1       4.757   1.670  -4.099  1.00  0.00     0.338 C 
ATOM     76  O   UNL     1       5.497   2.449  -3.524  1.00  0.00    -0.246 OA
BRANCH  75  77
ATOM     77  C   UNL     1       5.217   0.456  -4.799  1.00  0.00     0.062 A 
ATOM     78  C   UNL     1       6.310  -0.241  -4.276  1.00  0.00     0.016 A 
ATOM     79  C   UNL     1       4.531  -0.030  -5.916  1.00  0.00     0.041 A 
ATOM     80  C   UNL     1       6.681  -1.457  -4.839  1.00  0.00     0.003 A 
ATOM     81  C   UNL     1       4.945  -1.211  -6.536  1.00  0.00     0.039 A 
ATOM     82  C   UNL     1       5.999  -1.937  -5.960  1.00  0.00     0.026 A 
BRANCH  81  83
ATOM     83  N   UNL     1       4.284  -1.634  -7.710  1.00  0.00    -0.355 N 
ATOM     84  H   UNL     1       3.361  -1.320  -7.851  1.00  0.00     0.167 HD
BRANCH  83  85
ATOM     85  C   UNL     1       4.845  -2.468  -8.690  1.00  0.00     0.039 A 
ATOM     86  C   UNL     1       5.538  -1.896  -9.765  1.00  0.00     0.033 A 
ATOM     87  C   UNL     1       4.805  -3.859  -8.553  1.00  0.00     0.033 A 
ATOM     88  C   UNL     1       6.204  -2.703 -10.688  1.00  0.00     0.088 A 
ATOM     89  C   UNL     1       5.462  -4.678  -9.474  1.00  0.00     0.088 A 
ATOM     90  C   UNL     1       6.167  -4.094 -10.534  1.00  0.00     0.269 A 
BRANCH  90  91
ATOM     91  N   UNL     1       6.889  -4.946 -11.485  1.00  0.00     0.062 N 
ATOM     92  O   UNL     1       7.486  -4.391 -12.419  1.00  0.00    -0.258 OA
ATOM     93  O   UNL     1       6.856  -6.172 -11.304  1.00  0.00    -0.258 OA
ENDBRANCH  90  91
ENDBRANCH  83  85
ENDBRANCH  81  83
ENDBRANCH  75  77
ENDBRANCH  74  75
ENDBRANCH  73  74
ENDBRANCH  72  73
ENDBRANCH   1  72
TORSDOF 20
