REMARK SMILES O=C(OCCOCCOC(=O)[C@@H]1CC=CC[C@H]1C(=O)N1CC[NH+](Cc2ccc3c(c2)OCO3)CC1)c1ccc(-c2c3nc(c(-c4cc(S(=O)(=O)[O-])ccc4F)c4ccc([nH]4)c(-c4cc(S(=O)(=O)[O-])ccc4F)c4nc(c(-c5cc(S(=O)(=O)[O-])ccc5F)c5ccc2[nH]5)C=C4)C=C3)cc1
REMARK SMILES IDX 6 1 5 2 4 3 3 4 2 5 1 6 36 7 37 8 98 9 38 10 97 11 39 12
REMARK SMILES IDX 40 13 41 14 91 15 42 16 96 17 90 18 92 19 43 20 95 21 89 22
REMARK SMILES IDX 88 23 44 25 76 26 56 27 75 28 57 29 60 30 74 31 93 32 58 33
REMARK SMILES IDX 59 34 73 36 94 37 61 38 45 39 46 40 54 41 47 42 53 43 55 44
REMARK SMILES IDX 52 45 48 46 49 47 50 48 51 49 77 50 78 51 86 52 79 53 85 54
REMARK SMILES IDX 87 55 84 56 80 57 81 58 82 59 83 60 62 61 63 62 71 63 64 64
REMARK SMILES IDX 70 65 72 66 69 67 65 68 66 69 67 70 68 71 7 72 8 73 9 74
REMARK SMILES IDX 10 75 11 76 12 77 13 78 17 79 14 80 16 81 15 82 18 83 19 84
REMARK SMILES IDX 20 85 21 86 35 87 22 88 34 89 23 90 24 92 25 93 26 94 30 95
REMARK SMILES IDX 27 96 29 97 28 98 31 99 33 100 32 101
REMARK H PARENT 92 24 60 35 23 91
REMARK Flexibility Score: inf
ROOT
ATOM      1  O   UNL     1       3.697  -6.525  -0.252  1.00  0.00    -0.374 OA
ENDROOT
BRANCH   1   2
ATOM      2  C   UNL     1       4.661  -5.841   0.549  1.00  0.00     0.202 C 
BRANCH   2   3
ATOM      3  C   UNL     1       5.210  -6.607   1.757  1.00  0.00     0.261 C 
BRANCH   3   4
ATOM      4  O   UNL     1       5.662  -7.915   1.363  1.00  0.00    -0.460 OA
BRANCH   4   5
ATOM      5  C   UNL     1       4.967  -9.075   1.463  1.00  0.00     0.338 C 
ATOM      6  O   UNL     1       5.481 -10.119   1.066  1.00  0.00    -0.246 OA
BRANCH   5   7
ATOM      7  C   UNL     1       3.605  -9.141   2.066  1.00  0.00     0.060 A 
ATOM      8  C   UNL     1       2.667  -8.120   1.959  1.00  0.00     0.016 A 
ATOM      9  C   UNL     1       3.224 -10.317   2.728  1.00  0.00     0.016 A 
ATOM     10  C   UNL     1       1.426  -8.201   2.538  1.00  0.00     0.010 A 
ATOM     11  C   UNL     1       1.940 -10.437   3.274  1.00  0.00     0.010 A 
ATOM     12  C   UNL     1       1.043  -9.367   3.174  1.00  0.00    -0.014 A 
BRANCH  12  13
ATOM     13  C   UNL     1      -0.267  -9.323   3.830  1.00  0.00     0.031 A 
ATOM     14  C   UNL     1      -0.292  -9.125   5.307  1.00  0.00     0.074 A 
ATOM     15  C   UNL     1      -1.377  -9.231   3.076  1.00  0.00     0.049 A 
ATOM     16  N   UNL     1      -1.299  -9.180   6.128  1.00  0.00    -0.248 NA
ATOM     17  C   UNL     1       0.999  -8.813   5.940  1.00  0.00     0.031 C 
ATOM     18  C   UNL     1      -1.398  -9.182   1.609  1.00  0.00     0.029 A 
ATOM     19  N   UNL     1      -2.690  -9.113   3.429  1.00  0.00    -0.354 N 
ATOM     20  C   UNL     1      -0.755  -8.978   7.390  1.00  0.00     0.074 A 
ATOM     21  C   UNL     1       0.666  -8.773   7.219  1.00  0.00     0.031 C 
ATOM     22  C   UNL     1      -2.664  -9.022   1.194  1.00  0.00     0.029 A 
ATOM     23  C   UNL     1      -3.545  -9.084   2.353  1.00  0.00     0.049 A 
ATOM     24  H   UNL     1      -2.996  -9.054   4.364  1.00  0.00     0.167 HD
ATOM     25  C   UNL     1      -1.406  -9.003   8.577  1.00  0.00     0.034 A 
ATOM     26  C   UNL     1      -4.887  -9.181   2.322  1.00  0.00     0.034 A 
ATOM     27  C   UNL     1      -2.828  -9.221   8.660  1.00  0.00     0.049 A 
ATOM     28  C   UNL     1      -5.585  -9.345   3.650  1.00  0.00     0.074 A 
ATOM     29  C   UNL     1      -3.621  -9.399   9.777  1.00  0.00     0.029 A 
ATOM     30  N   UNL     1      -3.674  -9.292   7.554  1.00  0.00    -0.354 N 
ATOM     31  N   UNL     1      -5.064  -9.337   4.859  1.00  0.00    -0.248 NA
ATOM     32  C   UNL     1      -7.033  -9.559   3.615  1.00  0.00     0.031 C 
ATOM     33  C   UNL     1      -4.930  -9.643   9.342  1.00  0.00     0.029 A 
ATOM     34  C   UNL     1      -4.974  -9.531   7.958  1.00  0.00     0.049 A 
ATOM     35  H   UNL     1      -3.386  -9.186   6.618  1.00  0.00     0.167 HD
ATOM     36  C   UNL     1      -6.126  -9.532   5.733  1.00  0.00     0.074 A 
ATOM     37  C   UNL     1      -7.317  -9.634   4.908  1.00  0.00     0.031 C 
ATOM     38  C   UNL     1      -6.128  -9.623   7.089  1.00  0.00     0.034 A 
BRANCH  25  39
ATOM     39  C   UNL     1      -0.548  -8.955   9.817  1.00  0.00     0.023 A 
ATOM     40  C   UNL     1       0.260  -7.847  10.130  1.00  0.00     0.031 A 
ATOM     41  C   UNL     1      -0.425 -10.105  10.618  1.00  0.00     0.131 A 
ATOM     42  C   UNL     1       1.227  -7.953  11.144  1.00  0.00     0.055 A 
ATOM     43  C   UNL     1       0.472 -10.169  11.686  1.00  0.00     0.041 A 
ATOM     44  F   UNL     1      -1.140 -11.208  10.346  1.00  0.00    -0.206 F 
ATOM     45  C   UNL     1       1.321  -9.097  11.940  1.00  0.00     0.022 A 
BRANCH  42  46
ATOM     46  S   UNL     1       2.494  -6.658  11.274  1.00  0.00     0.124 S 
ATOM     47  O   UNL     1       3.117  -6.724   9.954  1.00  0.00    -0.237 OA
ATOM     48  O   UNL     1       1.700  -5.466  11.547  1.00  0.00    -0.237 OA
ATOM     49  O   UNL     1       3.338  -7.113  12.377  1.00  0.00    -0.744 OA
ENDBRANCH  42  46
ENDBRANCH  25  39
BRANCH  26  50
ATOM     50  C   UNL     1      -5.621  -9.252   1.025  1.00  0.00     0.023 A 
ATOM     51  C   UNL     1      -6.614  -8.320   0.691  1.00  0.00     0.031 A 
ATOM     52  C   UNL     1      -5.359 -10.286   0.102  1.00  0.00     0.131 A 
ATOM     53  C   UNL     1      -7.328  -8.456  -0.513  1.00  0.00     0.055 A 
ATOM     54  C   UNL     1      -6.028 -10.382  -1.119  1.00  0.00     0.041 A 
ATOM     55  F   UNL     1      -4.429 -11.218   0.369  1.00  0.00    -0.206 F 
ATOM     56  C   UNL     1      -7.029  -9.470  -1.427  1.00  0.00     0.022 A 
BRANCH  53  57
ATOM     57  S   UNL     1      -8.718  -7.335  -0.835  1.00  0.00     0.124 S 
ATOM     58  O   UNL     1      -9.574  -7.588   0.319  1.00  0.00    -0.237 OA
ATOM     59  O   UNL     1      -8.056  -6.036  -0.872  1.00  0.00    -0.237 OA
ATOM     60  O   UNL     1      -9.242  -7.803  -2.116  1.00  0.00    -0.744 OA
ENDBRANCH  53  57
ENDBRANCH  26  50
BRANCH  38  61
ATOM     61  C   UNL     1      -7.471  -9.781   7.750  1.00  0.00     0.023 A 
ATOM     62  C   UNL     1      -8.225 -10.958   7.624  1.00  0.00     0.031 A 
ATOM     63  C   UNL     1      -7.988  -8.733   8.532  1.00  0.00     0.131 A 
ATOM     64  C   UNL     1      -9.483 -11.042   8.236  1.00  0.00     0.055 A 
ATOM     65  C   UNL     1      -9.210  -8.848   9.190  1.00  0.00     0.041 A 
ATOM     66  F   UNL     1      -7.303  -7.588   8.678  1.00  0.00    -0.206 F 
ATOM     67  C   UNL     1      -9.970 -10.003   9.034  1.00  0.00     0.022 A 
BRANCH  64  68
ATOM     68  S   UNL     1     -10.513 -12.497   7.907  1.00  0.00     0.124 S 
ATOM     69  O   UNL     1     -10.659 -12.442   6.456  1.00  0.00    -0.237 OA
ATOM     70  O   UNL     1      -9.691 -13.586   8.424  1.00  0.00    -0.237 OA
ATOM     71  O   UNL     1     -11.734 -12.229   8.664  1.00  0.00    -0.744 OA
ENDBRANCH  64  68
ENDBRANCH  38  61
ENDBRANCH  12  13
ENDBRANCH   5   7
ENDBRANCH   4   5
ENDBRANCH   3   4
ENDBRANCH   2   3
ENDBRANCH   1   2
BRANCH   1  72
ATOM     72  C   UNL     1       4.212  -7.318  -1.313  1.00  0.00     0.202 C 
BRANCH  72  73
ATOM     73  C   UNL     1       4.048  -6.574  -2.631  1.00  0.00     0.261 C 
BRANCH  73  74
ATOM     74  O   UNL     1       4.872  -5.392  -2.608  1.00  0.00    -0.463 OA
BRANCH  74  75
ATOM     75  C   UNL     1       4.267  -4.238  -2.217  1.00  0.00     0.310 C 
ATOM     76  O   UNL     1       3.066  -4.133  -1.999  1.00  0.00    -0.252 OA
BRANCH  75  77
ATOM     77  C   UNL     1       5.248  -3.074  -2.099  1.00  0.00     0.115 C 
ATOM     78  C   UNL     1       6.467  -3.332  -3.019  1.00  0.00     0.043 C 
ATOM     79  C   UNL     1       5.757  -2.760  -0.681  1.00  0.00     0.097 C 
ATOM     80  C   UNL     1       7.542  -2.295  -2.897  1.00  0.00    -0.030 C 
ATOM     81  C   UNL     1       6.676  -1.516  -0.696  1.00  0.00     0.041 C 
ATOM     82  C   UNL     1       7.627  -1.467  -1.849  1.00  0.00    -0.030 C 
BRANCH  79  83
ATOM     83  C   UNL     1       4.867  -2.537   0.548  1.00  0.00     0.227 C 
ATOM     84  O   UNL     1       5.256  -3.017   1.622  1.00  0.00    -0.275 OA
ATOM     85  N   UNL     1       3.873  -1.579   0.526  1.00  0.00    -0.331 N 
ATOM     86  C   UNL     1       3.594  -0.891   1.784  1.00  0.00     0.181 C 
ATOM     87  C   UNL     1       2.715  -1.667  -0.356  1.00  0.00     0.181 C 
ATOM     88  C   UNL     1       2.890   0.462   1.567  1.00  0.00     0.284 C 
ATOM     89  C   UNL     1       2.002  -0.321  -0.559  1.00  0.00     0.284 C 
ATOM     90  N   UNL     1       1.745   0.471   0.647  1.00  0.00    -0.328 N 
ATOM     91  H   UNL     1       1.667   1.439   0.333  1.00  0.00     0.348 HD
BRANCH  90  92
ATOM     92  C   UNL     1       0.426   0.279   1.257  1.00  0.00     0.299 C 
BRANCH  92  93
ATOM     93  C   UNL     1       0.104  -1.094   1.796  1.00  0.00     0.010 A 
ATOM     94  C   UNL     1       0.525  -1.476   3.092  1.00  0.00     0.013 A 
ATOM     95  C   UNL     1      -0.610  -2.014   1.010  1.00  0.00     0.060 A 
ATOM     96  C   UNL     1       0.323  -2.776   3.565  1.00  0.00     0.051 A 
ATOM     97  C   UNL     1      -0.817  -3.280   1.513  1.00  0.00     0.166 A 
ATOM     98  C   UNL     1      -0.344  -3.658   2.746  1.00  0.00     0.165 A 
ATOM     99  O   UNL     1      -1.471  -4.287   0.875  1.00  0.00    -0.454 OA
ATOM    100  O   UNL     1      -0.612  -4.960   3.026  1.00  0.00    -0.454 OA
ATOM    101  C   UNL     1      -1.375  -5.339   1.860  1.00  0.00     0.468 C 
ENDBRANCH  92  93
ENDBRANCH  90  92
ENDBRANCH  79  83
ENDBRANCH  75  77
ENDBRANCH  74  75
ENDBRANCH  73  74
ENDBRANCH  72  73
ENDBRANCH   1  72
TORSDOF 20
