REMARK SMILES CC(C)CCc1cc2c(cc1Cl)C=C(C(=O)OCCOCCOC(=O)c1ccc(-c3c4nc(c(-c5cc(S(=O)(=O)[O-])ccc5F)c5ccc([nH]5)c(-c5cc(S(=O)(=O)[O-])ccc5F)c5nc(c(-c6cc(S(=O)(=O)[O-])ccc6F)c6ccc3[nH]6)C=C5)C=C4)cc1)[C@@H](C(F)(F)F)O2
REMARK SMILES IDX 20 1 19 2 18 3 17 4 15 5 16 6 14 7 6 8 7 9 11 10 8 11 10 12
REMARK SMILES IDX 12 13 9 14 94 15 13 16 89 17 5 18 4 19 2 20 1 21 3 22 90 23
REMARK SMILES IDX 91 24 92 25 93 26 21 27 22 28 23 29 24 30 25 31 26 32 27 33
REMARK SMILES IDX 88 34 28 35 87 36 29 37 30 38 31 39 81 40 32 41 86 42 80 43
REMARK SMILES IDX 82 44 33 45 85 46 79 47 78 48 34 50 66 51 46 52 65 53 47 54
REMARK SMILES IDX 50 55 64 56 83 57 48 58 49 59 63 61 84 62 51 63 35 64 36 65
REMARK SMILES IDX 44 66 37 67 43 68 45 69 42 70 38 71 39 72 40 73 41 74 67 75
REMARK SMILES IDX 68 76 76 77 69 78 75 79 77 80 74 81 70 82 71 83 72 84 73 85
REMARK SMILES IDX 52 86 53 87 61 88 54 89 60 90 62 91 59 92 55 93 56 94 57 95
REMARK SMILES IDX 58 96
REMARK H PARENT 82 49 50 60
REMARK Flexibility Score: inf
ROOT
ATOM      1  O   UNL     1      -0.045   4.236  10.744  1.00  0.00    -0.374 OA
ENDROOT
BRANCH   1   2
ATOM      2  C   UNL     1       0.335   5.604  10.614  1.00  0.00     0.202 C 
BRANCH   2   3
ATOM      3  C   UNL     1       1.255   5.982   9.448  1.00  0.00     0.261 C 
BRANCH   3   4
ATOM      4  O   UNL     1       0.715   5.578   8.181  1.00  0.00    -0.460 OA
BRANCH   4   5
ATOM      5  C   UNL     1       1.367   4.546   7.598  1.00  0.00     0.338 C 
ATOM      6  O   UNL     1       2.394   4.012   7.984  1.00  0.00    -0.246 OA
BRANCH   5   7
ATOM      7  C   UNL     1       0.571   4.034   6.466  1.00  0.00     0.087 C 
ATOM      8  C   UNL     1      -1.138   1.113   2.763  1.00  0.00    -0.026 A 
ATOM      9  C   UNL     1      -1.265   2.481   3.082  1.00  0.00     0.052 A 
ATOM     10  C   UNL     1      -0.576   0.261   3.727  1.00  0.00     0.045 A 
ATOM     11  C   UNL     1      -0.745   2.997   4.269  1.00  0.00     0.128 A 
ATOM     12  C   UNL     1      -0.069   0.777   4.923  1.00  0.00     0.032 A 
ATOM     13  Cl  UNL     1      -0.452  -1.449   3.503  1.00  0.00    -0.084 Cl
ATOM     14  C   UNL     1      -0.117   2.149   5.175  1.00  0.00     0.019 A 
ATOM     15  O   UNL     1      -0.884   4.342   4.461  1.00  0.00    -0.475 OA
ATOM     16  C   UNL     1       0.541   2.701   6.342  1.00  0.00     0.027 C 
ATOM     17  C   UNL     1      -0.122   4.983   5.526  1.00  0.00     0.316 C 
BRANCH   8  18
ATOM     18  C   UNL     1      -1.589   0.634   1.400  1.00  0.00     0.037 C 
BRANCH  18  19
ATOM     19  C   UNL     1      -0.950   1.389   0.218  1.00  0.00     0.008 C 
BRANCH  19  20
ATOM     20  C   UNL     1       0.593   1.378   0.172  1.00  0.00    -0.017 C 
ATOM     21  C   UNL     1       1.163  -0.028  -0.015  1.00  0.00     0.007 C 
ATOM     22  C   UNL     1       1.083   2.286  -0.960  1.00  0.00     0.007 C 
ENDBRANCH  19  20
ENDBRANCH  18  19
ENDBRANCH   8  18
BRANCH  17  23
ATOM     23  C   UNL     1       0.849   5.991   4.893  1.00  0.00     0.430 C 
ATOM     24  F   UNL     1       0.217   6.784   3.996  1.00  0.00    -0.167 F 
ATOM     25  F   UNL     1       1.401   6.807   5.819  1.00  0.00    -0.167 F 
ATOM     26  F   UNL     1       1.861   5.370   4.244  1.00  0.00    -0.167 F 
ENDBRANCH  17  23
ENDBRANCH   5   7
ENDBRANCH   4   5
ENDBRANCH   3   4
ENDBRANCH   2   3
ENDBRANCH   1   2
BRANCH   1  27
ATOM     27  C   UNL     1      -1.028   3.713   9.852  1.00  0.00     0.202 C 
BRANCH  27  28
ATOM     28  C   UNL     1      -2.482   4.181   9.992  1.00  0.00     0.261 C 
BRANCH  28  29
ATOM     29  O   UNL     1      -2.654   5.579   9.708  1.00  0.00    -0.460 OA
BRANCH  29  30
ATOM     30  C   UNL     1      -2.922   6.349  10.794  1.00  0.00     0.338 C 
ATOM     31  O   UNL     1      -3.042   5.970  11.950  1.00  0.00    -0.246 OA
BRANCH  30  32
ATOM     32  C   UNL     1      -2.842   7.770  10.413  1.00  0.00     0.060 A 
ATOM     33  C   UNL     1      -3.625   8.285   9.379  1.00  0.00     0.016 A 
ATOM     34  C   UNL     1      -1.989   8.606  11.146  1.00  0.00     0.016 A 
ATOM     35  C   UNL     1      -3.572   9.653   9.100  1.00  0.00     0.010 A 
ATOM     36  C   UNL     1      -1.938   9.970  10.865  1.00  0.00     0.010 A 
ATOM     37  C   UNL     1      -2.747  10.509   9.855  1.00  0.00    -0.014 A 
BRANCH  37  38
ATOM     38  C   UNL     1      -2.853  11.981   9.696  1.00  0.00     0.031 A 
ATOM     39  C   UNL     1      -1.770  12.784   9.043  1.00  0.00     0.074 A 
ATOM     40  C   UNL     1      -3.947  12.593  10.189  1.00  0.00     0.049 A 
ATOM     41  N   UNL     1      -1.748  14.065   8.783  1.00  0.00    -0.248 NA
ATOM     42  C   UNL     1      -0.554  12.065   8.636  1.00  0.00     0.031 C 
ATOM     43  C   UNL     1      -5.036  11.909  10.887  1.00  0.00     0.029 A 
ATOM     44  N   UNL     1      -4.330  13.911  10.184  1.00  0.00    -0.354 N 
ATOM     45  C   UNL     1      -0.527  14.309   8.166  1.00  0.00     0.074 A 
ATOM     46  C   UNL     1       0.185  13.049   8.138  1.00  0.00     0.031 C 
ATOM     47  C   UNL     1      -5.978  12.804  11.214  1.00  0.00     0.029 A 
ATOM     48  C   UNL     1      -5.544  14.134  10.792  1.00  0.00     0.049 A 
ATOM     49  H   UNL     1      -3.788  14.628   9.783  1.00  0.00     0.167 HD
ATOM     50  C   UNL     1      -0.063  15.475   7.656  1.00  0.00     0.034 A 
ATOM     51  C   UNL     1      -6.234  15.277  10.991  1.00  0.00     0.034 A 
ATOM     52  C   UNL     1      -0.790  16.721   7.708  1.00  0.00     0.049 A 
ATOM     53  C   UNL     1      -5.681  16.565  10.439  1.00  0.00     0.074 A 
ATOM     54  C   UNL     1      -0.425  17.943   7.170  1.00  0.00     0.029 A 
ATOM     55  N   UNL     1      -2.012  16.916   8.338  1.00  0.00    -0.354 N 
ATOM     56  N   UNL     1      -4.579  16.759   9.753  1.00  0.00    -0.248 NA
ATOM     57  C   UNL     1      -6.464  17.786  10.668  1.00  0.00     0.031 C 
ATOM     58  C   UNL     1      -1.376  18.890   7.547  1.00  0.00     0.029 A 
ATOM     59  C   UNL     1      -2.391  18.246   8.236  1.00  0.00     0.049 A 
ATOM     60  H   UNL     1      -2.533  16.214   8.790  1.00  0.00     0.167 HD
ATOM     61  C   UNL     1      -4.551  18.117   9.445  1.00  0.00     0.074 A 
ATOM     62  C   UNL     1      -5.760  18.691   9.999  1.00  0.00     0.031 C 
ATOM     63  C   UNL     1      -3.606  18.819   8.771  1.00  0.00     0.034 A 
BRANCH  50  64
ATOM     64  C   UNL     1       1.280  15.488   6.964  1.00  0.00     0.023 A 
ATOM     65  C   UNL     1       2.310  16.325   7.438  1.00  0.00     0.031 A 
ATOM     66  C   UNL     1       1.482  14.813   5.747  1.00  0.00     0.131 A 
ATOM     67  C   UNL     1       3.470  16.504   6.673  1.00  0.00     0.055 A 
ATOM     68  C   UNL     1       2.661  14.956   5.015  1.00  0.00     0.041 A 
ATOM     69  F   UNL     1       0.529  14.010   5.247  1.00  0.00    -0.206 F 
ATOM     70  C   UNL     1       3.654  15.818   5.469  1.00  0.00     0.022 A 
BRANCH  67  71
ATOM     71  S   UNL     1       4.742  17.701   7.164  1.00  0.00     0.124 S 
ATOM     72  O   UNL     1       5.924  16.849   7.281  1.00  0.00    -0.237 OA
ATOM     73  O   UNL     1       4.747  18.622   6.031  1.00  0.00    -0.237 OA
ATOM     74  O   UNL     1       4.244  18.247   8.421  1.00  0.00    -0.744 OA
ENDBRANCH  67  71
ENDBRANCH  50  64
BRANCH  51  75
ATOM     75  C   UNL     1      -7.550  15.213  11.692  1.00  0.00     0.023 A 
ATOM     76  C   UNL     1      -7.643  14.728  13.010  1.00  0.00     0.031 A 
ATOM     77  C   UNL     1      -8.744  15.517  11.015  1.00  0.00     0.131 A 
ATOM     78  C   UNL     1      -8.900  14.486  13.577  1.00  0.00     0.055 A 
ATOM     79  C   UNL     1      -9.993  15.351  11.616  1.00  0.00     0.041 A 
ATOM     80  F   UNL     1      -8.710  15.966   9.752  1.00  0.00    -0.206 F 
ATOM     81  C   UNL     1     -10.076  14.813  12.896  1.00  0.00     0.022 A 
BRANCH  78  82
ATOM     82  S   UNL     1      -9.051  13.600  15.153  1.00  0.00     0.124 S 
ATOM     83  O   UNL     1      -9.775  14.562  15.977  1.00  0.00    -0.237 OA
ATOM     84  O   UNL     1      -9.806  12.414  14.755  1.00  0.00    -0.237 OA
ATOM     85  O   UNL     1      -7.667  13.351  15.543  1.00  0.00    -0.744 OA
ENDBRANCH  78  82
ENDBRANCH  51  75
BRANCH  63  86
ATOM     86  C   UNL     1      -3.808  20.303   8.559  1.00  0.00     0.023 A 
ATOM     87  C   UNL     1      -3.863  20.823   7.250  1.00  0.00     0.031 A 
ATOM     88  C   UNL     1      -3.767  21.212   9.630  1.00  0.00     0.131 A 
ATOM     89  C   UNL     1      -3.812  22.207   7.045  1.00  0.00     0.055 A 
ATOM     90  C   UNL     1      -3.779  22.592   9.422  1.00  0.00     0.041 A 
ATOM     91  F   UNL     1      -3.703  20.770  10.897  1.00  0.00    -0.206 F 
ATOM     92  C   UNL     1      -3.782  23.095   8.124  1.00  0.00     0.022 A 
BRANCH  89  93
ATOM     93  S   UNL     1      -3.672  22.901   5.374  1.00  0.00     0.124 S 
ATOM     94  O   UNL     1      -4.860  23.749   5.298  1.00  0.00    -0.237 OA
ATOM     95  O   UNL     1      -2.401  23.616   5.445  1.00  0.00    -0.237 OA
ATOM     96  O   UNL     1      -3.688  21.731   4.503  1.00  0.00    -0.744 OA
ENDBRANCH  89  93
ENDBRANCH  63  86
ENDBRANCH  37  38
ENDBRANCH  30  32
ENDBRANCH  29  30
ENDBRANCH  28  29
ENDBRANCH  27  28
ENDBRANCH   1  27
TORSDOF 21
