REMARK SMILES C[C@@H]1CCC[C@H]1NC(=O)c1csc(/C=C/C(=O)OCCOCCOC(=O)c2ccc(-c3c4nc(c(-c5cc(S(=O)(=O)[O-])ccc5F)c5ccc([nH]5)c(-c5cc(S(=O)(=O)[O-])ccc5F)c5nc(c(-c6cc(S(=O)(=O)[O-])ccc6F)c6ccc3[nH]6)C=C5)C=C4)cc2)c1
REMARK SMILES IDX 21 1 20 2 19 3 18 4 16 5 17 6 15 7 14 8 13 9 10 10 11 11
REMARK SMILES IDX 90 12 12 13 8 14 7 15 9 17 6 18 1 19 2 20 3 21 4 22 5 23
REMARK SMILES IDX 22 24 23 25 24 26 25 27 26 28 27 29 28 30 89 31 29 32 88 33
REMARK SMILES IDX 30 34 31 35 32 36 82 37 33 38 87 39 81 40 83 41 34 42 86 43
REMARK SMILES IDX 80 44 79 45 35 47 67 48 47 49 66 50 48 51 51 52 65 53 84 54
REMARK SMILES IDX 49 55 50 56 64 58 85 59 52 60 36 61 37 62 45 63 38 64 44 65
REMARK SMILES IDX 46 66 43 67 39 68 40 69 41 70 42 71 68 72 69 73 77 74 70 75
REMARK SMILES IDX 76 76 78 77 75 78 71 79 72 80 73 81 74 82 53 83 54 84 62 85
REMARK SMILES IDX 55 86 61 87 63 88 60 89 56 90 57 91 58 92 59 93
REMARK H PARENT 7 16 83 46 51 57
REMARK Flexibility Score: inf
ROOT
ATOM      1  O   UNL     1       6.235   9.865   1.479  1.00  0.00    -0.374 OA
ENDROOT
BRANCH   1   2
ATOM      2  C   UNL     1       6.086  10.053   2.887  1.00  0.00     0.202 C 
BRANCH   2   3
ATOM      3  C   UNL     1       4.659  10.347   3.357  1.00  0.00     0.261 C 
BRANCH   3   4
ATOM      4  O   UNL     1       3.787   9.234   3.093  1.00  0.00    -0.460 OA
BRANCH   4   5
ATOM      5  C   UNL     1       2.840   9.454   2.153  1.00  0.00     0.330 C 
ATOM      6  O   UNL     1       2.599  10.513   1.591  1.00  0.00    -0.247 OA
BRANCH   5   7
ATOM      7  C   UNL     1       2.118   8.223   1.779  1.00  0.00     0.095 C 
ATOM      8  C   UNL     1       2.226   7.019   2.364  1.00  0.00     0.026 C 
BRANCH   8   9
ATOM      9  C   UNL     1       1.459   5.888   1.931  1.00  0.00     0.028 A 
ATOM     10  C   UNL     1       0.289   3.817   1.957  1.00  0.00     0.051 A 
ATOM     11  C   UNL     1      -0.018   4.311   0.706  1.00  0.00     0.079 A 
ATOM     12  C   UNL     1       1.137   4.752   2.657  1.00  0.00     0.033 A 
ATOM     13  S   UNL     1       0.798   5.759   0.343  1.00  0.00    -0.144 S 
BRANCH  10  14
ATOM     14  C   UNL     1      -0.259   2.600   2.550  1.00  0.00     0.252 C 
ATOM     15  N   UNL     1      -0.470   1.477   1.791  1.00  0.00    -0.349 N 
ATOM     16  H   UNL     1      -1.017   0.785   2.229  1.00  0.00     0.164 HD
ATOM     17  O   UNL     1      -0.545   2.547   3.745  1.00  0.00    -0.269 OA
BRANCH  15  18
ATOM     18  C   UNL     1      -0.021   1.131   0.445  1.00  0.00     0.085 C 
ATOM     19  C   UNL     1       1.805  -0.161  -0.748  1.00  0.00     0.010 C 
ATOM     20  C   UNL     1       0.885  -0.110   0.473  1.00  0.00     0.008 C 
ATOM     21  C   UNL     1      -0.109  -1.271   0.483  1.00  0.00     0.005 C 
ATOM     22  C   UNL     1      -1.277  -0.810  -0.381  1.00  0.00     0.002 C 
ATOM     23  C   UNL     1      -1.212   0.719  -0.426  1.00  0.00     0.025 C 
ENDBRANCH  15  18
ENDBRANCH  10  14
ENDBRANCH   8   9
ENDBRANCH   5   7
ENDBRANCH   4   5
ENDBRANCH   3   4
ENDBRANCH   2   3
ENDBRANCH   1   2
BRANCH   1  24
ATOM     24  C   UNL     1       5.968   8.553   0.980  1.00  0.00     0.202 C 
BRANCH  24  25
ATOM     25  C   UNL     1       7.101   7.532   1.146  1.00  0.00     0.261 C 
BRANCH  25  26
ATOM     26  O   UNL     1       7.298   7.170   2.525  1.00  0.00    -0.460 OA
BRANCH  26  27
ATOM     27  C   UNL     1       8.444   7.638   3.077  1.00  0.00     0.338 C 
ATOM     28  O   UNL     1       9.337   8.246   2.501  1.00  0.00    -0.246 OA
BRANCH  27  29
ATOM     29  C   UNL     1       8.406   7.484   4.544  1.00  0.00     0.060 A 
ATOM     30  C   UNL     1       8.752   8.599   5.317  1.00  0.00     0.016 A 
ATOM     31  C   UNL     1       8.099   6.267   5.159  1.00  0.00     0.016 A 
ATOM     32  C   UNL     1       8.845   8.489   6.703  1.00  0.00     0.010 A 
ATOM     33  C   UNL     1       8.199   6.157   6.552  1.00  0.00     0.010 A 
ATOM     34  C   UNL     1       8.608   7.258   7.327  1.00  0.00    -0.014 A 
BRANCH  34  35
ATOM     35  C   UNL     1       8.938   7.098   8.767  1.00  0.00     0.031 A 
ATOM     36  C   UNL     1      10.244   6.454   9.148  1.00  0.00     0.074 A 
ATOM     37  C   UNL     1       8.112   7.568   9.720  1.00  0.00     0.049 A 
ATOM     38  N   UNL     1      10.741   6.219  10.335  1.00  0.00    -0.248 NA
ATOM     39  C   UNL     1      11.104   6.016   8.038  1.00  0.00     0.031 C 
ATOM     40  C   UNL     1       6.840   8.246   9.473  1.00  0.00     0.029 A 
ATOM     41  N   UNL     1       8.221   7.547  11.088  1.00  0.00    -0.354 N 
ATOM     42  C   UNL     1      11.972   5.609  10.118  1.00  0.00     0.074 A 
ATOM     43  C   UNL     1      12.123   5.471   8.684  1.00  0.00     0.031 C 
ATOM     44  C   UNL     1       6.286   8.576  10.652  1.00  0.00     0.029 A 
ATOM     45  C   UNL     1       7.145   8.104  11.737  1.00  0.00     0.049 A 
ATOM     46  H   UNL     1       8.998   7.169  11.560  1.00  0.00     0.167 HD
ATOM     47  C   UNL     1      12.897   5.213  11.028  1.00  0.00     0.034 A 
ATOM     48  C   UNL     1       6.876   8.205  13.055  1.00  0.00     0.034 A 
ATOM     49  C   UNL     1      12.728   5.344  12.455  1.00  0.00     0.049 A 
ATOM     50  C   UNL     1       7.883   7.679  14.051  1.00  0.00     0.074 A 
ATOM     51  C   UNL     1      13.604   4.983  13.464  1.00  0.00     0.029 A 
ATOM     52  N   UNL     1      11.601   5.866  13.078  1.00  0.00    -0.354 N 
ATOM     53  N   UNL     1       9.048   7.114  13.831  1.00  0.00    -0.248 NA
ATOM     54  C   UNL     1       7.540   7.816  15.473  1.00  0.00     0.031 C 
ATOM     55  C   UNL     1      12.980   5.223  14.694  1.00  0.00     0.029 A 
ATOM     56  C   UNL     1      11.746   5.806  14.456  1.00  0.00     0.049 A 
ATOM     57  H   UNL     1      10.814   6.227  12.609  1.00  0.00     0.167 HD
ATOM     58  C   UNL     1       9.590   6.859  15.089  1.00  0.00     0.074 A 
ATOM     59  C   UNL     1       8.630   7.344  16.060  1.00  0.00     0.031 C 
ATOM     60  C   UNL     1      10.775   6.282  15.414  1.00  0.00     0.034 A 
BRANCH  47  61
ATOM     61  C   UNL     1      14.150   4.556  10.498  1.00  0.00     0.023 A 
ATOM     62  C   UNL     1      15.069   5.254   9.695  1.00  0.00     0.031 A 
ATOM     63  C   UNL     1      14.413   3.203  10.776  1.00  0.00     0.131 A 
ATOM     64  C   UNL     1      16.168   4.579   9.140  1.00  0.00     0.055 A 
ATOM     65  C   UNL     1      15.549   2.558  10.284  1.00  0.00     0.041 A 
ATOM     66  F   UNL     1      13.560   2.479  11.518  1.00  0.00    -0.206 F 
ATOM     67  C   UNL     1      16.427   3.242   9.449  1.00  0.00     0.022 A 
BRANCH  64  68
ATOM     68  S   UNL     1      17.174   5.434   7.896  1.00  0.00     0.124 S 
ATOM     69  O   UNL     1      16.177   5.747   6.875  1.00  0.00    -0.237 OA
ATOM     70  O   UNL     1      17.702   6.569   8.643  1.00  0.00    -0.237 OA
ATOM     71  O   UNL     1      18.161   4.430   7.505  1.00  0.00    -0.744 OA
ENDBRANCH  64  68
ENDBRANCH  47  61
BRANCH  48  72
ATOM     72  C   UNL     1       5.588   8.795  13.522  1.00  0.00     0.023 A 
ATOM     73  C   UNL     1       5.561   9.970  14.290  1.00  0.00     0.031 A 
ATOM     74  C   UNL     1       4.366   8.153  13.255  1.00  0.00     0.131 A 
ATOM     75  C   UNL     1       4.343  10.440  14.806  1.00  0.00     0.055 A 
ATOM     76  C   UNL     1       3.151   8.654  13.726  1.00  0.00     0.041 A 
ATOM     77  F   UNL     1       4.335   7.026  12.527  1.00  0.00    -0.206 F 
ATOM     78  C   UNL     1       3.137   9.797  14.518  1.00  0.00     0.022 A 
BRANCH  75  79
ATOM     79  S   UNL     1       4.367  11.860  15.934  1.00  0.00     0.124 S 
ATOM     80  O   UNL     1       5.241  11.379  16.998  1.00  0.00    -0.237 OA
ATOM     81  O   UNL     1       4.912  12.913  15.084  1.00  0.00    -0.237 OA
ATOM     82  O   UNL     1       2.963  12.024  16.305  1.00  0.00    -0.744 OA
ENDBRANCH  75  79
ENDBRANCH  48  72
BRANCH  60  83
ATOM     83  C   UNL     1      11.115   6.191  16.883  1.00  0.00     0.023 A 
ATOM     84  C   UNL     1      10.386   5.373  17.764  1.00  0.00     0.031 A 
ATOM     85  C   UNL     1      12.176   6.949  17.411  1.00  0.00     0.131 A 
ATOM     86  C   UNL     1      10.689   5.377  19.134  1.00  0.00     0.055 A 
ATOM     87  C   UNL     1      12.511   6.903  18.765  1.00  0.00     0.041 A 
ATOM     88  F   UNL     1      12.905   7.749  16.616  1.00  0.00    -0.206 F 
ATOM     89  C   UNL     1      11.757   6.125  19.637  1.00  0.00     0.022 A 
BRANCH  86  90
ATOM     90  S   UNL     1       9.607   4.465  20.270  1.00  0.00     0.124 S 
ATOM     91  O   UNL     1       8.309   5.079  20.011  1.00  0.00    -0.237 OA
ATOM     92  O   UNL     1       9.764   3.088  19.812  1.00  0.00    -0.237 OA
ATOM     93  O   UNL     1      10.175   4.748  21.587  1.00  0.00    -0.744 OA
ENDBRANCH  86  90
ENDBRANCH  60  83
ENDBRANCH  34  35
ENDBRANCH  27  29
ENDBRANCH  26  27
ENDBRANCH  25  26
ENDBRANCH  24  25
ENDBRANCH   1  24
TORSDOF 20
