REMARK SMILES C[N@H+]1CC[C@@H](Cc2nccnc2C(=O)OCCOCCOC(=O)c2ccc(-c3c4nc(c(-c5cc(S(=O)(=O)[O-])ccc5F)c5ccc([nH]5)c(-c5cc(S(=O)(=O)[O-])ccc5F)c5nc(c(-c6cc(S(=O)(=O)[O-])ccc6F)c6ccc3[nH]6)C=C5)C=C4)cc2)C1
REMARK SMILES IDX 19 1 18 2 17 3 16 4 15 5 13 6 14 7 12 8 7 9 8 10 9 11 11 12
REMARK SMILES IDX 10 13 6 14 5 15 1 16 2 17 3 18 87 19 4 21 20 22 21 23 22 24
REMARK SMILES IDX 23 25 24 26 25 27 86 28 26 29 85 30 27 31 28 32 29 33 79 34
REMARK SMILES IDX 30 35 84 36 78 37 80 38 31 39 83 40 77 41 76 42 32 44 64 45
REMARK SMILES IDX 44 46 63 47 45 48 48 49 62 50 81 51 46 52 47 53 61 55 82 56
REMARK SMILES IDX 49 57 33 58 34 59 42 60 35 61 41 62 43 63 40 64 36 65 37 66
REMARK SMILES IDX 38 67 39 68 65 69 66 70 74 71 67 72 73 73 75 74 72 75 68 76
REMARK SMILES IDX 69 77 70 78 71 79 50 80 51 81 59 82 52 83 58 84 60 85 57 86
REMARK SMILES IDX 53 87 54 88 55 89 56 90
REMARK H PARENT 2 20 80 43 48 54
REMARK Flexibility Score: inf
ROOT
ATOM      1  C   UNL     1      -0.478  -2.861   4.008  1.00  0.00     0.202 C 
ENDROOT
BRANCH   1   2
ATOM      2  O   UNL     1       0.002  -2.396   5.270  1.00  0.00    -0.374 OA
BRANCH   2   3
ATOM      3  C   UNL     1       0.789  -1.203   5.253  1.00  0.00     0.202 C 
BRANCH   3   4
ATOM      4  C   UNL     1       2.272  -1.413   4.950  1.00  0.00     0.261 C 
BRANCH   4   5
ATOM      5  O   UNL     1       2.425  -1.871   3.594  1.00  0.00    -0.458 OA
BRANCH   5   6
ATOM      6  C   UNL     1       2.982  -3.092   3.430  1.00  0.00     0.358 C 
ATOM      7  O   UNL     1       3.512  -3.745   4.318  1.00  0.00    -0.244 OA
BRANCH   6   8
ATOM      8  C   UNL     1       2.742  -3.635   2.052  1.00  0.00     0.169 A 
ATOM      9  C   UNL     1       2.600  -2.903   0.865  1.00  0.00     0.074 A 
ATOM     10  N   UNL     1       2.448  -3.559  -0.329  1.00  0.00    -0.257 NA
ATOM     11  C   UNL     1       2.372  -4.904  -0.306  1.00  0.00     0.131 A 
ATOM     12  N   UNL     1       2.650  -5.005   2.053  1.00  0.00    -0.246 NA
ATOM     13  C   UNL     1       2.455  -5.612   0.867  1.00  0.00     0.132 A 
BRANCH   9  14
ATOM     14  C   UNL     1       2.632  -1.398   0.731  1.00  0.00     0.068 C 
BRANCH  14  15
ATOM     15  C   UNL     1       1.732  -0.868  -0.407  1.00  0.00     0.056 C 
ATOM     16  C   UNL     1      -1.893  -0.240  -0.499  1.00  0.00     0.332 C 
ATOM     17  N   UNL     1      -0.475  -0.178  -0.818  1.00  0.00    -0.337 N 
ATOM     18  C   UNL     1       0.194   0.993  -0.256  1.00  0.00     0.262 C 
ATOM     19  C   UNL     1       0.268  -1.310  -0.265  1.00  0.00     0.266 C 
ATOM     20  H   UNL     1      -0.466  -0.163  -1.838  1.00  0.00     0.347 HD
ATOM     21  C   UNL     1       1.666   0.666  -0.449  1.00  0.00     0.071 C 
ENDBRANCH  14  15
ENDBRANCH   9  14
ENDBRANCH   6   8
ENDBRANCH   5   6
ENDBRANCH   4   5
ENDBRANCH   3   4
ENDBRANCH   2   3
ENDBRANCH   1   2
BRANCH   1  22
ATOM     22  C   UNL     1      -1.734  -2.165   3.468  1.00  0.00     0.261 C 
BRANCH  22  23
ATOM     23  O   UNL     1      -1.502  -0.784   3.139  1.00  0.00    -0.460 OA
BRANCH  23  24
ATOM     24  C   UNL     1      -1.983   0.120   4.031  1.00  0.00     0.338 C 
ATOM     25  O   UNL     1      -2.601  -0.113   5.057  1.00  0.00    -0.246 OA
BRANCH  24  26
ATOM     26  C   UNL     1      -1.484   1.458   3.658  1.00  0.00     0.060 A 
ATOM     27  C   UNL     1      -0.696   2.171   4.567  1.00  0.00     0.016 A 
ATOM     28  C   UNL     1      -1.802   2.012   2.421  1.00  0.00     0.016 A 
ATOM     29  C   UNL     1      -0.237   3.452   4.241  1.00  0.00     0.010 A 
ATOM     30  C   UNL     1      -1.296   3.266   2.074  1.00  0.00     0.010 A 
ATOM     31  C   UNL     1      -0.547   4.019   2.997  1.00  0.00    -0.014 A 
BRANCH  31  32
ATOM     32  C   UNL     1      -0.270   5.455   2.706  1.00  0.00     0.031 A 
ATOM     33  C   UNL     1      -1.447   6.381   2.509  1.00  0.00     0.074 A 
ATOM     34  C   UNL     1       0.984   5.935   2.597  1.00  0.00     0.049 A 
ATOM     35  N   UNL     1      -1.474   7.623   2.100  1.00  0.00    -0.248 NA
ATOM     36  C   UNL     1      -2.777   5.809   2.775  1.00  0.00     0.031 C 
ATOM     37  C   UNL     1       2.210   5.160   2.783  1.00  0.00     0.029 A 
ATOM     38  N   UNL     1       1.433   7.198   2.291  1.00  0.00    -0.354 N 
ATOM     39  C   UNL     1      -2.822   7.964   2.023  1.00  0.00     0.074 A 
ATOM     40  C   UNL     1      -3.576   6.778   2.361  1.00  0.00     0.031 C 
ATOM     41  C   UNL     1       3.270   5.967   2.599  1.00  0.00     0.029 A 
ATOM     42  C   UNL     1       2.805   7.302   2.228  1.00  0.00     0.049 A 
ATOM     43  H   UNL     1       0.829   7.959   2.131  1.00  0.00     0.167 HD
ATOM     44  C   UNL     1      -3.383   9.162   1.724  1.00  0.00     0.034 A 
ATOM     45  C   UNL     1       3.592   8.345   1.888  1.00  0.00     0.034 A 
ATOM     46  C   UNL     1      -2.620  10.347   1.426  1.00  0.00     0.049 A 
ATOM     47  C   UNL     1       2.947   9.661   1.509  1.00  0.00     0.074 A 
ATOM     48  C   UNL     1      -3.084  11.621   1.151  1.00  0.00     0.029 A 
ATOM     49  N   UNL     1      -1.234  10.406   1.364  1.00  0.00    -0.354 N 
ATOM     50  N   UNL     1       1.671   9.970   1.446  1.00  0.00    -0.248 NA
ATOM     51  C   UNL     1       3.848  10.769   1.163  1.00  0.00     0.031 C 
ATOM     52  C   UNL     1      -1.985  12.430   0.846  1.00  0.00     0.029 A 
ATOM     53  C   UNL     1      -0.829  11.687   1.027  1.00  0.00     0.049 A 
ATOM     54  H   UNL     1      -0.629   9.649   1.535  1.00  0.00     0.167 HD
ATOM     55  C   UNL     1       1.623  11.320   1.098  1.00  0.00     0.074 A 
ATOM     56  C   UNL     1       2.995  11.764   0.969  1.00  0.00     0.031 C 
ATOM     57  C   UNL     1       0.543  12.121   0.911  1.00  0.00     0.034 A 
BRANCH  44  58
ATOM     58  C   UNL     1      -4.892   9.231   1.675  1.00  0.00     0.023 A 
ATOM     59  C   UNL     1      -5.685   8.957   2.803  1.00  0.00     0.031 A 
ATOM     60  C   UNL     1      -5.549   9.538   0.470  1.00  0.00     0.131 A 
ATOM     61  C   UNL     1      -7.082   8.906   2.681  1.00  0.00     0.055 A 
ATOM     62  C   UNL     1      -6.941   9.581   0.380  1.00  0.00     0.041 A 
ATOM     63  F   UNL     1      -4.848   9.784  -0.648  1.00  0.00    -0.206 F 
ATOM     64  C   UNL     1      -7.717   9.246   1.485  1.00  0.00     0.022 A 
BRANCH  61  65
ATOM     65  S   UNL     1      -8.043   8.225   4.060  1.00  0.00     0.124 S 
ATOM     66  O   UNL     1      -7.468   6.887   4.186  1.00  0.00    -0.237 OA
ATOM     67  O   UNL     1      -7.743   9.153   5.144  1.00  0.00    -0.237 OA
ATOM     68  O   UNL     1      -9.419   8.260   3.569  1.00  0.00    -0.744 OA
ENDBRANCH  61  65
ENDBRANCH  44  58
BRANCH  45  69
ATOM     69  C   UNL     1       5.079   8.201   1.857  1.00  0.00     0.023 A 
ATOM     70  C   UNL     1       5.901   8.970   2.698  1.00  0.00     0.031 A 
ATOM     71  C   UNL     1       5.705   7.338   0.940  1.00  0.00     0.131 A 
ATOM     72  C   UNL     1       7.298   8.902   2.568  1.00  0.00     0.055 A 
ATOM     73  C   UNL     1       7.095   7.228   0.856  1.00  0.00     0.041 A 
ATOM     74  F   UNL     1       4.971   6.582   0.108  1.00  0.00    -0.206 F 
ATOM     75  C   UNL     1       7.900   8.025   1.664  1.00  0.00     0.022 A 
BRANCH  72  76
ATOM     76  S   UNL     1       8.318  10.056   3.527  1.00  0.00     0.124 S 
ATOM     77  O   UNL     1       7.807  11.346   3.078  1.00  0.00    -0.237 OA
ATOM     78  O   UNL     1       7.993   9.678   4.899  1.00  0.00    -0.237 OA
ATOM     79  O   UNL     1       9.680   9.740   3.102  1.00  0.00    -0.744 OA
ENDBRANCH  72  76
ENDBRANCH  45  69
BRANCH  57  80
ATOM     80  C   UNL     1       0.796  13.584   0.625  1.00  0.00     0.023 A 
ATOM     81  C   UNL     1       1.407  14.022  -0.562  1.00  0.00     0.031 A 
ATOM     82  C   UNL     1       0.396  14.557   1.560  1.00  0.00     0.131 A 
ATOM     83  C   UNL     1       1.643  15.391  -0.761  1.00  0.00     0.055 A 
ATOM     84  C   UNL     1       0.574  15.921   1.327  1.00  0.00     0.041 A 
ATOM     85  F   UNL     1      -0.189  14.197   2.714  1.00  0.00    -0.206 F 
ATOM     86  C   UNL     1       1.211  16.344   0.165  1.00  0.00     0.022 A 
BRANCH  83  87
ATOM     87  S   UNL     1       2.604  15.910  -2.210  1.00  0.00     0.124 S 
ATOM     88  O   UNL     1       3.854  15.181  -2.021  1.00  0.00    -0.237 OA
ATOM     89  O   UNL     1       1.766  15.463  -3.317  1.00  0.00    -0.237 OA
ATOM     90  O   UNL     1       2.703  17.360  -2.055  1.00  0.00    -0.744 OA
ENDBRANCH  83  87
ENDBRANCH  57  80
ENDBRANCH  31  32
ENDBRANCH  24  26
ENDBRANCH  23  24
ENDBRANCH  22  23
ENDBRANCH   1  22
TORSDOF 19
