REMARK SMILES O=C(OCCOCCOC(=O)c1ccccc1C(=O)Nc1ccc(N2C(=O)[C@H]3[C@@H]4CC[C@@H](C4)[C@@H]3C2=O)cc1)c1ccc(-c2c3nc(c(-c4cc(S(=O)(=O)[O-])ccc4F)c4ccc([nH]4)c(-c4cc(S(=O)(=O)[O-])ccc4F)c4nc(c(-c5cc(S(=O)(=O)[O-])ccc5F)c5ccc2[nH]5)C=C4)C=C3)cc1
REMARK SMILES IDX 6 1 5 2 4 3 3 4 2 5 1 6 39 7 40 8 101 9 41 10 100 11 42 12
REMARK SMILES IDX 43 13 44 14 94 15 45 16 99 17 93 18 95 19 46 20 98 21 92 22
REMARK SMILES IDX 91 23 47 25 79 26 59 27 78 28 60 29 63 30 77 31 96 32 61 33
REMARK SMILES IDX 62 34 76 36 97 37 64 38 48 39 49 40 57 41 50 42 56 43 58 44
REMARK SMILES IDX 55 45 51 46 52 47 53 48 54 49 80 50 81 51 89 52 82 53 88 54
REMARK SMILES IDX 90 55 87 56 83 57 84 58 85 59 86 60 65 61 66 62 74 63 67 64
REMARK SMILES IDX 73 65 75 66 72 67 68 68 69 69 70 70 71 71 7 72 8 73 9 74
REMARK SMILES IDX 10 75 11 76 12 77 13 78 17 79 14 80 16 81 15 82 18 83 19 84
REMARK SMILES IDX 20 85 21 87 22 88 38 89 23 90 37 91 24 92 25 93 26 94 35 95
REMARK SMILES IDX 27 96 28 97 34 98 36 99 29 100 32 101 30 102 33 103 31 104
REMARK H PARENT 95 24 63 35 20 86
REMARK Flexibility Score: inf
ROOT
ATOM      1  O   UNL     1       3.026  -0.444  -0.488  1.00  0.00    -0.374 OA
ENDROOT
BRANCH   1   2
ATOM      2  C   UNL     1       3.858  -1.457   0.068  1.00  0.00     0.202 C 
BRANCH   2   3
ATOM      3  C   UNL     1       3.309  -1.910   1.416  1.00  0.00     0.261 C 
BRANCH   3   4
ATOM      4  O   UNL     1       3.028  -0.750   2.221  1.00  0.00    -0.460 OA
BRANCH   4   5
ATOM      5  C   UNL     1       1.786  -0.210   2.082  1.00  0.00     0.338 C 
ATOM      6  O   UNL     1       0.766  -0.762   1.707  1.00  0.00    -0.246 OA
BRANCH   5   7
ATOM      7  C   UNL     1       1.918   1.235   2.351  1.00  0.00     0.060 A 
ATOM      8  C   UNL     1       2.498   2.039   1.378  1.00  0.00     0.016 A 
ATOM      9  C   UNL     1       1.644   1.765   3.606  1.00  0.00     0.016 A 
ATOM     10  C   UNL     1       3.053   3.264   1.737  1.00  0.00     0.010 A 
ATOM     11  C   UNL     1       2.132   3.044   3.934  1.00  0.00     0.010 A 
ATOM     12  C   UNL     1       2.994   3.732   3.054  1.00  0.00    -0.014 A 
BRANCH  12  13
ATOM     13  C   UNL     1       4.066   4.672   3.577  1.00  0.00     0.031 A 
ATOM     14  C   UNL     1       4.919   4.203   4.761  1.00  0.00     0.074 A 
ATOM     15  C   UNL     1       4.498   5.772   2.912  1.00  0.00     0.049 A 
ATOM     16  N   UNL     1       5.840   4.840   5.444  1.00  0.00    -0.248 NA
ATOM     17  C   UNL     1       4.734   2.811   5.208  1.00  0.00     0.031 C 
ATOM     18  C   UNL     1       4.004   6.233   1.614  1.00  0.00     0.029 A 
ATOM     19  N   UNL     1       5.544   6.637   3.174  1.00  0.00    -0.354 N 
ATOM     20  C   UNL     1       6.274   3.953   6.432  1.00  0.00     0.074 A 
ATOM     21  C   UNL     1       5.518   2.737   6.268  1.00  0.00     0.031 C 
ATOM     22  C   UNL     1       4.843   7.162   1.126  1.00  0.00     0.029 A 
ATOM     23  C   UNL     1       5.824   7.520   2.147  1.00  0.00     0.049 A 
ATOM     24  H   UNL     1       6.047   6.626   4.020  1.00  0.00     0.167 HD
ATOM     25  C   UNL     1       7.221   4.114   7.388  1.00  0.00     0.034 A 
ATOM     26  C   UNL     1       6.725   8.527   2.048  1.00  0.00     0.034 A 
ATOM     27  C   UNL     1       8.037   5.292   7.520  1.00  0.00     0.049 A 
ATOM     28  C   UNL     1       7.609   8.821   3.243  1.00  0.00     0.074 A 
ATOM     29  C   UNL     1       8.924   5.619   8.531  1.00  0.00     0.029 A 
ATOM     30  N   UNL     1       8.086   6.324   6.597  1.00  0.00    -0.354 N 
ATOM     31  N   UNL     1       7.834   8.088   4.310  1.00  0.00    -0.248 NA
ATOM     32  C   UNL     1       8.324  10.105   3.239  1.00  0.00     0.031 C 
ATOM     33  C   UNL     1       9.440   6.891   8.263  1.00  0.00     0.029 A 
ATOM     34  C   UNL     1       8.951   7.313   7.038  1.00  0.00     0.049 A 
ATOM     35  H   UNL     1       7.581   6.352   5.753  1.00  0.00     0.167 HD
ATOM     36  C   UNL     1       8.729   8.822   5.092  1.00  0.00     0.074 A 
ATOM     37  C   UNL     1       9.028  10.032   4.358  1.00  0.00     0.031 C 
ATOM     38  C   UNL     1       9.246   8.525   6.312  1.00  0.00     0.034 A 
BRANCH  25  39
ATOM     39  C   UNL     1       7.314   3.043   8.450  1.00  0.00     0.023 A 
ATOM     40  C   UNL     1       7.785   1.743   8.194  1.00  0.00     0.031 A 
ATOM     41  C   UNL     1       6.838   3.330   9.744  1.00  0.00     0.131 A 
ATOM     42  C   UNL     1       7.703   0.764   9.199  1.00  0.00     0.055 A 
ATOM     43  C   UNL     1       6.832   2.374  10.759  1.00  0.00     0.041 A 
ATOM     44  F   UNL     1       6.347   4.545  10.035  1.00  0.00    -0.206 F 
ATOM     45  C   UNL     1       7.251   1.077  10.485  1.00  0.00     0.022 A 
BRANCH  42  46
ATOM     46  S   UNL     1       8.031  -0.969   8.765  1.00  0.00     0.124 S 
ATOM     47  O   UNL     1       7.123  -1.171   7.638  1.00  0.00    -0.237 OA
ATOM     48  O   UNL     1       9.453  -0.949   8.446  1.00  0.00    -0.237 OA
ATOM     49  O   UNL     1       7.673  -1.700   9.979  1.00  0.00    -0.744 OA
ENDBRANCH  42  46
ENDBRANCH  25  39
BRANCH  26  50
ATOM     50  C   UNL     1       6.768   9.442   0.850  1.00  0.00     0.023 A 
ATOM     51  C   UNL     1       7.974   9.762   0.192  1.00  0.00     0.031 A 
ATOM     52  C   UNL     1       5.610  10.124   0.424  1.00  0.00     0.131 A 
ATOM     53  C   UNL     1       7.993  10.755  -0.809  1.00  0.00     0.055 A 
ATOM     54  C   UNL     1       5.618  11.037  -0.631  1.00  0.00     0.041 A 
ATOM     55  F   UNL     1       4.435   9.928   1.045  1.00  0.00    -0.206 F 
ATOM     56  C   UNL     1       6.818  11.370  -1.244  1.00  0.00     0.022 A 
BRANCH  53  57
ATOM     57  S   UNL     1       9.590  11.364  -1.431  1.00  0.00     0.124 S 
ATOM     58  O   UNL     1      10.235  11.810  -0.201  1.00  0.00    -0.237 OA
ATOM     59  O   UNL     1      10.153  10.174  -2.058  1.00  0.00    -0.237 OA
ATOM     60  O   UNL     1       9.210  12.432  -2.355  1.00  0.00    -0.744 OA
ENDBRANCH  53  57
ENDBRANCH  26  50
BRANCH  38  61
ATOM     61  C   UNL     1      10.217   9.509   6.923  1.00  0.00     0.023 A 
ATOM     62  C   UNL     1       9.826  10.812   7.281  1.00  0.00     0.031 A 
ATOM     63  C   UNL     1      11.555   9.138   7.155  1.00  0.00     0.131 A 
ATOM     64  C   UNL     1      10.773  11.713   7.794  1.00  0.00     0.055 A 
ATOM     65  C   UNL     1      12.475  10.016   7.731  1.00  0.00     0.041 A 
ATOM     66  F   UNL     1      11.989   7.909   6.834  1.00  0.00    -0.206 F 
ATOM     67  C   UNL     1      12.090  11.317   8.040  1.00  0.00     0.022 A 
BRANCH  64  68
ATOM     68  S   UNL     1      10.287  13.444   8.036  1.00  0.00     0.124 S 
ATOM     69  O   UNL     1       9.814  13.816   6.707  1.00  0.00    -0.237 OA
ATOM     70  O   UNL     1       9.262  13.338   9.070  1.00  0.00    -0.237 OA
ATOM     71  O   UNL     1      11.527  14.093   8.457  1.00  0.00    -0.744 OA
ENDBRANCH  64  68
ENDBRANCH  38  61
ENDBRANCH  12  13
ENDBRANCH   5   7
ENDBRANCH   4   5
ENDBRANCH   3   4
ENDBRANCH   2   3
ENDBRANCH   1   2
BRANCH   1  72
ATOM     72  C   UNL     1       1.866  -0.884  -1.160  1.00  0.00     0.202 C 
BRANCH  72  73
ATOM     73  C   UNL     1       2.009  -0.578  -2.635  1.00  0.00     0.261 C 
BRANCH  73  74
ATOM     74  O   UNL     1       3.001  -1.368  -3.295  1.00  0.00    -0.460 OA
BRANCH  74  75
ATOM     75  C   UNL     1       4.295  -0.972  -3.172  1.00  0.00     0.339 C 
ATOM     76  O   UNL     1       4.839  -0.251  -2.386  1.00  0.00    -0.246 OA
BRANCH  75  77
ATOM     77  C   UNL     1       5.026  -1.654  -4.226  1.00  0.00     0.072 A 
ATOM     78  C   UNL     1       5.923  -2.647  -3.799  1.00  0.00     0.016 A 
ATOM     79  C   UNL     1       4.696  -1.454  -5.566  1.00  0.00     0.054 A 
ATOM     80  C   UNL     1       6.402  -3.570  -4.718  1.00  0.00     0.001 A 
ATOM     81  C   UNL     1       5.151  -2.434  -6.466  1.00  0.00     0.015 A 
ATOM     82  C   UNL     1       5.981  -3.487  -6.043  1.00  0.00     0.001 A 
BRANCH  79  83
ATOM     83  C   UNL     1       3.718  -0.435  -6.065  1.00  0.00     0.256 C 
ATOM     84  O   UNL     1       2.964  -0.796  -6.976  1.00  0.00    -0.269 OA
ATOM     85  N   UNL     1       3.497   0.825  -5.529  1.00  0.00    -0.322 N 
ATOM     86  H   UNL     1       2.650   1.223  -5.833  1.00  0.00     0.170 HD
BRANCH  85  87
ATOM     87  C   UNL     1       4.208   1.666  -4.648  1.00  0.00     0.041 A 
ATOM     88  C   UNL     1       3.450   2.464  -3.775  1.00  0.00     0.028 A 
ATOM     89  C   UNL     1       5.596   1.697  -4.538  1.00  0.00     0.028 A 
ATOM     90  C   UNL     1       4.044   3.035  -2.637  1.00  0.00     0.029 A 
ATOM     91  C   UNL     1       6.205   2.382  -3.467  1.00  0.00     0.029 A 
ATOM     92  C   UNL     1       5.427   2.962  -2.456  1.00  0.00     0.052 A 
BRANCH  92  93
ATOM     93  N   UNL     1       6.008   3.252  -1.199  1.00  0.00    -0.250 N 
ATOM     94  C   UNL     1       7.153   4.037  -0.992  1.00  0.00     0.237 C 
ATOM     95  C   UNL     1       5.769   2.443  -0.084  1.00  0.00     0.237 C 
ATOM     96  O   UNL     1       7.640   4.879  -1.723  1.00  0.00    -0.274 OA
ATOM     97  C   UNL     1       7.781   3.426   0.239  1.00  0.00     0.095 C 
ATOM     98  C   UNL     1       6.514   3.115   1.006  1.00  0.00     0.095 C 
ATOM     99  O   UNL     1       5.136   1.417   0.039  1.00  0.00    -0.274 OA
ATOM    100  C   UNL     1       8.730   3.796   1.387  1.00  0.00     0.002 C 
ATOM    101  C   UNL     1       7.038   2.646   2.347  1.00  0.00     0.002 C 
ATOM    102  C   UNL     1       9.394   2.449   1.783  1.00  0.00     0.005 C 
ATOM    103  C   UNL     1       7.844   3.926   2.649  1.00  0.00     0.009 C 
ATOM    104  C   UNL     1       8.177   1.611   2.263  1.00  0.00     0.005 C 
ENDBRANCH  92  93
ENDBRANCH  85  87
ENDBRANCH  79  83
ENDBRANCH  75  77
ENDBRANCH  74  75
ENDBRANCH  73  74
ENDBRANCH  72  73
ENDBRANCH   1  72
TORSDOF 20
