REMARK SMILES CS(=O)(=O)c1ccc(-c2cc(Cl)cnc2-c2ccc(C(=O)OCCOCCOC(=O)c3ccc(-c4c5nc(c(-c6cc(S(=O)(=O)[O-])ccc6F)c6ccc([nH]6)c(-c6cc(S(=O)(=O)[O-])ccc6F)c6nc(c(-c7cc(S(=O)(=O)[O-])ccc7F)c7ccc4[nH]7)C=C6)C=C5)cc3)nc2)cc1
REMARK SMILES IDX 25 1 24 2 23 3 22 4 20 5 21 6 19 7 16 8 17 9 95 10 18 11
REMARK SMILES IDX 94 12 15 13 9 14 10 15 11 16 14 17 12 18 13 19 8 20 5 21
REMARK SMILES IDX 6 22 97 23 7 24 96 25 2 26 1 27 3 28 4 29 26 30 27 31 28 32
REMARK SMILES IDX 29 33 30 34 31 35 32 36 93 37 33 38 92 39 34 40 35 41 36 42
REMARK SMILES IDX 86 43 37 44 91 45 85 46 87 47 38 48 90 49 84 50 83 51 39 53
REMARK SMILES IDX 71 54 51 55 70 56 52 57 55 58 69 59 88 60 53 61 54 62 68 64
REMARK SMILES IDX 89 65 56 66 40 67 41 68 49 69 42 70 48 71 50 72 47 73 43 74
REMARK SMILES IDX 44 75 45 76 46 77 72 78 73 79 81 80 74 81 80 82 82 83 79 84
REMARK SMILES IDX 75 85 76 86 77 87 78 88 57 89 58 90 66 91 59 92 65 93 67 94
REMARK SMILES IDX 64 95 60 96 61 97 62 98 63 99
REMARK H PARENT 87 52 55 63
REMARK Flexibility Score: inf
ROOT
ATOM      1  O   UNL     1       9.054  -0.746   3.432  1.00  0.00    -0.374 OA
ENDROOT
BRANCH   1   2
ATOM      2  C   UNL     1       8.801  -0.711   2.027  1.00  0.00     0.202 C 
BRANCH   2   3
ATOM      3  C   UNL     1       7.339  -0.837   1.592  1.00  0.00     0.261 C 
BRANCH   3   4
ATOM      4  O   UNL     1       6.569   0.271   2.084  1.00  0.00    -0.459 OA
BRANCH   4   5
ATOM      5  C   UNL     1       5.617  -0.054   2.994  1.00  0.00     0.356 C 
ATOM      6  O   UNL     1       5.198  -1.175   3.240  1.00  0.00    -0.244 OA
BRANCH   5   7
ATOM      7  C   UNL     1       5.209   1.167   3.746  1.00  0.00     0.148 A 
ATOM      8  C   UNL     1       4.107   3.236   5.172  1.00  0.00     0.019 A 
ATOM      9  C   UNL     1       4.554   3.457   3.861  1.00  0.00     0.014 A 
ATOM     10  C   UNL     1       4.383   1.994   5.737  1.00  0.00     0.122 A 
ATOM     11  C   UNL     1       5.111   2.408   3.130  1.00  0.00     0.037 A 
ATOM     12  N   UNL     1       4.901   0.954   5.054  1.00  0.00    -0.249 NA
BRANCH   8  13
ATOM     13  C   UNL     1       3.168   4.136   5.847  1.00  0.00     0.080 A 
ATOM     14  C   UNL     1       1.843   4.297   5.371  1.00  0.00     0.010 A 
ATOM     15  C   UNL     1       0.982   5.106   6.125  1.00  0.00     0.033 A 
ATOM     16  C   UNL     1       1.440   5.697   7.297  1.00  0.00     0.060 A 
ATOM     17  N   UNL     1       3.623   4.698   6.997  1.00  0.00    -0.254 NA
ATOM     18  Cl  UNL     1       0.394   6.672   8.247  1.00  0.00    -0.083 Cl
ATOM     19  C   UNL     1       2.750   5.471   7.688  1.00  0.00     0.132 A 
BRANCH  14  20
ATOM     20  C   UNL     1       1.363   3.635   4.141  1.00  0.00    -0.016 A 
ATOM     21  C   UNL     1       0.698   2.367   1.720  1.00  0.00     0.067 A 
ATOM     22  C   UNL     1       0.953   1.595   2.851  1.00  0.00     0.021 A 
ATOM     23  C   UNL     1       0.751   3.763   1.790  1.00  0.00     0.021 A 
ATOM     24  C   UNL     1       1.270   2.232   4.056  1.00  0.00     0.010 A 
ATOM     25  C   UNL     1       1.077   4.391   2.994  1.00  0.00     0.010 A 
BRANCH  21  26
ATOM     26  S   UNL     1       0.306   1.621   0.153  1.00  0.00     0.175 S 
ATOM     27  C   UNL     1       1.119   0.048   0.106  1.00  0.00     0.163 C 
ATOM     28  O   UNL     1       0.927   2.452  -0.860  1.00  0.00    -0.224 OA
ATOM     29  O   UNL     1      -1.126   1.393   0.168  1.00  0.00    -0.224 OA
ENDBRANCH  21  26
ENDBRANCH  14  20
ENDBRANCH   8  13
ENDBRANCH   5   7
ENDBRANCH   4   5
ENDBRANCH   3   4
ENDBRANCH   2   3
ENDBRANCH   1   2
BRANCH   1  30
ATOM     30  C   UNL     1       8.806   0.443   4.183  1.00  0.00     0.202 C 
BRANCH  30  31
ATOM     31  C   UNL     1       9.824   1.584   4.058  1.00  0.00     0.261 C 
BRANCH  31  32
ATOM     32  O   UNL     1       9.854   2.164   2.742  1.00  0.00    -0.460 OA
BRANCH  32  33
ATOM     33  C   UNL     1      10.959   1.868   2.016  1.00  0.00     0.338 C 
ATOM     34  O   UNL     1      11.923   1.206   2.381  1.00  0.00    -0.246 OA
BRANCH  33  35
ATOM     35  C   UNL     1      10.769   2.298   0.620  1.00  0.00     0.060 A 
ATOM     36  C   UNL     1      10.924   1.339  -0.391  1.00  0.00     0.016 A 
ATOM     37  C   UNL     1      10.501   3.630   0.299  1.00  0.00     0.016 A 
ATOM     38  C   UNL     1      10.840   1.714  -1.731  1.00  0.00     0.010 A 
ATOM     39  C   UNL     1      10.429   4.006  -1.046  1.00  0.00     0.010 A 
ATOM     40  C   UNL     1      10.622   3.056  -2.067  1.00  0.00    -0.014 A 
BRANCH  40  41
ATOM     41  C   UNL     1      10.727   3.502  -3.479  1.00  0.00     0.031 A 
ATOM     42  C   UNL     1      11.982   4.195  -3.930  1.00  0.00     0.074 A 
ATOM     43  C   UNL     1       9.714   3.301  -4.342  1.00  0.00     0.049 A 
ATOM     44  N   UNL     1      12.246   4.777  -5.071  1.00  0.00    -0.248 NA
ATOM     45  C   UNL     1      13.083   4.244  -2.957  1.00  0.00     0.031 C 
ATOM     46  C   UNL     1       8.473   2.592  -4.034  1.00  0.00     0.029 A 
ATOM     47  N   UNL     1       9.563   3.693  -5.649  1.00  0.00    -0.354 N 
ATOM     48  C   UNL     1      13.540   5.276  -4.950  1.00  0.00     0.074 A 
ATOM     49  C   UNL     1      13.990   4.952  -3.612  1.00  0.00     0.031 C 
ATOM     50  C   UNL     1       7.678   2.617  -5.118  1.00  0.00     0.029 A 
ATOM     51  C   UNL     1       8.331   3.385  -6.177  1.00  0.00     0.049 A 
ATOM     52  H   UNL     1      10.270   4.150  -6.159  1.00  0.00     0.167 HD
ATOM     53  C   UNL     1      14.280   5.938  -5.873  1.00  0.00     0.034 A 
ATOM     54  C   UNL     1       7.780   3.719  -7.362  1.00  0.00     0.034 A 
ATOM     55  C   UNL     1      13.808   6.259  -7.198  1.00  0.00     0.049 A 
ATOM     56  C   UNL     1       8.586   4.543  -8.339  1.00  0.00     0.074 A 
ATOM     57  C   UNL     1      14.479   6.913  -8.217  1.00  0.00     0.029 A 
ATOM     58  N   UNL     1      12.541   5.963  -7.685  1.00  0.00    -0.354 N 
ATOM     59  N   UNL     1       9.806   5.013  -8.214  1.00  0.00    -0.248 NA
ATOM     60  C   UNL     1       7.942   4.878  -9.617  1.00  0.00     0.031 C 
ATOM     61  C   UNL     1      13.594   7.082  -9.287  1.00  0.00     0.029 A 
ATOM     62  C   UNL     1      12.399   6.454  -8.974  1.00  0.00     0.049 A 
ATOM     63  H   UNL     1      11.845   5.476  -7.188  1.00  0.00     0.167 HD
ATOM     64  C   UNL     1      10.088   5.664  -9.414  1.00  0.00     0.074 A 
ATOM     65  C   UNL     1       8.913   5.523 -10.248  1.00  0.00     0.031 C 
ATOM     66  C   UNL     1      11.220   6.308  -9.796  1.00  0.00     0.034 A 
BRANCH  53  67
ATOM     67  C   UNL     1      15.654   6.407  -5.456  1.00  0.00     0.023 A 
ATOM     68  C   UNL     1      16.673   5.504  -5.106  1.00  0.00     0.031 A 
ATOM     69  C   UNL     1      15.939   7.782  -5.382  1.00  0.00     0.131 A 
ATOM     70  C   UNL     1      17.903   5.987  -4.632  1.00  0.00     0.055 A 
ATOM     71  C   UNL     1      17.192   8.255  -4.988  1.00  0.00     0.041 A 
ATOM     72  F   UNL     1      14.999   8.693  -5.679  1.00  0.00    -0.206 F 
ATOM     73  C   UNL     1      18.179   7.355  -4.596  1.00  0.00     0.022 A 
BRANCH  70  74
ATOM     74  S   UNL     1      19.082   4.804  -3.924  1.00  0.00     0.124 S 
ATOM     75  O   UNL     1      18.289   4.200  -2.857  1.00  0.00    -0.237 OA
ATOM     76  O   UNL     1      19.387   3.943  -5.061  1.00  0.00    -0.237 OA
ATOM     77  O   UNL     1      20.184   5.651  -3.468  1.00  0.00    -0.744 OA
ENDBRANCH  70  74
ENDBRANCH  53  67
BRANCH  54  78
ATOM     78  C   UNL     1       6.378   3.324  -7.680  1.00  0.00     0.023 A 
ATOM     79  C   UNL     1       6.090   2.469  -8.755  1.00  0.00     0.031 A 
ATOM     80  C   UNL     1       5.296   3.839  -6.941  1.00  0.00     0.131 A 
ATOM     81  C   UNL     1       4.756   2.192  -9.091  1.00  0.00     0.055 A 
ATOM     82  C   UNL     1       3.973   3.514  -7.244  1.00  0.00     0.041 A 
ATOM     83  F   UNL     1       5.514   4.664  -5.904  1.00  0.00    -0.206 F 
ATOM     84  C   UNL     1       3.696   2.696  -8.334  1.00  0.00     0.022 A 
BRANCH  81  85
ATOM     85  S   UNL     1       4.422   1.231 -10.593  1.00  0.00     0.124 S 
ATOM     86  O   UNL     1       5.066   2.047 -11.616  1.00  0.00    -0.237 OA
ATOM     87  O   UNL     1       5.067  -0.042 -10.287  1.00  0.00    -0.237 OA
ATOM     88  O   UNL     1       2.963   1.189 -10.653  1.00  0.00    -0.744 OA
ENDBRANCH  81  85
ENDBRANCH  54  78
BRANCH  66  89
ATOM     89  C   UNL     1      11.269   6.854 -11.204  1.00  0.00     0.023 A 
ATOM     90  C   UNL     1      10.463   7.928 -11.618  1.00  0.00     0.031 A 
ATOM     91  C   UNL     1      12.155   6.292 -12.141  1.00  0.00     0.131 A 
ATOM     92  C   UNL     1      10.530   8.380 -12.946  1.00  0.00     0.055 A 
ATOM     93  C   UNL     1      12.260   6.783 -13.443  1.00  0.00     0.041 A 
ATOM     94  F   UNL     1      12.947   5.262 -11.801  1.00  0.00    -0.206 F 
ATOM     95  C   UNL     1      11.437   7.826 -13.855  1.00  0.00     0.022 A 
BRANCH  92  96
ATOM     96  S   UNL     1       9.363   9.655 -13.497  1.00  0.00     0.124 S 
ATOM     97  O   UNL     1       8.075   9.012 -13.255  1.00  0.00    -0.237 OA
ATOM     98  O   UNL     1       9.690  10.777 -12.622  1.00  0.00    -0.237 OA
ATOM     99  O   UNL     1       9.705   9.849 -14.905  1.00  0.00    -0.744 OA
ENDBRANCH  92  96
ENDBRANCH  66  89
ENDBRANCH  40  41
ENDBRANCH  33  35
ENDBRANCH  32  33
ENDBRANCH  31  32
ENDBRANCH  30  31
ENDBRANCH   1  30
TORSDOF 20
