REMARK SMILES C[C@H](C(=O)OCCOCCOC(=O)c1ccc(-c2c3nc(c(-c4cc(S(=O)(=O)[O-])ccc4F)c4ccc([nH]4)c(-c4cc(S(=O)(=O)[O-])ccc4F)c4nc(c(-c5cc(S(=O)(=O)[O-])ccc5F)c5ccc2[nH]5)C=C4)C=C3)cc1)[C@H](C)[N@@H+]1CC[C@H]([NH+](C)C)C1
REMARK SMILES IDX 8 1 7 2 6 3 5 4 3 5 4 6 2 7 1 8 77 9 78 10 79 11 80 12 86 13
REMARK SMILES IDX 81 15 82 16 83 17 84 18 85 19 9 21 10 22 11 23 12 24 13 25
REMARK SMILES IDX 14 26 15 27 76 28 16 29 75 30 17 31 18 32 19 33 69 34 20 35
REMARK SMILES IDX 74 36 68 37 70 38 21 39 73 40 67 41 66 42 22 44 54 45 34 46
REMARK SMILES IDX 53 47 35 48 38 49 52 50 71 51 36 52 37 53 51 55 72 56 39 57
REMARK SMILES IDX 23 58 24 59 32 60 25 61 31 62 33 63 30 64 26 65 27 66 28 67
REMARK SMILES IDX 29 68 55 69 56 70 64 71 57 72 63 73 65 74 62 75 58 76 59 77
REMARK SMILES IDX 60 78 61 79 40 80 41 81 49 82 42 83 48 84 50 85 47 86 43 87
REMARK SMILES IDX 44 88 45 89 46 90
REMARK H PARENT 79 14 83 20 70 43 38 54
REMARK Flexibility Score: inf
ROOT
ATOM      1  O   UNL     1      -4.516   0.923   1.899  1.00  0.00    -0.374 OA
ENDROOT
BRANCH   1   2
ATOM      2  C   UNL     1      -5.348   0.454   0.833  1.00  0.00     0.202 C 
BRANCH   2   3
ATOM      3  C   UNL     1      -4.937   0.952  -0.554  1.00  0.00     0.261 C 
BRANCH   3   4
ATOM      4  O   UNL     1      -3.633   0.442  -0.878  1.00  0.00    -0.463 OA
BRANCH   4   5
ATOM      5  C   UNL     1      -2.930   1.153  -1.792  1.00  0.00     0.314 C 
ATOM      6  O   UNL     1      -3.377   2.112  -2.412  1.00  0.00    -0.252 OA
BRANCH   5   7
ATOM      7  C   UNL     1      -1.460   0.755  -1.838  1.00  0.00     0.154 C 
ATOM      8  C   UNL     1      -0.777   1.752  -0.874  1.00  0.00     0.026 C 
BRANCH   7   9
ATOM      9  C   UNL     1      -1.087  -0.744  -1.530  1.00  0.00     0.195 C 
ATOM     10  C   UNL     1       0.455  -0.862  -1.349  1.00  0.00     0.076 C 
BRANCH   9  11
ATOM     11  N   UNL     1      -1.492  -1.735  -2.578  1.00  0.00    -0.327 N 
ATOM     12  C   UNL     1      -2.946  -1.899  -2.759  1.00  0.00     0.269 C 
ATOM     13  C   UNL     1      -1.061  -3.135  -2.272  1.00  0.00     0.328 C 
ATOM     14  H   UNL     1      -1.041  -1.331  -3.399  1.00  0.00     0.348 HD
ATOM     15  C   UNL     1      -3.373  -2.842  -1.647  1.00  0.00     0.132 C 
ATOM     16  C   UNL     1      -2.284  -3.912  -1.725  1.00  0.00     0.245 C 
BRANCH  16  17
ATOM     17  N   UNL     1      -2.150  -4.728  -0.508  1.00  0.00    -0.333 N 
ATOM     18  C   UNL     1      -1.635  -6.064  -0.798  1.00  0.00     0.332 C 
ATOM     19  C   UNL     1      -1.404  -4.113   0.584  1.00  0.00     0.332 C 
ATOM     20  H   UNL     1      -3.107  -4.804  -0.164  1.00  0.00     0.348 HD
ENDBRANCH  16  17
ENDBRANCH   9  11
ENDBRANCH   7   9
ENDBRANCH   5   7
ENDBRANCH   4   5
ENDBRANCH   3   4
ENDBRANCH   2   3
ENDBRANCH   1   2
BRANCH   1  21
ATOM     21  C   UNL     1      -3.242   0.292   2.046  1.00  0.00     0.202 C 
BRANCH  21  22
ATOM     22  C   UNL     1      -3.255  -1.084   2.720  1.00  0.00     0.261 C 
BRANCH  22  23
ATOM     23  O   UNL     1      -3.916  -2.083   1.924  1.00  0.00    -0.460 OA
BRANCH  23  24
ATOM     24  C   UNL     1      -5.048  -2.606   2.450  1.00  0.00     0.338 C 
ATOM     25  O   UNL     1      -5.544  -2.332   3.540  1.00  0.00    -0.246 OA
BRANCH  24  26
ATOM     26  C   UNL     1      -5.717  -3.467   1.458  1.00  0.00     0.060 A 
ATOM     27  C   UNL     1      -7.034  -3.176   1.093  1.00  0.00     0.016 A 
ATOM     28  C   UNL     1      -5.084  -4.592   0.933  1.00  0.00     0.016 A 
ATOM     29  C   UNL     1      -7.729  -4.035   0.234  1.00  0.00     0.010 A 
ATOM     30  C   UNL     1      -5.763  -5.424   0.035  1.00  0.00     0.010 A 
ATOM     31  C   UNL     1      -7.110  -5.184  -0.284  1.00  0.00    -0.014 A 
BRANCH  31  32
ATOM     32  C   UNL     1      -7.914  -6.207  -1.016  1.00  0.00     0.031 A 
ATOM     33  C   UNL     1      -8.157  -7.553  -0.373  1.00  0.00     0.074 A 
ATOM     34  C   UNL     1      -8.452  -5.946  -2.224  1.00  0.00     0.049 A 
ATOM     35  N   UNL     1      -8.818  -8.589  -0.828  1.00  0.00    -0.248 NA
ATOM     36  C   UNL     1      -7.553  -7.767   0.951  1.00  0.00     0.031 C 
ATOM     37  C   UNL     1      -8.297  -4.696  -2.967  1.00  0.00     0.029 A 
ATOM     38  N   UNL     1      -9.245  -6.720  -3.039  1.00  0.00    -0.354 N 
ATOM     39  C   UNL     1      -8.693  -9.578   0.144  1.00  0.00     0.074 A 
ATOM     40  C   UNL     1      -7.838  -9.038   1.179  1.00  0.00     0.031 C 
ATOM     41  C   UNL     1      -8.991  -4.779  -4.115  1.00  0.00     0.029 A 
ATOM     42  C   UNL     1      -9.613  -6.099  -4.210  1.00  0.00     0.049 A 
ATOM     43  H   UNL     1      -9.524  -7.635  -2.805  1.00  0.00     0.167 HD
ATOM     44  C   UNL     1      -9.257 -10.812   0.190  1.00  0.00     0.034 A 
ATOM     45  C   UNL     1     -10.359  -6.542  -5.244  1.00  0.00     0.034 A 
ATOM     46  C   UNL     1     -10.133 -11.336  -0.829  1.00  0.00     0.049 A 
ATOM     47  C   UNL     1     -10.953  -7.931  -5.189  1.00  0.00     0.074 A 
ATOM     48  C   UNL     1     -10.800 -12.549  -0.850  1.00  0.00     0.029 A 
ATOM     49  N   UNL     1     -10.461 -10.684  -2.009  1.00  0.00    -0.354 N 
ATOM     50  N   UNL     1     -10.855  -8.837  -4.245  1.00  0.00    -0.248 NA
ATOM     51  C   UNL     1     -11.768  -8.350  -6.339  1.00  0.00     0.031 C 
ATOM     52  C   UNL     1     -11.474 -12.659  -2.071  1.00  0.00     0.029 A 
ATOM     53  C   UNL     1     -11.295 -11.482  -2.779  1.00  0.00     0.049 A 
ATOM     54  H   UNL     1     -10.149  -9.785  -2.263  1.00  0.00     0.167 HD
ATOM     55  C   UNL     1     -11.624  -9.918  -4.673  1.00  0.00     0.074 A 
ATOM     56  C   UNL     1     -12.188  -9.546  -5.953  1.00  0.00     0.031 C 
ATOM     57  C   UNL     1     -11.848 -11.108  -4.059  1.00  0.00     0.034 A 
BRANCH  44  58
ATOM     58  C   UNL     1      -8.916 -11.686   1.375  1.00  0.00     0.023 A 
ATOM     59  C   UNL     1      -9.254 -11.319   2.690  1.00  0.00     0.031 A 
ATOM     60  C   UNL     1      -8.209 -12.888   1.191  1.00  0.00     0.131 A 
ATOM     61  C   UNL     1      -8.810 -12.094   3.771  1.00  0.00     0.055 A 
ATOM     62  C   UNL     1      -7.848 -13.703   2.267  1.00  0.00     0.041 A 
ATOM     63  F   UNL     1      -7.841 -13.284  -0.037  1.00  0.00    -0.206 F 
ATOM     64  C   UNL     1      -8.132 -13.298   3.568  1.00  0.00     0.022 A 
BRANCH  61  65
ATOM     65  S   UNL     1      -8.989 -11.424   5.447  1.00  0.00     0.124 S 
ATOM     66  O   UNL     1      -8.243 -10.172   5.344  1.00  0.00    -0.237 OA
ATOM     67  O   UNL     1     -10.435 -11.297   5.584  1.00  0.00    -0.237 OA
ATOM     68  O   UNL     1      -8.367 -12.442   6.291  1.00  0.00    -0.744 OA
ENDBRANCH  61  65
ENDBRANCH  44  58
BRANCH  45  69
ATOM     69  C   UNL     1     -10.585  -5.677  -6.440  1.00  0.00     0.023 A 
ATOM     70  C   UNL     1     -11.872  -5.230  -6.782  1.00  0.00     0.031 A 
ATOM     71  C   UNL     1      -9.522  -5.337  -7.295  1.00  0.00     0.131 A 
ATOM     72  C   UNL     1     -12.071  -4.509  -7.971  1.00  0.00     0.055 A 
ATOM     73  C   UNL     1      -9.716  -4.575  -8.448  1.00  0.00     0.041 A 
ATOM     74  F   UNL     1      -8.272  -5.740  -7.016  1.00  0.00    -0.206 F 
ATOM     75  C   UNL     1     -10.999  -4.168  -8.799  1.00  0.00     0.022 A 
BRANCH  72  76
ATOM     76  S   UNL     1     -13.767  -4.095  -8.465  1.00  0.00     0.124 S 
ATOM     77  O   UNL     1     -14.378  -5.416  -8.562  1.00  0.00    -0.237 OA
ATOM     78  O   UNL     1     -14.211  -3.262  -7.353  1.00  0.00    -0.237 OA
ATOM     79  O   UNL     1     -13.589  -3.393  -9.734  1.00  0.00    -0.744 OA
ENDBRANCH  72  76
ENDBRANCH  45  69
BRANCH  57  80
ATOM     80  C   UNL     1     -12.785 -12.077  -4.743  1.00  0.00     0.023 A 
ATOM     81  C   UNL     1     -12.458 -12.691  -5.965  1.00  0.00     0.031 A 
ATOM     82  C   UNL     1     -14.026 -12.388  -4.160  1.00  0.00     0.131 A 
ATOM     83  C   UNL     1     -13.382 -13.544  -6.589  1.00  0.00     0.055 A 
ATOM     84  C   UNL     1     -14.917 -13.283  -4.755  1.00  0.00     0.041 A 
ATOM     85  F   UNL     1     -14.393 -11.831  -2.994  1.00  0.00    -0.206 F 
ATOM     86  C   UNL     1     -14.602 -13.857  -5.983  1.00  0.00     0.022 A 
BRANCH  83  87
ATOM     87  S   UNL     1     -13.006 -14.176  -8.247  1.00  0.00     0.124 S 
ATOM     88  O   UNL     1     -12.837 -12.944  -9.011  1.00  0.00    -0.237 OA
ATOM     89  O   UNL     1     -11.794 -14.955  -8.018  1.00  0.00    -0.237 OA
ATOM     90  O   UNL     1     -14.190 -14.961  -8.592  1.00  0.00    -0.744 OA
ENDBRANCH  83  87
ENDBRANCH  57  80
ENDBRANCH  31  32
ENDBRANCH  24  26
ENDBRANCH  23  24
ENDBRANCH  22  23
ENDBRANCH  21  22
ENDBRANCH   1  21
TORSDOF 20
