REMARK SMILES CCc1ccc(N2C(=O)/C(=C/c3cc(Cl)c(OCC(=O)OCCOCCOC(=O)c4ccc(-c5c6nc(c(-c7cc(S(=O)(=O)[O-])ccc7F)c7ccc([nH]7)c(-c7cc(S(=O)(=O)[O-])ccc7F)c7nc(c(-c8cc(S(=O)(=O)[O-])ccc8F)c8ccc5[nH]8)C=C7)C=C6)cc4)c(Cl)c3)C(=O)NC2=S)cc1
REMARK SMILES IDX 23 1 22 2 21 3 19 4 20 5 18 6 17 7 16 8 12 9 13 10 95 11
REMARK SMILES IDX 14 12 93 13 15 14 94 15 11 16 7 17 8 18 99 19 9 20 10 21
REMARK SMILES IDX 98 22 100 23 96 24 97 26 6 27 3 28 4 29 102 30 5 31 101 32
REMARK SMILES IDX 2 33 1 34 24 35 25 36 26 37 27 38 28 39 29 40 30 41 31 42
REMARK SMILES IDX 92 43 32 44 91 45 33 46 34 47 35 48 85 49 36 50 90 51 84 52
REMARK SMILES IDX 86 53 37 54 89 55 83 56 82 57 38 59 70 60 50 61 69 62 51 63
REMARK SMILES IDX 54 64 68 65 87 66 52 67 53 68 67 70 88 71 55 72 39 73 40 74
REMARK SMILES IDX 48 75 41 76 47 77 49 78 46 79 42 80 43 81 44 82 45 83 71 84
REMARK SMILES IDX 72 85 80 86 73 87 79 88 81 89 78 90 74 91 75 92 76 93 77 94
REMARK SMILES IDX 56 95 57 96 65 97 58 98 64 99 66 100 63 101 59 102 60 103
REMARK SMILES IDX 61 104 62 105
REMARK H PARENT 98 25 86 58 54 69
REMARK Flexibility Score: inf
ROOT
ATOM      1  C   UNL     1       5.563  -1.424 -14.009  1.00  0.00     0.202 C 
ENDROOT
BRANCH   1   2
ATOM      2  C   UNL     1       4.844  -0.617 -15.100  1.00  0.00     0.261 C 
BRANCH   2   3
ATOM      3  O   UNL     1       3.523  -0.125 -14.768  1.00  0.00    -0.461 OA
BRANCH   3   4
ATOM      4  C   UNL     1       2.502  -0.604 -15.535  1.00  0.00     0.344 C 
ATOM      5  O   UNL     1       2.631  -1.474 -16.391  1.00  0.00    -0.248 OA
BRANCH   4   6
ATOM      6  C   UNL     1       1.163   0.137 -15.331  1.00  0.00     0.352 C 
BRANCH   6   7
ATOM      7  O   UNL     1       0.670   0.703 -14.138  1.00  0.00    -0.479 OA
BRANCH   7   8
ATOM      8  C   UNL     1       0.317   0.016 -13.012  1.00  0.00     0.157 A 
ATOM      9  C   UNL     1       0.042  -1.117 -10.403  1.00  0.00    -0.021 A 
ATOM     10  C   UNL     1       0.154   0.265 -10.570  1.00  0.00     0.032 A 
ATOM     11  C   UNL     1      -0.046  -1.914 -11.546  1.00  0.00     0.032 A 
ATOM     12  C   UNL     1       0.282   0.820 -11.850  1.00  0.00     0.085 A 
ATOM     13  C   UNL     1       0.069  -1.354 -12.842  1.00  0.00     0.085 A 
ATOM     14  Cl  UNL     1       0.470   2.542 -11.941  1.00  0.00    -0.080 Cl
ATOM     15  Cl  UNL     1      -0.107  -2.469 -14.148  1.00  0.00    -0.080 Cl
BRANCH   9  16
ATOM     16  C   UNL     1      -0.006  -1.645  -9.029  1.00  0.00     0.028 C 
ATOM     17  N   UNL     1       1.962  -2.025  -6.177  1.00  0.00    -0.253 N 
ATOM     18  C   UNL     1       0.798  -2.375  -6.883  1.00  0.00     0.270 C 
ATOM     19  C   UNL     1       3.248  -2.127  -6.737  1.00  0.00     0.187 C 
ATOM     20  O   UNL     1      -0.308  -2.637  -6.413  1.00  0.00    -0.268 OA
ATOM     21  C   UNL     1       0.962  -2.300  -8.352  1.00  0.00     0.106 C 
ATOM     22  N   UNL     1       3.297  -2.501  -8.064  1.00  0.00    -0.298 N 
ATOM     23  S   UNL     1       4.726  -1.952  -5.959  1.00  0.00    -0.040 S 
ATOM     24  C   UNL     1       2.244  -2.743  -8.900  1.00  0.00     0.263 C 
ATOM     25  H   UNL     1       4.196  -2.604  -8.454  1.00  0.00     0.172 HD
ATOM     26  O   UNL     1       2.336  -3.323  -9.973  1.00  0.00    -0.269 OA
BRANCH  17  27
ATOM     27  C   UNL     1       1.752  -1.465  -4.871  1.00  0.00     0.052 A 
ATOM     28  C   UNL     1       0.990  -0.149  -2.494  1.00  0.00    -0.048 A 
ATOM     29  C   UNL     1       0.566  -1.458  -2.751  1.00  0.00     0.006 A 
ATOM     30  C   UNL     1       1.834   0.481  -3.414  1.00  0.00     0.006 A 
ATOM     31  C   UNL     1       0.941  -2.108  -3.929  1.00  0.00     0.027 A 
ATOM     32  C   UNL     1       2.213  -0.171  -4.591  1.00  0.00     0.027 A 
BRANCH  28  33
ATOM     33  C   UNL     1       0.512   0.590  -1.270  1.00  0.00     0.032 C 
ATOM     34  C   UNL     1       1.041  -0.008   0.023  1.00  0.00     0.009 C 
ENDBRANCH  28  33
ENDBRANCH  17  27
ENDBRANCH   9  16
ENDBRANCH   7   8
ENDBRANCH   6   7
ENDBRANCH   4   6
ENDBRANCH   3   4
ENDBRANCH   2   3
ENDBRANCH   1   2
BRANCH   1  35
ATOM     35  O   UNL     1       4.905  -2.534 -13.424  1.00  0.00    -0.374 OA
BRANCH  35  36
ATOM     36  C   UNL     1       3.626  -2.353 -12.845  1.00  0.00     0.202 C 
BRANCH  36  37
ATOM     37  C   UNL     1       3.334  -1.114 -11.993  1.00  0.00     0.261 C 
BRANCH  37  38
ATOM     38  O   UNL     1       4.380  -0.202 -11.753  1.00  0.00    -0.460 OA
BRANCH  38  39
ATOM     39  C   UNL     1       5.081  -0.392 -10.626  1.00  0.00     0.338 C 
ATOM     40  O   UNL     1       4.991  -1.283  -9.803  1.00  0.00    -0.246 OA
BRANCH  39  41
ATOM     41  C   UNL     1       6.016   0.727 -10.613  1.00  0.00     0.060 A 
ATOM     42  C   UNL     1       7.338   0.482 -10.977  1.00  0.00     0.016 A 
ATOM     43  C   UNL     1       5.543   2.015 -10.335  1.00  0.00     0.016 A 
ATOM     44  C   UNL     1       8.226   1.544 -11.007  1.00  0.00     0.010 A 
ATOM     45  C   UNL     1       6.434   3.078 -10.376  1.00  0.00     0.010 A 
ATOM     46  C   UNL     1       7.784   2.833 -10.675  1.00  0.00    -0.014 A 
BRANCH  46  47
ATOM     47  C   UNL     1       8.783   3.900 -10.489  1.00  0.00     0.031 A 
ATOM     48  C   UNL     1       9.182   4.258  -9.089  1.00  0.00     0.074 A 
ATOM     49  C   UNL     1       9.349   4.476 -11.562  1.00  0.00     0.049 A 
ATOM     50  N   UNL     1      10.041   5.149  -8.676  1.00  0.00    -0.248 NA
ATOM     51  C   UNL     1       8.516   3.513  -8.006  1.00  0.00     0.031 C 
ATOM     52  C   UNL     1       9.037   4.151 -12.955  1.00  0.00     0.029 A 
ATOM     53  N   UNL     1      10.309   5.446 -11.649  1.00  0.00    -0.354 N 
ATOM     54  C   UNL     1      10.024   5.070  -7.288  1.00  0.00     0.074 A 
ATOM     55  C   UNL     1       9.031   4.083  -6.929  1.00  0.00     0.031 C 
ATOM     56  C   UNL     1       9.805   4.902 -13.760  1.00  0.00     0.029 A 
ATOM     57  C   UNL     1      10.626   5.790 -12.942  1.00  0.00     0.049 A 
ATOM     58  H   UNL     1      10.733   5.857 -10.862  1.00  0.00     0.167 HD
ATOM     59  C   UNL     1      10.787   5.752  -6.402  1.00  0.00     0.034 A 
ATOM     60  C   UNL     1      11.472   6.733 -13.399  1.00  0.00     0.034 A 
ATOM     61  C   UNL     1      11.760   6.737  -6.801  1.00  0.00     0.049 A 
ATOM     62  C   UNL     1      12.245   7.541 -12.386  1.00  0.00     0.074 A 
ATOM     63  C   UNL     1      12.595   7.498  -6.005  1.00  0.00     0.029 A 
ATOM     64  N   UNL     1      12.020   7.105  -8.117  1.00  0.00    -0.354 N 
ATOM     65  N   UNL     1      12.231   7.455 -11.074  1.00  0.00    -0.248 NA
ATOM     66  C   UNL     1      13.154   8.565 -12.912  1.00  0.00     0.031 C 
ATOM     67  C   UNL     1      13.300   8.379  -6.831  1.00  0.00     0.029 A 
ATOM     68  C   UNL     1      12.976   8.107  -8.152  1.00  0.00     0.049 A 
ATOM     69  H   UNL     1      11.587   6.711  -8.909  1.00  0.00     0.167 HD
ATOM     70  C   UNL     1      13.155   8.392 -10.621  1.00  0.00     0.074 A 
ATOM     71  C   UNL     1      13.719   9.015 -11.802  1.00  0.00     0.031 C 
ATOM     72  C   UNL     1      13.510   8.713  -9.350  1.00  0.00     0.034 A 
BRANCH  59  73
ATOM     73  C   UNL     1      10.555   5.489  -4.935  1.00  0.00     0.023 A 
ATOM     74  C   UNL     1      10.787   4.226  -4.361  1.00  0.00     0.031 A 
ATOM     75  C   UNL     1      10.062   6.508  -4.101  1.00  0.00     0.131 A 
ATOM     76  C   UNL     1      10.464   3.998  -3.014  1.00  0.00     0.055 A 
ATOM     77  C   UNL     1       9.820   6.297  -2.743  1.00  0.00     0.041 A 
ATOM     78  F   UNL     1       9.790   7.725  -4.598  1.00  0.00    -0.206 F 
ATOM     79  C   UNL     1      10.008   5.032  -2.194  1.00  0.00     0.022 A 
BRANCH  76  80
ATOM     80  S   UNL     1      10.510   2.297  -2.387  1.00  0.00     0.124 S 
ATOM     81  O   UNL     1       9.552   1.633  -3.268  1.00  0.00    -0.237 OA
ATOM     82  O   UNL     1      11.909   1.931  -2.570  1.00  0.00    -0.237 OA
ATOM     83  O   UNL     1      10.076   2.433  -0.997  1.00  0.00    -0.744 OA
ENDBRANCH  76  80
ENDBRANCH  59  73
BRANCH  60  84
ATOM     84  C   UNL     1      11.610   6.986 -14.861  1.00  0.00     0.023 A 
ATOM     85  C   UNL     1      12.844   6.828 -15.511  1.00  0.00     0.031 A 
ATOM     86  C   UNL     1      10.520   7.444 -15.623  1.00  0.00     0.131 A 
ATOM     87  C   UNL     1      12.972   7.179 -16.864  1.00  0.00     0.055 A 
ATOM     88  C   UNL     1      10.637   7.731 -16.984  1.00  0.00     0.041 A 
ATOM     89  F   UNL     1       9.316   7.614 -15.054  1.00  0.00    -0.206 F 
ATOM     90  C   UNL     1      11.874   7.614 -17.609  1.00  0.00     0.022 A 
BRANCH  87  91
ATOM     91  S   UNL     1      14.625   7.162 -17.610  1.00  0.00     0.124 S 
ATOM     92  O   UNL     1      15.360   8.053 -16.718  1.00  0.00    -0.237 OA
ATOM     93  O   UNL     1      14.975   5.748 -17.536  1.00  0.00    -0.237 OA
ATOM     94  O   UNL     1      14.395   7.678 -18.957  1.00  0.00    -0.744 OA
ENDBRANCH  87  91
ENDBRANCH  60  84
BRANCH  72  95
ATOM     95  C   UNL     1      14.589   9.755  -9.188  1.00  0.00     0.023 A 
ATOM     96  C   UNL     1      14.391  11.090  -9.578  1.00  0.00     0.031 A 
ATOM     97  C   UNL     1      15.836   9.401  -8.642  1.00  0.00     0.131 A 
ATOM     98  C   UNL     1      15.445  12.008  -9.478  1.00  0.00     0.055 A 
ATOM     99  C   UNL     1      16.857  10.336  -8.477  1.00  0.00     0.041 A 
ATOM    100  F   UNL     1      16.080   8.138  -8.255  1.00  0.00    -0.206 F 
ATOM    101  C   UNL     1      16.670  11.645  -8.911  1.00  0.00     0.022 A 
BRANCH  98 102
ATOM    102  S   UNL     1      15.230  13.656 -10.202  1.00  0.00     0.124 S 
ATOM    103  O   UNL     1      14.937  13.338 -11.596  1.00  0.00    -0.237 OA
ATOM    104  O   UNL     1      14.120  14.196  -9.424  1.00  0.00    -0.237 OA
ATOM    105  O   UNL     1      16.520  14.303  -9.971  1.00  0.00    -0.744 OA
ENDBRANCH  98 102
ENDBRANCH  72  95
ENDBRANCH  46  47
ENDBRANCH  39  41
ENDBRANCH  38  39
ENDBRANCH  37  38
ENDBRANCH  36  37
ENDBRANCH  35  36
ENDBRANCH   1  35
TORSDOF 22
