REMARK SMILES O=C(C[C@@H]([NH2+]Cc1ccccc1)C(=O)OCCOCCOC(=O)c1ccc(-c2c3nc(c(-c4cc(S(=O)(=O)[O-])ccc4F)c4ccc([nH]4)c(-c4cc(S(=O)(=O)[O-])ccc4F)c4nc(c(-c5cc(S(=O)(=O)[O-])ccc5F)c5ccc2[nH]5)C=C4)C=C3)cc1)Nc1cccc(Cl)c1Cl
REMARK SMILES IDX 18 1 17 2 16 3 15 4 13 5 14 6 4 7 3 8 2 9 1 10 87 11 88 13
REMARK SMILES IDX 89 14 94 15 90 16 92 17 95 18 91 19 93 20 5 21 6 24 7 25
REMARK SMILES IDX 8 26 12 27 9 28 11 29 10 30 19 31 20 32 21 33 22 34 23 35
REMARK SMILES IDX 24 36 25 37 86 38 26 39 85 40 27 41 28 42 29 43 79 44 30 45
REMARK SMILES IDX 84 46 78 47 80 48 31 49 83 50 77 51 76 52 32 54 64 55 44 56
REMARK SMILES IDX 63 57 45 58 48 59 62 60 81 61 46 62 47 63 61 65 82 66 49 67
REMARK SMILES IDX 33 68 34 69 42 70 35 71 41 72 43 73 40 74 36 75 37 76 38 77
REMARK SMILES IDX 39 78 65 79 66 80 74 81 67 82 73 83 75 84 72 85 68 86 69 87
REMARK SMILES IDX 70 88 71 89 50 90 51 91 59 92 52 93 58 94 60 95 57 96 53 97
REMARK SMILES IDX 54 98 55 99 56 100
REMARK H PARENT 87 12 5 22 5 23 80 53 48 64
REMARK Flexibility Score: inf
ROOT
ATOM      1  O   UNL     1       4.420  -2.366   5.119  1.00  0.00    -0.374 OA
ENDROOT
BRANCH   1   2
ATOM      2  C   UNL     1       5.598  -1.570   5.199  1.00  0.00     0.202 C 
BRANCH   2   3
ATOM      3  C   UNL     1       6.417  -1.367   3.920  1.00  0.00     0.261 C 
BRANCH   3   4
ATOM      4  O   UNL     1       5.638  -0.895   2.809  1.00  0.00    -0.459 OA
BRANCH   4   5
ATOM      5  C   UNL     1       5.306  -1.865   1.913  1.00  0.00     0.365 C 
ATOM      6  O   UNL     1       5.665  -3.035   2.009  1.00  0.00    -0.245 OA
BRANCH   5   7
ATOM      7  C   UNL     1       4.393  -1.363   0.778  1.00  0.00     0.303 C 
BRANCH   7   8
ATOM      8  C   UNL     1       3.798   0.039   1.020  1.00  0.00     0.177 C 
BRANCH   8   9
ATOM      9  C   UNL     1       2.670   0.282   0.035  1.00  0.00     0.231 C 
ATOM     10  O   UNL     1       1.520  -0.072   0.275  1.00  0.00    -0.274 OA
ATOM     11  N   UNL     1       3.135   0.742  -1.189  1.00  0.00    -0.325 N 
ATOM     12  H   UNL     1       4.089   0.976  -1.254  1.00  0.00     0.169 HD
BRANCH  11  13
ATOM     13  C   UNL     1       2.342   0.900  -2.348  1.00  0.00     0.061 A 
ATOM     14  C   UNL     1       2.878   0.342  -3.521  1.00  0.00     0.028 A 
ATOM     15  C   UNL     1       1.114   1.589  -2.404  1.00  0.00     0.083 A 
ATOM     16  C   UNL     1       2.180   0.402  -4.725  1.00  0.00     0.004 A 
ATOM     17  C   UNL     1       0.430   1.666  -3.631  1.00  0.00     0.061 A 
ATOM     18  Cl  UNL     1       0.537   2.499  -1.042  1.00  0.00    -0.080 Cl
ATOM     19  C   UNL     1       0.957   1.062  -4.780  1.00  0.00     0.022 A 
ATOM     20  Cl  UNL     1      -1.060   2.529  -3.823  1.00  0.00    -0.083 Cl
ENDBRANCH  11  13
ENDBRANCH   8   9
ENDBRANCH   7   8
BRANCH   7  21
ATOM     21  N   UNL     1       5.059  -1.397  -0.564  1.00  0.00    -0.330 N 
ATOM     22  H   UNL     1       5.758  -0.655  -0.590  1.00  0.00     0.347 HD
ATOM     23  H   UNL     1       4.317  -1.278  -1.254  1.00  0.00     0.347 HD
BRANCH  21  24
ATOM     24  C   UNL     1       5.728  -2.667  -0.893  1.00  0.00     0.298 C 
BRANCH  24  25
ATOM     25  C   UNL     1       4.851  -3.901  -0.877  1.00  0.00     0.006 A 
ATOM     26  C   UNL     1       3.497  -3.886  -1.248  1.00  0.00     0.009 A 
ATOM     27  C   UNL     1       5.422  -5.124  -0.489  1.00  0.00     0.009 A 
ATOM     28  C   UNL     1       2.723  -5.044  -1.162  1.00  0.00     0.001 A 
ATOM     29  C   UNL     1       4.652  -6.285  -0.424  1.00  0.00     0.001 A 
ATOM     30  C   UNL     1       3.299  -6.242  -0.749  1.00  0.00     0.000 A 
ENDBRANCH  24  25
ENDBRANCH  21  24
ENDBRANCH   7  21
ENDBRANCH   5   7
ENDBRANCH   4   5
ENDBRANCH   3   4
ENDBRANCH   2   3
ENDBRANCH   1   2
BRANCH   1  31
ATOM     31  C   UNL     1       3.250  -1.796   4.531  1.00  0.00     0.202 C 
BRANCH  31  32
ATOM     32  C   UNL     1       2.592  -0.605   5.240  1.00  0.00     0.261 C 
BRANCH  32  33
ATOM     33  O   UNL     1       3.405   0.583   5.187  1.00  0.00    -0.460 OA
BRANCH  33  34
ATOM     34  C   UNL     1       3.780   1.061   6.398  1.00  0.00     0.338 C 
ATOM     35  O   UNL     1       3.450   0.622   7.494  1.00  0.00    -0.246 OA
BRANCH  34  36
ATOM     36  C   UNL     1       4.836   2.077   6.246  1.00  0.00     0.060 A 
ATOM     37  C   UNL     1       6.039   1.866   6.933  1.00  0.00     0.016 A 
ATOM     38  C   UNL     1       4.622   3.259   5.535  1.00  0.00     0.016 A 
ATOM     39  C   UNL     1       7.012   2.862   6.961  1.00  0.00     0.010 A 
ATOM     40  C   UNL     1       5.597   4.263   5.573  1.00  0.00     0.010 A 
ATOM     41  C   UNL     1       6.777   4.085   6.321  1.00  0.00    -0.014 A 
BRANCH  41  42
ATOM     42  C   UNL     1       7.677   5.231   6.601  1.00  0.00     0.031 A 
ATOM     43  C   UNL     1       7.258   6.244   7.633  1.00  0.00     0.074 A 
ATOM     44  C   UNL     1       8.870   5.341   5.990  1.00  0.00     0.049 A 
ATOM     45  N   UNL     1       7.866   7.331   8.029  1.00  0.00    -0.248 NA
ATOM     46  C   UNL     1       5.974   5.990   8.306  1.00  0.00     0.031 C 
ATOM     47  C   UNL     1       9.410   4.392   5.018  1.00  0.00     0.029 A 
ATOM     48  N   UNL     1       9.844   6.302   6.100  1.00  0.00    -0.354 N 
ATOM     49  C   UNL     1       7.041   7.895   8.998  1.00  0.00     0.074 A 
ATOM     50  C   UNL     1       5.870   7.049   9.094  1.00  0.00     0.031 C 
ATOM     51  C   UNL     1      10.619   4.822   4.616  1.00  0.00     0.029 A 
ATOM     52  C   UNL     1      10.921   6.093   5.272  1.00  0.00     0.049 A 
ATOM     53  H   UNL     1       9.777   7.069   6.714  1.00  0.00     0.167 HD
ATOM     54  C   UNL     1       7.246   9.008   9.745  1.00  0.00     0.034 A 
ATOM     55  C   UNL     1      12.013   6.853   5.053  1.00  0.00     0.034 A 
ATOM     56  C   UNL     1       8.412   9.850   9.625  1.00  0.00     0.049 A 
ATOM     57  C   UNL     1      12.176   8.141   5.824  1.00  0.00     0.074 A 
ATOM     58  C   UNL     1       8.723  11.001  10.329  1.00  0.00     0.029 A 
ATOM     59  N   UNL     1       9.456   9.639   8.732  1.00  0.00    -0.354 N 
ATOM     60  N   UNL     1      11.386   8.668   6.732  1.00  0.00    -0.248 NA
ATOM     61  C   UNL     1      13.381   8.932   5.544  1.00  0.00     0.031 C 
ATOM     62  C   UNL     1       9.915  11.522   9.813  1.00  0.00     0.029 A 
ATOM     63  C   UNL     1      10.393  10.655   8.844  1.00  0.00     0.049 A 
ATOM     64  H   UNL     1       9.520   8.878   8.111  1.00  0.00     0.167 HD
ATOM     65  C   UNL     1      12.019   9.835   7.155  1.00  0.00     0.074 A 
ATOM     66  C   UNL     1      13.257   9.928   6.409  1.00  0.00     0.031 C 
ATOM     67  C   UNL     1      11.619  10.742   8.084  1.00  0.00     0.034 A 
BRANCH  54  68
ATOM     68  C   UNL     1       6.152   9.400  10.711  1.00  0.00     0.023 A 
ATOM     69  C   UNL     1       5.788   8.578  11.792  1.00  0.00     0.031 A 
ATOM     70  C   UNL     1       5.427  10.590  10.518  1.00  0.00     0.131 A 
ATOM     71  C   UNL     1       4.680   8.914  12.586  1.00  0.00     0.055 A 
ATOM     72  C   UNL     1       4.379  10.960  11.363  1.00  0.00     0.041 A 
ATOM     73  F   UNL     1       5.712  11.404   9.489  1.00  0.00    -0.206 F 
ATOM     74  C   UNL     1       3.989  10.111  12.394  1.00  0.00     0.022 A 
BRANCH  71  75
ATOM     75  S   UNL     1       4.058   7.687  13.769  1.00  0.00     0.124 S 
ATOM     76  O   UNL     1       3.785   6.547  12.896  1.00  0.00    -0.237 OA
ATOM     77  O   UNL     1       5.181   7.536  14.687  1.00  0.00    -0.237 OA
ATOM     78  O   UNL     1       2.871   8.327  14.334  1.00  0.00    -0.744 OA
ENDBRANCH  71  75
ENDBRANCH  54  68
BRANCH  55  79
ATOM     79  C   UNL     1      13.024   6.443   4.037  1.00  0.00     0.023 A 
ATOM     80  C   UNL     1      14.341   6.128   4.406  1.00  0.00     0.031 A 
ATOM     81  C   UNL     1      12.695   6.407   2.670  1.00  0.00     0.131 A 
ATOM     82  C   UNL     1      15.291   5.828   3.416  1.00  0.00     0.055 A 
ATOM     83  C   UNL     1      13.630   6.061   1.694  1.00  0.00     0.041 A 
ATOM     84  F   UNL     1      11.449   6.700   2.263  1.00  0.00    -0.206 F 
ATOM     85  C   UNL     1      14.941   5.780   2.065  1.00  0.00     0.022 A 
BRANCH  82  86
ATOM     86  S   UNL     1      17.016   5.572   3.915  1.00  0.00     0.124 S 
ATOM     87  O   UNL     1      17.335   6.847   4.546  1.00  0.00    -0.237 OA
ATOM     88  O   UNL     1      16.905   4.423   4.808  1.00  0.00    -0.237 OA
ATOM     89  O   UNL     1      17.700   5.311   2.651  1.00  0.00    -0.744 OA
ENDBRANCH  82  86
ENDBRANCH  55  79
BRANCH  67  90
ATOM     90  C   UNL     1      12.559  11.887   8.378  1.00  0.00     0.023 A 
ATOM     91  C   UNL     1      12.841  12.882   7.426  1.00  0.00     0.031 A 
ATOM     92  C   UNL     1      13.191  11.975   9.632  1.00  0.00     0.131 A 
ATOM     93  C   UNL     1      13.771  13.891   7.723  1.00  0.00     0.055 A 
ATOM     94  C   UNL     1      14.068  13.014   9.943  1.00  0.00     0.041 A 
ATOM     95  F   UNL     1      12.960  11.051  10.579  1.00  0.00    -0.206 F 
ATOM     96  C   UNL     1      14.373  13.972   8.982  1.00  0.00     0.022 A 
BRANCH  93  97
ATOM     97  S   UNL     1      14.256  15.045   6.411  1.00  0.00     0.124 S 
ATOM     98  O   UNL     1      14.768  14.142   5.385  1.00  0.00    -0.237 OA
ATOM     99  O   UNL     1      12.996  15.713   6.101  1.00  0.00    -0.237 OA
ATOM    100  O   UNL     1      15.262  15.890   7.051  1.00  0.00    -0.744 OA
ENDBRANCH  93  97
ENDBRANCH  67  90
ENDBRANCH  41  42
ENDBRANCH  34  36
ENDBRANCH  33  34
ENDBRANCH  32  33
ENDBRANCH  31  32
ENDBRANCH   1  31
TORSDOF 23
