REMARK SMILES O=C(OCCOCCOC(=O)C1(C/C=C/c2ccccc2)Cc2ccccc2C1)c1ccc(-c2c3nc(c(-c4cc(S(=O)(=O)[O-])ccc4F)c4ccc([nH]4)c(-c4cc(S(=O)(=O)[O-])ccc4F)c4nc(c(-c5cc(S(=O)(=O)[O-])ccc5F)c5ccc2[nH]5)C=C4)C=C3)cc1
REMARK SMILES IDX 6 1 5 2 4 3 3 4 2 5 1 6 30 7 31 8 92 9 32 10 91 11 33 12
REMARK SMILES IDX 34 13 35 14 85 15 36 16 90 17 84 18 86 19 37 20 89 21 83 22
REMARK SMILES IDX 82 23 38 25 70 26 50 27 69 28 51 29 54 30 68 31 87 32 52 33
REMARK SMILES IDX 53 34 67 36 88 37 55 38 39 39 40 40 48 41 41 42 47 43 49 44
REMARK SMILES IDX 46 45 42 46 43 47 44 48 45 49 71 50 72 51 80 52 73 53 79 54
REMARK SMILES IDX 81 55 78 56 74 57 75 58 76 59 77 60 56 61 57 62 65 63 58 64
REMARK SMILES IDX 64 65 66 66 63 67 59 68 60 69 61 70 62 71 7 72 8 73 9 74
REMARK SMILES IDX 10 75 11 76 12 77 22 78 29 79 23 80 28 81 24 82 27 83 25 84
REMARK SMILES IDX 26 85 13 86 14 87 15 88 16 89 17 90 21 91 18 92 20 93 19 94
REMARK H PARENT 86 24 54 35
REMARK Flexibility Score: inf
ROOT
ATOM      1  O   UNL     1       3.903  -0.953  -1.192  1.00  0.00    -0.374 OA
ENDROOT
BRANCH   1   2
ATOM      2  C   UNL     1       4.350  -1.239   0.133  1.00  0.00     0.202 C 
BRANCH   2   3
ATOM      3  C   UNL     1       4.140  -0.147   1.186  1.00  0.00     0.261 C 
BRANCH   3   4
ATOM      4  O   UNL     1       2.751   0.188   1.290  1.00  0.00    -0.460 OA
BRANCH   4   5
ATOM      5  C   UNL     1       2.088   1.151   0.610  1.00  0.00     0.338 C 
ATOM      6  O   UNL     1       0.867   1.223   0.741  1.00  0.00    -0.246 OA
BRANCH   5   7
ATOM      7  C   UNL     1       2.760   2.142  -0.285  1.00  0.00     0.060 A 
ATOM      8  C   UNL     1       3.958   1.932  -0.975  1.00  0.00     0.016 A 
ATOM      9  C   UNL     1       2.085   3.354  -0.497  1.00  0.00     0.016 A 
ATOM     10  C   UNL     1       4.496   2.882  -1.818  1.00  0.00     0.010 A 
ATOM     11  C   UNL     1       2.616   4.325  -1.346  1.00  0.00     0.010 A 
ATOM     12  C   UNL     1       3.833   4.085  -1.990  1.00  0.00    -0.014 A 
BRANCH  12  13
ATOM     13  C   UNL     1       4.556   5.138  -2.704  1.00  0.00     0.031 A 
ATOM     14  C   UNL     1       5.287   6.143  -1.878  1.00  0.00     0.074 A 
ATOM     15  C   UNL     1       4.659   5.078  -4.040  1.00  0.00     0.049 A 
ATOM     16  N   UNL     1       5.893   7.234  -2.245  1.00  0.00    -0.248 NA
ATOM     17  C   UNL     1       5.346   5.867  -0.432  1.00  0.00     0.031 C 
ATOM     18  C   UNL     1       4.122   4.002  -4.878  1.00  0.00     0.029 A 
ATOM     19  N   UNL     1       5.259   5.928  -4.923  1.00  0.00    -0.354 N 
ATOM     20  C   UNL     1       6.373   7.802  -1.071  1.00  0.00     0.074 A 
ATOM     21  C   UNL     1       5.989   6.931   0.017  1.00  0.00     0.031 C 
ATOM     22  C   UNL     1       4.405   4.271  -6.163  1.00  0.00     0.029 A 
ATOM     23  C   UNL     1       5.064   5.569  -6.235  1.00  0.00     0.049 A 
ATOM     24  H   UNL     1       5.780   6.716  -4.648  1.00  0.00     0.167 HD
ATOM     25  C   UNL     1       7.052   8.965  -0.935  1.00  0.00     0.034 A 
ATOM     26  C   UNL     1       5.331   6.264  -7.356  1.00  0.00     0.034 A 
ATOM     27  C   UNL     1       7.363   9.798  -2.069  1.00  0.00     0.049 A 
ATOM     28  C   UNL     1       5.967   7.620  -7.184  1.00  0.00     0.074 A 
ATOM     29  C   UNL     1       7.943  11.050  -2.101  1.00  0.00     0.029 A 
ATOM     30  N   UNL     1       7.096   9.447  -3.393  1.00  0.00    -0.354 N 
ATOM     31  N   UNL     1       6.318   8.228  -6.071  1.00  0.00    -0.248 NA
ATOM     32  C   UNL     1       6.233   8.388  -8.402  1.00  0.00     0.031 C 
ATOM     33  C   UNL     1       7.965  11.481  -3.434  1.00  0.00     0.029 A 
ATOM     34  C   UNL     1       7.477  10.466  -4.246  1.00  0.00     0.049 A 
ATOM     35  H   UNL     1       6.693   8.595  -3.678  1.00  0.00     0.167 HD
ATOM     36  C   UNL     1       6.871   9.443  -6.455  1.00  0.00     0.074 A 
ATOM     37  C   UNL     1       6.807   9.476  -7.906  1.00  0.00     0.031 C 
ATOM     38  C   UNL     1       7.389  10.440  -5.690  1.00  0.00     0.034 A 
BRANCH  25  39
ATOM     39  C   UNL     1       7.340   9.417   0.476  1.00  0.00     0.023 A 
ATOM     40  C   UNL     1       8.138   8.658   1.354  1.00  0.00     0.031 A 
ATOM     41  C   UNL     1       6.679  10.542   1.000  1.00  0.00     0.131 A 
ATOM     42  C   UNL     1       8.159   8.966   2.724  1.00  0.00     0.055 A 
ATOM     43  C   UNL     1       6.783  10.899   2.346  1.00  0.00     0.041 A 
ATOM     44  F   UNL     1       5.875  11.285   0.224  1.00  0.00    -0.206 F 
ATOM     45  C   UNL     1       7.506  10.096   3.222  1.00  0.00     0.022 A 
BRANCH  42  46
ATOM     46  S   UNL     1       8.867   7.752   3.875  1.00  0.00     0.124 S 
ATOM     47  O   UNL     1       8.059   6.569   3.592  1.00  0.00    -0.237 OA
ATOM     48  O   UNL     1      10.261   7.690   3.451  1.00  0.00    -0.237 OA
ATOM     49  O   UNL     1       8.641   8.351   5.189  1.00  0.00    -0.744 OA
ENDBRANCH  42  46
ENDBRANCH  25  39
BRANCH  26  50
ATOM     50  C   UNL     1       4.915   5.732  -8.684  1.00  0.00     0.023 A 
ATOM     51  C   UNL     1       5.851   5.417  -9.679  1.00  0.00     0.031 A 
ATOM     52  C   UNL     1       3.552   5.519  -8.974  1.00  0.00     0.131 A 
ATOM     53  C   UNL     1       5.414   4.922 -10.920  1.00  0.00     0.055 A 
ATOM     54  C   UNL     1       3.126   4.982 -10.190  1.00  0.00     0.041 A 
ATOM     55  F   UNL     1       2.610   5.804  -8.061  1.00  0.00    -0.206 F 
ATOM     56  C   UNL     1       4.060   4.688 -11.175  1.00  0.00     0.022 A 
BRANCH  53  57
ATOM     57  S   UNL     1       6.639   4.634 -12.226  1.00  0.00     0.124 S 
ATOM     58  O   UNL     1       7.228   5.960 -12.380  1.00  0.00    -0.237 OA
ATOM     59  O   UNL     1       7.494   3.617 -11.623  1.00  0.00    -0.237 OA
ATOM     60  O   UNL     1       5.833   4.176 -13.356  1.00  0.00    -0.744 OA
ENDBRANCH  53  57
ENDBRANCH  26  50
BRANCH  38  61
ATOM     61  C   UNL     1       7.981  11.611  -6.425  1.00  0.00     0.023 A 
ATOM     62  C   UNL     1       7.180  12.540  -7.106  1.00  0.00     0.031 A 
ATOM     63  C   UNL     1       9.373  11.810  -6.405  1.00  0.00     0.131 A 
ATOM     64  C   UNL     1       7.783  13.612  -7.776  1.00  0.00     0.055 A 
ATOM     65  C   UNL     1       9.962  12.909  -7.026  1.00  0.00     0.041 A 
ATOM     66  F   UNL     1      10.177  10.946  -5.765  1.00  0.00    -0.206 F 
ATOM     67  C   UNL     1       9.166  13.813  -7.724  1.00  0.00     0.022 A 
BRANCH  64  68
ATOM     68  S   UNL     1       6.742  14.712  -8.771  1.00  0.00     0.124 S 
ATOM     69  O   UNL     1       6.189  13.791  -9.759  1.00  0.00    -0.237 OA
ATOM     70  O   UNL     1       5.800  15.230  -7.785  1.00  0.00    -0.237 OA
ATOM     71  O   UNL     1       7.687  15.694  -9.299  1.00  0.00    -0.744 OA
ENDBRANCH  64  68
ENDBRANCH  38  61
ENDBRANCH  12  13
ENDBRANCH   5   7
ENDBRANCH   4   5
ENDBRANCH   3   4
ENDBRANCH   2   3
ENDBRANCH   1   2
BRANCH   1  72
ATOM     72  C   UNL     1       2.528  -1.238  -1.474  1.00  0.00     0.202 C 
BRANCH  72  73
ATOM     73  C   UNL     1       2.434  -2.397  -2.460  1.00  0.00     0.261 C 
BRANCH  73  74
ATOM     74  O   UNL     1       2.981  -3.550  -1.802  1.00  0.00    -0.463 OA
BRANCH  74  75
ATOM     75  C   UNL     1       4.284  -3.818  -2.070  1.00  0.00     0.313 C 
ATOM     76  O   UNL     1       4.840  -3.479  -3.117  1.00  0.00    -0.252 OA
BRANCH  75  77
ATOM     77  C   UNL     1       4.931  -4.673  -0.978  1.00  0.00     0.079 C 
ATOM     78  C   UNL     1       4.117  -4.670   0.360  1.00  0.00     0.055 C 
ATOM     79  C   UNL     1       4.887  -6.138  -1.488  1.00  0.00     0.055 C 
ATOM     80  C   UNL     1       4.139  -6.096   0.782  1.00  0.00    -0.044 A 
ATOM     81  C   UNL     1       4.568  -6.922  -0.253  1.00  0.00    -0.044 A 
ATOM     82  C   UNL     1       3.753  -6.601   2.012  1.00  0.00     0.004 A 
ATOM     83  C   UNL     1       4.614  -8.292  -0.080  1.00  0.00     0.004 A 
ATOM     84  C   UNL     1       3.810  -7.979   2.200  1.00  0.00     0.000 A 
ATOM     85  C   UNL     1       4.237  -8.819   1.160  1.00  0.00     0.000 A 
BRANCH  77  86
ATOM     86  C   UNL     1       6.390  -4.214  -0.636  1.00  0.00     0.047 C 
BRANCH  86  87
ATOM     87  C   UNL     1       7.294  -3.888  -1.792  1.00  0.00    -0.025 C 
ATOM     88  C   UNL     1       7.885  -2.692  -1.961  1.00  0.00     0.004 C 
BRANCH  88  89
ATOM     89  C   UNL     1       8.614  -2.337  -3.185  1.00  0.00    -0.026 A 
ATOM     90  C   UNL     1       9.846  -1.679  -3.111  1.00  0.00     0.008 A 
ATOM     91  C   UNL     1       8.044  -2.570  -4.445  1.00  0.00     0.008 A 
ATOM     92  C   UNL     1      10.514  -1.297  -4.279  1.00  0.00     0.001 A 
ATOM     93  C   UNL     1       8.709  -2.188  -5.610  1.00  0.00     0.001 A 
ATOM     94  C   UNL     1       9.947  -1.556  -5.527  1.00  0.00     0.000 A 
ENDBRANCH  88  89
ENDBRANCH  86  87
ENDBRANCH  77  86
ENDBRANCH  75  77
ENDBRANCH  74  75
ENDBRANCH  73  74
ENDBRANCH  72  73
ENDBRANCH   1  72
TORSDOF 20
