REMARK SMILES Cc1ccc(C)c(N2C(=O)S[C@H](CC(=O)Nc3ccc(C(=O)OCCOCCOC(=O)c4ccc(-c5c6nc(c(-c7cc(S(=O)(=O)[O-])ccc7F)c7ccc([nH]7)c(-c7cc(S(=O)(=O)[O-])ccc7F)c7nc(c(-c8cc(S(=O)(=O)[O-])ccc8F)c8ccc5[nH]8)C=C7)C=C6)cc4)c(O)c3)C2=O)c1
REMARK SMILES IDX 25 1 24 2 23 3 21 4 22 5 20 6 17 7 18 8 97 9 19 10 95 11
REMARK SMILES IDX 16 12 14 13 15 14 13 16 12 17 8 18 9 19 98 20 10 21 11 22
REMARK SMILES IDX 99 23 7 24 1 25 2 26 3 27 100 28 4 29 5 30 6 31 96 32 26 34
REMARK SMILES IDX 27 35 28 36 29 37 30 38 31 39 32 40 33 41 94 42 34 43 93 44
REMARK SMILES IDX 35 45 36 46 37 47 87 48 38 49 92 50 86 51 88 52 39 53 91 54
REMARK SMILES IDX 85 55 84 56 40 58 72 59 52 60 71 61 53 62 56 63 70 64 89 65
REMARK SMILES IDX 54 66 55 67 69 69 90 70 57 71 41 72 42 73 50 74 43 75 49 76
REMARK SMILES IDX 51 77 48 78 44 79 45 80 46 81 47 82 73 83 74 84 82 85 75 86
REMARK SMILES IDX 81 87 83 88 80 89 76 90 77 91 78 92 79 93 58 94 59 95 67 96
REMARK SMILES IDX 60 97 66 98 68 99 65 100 61 101 62 102 63 103 64 104
REMARK H PARENT 16 15 96 33 88 57 56 68
REMARK Flexibility Score: inf
ROOT
ATOM      1  C   UNL     1       3.801   6.555  -2.630  1.00  0.00     0.202 C 
ENDROOT
BRANCH   1   2
ATOM      2  C   UNL     1       3.070   7.602  -3.485  1.00  0.00     0.261 C 
BRANCH   2   3
ATOM      3  O   UNL     1       1.983   8.127  -2.690  1.00  0.00    -0.460 OA
BRANCH   3   4
ATOM      4  C   UNL     1       0.901   7.317  -2.766  1.00  0.00     0.341 C 
ATOM      5  O   UNL     1       0.740   6.470  -3.629  1.00  0.00    -0.246 OA
BRANCH   4   6
ATOM      6  C   UNL     1       0.015   7.419  -1.591  1.00  0.00     0.101 A 
ATOM      7  C   UNL     1      -1.834   7.368   0.525  1.00  0.00     0.044 A 
ATOM      8  C   UNL     1      -1.796   6.370  -0.426  1.00  0.00     0.027 A 
ATOM      9  C   UNL     1      -1.000   8.475   0.356  1.00  0.00     0.073 A 
ATOM     10  C   UNL     1      -0.813   6.323  -1.388  1.00  0.00     0.022 A 
ATOM     11  C   UNL     1      -0.082   8.500  -0.713  1.00  0.00     0.132 A 
BRANCH   7  12
ATOM     12  N   UNL     1      -2.741   7.234   1.592  1.00  0.00    -0.326 N 
ATOM     13  C   UNL     1      -3.220   6.045   2.124  1.00  0.00     0.226 C 
ATOM     14  O   UNL     1      -4.260   6.035   2.785  1.00  0.00    -0.275 OA
ATOM     15  H   UNL     1      -3.069   8.067   2.002  1.00  0.00     0.169 HD
BRANCH  13  16
ATOM     16  C   UNL     1      -2.316   4.799   2.092  1.00  0.00     0.125 C 
BRANCH  16  17
ATOM     17  C   UNL     1      -2.976   3.468   1.711  1.00  0.00     0.156 C 
ATOM     18  N   UNL     1      -1.370   1.889   0.859  1.00  0.00    -0.240 N 
ATOM     19  C   UNL     1      -1.759   2.459  -0.319  1.00  0.00     0.293 C 
ATOM     20  C   UNL     1      -2.034   2.299   2.007  1.00  0.00     0.248 C 
ATOM     21  O   UNL     1      -1.210   2.396  -1.404  1.00  0.00    -0.261 OA
ATOM     22  S   UNL     1      -3.272   3.242  -0.056  1.00  0.00    -0.050 SA
ATOM     23  O   UNL     1      -1.889   1.828   3.131  1.00  0.00    -0.273 OA
BRANCH  18  24
ATOM     24  C   UNL     1      -0.608   0.708   0.770  1.00  0.00     0.056 A 
ATOM     25  C   UNL     1       3.043  -0.188   0.134  1.00  0.00     0.044 C 
ATOM     26  C   UNL     1       1.559  -0.300   0.319  1.00  0.00    -0.049 A 
ATOM     27  C   UNL     1       0.926  -1.532   0.123  1.00  0.00     0.004 A 
ATOM     28  C   UNL     1       0.786   0.816   0.662  1.00  0.00     0.030 A 
ATOM     29  C   UNL     1      -0.462  -1.640   0.211  1.00  0.00     0.006 A 
ATOM     30  C   UNL     1      -1.250  -0.518   0.499  1.00  0.00    -0.027 A 
ATOM     31  C   UNL     1      -2.747  -0.683   0.425  1.00  0.00     0.046 C 
ENDBRANCH  18  24
ENDBRANCH  16  17
ENDBRANCH  13  16
ENDBRANCH   7  12
BRANCH  11  32
ATOM     32  O   UNL     1       0.707   9.612  -0.831  1.00  0.00    -0.507 OA
ATOM     33  H   UNL     1       1.332   9.671  -1.528  1.00  0.00     0.293 HD
ENDBRANCH  11  32
ENDBRANCH   4   6
ENDBRANCH   3   4
ENDBRANCH   2   3
ENDBRANCH   1   2
BRANCH   1  34
ATOM     34  O   UNL     1       2.959   5.419  -2.475  1.00  0.00    -0.374 OA
BRANCH  34  35
ATOM     35  C   UNL     1       3.140   4.609  -1.329  1.00  0.00     0.202 C 
BRANCH  35  36
ATOM     36  C   UNL     1       4.437   3.793  -1.361  1.00  0.00     0.261 C 
BRANCH  36  37
ATOM     37  O   UNL     1       4.472   2.777  -2.388  1.00  0.00    -0.460 OA
BRANCH  37  38
ATOM     38  C   UNL     1       4.532   3.245  -3.669  1.00  0.00     0.338 C 
ATOM     39  O   UNL     1       5.545   3.684  -4.189  1.00  0.00    -0.246 OA
BRANCH  38  40
ATOM     40  C   UNL     1       3.168   3.242  -4.268  1.00  0.00     0.060 A 
ATOM     41  C   UNL     1       2.855   4.132  -5.304  1.00  0.00     0.016 A 
ATOM     42  C   UNL     1       2.148   2.549  -3.615  1.00  0.00     0.016 A 
ATOM     43  C   UNL     1       1.509   4.418  -5.591  1.00  0.00     0.010 A 
ATOM     44  C   UNL     1       0.828   2.914  -3.837  1.00  0.00     0.010 A 
ATOM     45  C   UNL     1       0.481   3.869  -4.805  1.00  0.00    -0.014 A 
BRANCH  45  46
ATOM     46  C   UNL     1      -0.937   3.842  -5.242  1.00  0.00     0.031 A 
ATOM     47  C   UNL     1      -1.048   2.822  -6.293  1.00  0.00     0.074 A 
ATOM     48  C   UNL     1      -2.052   4.515  -4.847  1.00  0.00     0.049 A 
ATOM     49  N   UNL     1      -1.094   3.120  -7.551  1.00  0.00    -0.248 NA
ATOM     50  C   UNL     1      -0.773   1.402  -6.022  1.00  0.00     0.031 C 
ATOM     51  C   UNL     1      -2.119   5.733  -4.066  1.00  0.00     0.029 A 
ATOM     52  N   UNL     1      -3.402   4.237  -5.013  1.00  0.00    -0.354 N 
ATOM     53  C   UNL     1      -1.248   1.903  -8.169  1.00  0.00     0.074 A 
ATOM     54  C   UNL     1      -0.702   0.927  -7.268  1.00  0.00     0.031 C 
ATOM     55  C   UNL     1      -3.356   5.940  -3.567  1.00  0.00     0.029 A 
ATOM     56  C   UNL     1      -4.245   4.941  -4.129  1.00  0.00     0.049 A 
ATOM     57  H   UNL     1      -3.740   3.605  -5.688  1.00  0.00     0.167 HD
ATOM     58  C   UNL     1      -2.227   1.782  -9.099  1.00  0.00     0.034 A 
ATOM     59  C   UNL     1      -5.606   4.993  -4.026  1.00  0.00     0.034 A 
ATOM     60  C   UNL     1      -2.655   3.081  -9.586  1.00  0.00     0.049 A 
ATOM     61  C   UNL     1      -6.102   4.940  -5.408  1.00  0.00     0.074 A 
ATOM     62  C   UNL     1      -2.080   4.101 -10.318  1.00  0.00     0.029 A 
ATOM     63  N   UNL     1      -3.740   3.622  -8.938  1.00  0.00    -0.354 N 
ATOM     64  N   UNL     1      -5.932   5.929  -6.240  1.00  0.00    -0.248 NA
ATOM     65  C   UNL     1      -6.425   3.657  -6.018  1.00  0.00     0.031 C 
ATOM     66  C   UNL     1      -2.787   5.295  -9.990  1.00  0.00     0.029 A 
ATOM     67  C   UNL     1      -3.803   4.988  -9.090  1.00  0.00     0.049 A 
ATOM     68  H   UNL     1      -4.395   3.095  -8.425  1.00  0.00     0.167 HD
ATOM     69  C   UNL     1      -5.605   5.296  -7.420  1.00  0.00     0.074 A 
ATOM     70  C   UNL     1      -6.129   3.944  -7.289  1.00  0.00     0.031 C 
ATOM     71  C   UNL     1      -4.649   5.811  -8.242  1.00  0.00     0.034 A 
BRANCH  58  72
ATOM     72  C   UNL     1      -3.103   0.559  -9.203  1.00  0.00     0.023 A 
ATOM     73  C   UNL     1      -3.967   0.495 -10.304  1.00  0.00     0.031 A 
ATOM     74  C   UNL     1      -3.329  -0.401  -8.183  1.00  0.00     0.131 A 
ATOM     75  C   UNL     1      -5.007  -0.446 -10.342  1.00  0.00     0.055 A 
ATOM     76  C   UNL     1      -4.319  -1.378  -8.258  1.00  0.00     0.041 A 
ATOM     77  F   UNL     1      -2.683  -0.397  -7.011  1.00  0.00    -0.206 F 
ATOM     78  C   UNL     1      -5.182  -1.391  -9.334  1.00  0.00     0.022 A 
BRANCH  75  79
ATOM     79  S   UNL     1      -6.219  -0.324 -11.675  1.00  0.00     0.124 S 
ATOM     80  O   UNL     1      -6.719   1.034 -11.497  1.00  0.00    -0.237 OA
ATOM     81  O   UNL     1      -5.391  -0.560 -12.853  1.00  0.00    -0.237 OA
ATOM     82  O   UNL     1      -7.171  -1.386 -11.360  1.00  0.00    -0.744 OA
ENDBRANCH  75  79
ENDBRANCH  58  72
BRANCH  59  83
ATOM     83  C   UNL     1      -6.497   5.084  -2.824  1.00  0.00     0.023 A 
ATOM     84  C   UNL     1      -7.906   5.118  -2.873  1.00  0.00     0.031 A 
ATOM     85  C   UNL     1      -5.951   4.869  -1.553  1.00  0.00     0.131 A 
ATOM     86  C   UNL     1      -8.673   4.808  -1.718  1.00  0.00     0.055 A 
ATOM     87  C   UNL     1      -6.696   4.446  -0.446  1.00  0.00     0.041 A 
ATOM     88  F   UNL     1      -4.655   5.103  -1.353  1.00  0.00    -0.206 F 
ATOM     89  C   UNL     1      -8.070   4.377  -0.537  1.00  0.00     0.022 A 
BRANCH  86  90
ATOM     90  S   UNL     1     -10.485   4.979  -1.718  1.00  0.00     0.124 S 
ATOM     91  O   UNL     1     -10.650   6.425  -1.616  1.00  0.00    -0.237 OA
ATOM     92  O   UNL     1     -10.868   4.370  -2.985  1.00  0.00    -0.237 OA
ATOM     93  O   UNL     1     -10.900   4.231  -0.530  1.00  0.00    -0.744 OA
ENDBRANCH  86  90
ENDBRANCH  59  83
BRANCH  71  94
ATOM     94  C   UNL     1      -4.416   7.304  -8.175  1.00  0.00     0.023 A 
ATOM     95  C   UNL     1      -3.945   8.008  -7.043  1.00  0.00     0.031 A 
ATOM     96  C   UNL     1      -4.696   8.048  -9.333  1.00  0.00     0.131 A 
ATOM     97  C   UNL     1      -3.780   9.408  -7.098  1.00  0.00     0.055 A 
ATOM     98  C   UNL     1      -4.521   9.430  -9.390  1.00  0.00     0.041 A 
ATOM     99  F   UNL     1      -5.144   7.437 -10.442  1.00  0.00    -0.206 F 
ATOM    100  C   UNL     1      -4.068  10.117  -8.269  1.00  0.00     0.022 A 
BRANCH  97 101
ATOM    101  S   UNL     1      -3.224  10.337  -5.630  1.00  0.00     0.124 S 
ATOM    102  O   UNL     1      -4.072   9.830  -4.557  1.00  0.00    -0.237 OA
ATOM    103  O   UNL     1      -1.810   9.982  -5.540  1.00  0.00    -0.237 OA
ATOM    104  O   UNL     1      -3.474  11.733  -5.996  1.00  0.00    -0.744 OA
ENDBRANCH  97 101
ENDBRANCH  71  94
ENDBRANCH  45  46
ENDBRANCH  38  40
ENDBRANCH  37  38
ENDBRANCH  36  37
ENDBRANCH  35  36
ENDBRANCH  34  35
ENDBRANCH   1  34
TORSDOF 22
