REMARK SMILES CCc1ccc2c(c1)C=C(C(=O)OCCOCCOC(=O)c1ccc(-c3c4nc(c(-c5cc(S(=O)(=O)[O-])ccc5F)c5ccc([nH]5)c(-c5cc(S(=O)(=O)[O-])ccc5F)c5nc(c(-c6cc(S(=O)(=O)[O-])ccc6F)c6ccc3[nH]6)C=C5)C=C4)cc1)[C@H](C(F)(F)F)O2
REMARK SMILES IDX 17 1 16 2 15 3 14 4 13 5 11 6 12 7 10 8 3 9 4 10 8 11 5 12
REMARK SMILES IDX 7 13 6 14 9 15 90 16 85 17 2 18 1 19 86 20 87 21 88 22 89 23
REMARK SMILES IDX 18 24 19 25 20 26 21 27 22 28 23 29 84 30 24 31 83 32 25 33
REMARK SMILES IDX 26 34 27 35 77 36 28 37 82 38 76 39 78 40 29 41 81 42 75 43
REMARK SMILES IDX 74 44 30 46 62 47 42 48 61 49 43 50 46 51 60 52 79 53 44 54
REMARK SMILES IDX 45 55 59 57 80 58 47 59 31 60 32 61 40 62 33 63 39 64 41 65
REMARK SMILES IDX 38 66 34 67 35 68 36 69 37 70 63 71 64 72 72 73 65 74 71 75
REMARK SMILES IDX 73 76 70 77 66 78 67 79 68 80 69 81 48 82 49 83 57 84 50 85
REMARK SMILES IDX 56 86 58 87 55 88 51 89 52 90 53 91 54 92
REMARK H PARENT 78 45 46 56
REMARK Flexibility Score: inf
ROOT
ATOM      1  C   UNL     1       5.380  -3.172   8.255  1.00  0.00     0.202 C 
ENDROOT
BRANCH   1   2
ATOM      2  O   UNL     1       5.013  -3.930   9.406  1.00  0.00    -0.374 OA
BRANCH   2   3
ATOM      3  C   UNL     1       4.204  -5.089   9.221  1.00  0.00     0.202 C 
BRANCH   3   4
ATOM      4  C   UNL     1       2.715  -4.866   8.943  1.00  0.00     0.261 C 
BRANCH   4   5
ATOM      5  O   UNL     1       2.503  -4.012   7.808  1.00  0.00    -0.460 OA
BRANCH   5   6
ATOM      6  C   UNL     1       1.938  -2.816   8.094  1.00  0.00     0.338 C 
ATOM      7  O   UNL     1       1.483  -2.465   9.173  1.00  0.00    -0.246 OA
BRANCH   6   8
ATOM      8  C   UNL     1       2.031  -1.901   6.946  1.00  0.00     0.087 C 
ATOM      9  C   UNL     1       1.031  -0.593   2.400  1.00  0.00    -0.047 A 
ATOM     10  C   UNL     1       1.061   0.747   2.814  1.00  0.00     0.007 A 
ATOM     11  C   UNL     1       1.276  -1.602   3.352  1.00  0.00     0.015 A 
ATOM     12  C   UNL     1       1.365   1.078   4.133  1.00  0.00     0.047 A 
ATOM     13  C   UNL     1       1.557  -1.277   4.684  1.00  0.00     0.018 A 
ATOM     14  C   UNL     1       1.623   0.071   5.057  1.00  0.00     0.128 A 
ATOM     15  C   UNL     1       1.630  -2.301   5.727  1.00  0.00     0.027 C 
ATOM     16  O   UNL     1       1.851   0.473   6.347  1.00  0.00    -0.475 OA
ATOM     17  C   UNL     1       2.560  -0.500   7.159  1.00  0.00     0.316 C 
BRANCH   9  18
ATOM     18  C   UNL     1       0.624  -0.984   0.996  1.00  0.00     0.032 C 
ATOM     19  C   UNL     1       1.105  -0.049  -0.108  1.00  0.00     0.009 C 
ENDBRANCH   9  18
BRANCH  17  20
ATOM     20  C   UNL     1       2.654   0.049   8.593  1.00  0.00     0.430 C 
ATOM     21  F   UNL     1       3.478  -0.705   9.358  1.00  0.00    -0.167 F 
ATOM     22  F   UNL     1       3.208   1.293   8.576  1.00  0.00    -0.167 F 
ATOM     23  F   UNL     1       1.460   0.164   9.206  1.00  0.00    -0.167 F 
ENDBRANCH  17  20
ENDBRANCH   6   8
ENDBRANCH   5   6
ENDBRANCH   4   5
ENDBRANCH   3   4
ENDBRANCH   2   3
ENDBRANCH   1   2
BRANCH   1  24
ATOM     24  C   UNL     1       6.396  -3.778   7.279  1.00  0.00     0.261 C 
BRANCH  24  25
ATOM     25  O   UNL     1       5.896  -4.941   6.600  1.00  0.00    -0.460 OA
BRANCH  25  26
ATOM     26  C   UNL     1       6.483  -6.106   6.970  1.00  0.00     0.338 C 
ATOM     27  O   UNL     1       7.386  -6.248   7.784  1.00  0.00    -0.246 OA
BRANCH  26  28
ATOM     28  C   UNL     1       5.747  -7.243   6.391  1.00  0.00     0.060 A 
ATOM     29  C   UNL     1       5.273  -8.235   7.261  1.00  0.00     0.016 A 
ATOM     30  C   UNL     1       5.594  -7.375   5.011  1.00  0.00     0.016 A 
ATOM     31  C   UNL     1       4.683  -9.389   6.751  1.00  0.00     0.010 A 
ATOM     32  C   UNL     1       5.014  -8.538   4.500  1.00  0.00     0.010 A 
ATOM     33  C   UNL     1       4.588  -9.564   5.365  1.00  0.00    -0.014 A 
BRANCH  33  34
ATOM     34  C   UNL     1       4.220 -10.884   4.798  1.00  0.00     0.031 A 
ATOM     35  C   UNL     1       5.321 -11.773   4.290  1.00  0.00     0.074 A 
ATOM     36  C   UNL     1       2.936 -11.272   4.714  1.00  0.00     0.049 A 
ATOM     37  N   UNL     1       5.246 -12.881   3.602  1.00  0.00    -0.248 NA
ATOM     38  C   UNL     1       6.694 -11.340   4.593  1.00  0.00     0.031 C 
ATOM     39  C   UNL     1       1.793 -10.525   5.236  1.00  0.00     0.029 A 
ATOM     40  N   UNL     1       2.377 -12.384   4.137  1.00  0.00    -0.354 N 
ATOM     41  C   UNL     1       6.561 -13.270   3.370  1.00  0.00     0.074 A 
ATOM     42  C   UNL     1       7.411 -12.262   3.968  1.00  0.00     0.031 C 
ATOM     43  C   UNL     1       0.664 -11.189   4.931  1.00  0.00     0.029 A 
ATOM     44  C   UNL     1       1.002 -12.376   4.147  1.00  0.00     0.049 A 
ATOM     45  H   UNL     1       2.909 -13.118   3.752  1.00  0.00     0.167 HD
ATOM     46  C   UNL     1       7.014 -14.368   2.716  1.00  0.00     0.034 A 
ATOM     47  C   UNL     1       0.121 -13.207   3.552  1.00  0.00     0.034 A 
ATOM     48  C   UNL     1       6.147 -15.354   2.121  1.00  0.00     0.049 A 
ATOM     49  C   UNL     1       0.645 -14.372   2.744  1.00  0.00     0.074 A 
ATOM     50  C   UNL     1       6.492 -16.506   1.437  1.00  0.00     0.029 A 
ATOM     51  N   UNL     1       4.758 -15.298   2.129  1.00  0.00    -0.354 N 
ATOM     52  N   UNL     1       1.889 -14.721   2.508  1.00  0.00    -0.248 NA
ATOM     53  C   UNL     1      -0.352 -15.255   2.123  1.00  0.00     0.031 C 
ATOM     54  C   UNL     1       5.319 -17.105   0.969  1.00  0.00     0.029 A 
ATOM     55  C   UNL     1       4.236 -16.378   1.437  1.00  0.00     0.049 A 
ATOM     56  H   UNL     1       4.225 -14.594   2.563  1.00  0.00     0.167 HD
ATOM     57  C   UNL     1       1.821 -15.890   1.753  1.00  0.00     0.074 A 
ATOM     58  C   UNL     1       0.415 -16.182   1.566  1.00  0.00     0.031 C 
ATOM     59  C   UNL     1       2.829 -16.660   1.270  1.00  0.00     0.034 A 
BRANCH  46  60
ATOM     60  C   UNL     1       8.508 -14.518   2.561  1.00  0.00     0.023 A 
ATOM     61  C   UNL     1       9.358 -14.675   3.670  1.00  0.00     0.031 A 
ATOM     62  C   UNL     1       9.095 -14.470   1.284  1.00  0.00     0.131 A 
ATOM     63  C   UNL     1      10.749 -14.704   3.486  1.00  0.00     0.055 A 
ATOM     64  C   UNL     1      10.474 -14.585   1.101  1.00  0.00     0.041 A 
ATOM     65  F   UNL     1       8.337 -14.296   0.190  1.00  0.00    -0.206 F 
ATOM     66  C   UNL     1      11.312 -14.688   2.208  1.00  0.00     0.022 A 
BRANCH  63  67
ATOM     67  S   UNL     1      11.818 -14.613   4.949  1.00  0.00     0.124 S 
ATOM     68  O   UNL     1      11.383 -13.355   5.552  1.00  0.00    -0.237 OA
ATOM     69  O   UNL     1      11.463 -15.826   5.675  1.00  0.00    -0.237 OA
ATOM     70  O   UNL     1      13.167 -14.592   4.387  1.00  0.00    -0.744 OA
ENDBRANCH  63  67
ENDBRANCH  46  60
BRANCH  47  71
ATOM     71  C   UNL     1      -1.345 -12.947   3.649  1.00  0.00     0.023 A 
ATOM     72  C   UNL     1      -2.203 -13.865   4.274  1.00  0.00     0.031 A 
ATOM     73  C   UNL     1      -1.917 -11.799   3.071  1.00  0.00     0.131 A 
ATOM     74  C   UNL     1      -3.590 -13.644   4.265  1.00  0.00     0.055 A 
ATOM     75  C   UNL     1      -3.291 -11.556   3.115  1.00  0.00     0.041 A 
ATOM     76  F   UNL     1      -1.143 -10.889   2.458  1.00  0.00    -0.206 F 
ATOM     77  C   UNL     1      -4.138 -12.489   3.704  1.00  0.00     0.022 A 
BRANCH  74  78
ATOM     78  S   UNL     1      -4.678 -14.939   4.919  1.00  0.00     0.124 S 
ATOM     79  O   UNL     1      -4.318 -16.078   4.082  1.00  0.00    -0.237 OA
ATOM     80  O   UNL     1      -4.260 -15.009   6.315  1.00  0.00    -0.237 OA
ATOM     81  O   UNL     1      -6.018 -14.400   4.698  1.00  0.00    -0.744 OA
ENDBRANCH  74  78
ENDBRANCH  47  71
BRANCH  59  82
ATOM     82  C   UNL     1       2.454 -17.942   0.567  1.00  0.00     0.023 A 
ATOM     83  C   UNL     1       1.828 -17.953  -0.691  1.00  0.00     0.031 A 
ATOM     84  C   UNL     1       2.768 -19.178   1.163  1.00  0.00     0.131 A 
ATOM     85  C   UNL     1       1.507 -19.178  -1.298  1.00  0.00     0.055 A 
ATOM     86  C   UNL     1       2.496 -20.390   0.530  1.00  0.00     0.041 A 
ATOM     87  F   UNL     1       3.365 -19.224   2.365  1.00  0.00    -0.206 F 
ATOM     88  C   UNL     1       1.855 -20.395  -0.705  1.00  0.00     0.022 A 
BRANCH  85  89
ATOM     89  S   UNL     1       0.575 -19.166  -2.854  1.00  0.00     0.124 S 
ATOM     90  O   UNL     1      -0.657 -18.489  -2.465  1.00  0.00    -0.237 OA
ATOM     91  O   UNL     1       1.459 -18.419  -3.743  1.00  0.00    -0.237 OA
ATOM     92  O   UNL     1       0.428 -20.584  -3.178  1.00  0.00    -0.744 OA
ENDBRANCH  85  89
ENDBRANCH  59  82
ENDBRANCH  33  34
ENDBRANCH  26  28
ENDBRANCH  25  26
ENDBRANCH  24  25
ENDBRANCH   1  24
TORSDOF 19
