REMARK SMILES CC[C@H]1SC[C@H](C(=O)OCCOCCOC(=O)c2ccc(-c3c4nc(c(-c5cc(S(=O)(=O)[O-])ccc5F)c5ccc([nH]5)c(-c5cc(S(=O)(=O)[O-])ccc5F)c5nc(c(-c6cc(S(=O)(=O)[O-])ccc6F)c6ccc3[nH]6)C=C5)C=C4)cc2)N1C(=O)C[C@@H]1CSCC[NH2+]1
REMARK SMILES IDX 12 1 11 2 10 3 9 4 7 5 8 6 6 7 3 8 4 9 81 10 5 11 2 12 1 13
REMARK SMILES IDX 82 14 83 15 84 16 85 17 86 18 90 19 87 20 89 21 88 24 13 25
REMARK SMILES IDX 14 26 15 27 16 28 17 29 18 30 19 31 80 32 20 33 79 34 21 35
REMARK SMILES IDX 22 36 23 37 73 38 24 39 78 40 72 41 74 42 25 43 77 44 71 45
REMARK SMILES IDX 70 46 26 48 58 49 38 50 57 51 39 52 42 53 56 54 75 55 40 56
REMARK SMILES IDX 41 57 55 59 76 60 43 61 27 62 28 63 36 64 29 65 35 66 37 67
REMARK SMILES IDX 34 68 30 69 31 70 32 71 33 72 59 73 60 74 68 75 61 76 67 77
REMARK SMILES IDX 69 78 66 79 62 80 63 81 64 82 65 83 44 84 45 85 53 86 46 87
REMARK SMILES IDX 52 88 54 89 51 90 47 91 48 92 49 93 50 94
REMARK H PARENT 90 22 90 23 74 47 42 58
REMARK Flexibility Score: inf
ROOT
ATOM      1  O   UNL     1      -1.572  -3.446  -7.433  1.00  0.00    -0.374 OA
ENDROOT
BRANCH   1   2
ATOM      2  C   UNL     1      -1.286  -4.792  -7.052  1.00  0.00     0.202 C 
BRANCH   2   3
ATOM      3  C   UNL     1      -0.149  -5.000  -6.046  1.00  0.00     0.261 C 
BRANCH   3   4
ATOM      4  O   UNL     1      -0.456  -4.374  -4.792  1.00  0.00    -0.462 OA
BRANCH   4   5
ATOM      5  C   UNL     1       0.566  -3.661  -4.235  1.00  0.00     0.329 C 
ATOM      6  O   UNL     1       1.741  -3.731  -4.575  1.00  0.00    -0.250 OA
BRANCH   5   7
ATOM      7  C   UNL     1       0.015  -2.738  -3.133  1.00  0.00     0.206 C 
ATOM      8  C   UNL     1       1.680  -1.715  -1.627  1.00  0.00     0.144 C 
ATOM      9  S   UNL     1       1.415  -3.427  -1.050  1.00  0.00    -0.134 SA
ATOM     10  N   UNL     1       0.948  -1.616  -2.893  1.00  0.00    -0.316 N 
ATOM     11  C   UNL     1      -0.194  -3.532  -1.857  1.00  0.00     0.109 C 
BRANCH   8  12
ATOM     12  C   UNL     1       1.122  -0.734  -0.582  1.00  0.00     0.033 C 
ATOM     13  C   UNL     1       1.687  -0.865   0.827  1.00  0.00     0.007 C 
ENDBRANCH   8  12
BRANCH  10  14
ATOM     14  C   UNL     1       1.074  -0.685  -3.909  1.00  0.00     0.230 C 
ATOM     15  O   UNL     1       0.353  -0.776  -4.908  1.00  0.00    -0.275 OA
BRANCH  14  16
ATOM     16  C   UNL     1       2.176   0.362  -3.879  1.00  0.00     0.166 C 
BRANCH  16  17
ATOM     17  C   UNL     1       1.790   1.864  -3.942  1.00  0.00     0.201 C 
ATOM     18  C   UNL     1       1.141   2.406  -2.660  1.00  0.00     0.135 C 
ATOM     19  N   UNL     1       1.147   2.381  -5.164  1.00  0.00    -0.342 N 
ATOM     20  S   UNL     1      -0.582   1.878  -2.469  1.00  0.00    -0.150 SA
ATOM     21  C   UNL     1      -0.303   2.171  -5.269  1.00  0.00     0.271 C 
ATOM     22  H   UNL     1       1.586   1.926  -5.964  1.00  0.00     0.346 HD
ATOM     23  H   UNL     1       1.277   3.393  -5.135  1.00  0.00     0.346 HD
ATOM     24  C   UNL     1      -1.184   2.514  -4.058  1.00  0.00     0.131 C 
ENDBRANCH  16  17
ENDBRANCH  14  16
ENDBRANCH  10  14
ENDBRANCH   5   7
ENDBRANCH   4   5
ENDBRANCH   3   4
ENDBRANCH   2   3
ENDBRANCH   1   2
BRANCH   1  25
ATOM     25  C   UNL     1      -2.133  -2.578  -6.449  1.00  0.00     0.202 C 
BRANCH  25  26
ATOM     26  C   UNL     1      -3.584  -2.841  -6.019  1.00  0.00     0.261 C 
BRANCH  26  27
ATOM     27  O   UNL     1      -3.764  -4.108  -5.356  1.00  0.00    -0.460 OA
BRANCH  27  28
ATOM     28  C   UNL     1      -4.559  -4.986  -6.023  1.00  0.00     0.338 C 
ATOM     29  O   UNL     1      -5.145  -4.795  -7.073  1.00  0.00    -0.246 OA
BRANCH  28  30
ATOM     30  C   UNL     1      -4.498  -6.314  -5.383  1.00  0.00     0.060 A 
ATOM     31  C   UNL     1      -3.965  -7.376  -6.126  1.00  0.00     0.016 A 
ATOM     32  C   UNL     1      -5.061  -6.540  -4.126  1.00  0.00     0.016 A 
ATOM     33  C   UNL     1      -4.015  -8.675  -5.623  1.00  0.00     0.010 A 
ATOM     34  C   UNL     1      -5.122  -7.848  -3.630  1.00  0.00     0.010 A 
ATOM     35  C   UNL     1      -4.626  -8.925  -4.388  1.00  0.00    -0.014 A 
BRANCH  35  36
ATOM     36  C   UNL     1      -4.869 -10.327  -3.960  1.00  0.00     0.031 A 
ATOM     37  C   UNL     1      -6.239 -10.921  -4.157  1.00  0.00     0.074 A 
ATOM     38  C   UNL     1      -3.879 -11.063  -3.422  1.00  0.00     0.049 A 
ATOM     39  N   UNL     1      -6.690 -12.098  -3.809  1.00  0.00    -0.248 NA
ATOM     40  C   UNL     1      -7.232 -10.073  -4.835  1.00  0.00     0.031 C 
ATOM     41  C   UNL     1      -2.503 -10.607  -3.224  1.00  0.00     0.029 A 
ATOM     42  N   UNL     1      -3.880 -12.345  -2.931  1.00  0.00    -0.354 N 
ATOM     43  C   UNL     1      -8.023 -12.127  -4.207  1.00  0.00     0.074 A 
ATOM     44  C   UNL     1      -8.311 -10.842  -4.808  1.00  0.00     0.031 C 
ATOM     45  C   UNL     1      -1.799 -11.588  -2.633  1.00  0.00     0.029 A 
ATOM     46  C   UNL     1      -2.680 -12.725  -2.374  1.00  0.00     0.049 A 
ATOM     47  H   UNL     1      -4.665 -12.937  -2.973  1.00  0.00     0.167 HD
ATOM     48  C   UNL     1      -8.921 -13.133  -4.078  1.00  0.00     0.034 A 
ATOM     49  C   UNL     1      -2.344 -13.847  -1.703  1.00  0.00     0.034 A 
ATOM     50  C   UNL     1      -8.615 -14.412  -3.485  1.00  0.00     0.049 A 
ATOM     51  C   UNL     1      -3.384 -14.930  -1.523  1.00  0.00     0.074 A 
ATOM     52  C   UNL     1      -9.439 -15.516  -3.351  1.00  0.00     0.029 A 
ATOM     53  N   UNL     1      -7.396 -14.755  -2.915  1.00  0.00    -0.354 N 
ATOM     54  N   UNL     1      -4.631 -14.956  -1.937  1.00  0.00    -0.248 NA
ATOM     55  C   UNL     1      -2.970 -16.138  -0.797  1.00  0.00     0.031 C 
ATOM     56  C   UNL     1      -8.746 -16.495  -2.632  1.00  0.00     0.029 A 
ATOM     57  C   UNL     1      -7.461 -16.037  -2.392  1.00  0.00     0.049 A 
ATOM     58  H   UNL     1      -6.603 -14.173  -2.887  1.00  0.00     0.167 HD
ATOM     59  C   UNL     1      -5.132 -16.199  -1.554  1.00  0.00     0.074 A 
ATOM     60  C   UNL     1      -4.051 -16.897  -0.891  1.00  0.00     0.031 C 
ATOM     61  C   UNL     1      -6.372 -16.721  -1.737  1.00  0.00     0.034 A 
BRANCH  48  62
ATOM     62  C   UNL     1     -10.337 -12.878  -4.529  1.00  0.00     0.023 A 
ATOM     63  C   UNL     1     -10.672 -12.698  -5.882  1.00  0.00     0.031 A 
ATOM     64  C   UNL     1     -11.375 -12.838  -3.580  1.00  0.00     0.131 A 
ATOM     65  C   UNL     1     -12.006 -12.446  -6.242  1.00  0.00     0.055 A 
ATOM     66  C   UNL     1     -12.707 -12.652  -3.951  1.00  0.00     0.041 A 
ATOM     67  F   UNL     1     -11.109 -12.980  -2.272  1.00  0.00    -0.206 F 
ATOM     68  C   UNL     1     -13.028 -12.448  -5.289  1.00  0.00     0.022 A 
BRANCH  65  69
ATOM     69  S   UNL     1     -12.379 -12.023  -7.966  1.00  0.00     0.124 S 
ATOM     70  O   UNL     1     -11.598 -10.802  -8.146  1.00  0.00    -0.237 OA
ATOM     71  O   UNL     1     -11.905 -13.197  -8.690  1.00  0.00    -0.237 OA
ATOM     72  O   UNL     1     -13.828 -11.833  -7.967  1.00  0.00    -0.744 OA
ENDBRANCH  65  69
ENDBRANCH  48  62
BRANCH  49  73
ATOM     73  C   UNL     1      -0.988 -13.996  -1.093  1.00  0.00     0.023 A 
ATOM     74  C   UNL     1      -0.134 -15.048  -1.460  1.00  0.00     0.031 A 
ATOM     75  C   UNL     1      -0.567 -13.141  -0.058  1.00  0.00     0.131 A 
ATOM     76  C   UNL     1       1.061 -15.260  -0.754  1.00  0.00     0.055 A 
ATOM     77  C   UNL     1       0.653 -13.316   0.597  1.00  0.00     0.041 A 
ATOM     78  F   UNL     1      -1.344 -12.120   0.340  1.00  0.00    -0.206 F 
ATOM     79  C   UNL     1       1.467 -14.393   0.263  1.00  0.00     0.022 A 
BRANCH  76  80
ATOM     80  S   UNL     1       2.013 -16.768  -1.093  1.00  0.00     0.124 S 
ATOM     81  O   UNL     1       1.007 -17.805  -0.893  1.00  0.00    -0.237 OA
ATOM     82  O   UNL     1       2.445 -16.548  -2.469  1.00  0.00    -0.237 OA
ATOM     83  O   UNL     1       3.078 -16.729  -0.092  1.00  0.00    -0.744 OA
ENDBRANCH  76  80
ENDBRANCH  49  73
BRANCH  61  84
ATOM     84  C   UNL     1      -6.602 -18.138  -1.268  1.00  0.00     0.023 A 
ATOM     85  C   UNL     1      -6.577 -18.485   0.094  1.00  0.00     0.031 A 
ATOM     86  C   UNL     1      -6.846 -19.158  -2.206  1.00  0.00     0.131 A 
ATOM     87  C   UNL     1      -6.737 -19.826   0.476  1.00  0.00     0.055 A 
ATOM     88  C   UNL     1      -7.066 -20.479  -1.816  1.00  0.00     0.041 A 
ATOM     89  F   UNL     1      -6.879 -18.884  -3.520  1.00  0.00    -0.206 F 
ATOM     90  C   UNL     1      -6.998 -20.822  -0.469  1.00  0.00     0.022 A 
BRANCH  87  91
ATOM     91  S   UNL     1      -6.507 -20.269   2.220  1.00  0.00     0.124 S 
ATOM     92  O   UNL     1      -5.144 -19.813   2.472  1.00  0.00    -0.237 OA
ATOM     93  O   UNL     1      -7.565 -19.510   2.877  1.00  0.00    -0.237 OA
ATOM     94  O   UNL     1      -6.687 -21.720   2.232  1.00  0.00    -0.744 OA
ENDBRANCH  87  91
ENDBRANCH  61  84
ENDBRANCH  35  36
ENDBRANCH  28  30
ENDBRANCH  27  28
ENDBRANCH  26  27
ENDBRANCH  25  26
ENDBRANCH   1  25
TORSDOF 21
