REMARK SMILES CC[NH2+][C@@]1(C(=O)OCCOCCOC(=O)c2ccc(-c3c4nc(c(-c5cc(S(=O)(=O)[O-])ccc5F)c5ccc([nH]5)c(-c5cc(S(=O)(=O)[O-])ccc5F)c5nc(c(-c6cc(S(=O)(=O)[O-])ccc6F)c6ccc3[nH]6)C=C5)C=C4)cc2)CC[C@@H](OCCOC)C1
REMARK SMILES IDX 9 1 8 2 7 3 5 4 6 5 4 6 79 7 87 8 80 9 81 10 3 11 2 14 1 15
REMARK SMILES IDX 82 16 83 17 84 18 85 19 86 20 10 21 11 22 12 23 13 24 14 25
REMARK SMILES IDX 15 26 16 27 17 28 78 29 18 30 77 31 19 32 20 33 21 34 71 35
REMARK SMILES IDX 22 36 76 37 70 38 72 39 23 40 75 41 69 42 68 43 24 45 56 46
REMARK SMILES IDX 36 47 55 48 37 49 40 50 54 51 73 52 38 53 39 54 53 56 74 57
REMARK SMILES IDX 41 58 25 59 26 60 34 61 27 62 33 63 35 64 32 65 28 66 29 67
REMARK SMILES IDX 30 68 31 69 57 70 58 71 66 72 59 73 65 74 67 75 64 76 60 77
REMARK SMILES IDX 61 78 62 79 63 80 42 81 43 82 51 83 44 84 50 85 52 86 49 87
REMARK SMILES IDX 45 88 46 89 47 90 48 91
REMARK H PARENT 3 12 3 13 72 44 40 55
REMARK Flexibility Score: inf
ROOT
ATOM      1  C   UNL     1      -3.779  -0.896  -4.394  1.00  0.00     0.202 C 
ENDROOT
BRANCH   1   2
ATOM      2  C   UNL     1      -3.231   0.512  -4.140  1.00  0.00     0.261 C 
BRANCH   2   3
ATOM      3  O   UNL     1      -1.798   0.563  -4.115  1.00  0.00    -0.459 OA
BRANCH   3   4
ATOM      4  C   UNL     1      -1.246   0.864  -2.905  1.00  0.00     0.368 C 
ATOM      5  O   UNL     1      -1.902   1.186  -1.919  1.00  0.00    -0.245 OA
BRANCH   4   6
ATOM      6  C   UNL     1       0.318   0.844  -2.934  1.00  0.00     0.196 C 
ATOM      7  C   UNL     1       0.797   2.301  -2.891  1.00  0.00     0.084 C 
ATOM      8  C   UNL     1       0.948   0.363  -4.260  1.00  0.00     0.113 C 
ATOM      9  C   UNL     1       0.617   2.792  -4.328  1.00  0.00     0.039 C 
ATOM     10  C   UNL     1       0.857   1.561  -5.215  1.00  0.00     0.125 C 
BRANCH   6  11
ATOM     11  N   UNL     1       0.848  -0.015  -1.835  1.00  0.00    -0.332 N 
ATOM     12  H   UNL     1       0.407  -0.932  -1.908  1.00  0.00     0.347 HD
ATOM     13  H   UNL     1       1.861  -0.044  -1.958  1.00  0.00     0.347 HD
BRANCH  11  14
ATOM     14  C   UNL     1       0.611   0.499  -0.483  1.00  0.00     0.257 C 
ATOM     15  C   UNL     1       1.264  -0.420   0.541  1.00  0.00     0.071 C 
ENDBRANCH  11  14
ENDBRANCH   6  11
BRANCH  10  16
ATOM     16  O   UNL     1       1.972   1.617  -6.107  1.00  0.00    -0.376 OA
BRANCH  16  17
ATOM     17  C   UNL     1       3.203   2.083  -5.567  1.00  0.00     0.189 C 
BRANCH  17  18
ATOM     18  C   UNL     1       3.654   3.431  -6.153  1.00  0.00     0.188 C 
BRANCH  18  19
ATOM     19  O   UNL     1       2.623   4.393  -6.364  1.00  0.00    -0.382 OA
ATOM     20  C   UNL     1       1.834   4.129  -7.524  1.00  0.00     0.195 C 
ENDBRANCH  18  19
ENDBRANCH  17  18
ENDBRANCH  16  17
ENDBRANCH  10  16
ENDBRANCH   4   6
ENDBRANCH   3   4
ENDBRANCH   2   3
ENDBRANCH   1   2
BRANCH   1  21
ATOM     21  O   UNL     1      -3.189  -1.977  -3.679  1.00  0.00    -0.374 OA
BRANCH  21  22
ATOM     22  C   UNL     1      -1.883  -2.400  -4.072  1.00  0.00     0.202 C 
BRANCH  22  23
ATOM     23  C   UNL     1      -1.717  -3.006  -5.474  1.00  0.00     0.261 C 
BRANCH  23  24
ATOM     24  O   UNL     1      -1.973  -2.065  -6.535  1.00  0.00    -0.460 OA
BRANCH  24  25
ATOM     25  C   UNL     1      -2.951  -2.441  -7.401  1.00  0.00     0.338 C 
ATOM     26  O   UNL     1      -3.576  -3.488  -7.393  1.00  0.00    -0.246 OA
BRANCH  25  27
ATOM     27  C   UNL     1      -3.302  -1.323  -8.296  1.00  0.00     0.060 A 
ATOM     28  C   UNL     1      -4.596  -0.792  -8.211  1.00  0.00     0.016 A 
ATOM     29  C   UNL     1      -2.418  -0.880  -9.280  1.00  0.00     0.016 A 
ATOM     30  C   UNL     1      -5.019   0.172  -9.128  1.00  0.00     0.010 A 
ATOM     31  C   UNL     1      -2.850   0.075 -10.208  1.00  0.00     0.010 A 
ATOM     32  C   UNL     1      -4.159   0.590 -10.151  1.00  0.00    -0.014 A 
BRANCH  32  33
ATOM     33  C   UNL     1      -4.657   1.485 -11.226  1.00  0.00     0.031 A 
ATOM     34  C   UNL     1      -5.101   0.887 -12.533  1.00  0.00     0.074 A 
ATOM     35  C   UNL     1      -4.701   2.817 -11.039  1.00  0.00     0.049 A 
ATOM     36  N   UNL     1      -5.476   1.486 -13.633  1.00  0.00    -0.248 NA
ATOM     37  C   UNL     1      -5.127  -0.582 -12.609  1.00  0.00     0.031 C 
ATOM     38  C   UNL     1      -4.352   3.505  -9.796  1.00  0.00     0.029 A 
ATOM     39  N   UNL     1      -5.043   3.832 -11.899  1.00  0.00    -0.354 N 
ATOM     40  C   UNL     1      -5.769   0.471 -14.539  1.00  0.00     0.074 A 
ATOM     41  C   UNL     1      -5.517  -0.782 -13.860  1.00  0.00     0.031 C 
ATOM     42  C   UNL     1      -4.473   4.831  -9.982  1.00  0.00     0.029 A 
ATOM     43  C   UNL     1      -4.861   5.089 -11.368  1.00  0.00     0.049 A 
ATOM     44  H   UNL     1      -5.386   3.675 -12.808  1.00  0.00     0.167 HD
ATOM     45  C   UNL     1      -6.203   0.580 -15.818  1.00  0.00     0.034 A 
ATOM     46  C   UNL     1      -4.952   6.304 -11.948  1.00  0.00     0.034 A 
ATOM     47  C   UNL     1      -6.453   1.837 -16.478  1.00  0.00     0.049 A 
ATOM     48  C   UNL     1      -5.328   6.391 -13.409  1.00  0.00     0.074 A 
ATOM     49  C   UNL     1      -6.959   2.056 -17.748  1.00  0.00     0.029 A 
ATOM     50  N   UNL     1      -6.193   3.087 -15.933  1.00  0.00    -0.354 N 
ATOM     51  N   UNL     1      -5.638   5.423 -14.242  1.00  0.00    -0.248 NA
ATOM     52  C   UNL     1      -5.358   7.732 -14.011  1.00  0.00     0.031 C 
ATOM     53  C   UNL     1      -6.930   3.432 -17.999  1.00  0.00     0.029 A 
ATOM     54  C   UNL     1      -6.473   4.077 -16.861  1.00  0.00     0.049 A 
ATOM     55  H   UNL     1      -5.858   3.246 -15.021  1.00  0.00     0.167 HD
ATOM     56  C   UNL     1      -5.925   6.045 -15.455  1.00  0.00     0.074 A 
ATOM     57  C   UNL     1      -5.764   7.468 -15.244  1.00  0.00     0.031 C 
ATOM     58  C   UNL     1      -6.293   5.491 -16.638  1.00  0.00     0.034 A 
BRANCH  45  59
ATOM     59  C   UNL     1      -6.377  -0.688 -16.612  1.00  0.00     0.023 A 
ATOM     60  C   UNL     1      -7.393  -1.616 -16.326  1.00  0.00     0.031 A 
ATOM     61  C   UNL     1      -5.516  -0.959 -17.691  1.00  0.00     0.131 A 
ATOM     62  C   UNL     1      -7.496  -2.792 -17.086  1.00  0.00     0.055 A 
ATOM     63  C   UNL     1      -5.661  -2.101 -18.480  1.00  0.00     0.041 A 
ATOM     64  F   UNL     1      -4.517  -0.116 -17.994  1.00  0.00    -0.206 F 
ATOM     65  C   UNL     1      -6.652  -3.029 -18.174  1.00  0.00     0.022 A 
BRANCH  62  66
ATOM     66  S   UNL     1      -8.697  -4.054 -16.580  1.00  0.00     0.124 S 
ATOM     67  O   UNL     1      -8.229  -4.386 -15.237  1.00  0.00    -0.237 OA
ATOM     68  O   UNL     1      -9.963  -3.334 -16.656  1.00  0.00    -0.237 OA
ATOM     69  O   UNL     1      -8.521  -5.112 -17.573  1.00  0.00    -0.744 OA
ENDBRANCH  62  66
ENDBRANCH  45  59
BRANCH  46  70
ATOM     70  C   UNL     1      -4.610   7.542 -11.187  1.00  0.00     0.023 A 
ATOM     71  C   UNL     1      -5.559   8.557 -10.989  1.00  0.00     0.031 A 
ATOM     72  C   UNL     1      -3.300   7.767 -10.726  1.00  0.00     0.131 A 
ATOM     73  C   UNL     1      -5.172   9.771 -10.400  1.00  0.00     0.055 A 
ATOM     74  C   UNL     1      -2.934   8.953 -10.088  1.00  0.00     0.041 A 
ATOM     75  F   UNL     1      -2.349   6.834 -10.896  1.00  0.00    -0.206 F 
ATOM     76  C   UNL     1      -3.870   9.971  -9.936  1.00  0.00     0.022 A 
BRANCH  73  77
ATOM     77  S   UNL     1      -6.370  11.134 -10.354  1.00  0.00     0.124 S 
ATOM     78  O   UNL     1      -6.729  11.260 -11.762  1.00  0.00    -0.237 OA
ATOM     79  O   UNL     1      -7.402  10.598  -9.473  1.00  0.00    -0.237 OA
ATOM     80  O   UNL     1      -5.598  12.246  -9.805  1.00  0.00    -0.744 OA
ENDBRANCH  73  77
ENDBRANCH  46  70
BRANCH  58  81
ATOM     81  C   UNL     1      -6.579   6.434 -17.780  1.00  0.00     0.023 A 
ATOM     82  C   UNL     1      -5.554   7.162 -18.407  1.00  0.00     0.031 A 
ATOM     83  C   UNL     1      -7.895   6.602 -18.247  1.00  0.00     0.131 A 
ATOM     84  C   UNL     1      -5.866   8.057 -19.441  1.00  0.00     0.055 A 
ATOM     85  C   UNL     1      -8.193   7.454 -19.311  1.00  0.00     0.041 A 
ATOM     86  F   UNL     1      -8.911   5.930 -17.682  1.00  0.00    -0.206 F 
ATOM     87  C   UNL     1      -7.177   8.195 -19.908  1.00  0.00     0.022 A 
BRANCH  84  88
ATOM     88  S   UNL     1      -4.544   9.088 -20.134  1.00  0.00     0.124 S 
ATOM     89  O   UNL     1      -4.139   9.879 -18.976  1.00  0.00    -0.237 OA
ATOM     90  O   UNL     1      -3.580   8.094 -20.595  1.00  0.00    -0.237 OA
ATOM     91  O   UNL     1      -5.213   9.838 -21.195  1.00  0.00    -0.744 OA
ENDBRANCH  84  88
ENDBRANCH  58  81
ENDBRANCH  32  33
ENDBRANCH  25  27
ENDBRANCH  24  25
ENDBRANCH  23  24
ENDBRANCH  22  23
ENDBRANCH  21  22
ENDBRANCH   1  21
TORSDOF 23
