REMARK SMILES C=CC[N@H+](CC(=O)OCCOCCOC(=O)c1ccc(-c2c3nc(c(-c4cc(S(=O)(=O)[O-])ccc4F)c4ccc([nH]4)c(-c4cc(S(=O)(=O)[O-])ccc4F)c4nc(c(-c5cc(S(=O)(=O)[O-])ccc5F)c5ccc2[nH]5)C=C4)C=C3)cc1)[C@H]1CC(=O)N(c2ccccc2)C1=O
REMARK SMILES IDX 11 1 10 2 9 3 8 4 6 5 7 6 5 7 4 8 3 10 2 11 1 12 80 13 81 14
REMARK SMILES IDX 91 15 82 16 84 17 92 18 83 19 85 20 86 21 90 22 87 23 89 24
REMARK SMILES IDX 88 25 12 26 13 27 14 28 15 29 16 30 17 31 18 32 79 33 19 34
REMARK SMILES IDX 78 35 20 36 21 37 22 38 72 39 23 40 77 41 71 42 73 43 24 44
REMARK SMILES IDX 76 45 70 46 69 47 25 49 57 50 37 51 56 52 38 53 41 54 55 55
REMARK SMILES IDX 74 56 39 57 40 58 54 60 75 61 42 62 26 63 27 64 35 65 28 66
REMARK SMILES IDX 34 67 36 68 33 69 29 70 30 71 31 72 32 73 58 74 59 75 67 76
REMARK SMILES IDX 60 77 66 78 68 79 65 80 61 81 62 82 63 83 64 84 43 85 44 86
REMARK SMILES IDX 52 87 45 88 51 89 53 90 50 91 46 92 47 93 48 94 49 95
REMARK H PARENT 4 9 73 48 41 59
REMARK Flexibility Score: inf
ROOT
ATOM      1  O   UNL     1       1.159  -2.166  -7.505  1.00  0.00    -0.374 OA
ENDROOT
BRANCH   1   2
ATOM      2  C   UNL     1       2.496  -2.019  -7.027  1.00  0.00     0.202 C 
BRANCH   2   3
ATOM      3  C   UNL     1       2.889  -0.609  -6.581  1.00  0.00     0.261 C 
BRANCH   3   4
ATOM      4  O   UNL     1       2.198  -0.242  -5.373  1.00  0.00    -0.459 OA
BRANCH   4   5
ATOM      5  C   UNL     1       1.252   0.721  -5.495  1.00  0.00     0.361 C 
ATOM      6  O   UNL     1       1.062   1.385  -6.510  1.00  0.00    -0.245 OA
BRANCH   5   7
ATOM      7  C   UNL     1       0.485   0.995  -4.204  1.00  0.00     0.387 C 
BRANCH   7   8
ATOM      8  N   UNL     1      -0.038  -0.185  -3.436  1.00  0.00    -0.312 N 
ATOM      9  H   UNL     1      -0.441  -0.844  -4.102  1.00  0.00     0.349 HD
BRANCH   8  10
ATOM     10  C   UNL     1       1.070  -0.876  -2.729  1.00  0.00     0.291 C 
BRANCH  10  11
ATOM     11  C   UNL     1       0.666  -1.826  -1.629  1.00  0.00     0.025 C 
ATOM     12  C   UNL     1       0.872  -3.148  -1.652  1.00  0.00     0.010 C 
ENDBRANCH  10  11
ENDBRANCH   8  10
BRANCH   8  13
ATOM     13  C   UNL     1      -1.145   0.201  -2.507  1.00  0.00     0.285 C 
ATOM     14  C   UNL     1      -0.805   1.277  -1.488  1.00  0.00     0.176 C 
ATOM     15  C   UNL     1      -2.366   0.762  -3.227  1.00  0.00     0.292 C 
ATOM     16  C   UNL     1      -1.505   2.495  -2.005  1.00  0.00     0.240 C 
ATOM     17  N   UNL     1      -2.454   2.106  -2.921  1.00  0.00    -0.245 N 
ATOM     18  O   UNL     1      -3.074   0.113  -3.986  1.00  0.00    -0.267 OA
ATOM     19  O   UNL     1      -1.270   3.616  -1.574  1.00  0.00    -0.274 OA
BRANCH  17  20
ATOM     20  C   UNL     1      -3.387   2.990  -3.512  1.00  0.00     0.052 A 
ATOM     21  C   UNL     1      -4.705   2.582  -3.757  1.00  0.00     0.027 A 
ATOM     22  C   UNL     1      -3.012   4.295  -3.859  1.00  0.00     0.027 A 
ATOM     23  C   UNL     1      -5.633   3.470  -4.310  1.00  0.00     0.002 A 
ATOM     24  C   UNL     1      -3.928   5.167  -4.451  1.00  0.00     0.002 A 
ATOM     25  C   UNL     1      -5.241   4.758  -4.665  1.00  0.00     0.000 A 
ENDBRANCH  17  20
ENDBRANCH   8  13
ENDBRANCH   7   8
ENDBRANCH   5   7
ENDBRANCH   4   5
ENDBRANCH   3   4
ENDBRANCH   2   3
ENDBRANCH   1   2
BRANCH   1  26
ATOM     26  C   UNL     1       0.134  -2.308  -6.520  1.00  0.00     0.202 C 
BRANCH  26  27
ATOM     27  C   UNL     1      -0.026  -3.701  -5.898  1.00  0.00     0.261 C 
BRANCH  27  28
ATOM     28  O   UNL     1       1.116  -4.091  -5.113  1.00  0.00    -0.460 OA
BRANCH  28  29
ATOM     29  C   UNL     1       1.909  -5.038  -5.671  1.00  0.00     0.338 C 
ATOM     30  O   UNL     1       1.724  -5.622  -6.730  1.00  0.00    -0.246 OA
BRANCH  29  31
ATOM     31  C   UNL     1       3.163  -5.143  -4.901  1.00  0.00     0.060 A 
ATOM     32  C   UNL     1       4.372  -4.985  -5.589  1.00  0.00     0.016 A 
ATOM     33  C   UNL     1       3.164  -5.432  -3.535  1.00  0.00     0.016 A 
ATOM     34  C   UNL     1       5.585  -5.150  -4.918  1.00  0.00     0.010 A 
ATOM     35  C   UNL     1       4.380  -5.566  -2.857  1.00  0.00     0.010 A 
ATOM     36  C   UNL     1       5.598  -5.470  -3.553  1.00  0.00    -0.014 A 
BRANCH  36  37
ATOM     37  C   UNL     1       6.870  -5.880  -2.899  1.00  0.00     0.031 A 
ATOM     38  C   UNL     1       7.073  -7.335  -2.562  1.00  0.00     0.074 A 
ATOM     39  C   UNL     1       7.838  -4.984  -2.630  1.00  0.00     0.049 A 
ATOM     40  N   UNL     1       8.070  -7.918  -1.948  1.00  0.00    -0.248 NA
ATOM     41  C   UNL     1       5.994  -8.255  -2.960  1.00  0.00     0.031 C 
ATOM     42  C   UNL     1       7.774  -3.554  -2.929  1.00  0.00     0.029 A 
ATOM     43  N   UNL     1       9.068  -5.146  -2.039  1.00  0.00    -0.354 N 
ATOM     44  C   UNL     1       7.731  -9.265  -1.869  1.00  0.00     0.074 A 
ATOM     45  C   UNL     1       6.416  -9.403  -2.455  1.00  0.00     0.031 C 
ATOM     46  C   UNL     1       8.914  -2.970  -2.521  1.00  0.00     0.029 A 
ATOM     47  C   UNL     1       9.773  -3.973  -1.896  1.00  0.00     0.049 A 
ATOM     48  H   UNL     1       9.413  -6.020  -1.746  1.00  0.00     0.167 HD
ATOM     49  C   UNL     1       8.456 -10.296  -1.368  1.00  0.00     0.034 A 
ATOM     50  C   UNL     1      10.964  -3.733  -1.308  1.00  0.00     0.034 A 
ATOM     51  C   UNL     1       9.775 -10.148  -0.803  1.00  0.00     0.049 A 
ATOM     52  C   UNL     1      11.733  -4.890  -0.711  1.00  0.00     0.074 A 
ATOM     53  C   UNL     1      10.613 -11.130  -0.305  1.00  0.00     0.029 A 
ATOM     54  N   UNL     1      10.446  -8.941  -0.654  1.00  0.00    -0.354 N 
ATOM     55  N   UNL     1      11.409  -6.162  -0.662  1.00  0.00    -0.248 NA
ATOM     56  C   UNL     1      13.033  -4.579  -0.102  1.00  0.00     0.031 C 
ATOM     57  C   UNL     1      11.755 -10.511   0.212  1.00  0.00     0.029 A 
ATOM     58  C   UNL     1      11.671  -9.151  -0.040  1.00  0.00     0.049 A 
ATOM     59  H   UNL     1      10.102  -8.065  -0.943  1.00  0.00     0.167 HD
ATOM     60  C   UNL     1      12.481  -6.805  -0.047  1.00  0.00     0.074 A 
ATOM     61  C   UNL     1      13.465  -5.783   0.242  1.00  0.00     0.031 C 
ATOM     62  C   UNL     1      12.642  -8.121   0.249  1.00  0.00     0.034 A 
BRANCH  49  63
ATOM     63  C   UNL     1       7.815 -11.664  -1.370  1.00  0.00     0.023 A 
ATOM     64  C   UNL     1       7.471 -12.324  -2.562  1.00  0.00     0.031 A 
ATOM     65  C   UNL     1       7.518 -12.305  -0.154  1.00  0.00     0.131 A 
ATOM     66  C   UNL     1       6.788 -13.549  -2.512  1.00  0.00     0.055 A 
ATOM     67  C   UNL     1       6.913 -13.563  -0.112  1.00  0.00     0.041 A 
ATOM     68  F   UNL     1       7.800 -11.714   1.018  1.00  0.00    -0.206 F 
ATOM     69  C   UNL     1       6.530 -14.185  -1.296  1.00  0.00     0.022 A 
BRANCH  66  70
ATOM     70  S   UNL     1       6.112 -14.228  -4.053  1.00  0.00     0.124 S 
ATOM     71  O   UNL     1       5.226 -13.150  -4.485  1.00  0.00    -0.237 OA
ATOM     72  O   UNL     1       7.309 -14.434  -4.859  1.00  0.00    -0.237 OA
ATOM     73  O   UNL     1       5.432 -15.448  -3.620  1.00  0.00    -0.744 OA
ENDBRANCH  66  70
ENDBRANCH  49  63
BRANCH  50  74
ATOM     74  C   UNL     1      11.496  -2.342  -1.211  1.00  0.00     0.023 A 
ATOM     75  C   UNL     1      12.701  -1.976  -1.832  1.00  0.00     0.031 A 
ATOM     76  C   UNL     1      10.835  -1.372  -0.436  1.00  0.00     0.131 A 
ATOM     77  C   UNL     1      13.234  -0.693  -1.626  1.00  0.00     0.055 A 
ATOM     78  C   UNL     1      11.340  -0.079  -0.281  1.00  0.00     0.041 A 
ATOM     79  F   UNL     1       9.680  -1.667   0.182  1.00  0.00    -0.206 F 
ATOM     80  C   UNL     1      12.555   0.262  -0.866  1.00  0.00     0.022 A 
BRANCH  77  81
ATOM     81  S   UNL     1      14.881  -0.318  -2.288  1.00  0.00     0.124 S 
ATOM     82  O   UNL     1      15.698  -1.345  -1.652  1.00  0.00    -0.237 OA
ATOM     83  O   UNL     1      14.669  -0.464  -3.724  1.00  0.00    -0.237 OA
ATOM     84  O   UNL     1      15.128   1.048  -1.833  1.00  0.00    -0.744 OA
ENDBRANCH  77  81
ENDBRANCH  50  74
BRANCH  62  85
ATOM     85  C   UNL     1      13.954  -8.534   0.874  1.00  0.00     0.023 A 
ATOM     86  C   UNL     1      14.330  -8.112   2.161  1.00  0.00     0.031 A 
ATOM     87  C   UNL     1      14.845  -9.359   0.163  1.00  0.00     0.131 A 
ATOM     88  C   UNL     1      15.588  -8.467   2.674  1.00  0.00     0.055 A 
ATOM     89  C   UNL     1      16.066  -9.763   0.704  1.00  0.00     0.041 A 
ATOM     90  F   UNL     1      14.539  -9.791  -1.071  1.00  0.00    -0.206 F 
ATOM     91  C   UNL     1      16.450  -9.305   1.961  1.00  0.00     0.022 A 
BRANCH  88  92
ATOM     92  S   UNL     1      16.125  -7.739   4.245  1.00  0.00     0.124 S 
ATOM     93  O   UNL     1      16.047  -6.310   3.960  1.00  0.00    -0.237 OA
ATOM     94  O   UNL     1      15.135  -8.256   5.184  1.00  0.00    -0.237 OA
ATOM     95  O   UNL     1      17.479  -8.262   4.421  1.00  0.00    -0.744 OA
ENDBRANCH  88  92
ENDBRANCH  62  85
ENDBRANCH  36  37
ENDBRANCH  29  31
ENDBRANCH  28  29
ENDBRANCH  27  28
ENDBRANCH  26  27
ENDBRANCH   1  26
TORSDOF 22
