REMARK SMILES C[C@@H]1[C@@H](C(=O)OCCOCCOC(=O)c2ccc(-c3c4nc(c(-c5cc(S(=O)(=O)[O-])ccc5F)c5ccc([nH]5)c(-c5cc(S(=O)(=O)[O-])ccc5F)c5nc(c(-c6cc(S(=O)(=O)[O-])ccc6F)c6ccc3[nH]6)C=C5)C=C4)cc2)CCN1C(=O)CCCC1CCCCC1
REMARK SMILES IDX 8 1 7 2 6 3 4 4 5 5 3 6 1 7 2 8 80 9 78 10 79 11 81 12 82 13
REMARK SMILES IDX 83 14 84 15 85 16 86 17 87 18 91 19 88 20 90 21 89 22 9 23
REMARK SMILES IDX 10 24 11 25 12 26 13 27 14 28 15 29 16 30 77 31 17 32 76 33
REMARK SMILES IDX 18 34 19 35 20 36 70 37 21 38 75 39 69 40 71 41 22 42 74 43
REMARK SMILES IDX 68 44 67 45 23 47 55 48 35 49 54 50 36 51 39 52 53 53 72 54
REMARK SMILES IDX 37 55 38 56 52 58 73 59 40 60 24 61 25 62 33 63 26 64 32 65
REMARK SMILES IDX 34 66 31 67 27 68 28 69 29 70 30 71 56 72 57 73 65 74 58 75
REMARK SMILES IDX 64 76 66 77 63 78 59 79 60 80 61 81 62 82 41 83 42 84 50 85
REMARK SMILES IDX 43 86 49 87 51 88 48 89 44 90 45 91 46 92 47 93
REMARK H PARENT 71 46 39 57
REMARK Flexibility Score: inf
ROOT
ATOM      1  C   UNL     1      -1.502   2.368  -4.454  1.00  0.00     0.202 C 
ENDROOT
BRANCH   1   2
ATOM      2  C   UNL     1      -2.368   1.407  -3.636  1.00  0.00     0.261 C 
BRANCH   2   3
ATOM      3  O   UNL     1      -2.122   1.493  -2.223  1.00  0.00    -0.463 OA
BRANCH   3   4
ATOM      4  C   UNL     1      -1.330   0.496  -1.743  1.00  0.00     0.311 C 
ATOM      5  O   UNL     1      -0.840  -0.385  -2.436  1.00  0.00    -0.252 OA
BRANCH   4   6
ATOM      6  C   UNL     1      -1.093   0.657  -0.247  1.00  0.00     0.123 C 
ATOM      7  C   UNL     1       0.552  -0.007   1.595  1.00  0.00     0.032 C 
ATOM      8  C   UNL     1      -0.022  -0.340   0.217  1.00  0.00     0.096 C 
ATOM      9  N   UNL     1      -0.756  -1.593   0.212  1.00  0.00    -0.339 N 
ATOM     10  C   UNL     1      -2.318   0.183   0.529  1.00  0.00     0.039 C 
ATOM     11  C   UNL     1      -2.161  -1.343   0.534  1.00  0.00     0.121 C 
BRANCH   9  12
ATOM     12  C   UNL     1      -0.405  -2.729  -0.506  1.00  0.00     0.222 C 
ATOM     13  O   UNL     1      -1.242  -3.598  -0.769  1.00  0.00    -0.275 OA
BRANCH  12  14
ATOM     14  C   UNL     1       1.066  -2.981  -0.850  1.00  0.00     0.100 C 
BRANCH  14  15
ATOM     15  C   UNL     1       1.692  -2.451  -2.155  1.00  0.00     0.010 C 
BRANCH  15  16
ATOM     16  C   UNL     1       2.354  -1.057  -2.280  1.00  0.00     0.004 C 
BRANCH  16  17
ATOM     17  C   UNL     1       3.532  -0.604  -1.366  1.00  0.00    -0.011 C 
ATOM     18  C   UNL     1       3.397   0.907  -1.054  1.00  0.00     0.003 C 
ATOM     19  C   UNL     1       3.737  -1.417  -0.090  1.00  0.00     0.003 C 
ATOM     20  C   UNL     1       4.411   1.443  -0.043  1.00  0.00     0.000 C 
ATOM     21  C   UNL     1       4.833  -0.869   0.813  1.00  0.00     0.000 C 
ATOM     22  C   UNL     1       4.521   0.570   1.199  1.00  0.00     0.000 C 
ENDBRANCH  16  17
ENDBRANCH  15  16
ENDBRANCH  14  15
ENDBRANCH  12  14
ENDBRANCH   9  12
ENDBRANCH   4   6
ENDBRANCH   3   4
ENDBRANCH   2   3
ENDBRANCH   1   2
BRANCH   1  23
ATOM     23  O   UNL     1      -0.087   2.237  -4.344  1.00  0.00    -0.374 OA
BRANCH  23  24
ATOM     24  C   UNL     1       0.555   2.777  -3.190  1.00  0.00     0.202 C 
BRANCH  24  25
ATOM     25  C   UNL     1       0.589   4.303  -3.039  1.00  0.00     0.261 C 
BRANCH  25  26
ATOM     26  O   UNL     1      -0.710   4.848  -2.741  1.00  0.00    -0.460 OA
BRANCH  26  27
ATOM     27  C   UNL     1      -1.213   5.670  -3.693  1.00  0.00     0.338 C 
ATOM     28  O   UNL     1      -0.648   6.034  -4.721  1.00  0.00    -0.246 OA
BRANCH  27  29
ATOM     29  C   UNL     1      -2.641   5.923  -3.442  1.00  0.00     0.060 A 
ATOM     30  C   UNL     1      -3.550   5.597  -4.457  1.00  0.00     0.016 A 
ATOM     31  C   UNL     1      -3.079   6.536  -2.266  1.00  0.00     0.016 A 
ATOM     32  C   UNL     1      -4.897   5.921  -4.319  1.00  0.00     0.010 A 
ATOM     33  C   UNL     1      -4.431   6.873  -2.136  1.00  0.00     0.010 A 
ATOM     34  C   UNL     1      -5.339   6.597  -3.175  1.00  0.00    -0.014 A 
BRANCH  34  35
ATOM     35  C   UNL     1      -6.716   7.150  -3.140  1.00  0.00     0.031 A 
ATOM     36  C   UNL     1      -6.919   8.609  -3.448  1.00  0.00     0.074 A 
ATOM     37  C   UNL     1      -7.770   6.359  -2.872  1.00  0.00     0.049 A 
ATOM     38  N   UNL     1      -8.019   9.316  -3.438  1.00  0.00    -0.248 NA
ATOM     39  C   UNL     1      -5.715   9.371  -3.812  1.00  0.00     0.031 C 
ATOM     40  C   UNL     1      -7.700   4.922  -2.610  1.00  0.00     0.029 A 
ATOM     41  N   UNL     1      -9.106   6.654  -2.774  1.00  0.00    -0.354 N 
ATOM     42  C   UNL     1      -7.642  10.607  -3.792  1.00  0.00     0.074 A 
ATOM     43  C   UNL     1      -6.205  10.591  -3.970  1.00  0.00     0.031 C 
ATOM     44  C   UNL     1      -8.940   4.462  -2.371  1.00  0.00     0.029 A 
ATOM     45  C   UNL     1      -9.885   5.576  -2.424  1.00  0.00     0.049 A 
ATOM     46  H   UNL     1      -9.473   7.553  -2.938  1.00  0.00     0.167 HD
ATOM     47  C   UNL     1      -8.424  11.702  -3.961  1.00  0.00     0.034 A 
ATOM     48  C   UNL     1     -11.204   5.505  -2.152  1.00  0.00     0.034 A 
ATOM     49  C   UNL     1      -9.854  11.703  -3.768  1.00  0.00     0.049 A 
ATOM     50  C   UNL     1     -12.042   6.757  -2.256  1.00  0.00     0.074 A 
ATOM     51  C   UNL     1     -10.744  12.752  -3.921  1.00  0.00     0.029 A 
ATOM     52  N   UNL     1     -10.603  10.604  -3.365  1.00  0.00    -0.354 N 
ATOM     53  N   UNL     1     -11.675   7.973  -2.596  1.00  0.00    -0.248 NA
ATOM     54  C   UNL     1     -13.472   6.626  -1.949  1.00  0.00     0.031 C 
ATOM     55  C   UNL     1     -12.016  12.307  -3.541  1.00  0.00     0.029 A 
ATOM     56  C   UNL     1     -11.937  10.959  -3.230  1.00  0.00     0.049 A 
ATOM     57  H   UNL     1     -10.239   9.705  -3.199  1.00  0.00     0.167 HD
ATOM     58  C   UNL     1     -12.837   8.740  -2.575  1.00  0.00     0.074 A 
ATOM     59  C   UNL     1     -13.916   7.848  -2.203  1.00  0.00     0.031 C 
ATOM     60  C   UNL     1     -13.001  10.061  -2.846  1.00  0.00     0.034 A 
BRANCH  47  61
ATOM     61  C   UNL     1      -7.735  12.997  -4.322  1.00  0.00     0.023 A 
ATOM     62  C   UNL     1      -7.043  13.157  -5.536  1.00  0.00     0.031 A 
ATOM     63  C   UNL     1      -7.744  14.078  -3.423  1.00  0.00     0.131 A 
ATOM     64  C   UNL     1      -6.333  14.341  -5.786  1.00  0.00     0.055 A 
ATOM     65  C   UNL     1      -7.102  15.284  -3.713  1.00  0.00     0.041 A 
ATOM     66  F   UNL     1      -8.367  13.977  -2.238  1.00  0.00    -0.206 F 
ATOM     67  C   UNL     1      -6.378  15.415  -4.894  1.00  0.00     0.022 A 
BRANCH  64  68
ATOM     68  S   UNL     1      -5.230  14.403  -7.225  1.00  0.00     0.124 S 
ATOM     69  O   UNL     1      -4.327  13.287  -6.953  1.00  0.00    -0.237 OA
ATOM     70  O   UNL     1      -6.154  14.222  -8.338  1.00  0.00    -0.237 OA
ATOM     71  O   UNL     1      -4.618  15.727  -7.131  1.00  0.00    -0.744 OA
ENDBRANCH  64  68
ENDBRANCH  47  61
BRANCH  48  72
ATOM     72  C   UNL     1     -11.817   4.218  -1.712  1.00  0.00     0.023 A 
ATOM     73  C   UNL     1     -12.813   3.588  -2.474  1.00  0.00     0.031 A 
ATOM     74  C   UNL     1     -11.455   3.630  -0.486  1.00  0.00     0.131 A 
ATOM     75  C   UNL     1     -13.447   2.436  -1.982  1.00  0.00     0.055 A 
ATOM     76  C   UNL     1     -12.050   2.453  -0.027  1.00  0.00     0.041 A 
ATOM     77  F   UNL     1     -10.510   4.192   0.285  1.00  0.00    -0.206 F 
ATOM     78  C   UNL     1     -13.062   1.857  -0.770  1.00  0.00     0.022 A 
BRANCH  75  79
ATOM     79  S   UNL     1     -14.850   1.754  -2.908  1.00  0.00     0.124 S 
ATOM     80  O   UNL     1     -15.764   2.890  -2.939  1.00  0.00    -0.237 OA
ATOM     81  O   UNL     1     -14.227   1.395  -4.178  1.00  0.00    -0.237 OA
ATOM     82  O   UNL     1     -15.283   0.625  -2.087  1.00  0.00    -0.744 OA
ENDBRANCH  75  79
ENDBRANCH  48  72
BRANCH  60  83
ATOM     83  C   UNL     1     -14.409  10.605  -2.796  1.00  0.00     0.023 A 
ATOM     84  C   UNL     1     -15.134  10.682  -1.594  1.00  0.00     0.031 A 
ATOM     85  C   UNL     1     -15.038  11.044  -3.975  1.00  0.00     0.131 A 
ATOM     86  C   UNL     1     -16.463  11.134  -1.606  1.00  0.00     0.055 A 
ATOM     87  C   UNL     1     -16.339  11.550  -3.972  1.00  0.00     0.041 A 
ATOM     88  F   UNL     1     -14.395  10.991  -5.153  1.00  0.00    -0.206 F 
ATOM     89  C   UNL     1     -17.064  11.584  -2.784  1.00  0.00     0.022 A 
BRANCH  86  90
ATOM     90  S   UNL     1     -17.431  11.037  -0.075  1.00  0.00     0.124 S 
ATOM     91  O   UNL     1     -17.364   9.613   0.237  1.00  0.00    -0.237 OA
ATOM     92  O   UNL     1     -16.690  11.921   0.819  1.00  0.00    -0.237 OA
ATOM     93  O   UNL     1     -18.751  11.524  -0.471  1.00  0.00    -0.744 OA
ENDBRANCH  86  90
ENDBRANCH  60  83
ENDBRANCH  34  35
ENDBRANCH  27  29
ENDBRANCH  26  27
ENDBRANCH  25  26
ENDBRANCH  24  25
ENDBRANCH  23  24
ENDBRANCH   1  23
TORSDOF 22
