REMARK SMILES O=C(CC1CC[NH+](C[C@@H]2Cc3ccccc32)CC1)OCCOCCOC(=O)c1ccc(-c2c3nc(c(-c4cc(S(=O)(=O)[O-])ccc4F)c4ccc([nH]4)c(-c4cc(S(=O)(=O)[O-])ccc4F)c4nc(c(-c5cc(S(=O)(=O)[O-])ccc5F)c5ccc2[nH]5)C=C4)C=C3)cc1
REMARK SMILES IDX 22 1 21 2 20 3 19 4 2 5 1 6 3 7 4 8 5 9 18 10 6 11 17 12
REMARK SMILES IDX 7 13 8 15 9 16 10 17 16 18 11 19 15 20 12 21 14 22 13 23
REMARK SMILES IDX 23 24 24 25 25 26 26 27 27 28 28 29 29 30 90 31 30 32 89 33
REMARK SMILES IDX 31 34 32 35 33 36 83 37 34 38 88 39 82 40 84 41 35 42 87 43
REMARK SMILES IDX 81 44 80 45 36 47 68 48 48 49 67 50 49 51 52 52 66 53 85 54
REMARK SMILES IDX 50 55 51 56 65 58 86 59 53 60 37 61 38 62 46 63 39 64 45 65
REMARK SMILES IDX 47 66 44 67 40 68 41 69 42 70 43 71 69 72 70 73 78 74 71 75
REMARK SMILES IDX 77 76 79 77 76 78 72 79 73 80 74 81 75 82 54 83 55 84 63 85
REMARK SMILES IDX 56 86 62 87 64 88 61 89 57 90 58 91 59 92 60 93
REMARK H PARENT 7 14 84 46 52 57
REMARK Flexibility Score: inf
ROOT
ATOM      1  O   UNL     1      -5.116  -2.066   2.227  1.00  0.00    -0.374 OA
ENDROOT
BRANCH   1   2
ATOM      2  C   UNL     1      -5.577  -2.271   3.555  1.00  0.00     0.202 C 
BRANCH   2   3
ATOM      3  C   UNL     1      -4.595  -2.620   4.676  1.00  0.00     0.261 C 
BRANCH   3   4
ATOM      4  O   UNL     1      -3.295  -2.046   4.573  1.00  0.00    -0.463 OA
BRANCH   4   5
ATOM      5  C   UNL     1      -2.288  -2.604   3.871  1.00  0.00     0.306 C 
ATOM      6  O   UNL     1      -1.134  -2.222   4.067  1.00  0.00    -0.252 OA
BRANCH   5   7
ATOM      7  C   UNL     1      -2.592  -3.595   2.768  1.00  0.00     0.126 C 
BRANCH   7   8
ATOM      8  C   UNL     1      -3.063  -5.006   3.148  1.00  0.00     0.011 C 
ATOM      9  C   UNL     1      -2.095  -5.692   4.106  1.00  0.00     0.066 C 
ATOM     10  C   UNL     1      -3.185  -5.903   1.914  1.00  0.00     0.066 C 
ATOM     11  C   UNL     1      -0.714  -5.820   3.462  1.00  0.00     0.262 C 
ATOM     12  C   UNL     1      -1.836  -6.085   1.227  1.00  0.00     0.262 C 
ATOM     13  N   UNL     1      -0.722  -6.396   2.119  1.00  0.00    -0.334 N 
ATOM     14  H   UNL     1      -0.946  -7.362   2.356  1.00  0.00     0.348 HD
BRANCH  13  15
ATOM     15  C   UNL     1       0.593  -6.427   1.453  1.00  0.00     0.270 C 
BRANCH  15  16
ATOM     16  C   UNL     1       1.304  -5.143   0.964  1.00  0.00     0.079 C 
ATOM     17  C   UNL     1       1.713  -3.953   1.916  1.00  0.00     0.050 C 
ATOM     18  C   UNL     1       0.545  -4.103   0.172  1.00  0.00    -0.036 A 
ATOM     19  C   UNL     1       0.830  -3.093   1.059  1.00  0.00    -0.043 A 
ATOM     20  C   UNL     1      -0.215  -3.878  -0.956  1.00  0.00     0.004 A 
ATOM     21  C   UNL     1       0.319  -1.822   0.915  1.00  0.00     0.004 A 
ATOM     22  C   UNL     1      -0.753  -2.598  -1.129  1.00  0.00     0.000 A 
ATOM     23  C   UNL     1      -0.495  -1.579  -0.193  1.00  0.00     0.000 A 
ENDBRANCH  15  16
ENDBRANCH  13  15
ENDBRANCH   7   8
ENDBRANCH   5   7
ENDBRANCH   4   5
ENDBRANCH   3   4
ENDBRANCH   2   3
ENDBRANCH   1   2
BRANCH   1  24
ATOM     24  C   UNL     1      -4.393  -0.861   1.946  1.00  0.00     0.202 C 
BRANCH  24  25
ATOM     25  C   UNL     1      -5.224   0.397   1.694  1.00  0.00     0.261 C 
BRANCH  25  26
ATOM     26  O   UNL     1      -5.815   0.876   2.906  1.00  0.00    -0.460 OA
BRANCH  26  27
ATOM     27  C   UNL     1      -7.117   0.547   3.084  1.00  0.00     0.338 C 
ATOM     28  O   UNL     1      -7.850  -0.020   2.290  1.00  0.00    -0.246 OA
BRANCH  27  29
ATOM     29  C   UNL     1      -7.432   0.735   4.513  1.00  0.00     0.060 A 
ATOM     30  C   UNL     1      -8.098  -0.299   5.191  1.00  0.00     0.016 A 
ATOM     31  C   UNL     1      -7.036   1.892   5.183  1.00  0.00     0.016 A 
ATOM     32  C   UNL     1      -8.412  -0.160   6.539  1.00  0.00     0.010 A 
ATOM     33  C   UNL     1      -7.368   2.041   6.524  1.00  0.00     0.010 A 
ATOM     34  C   UNL     1      -8.091   1.034   7.190  1.00  0.00    -0.014 A 
BRANCH  34  35
ATOM     35  C   UNL     1      -8.715   1.371   8.484  1.00  0.00     0.031 A 
ATOM     36  C   UNL     1      -9.902   2.287   8.453  1.00  0.00     0.074 A 
ATOM     37  C   UNL     1      -8.193   0.939   9.640  1.00  0.00     0.049 A 
ATOM     38  N   UNL     1     -10.491   2.922   9.428  1.00  0.00    -0.248 NA
ATOM     39  C   UNL     1     -10.477   2.545   7.123  1.00  0.00     0.031 C 
ATOM     40  C   UNL     1      -7.069   0.013   9.764  1.00  0.00     0.029 A 
ATOM     41  N   UNL     1      -8.517   1.261  10.931  1.00  0.00    -0.354 N 
ATOM     42  C   UNL     1     -11.486   3.685   8.826  1.00  0.00     0.074 A 
ATOM     43  C   UNL     1     -11.392   3.457   7.401  1.00  0.00     0.031 C 
ATOM     44  C   UNL     1      -6.768  -0.126  11.067  1.00  0.00     0.029 A 
ATOM     45  C   UNL     1      -7.641   0.744  11.854  1.00  0.00     0.049 A 
ATOM     46  H   UNL     1      -9.299   1.808  11.174  1.00  0.00     0.167 HD
ATOM     47  C   UNL     1     -12.390   4.502   9.418  1.00  0.00     0.034 A 
ATOM     48  C   UNL     1      -7.524   0.996  13.173  1.00  0.00     0.034 A 
ATOM     49  C   UNL     1     -12.431   4.719  10.843  1.00  0.00     0.049 A 
ATOM     50  C   UNL     1      -8.488   1.965  13.813  1.00  0.00     0.074 A 
ATOM     51  C   UNL     1     -13.311   5.495  11.574  1.00  0.00     0.029 A 
ATOM     52  N   UNL     1     -11.532   4.171  11.754  1.00  0.00    -0.354 N 
ATOM     53  N   UNL     1      -9.438   2.679  13.250  1.00  0.00    -0.248 NA
ATOM     54  C   UNL     1      -8.369   2.158  15.262  1.00  0.00     0.031 C 
ATOM     55  C   UNL     1     -12.891   5.489  12.908  1.00  0.00     0.029 A 
ATOM     56  C   UNL     1     -11.812   4.625  13.032  1.00  0.00     0.049 A 
ATOM     57  H   UNL     1     -10.803   3.551  11.523  1.00  0.00     0.167 HD
ATOM     58  C   UNL     1     -10.054   3.379  14.284  1.00  0.00     0.074 A 
ATOM     59  C   UNL     1      -9.364   3.002  15.502  1.00  0.00     0.031 C 
ATOM     60  C   UNL     1     -11.104   4.240  14.234  1.00  0.00     0.034 A 
BRANCH  47  61
ATOM     61  C   UNL     1     -13.329   5.263   8.512  1.00  0.00     0.023 A 
ATOM     62  C   UNL     1     -14.204   4.607   7.626  1.00  0.00     0.031 A 
ATOM     63  C   UNL     1     -13.290   6.668   8.469  1.00  0.00     0.131 A 
ATOM     64  C   UNL     1     -14.912   5.345   6.665  1.00  0.00     0.055 A 
ATOM     65  C   UNL     1     -14.078   7.402   7.580  1.00  0.00     0.041 A 
ATOM     66  F   UNL     1     -12.457   7.355   9.267  1.00  0.00    -0.206 F 
ATOM     67  C   UNL     1     -14.878   6.740   6.654  1.00  0.00     0.022 A 
BRANCH  64  68
ATOM     68  S   UNL     1     -15.709   4.446   5.304  1.00  0.00     0.124 S 
ATOM     69  O   UNL     1     -14.587   3.686   4.756  1.00  0.00    -0.237 OA
ATOM     70  O   UNL     1     -16.730   3.667   5.996  1.00  0.00    -0.237 OA
ATOM     71  O   UNL     1     -16.212   5.510   4.439  1.00  0.00    -0.744 OA
ENDBRANCH  64  68
ENDBRANCH  47  61
BRANCH  48  72
ATOM     72  C   UNL     1      -6.426   0.359  13.950  1.00  0.00     0.023 A 
ATOM     73  C   UNL     1      -6.693  -0.595  14.941  1.00  0.00     0.031 A 
ATOM     74  C   UNL     1      -5.081   0.686  13.692  1.00  0.00     0.131 A 
ATOM     75  C   UNL     1      -5.633  -1.177  15.654  1.00  0.00     0.055 A 
ATOM     76  C   UNL     1      -4.028   0.070  14.370  1.00  0.00     0.041 A 
ATOM     77  F   UNL     1      -4.771   1.591  12.749  1.00  0.00    -0.206 F 
ATOM     78  C   UNL     1      -4.303  -0.865  15.363  1.00  0.00     0.022 A 
BRANCH  75  79
ATOM     79  S   UNL     1      -6.020  -2.324  17.005  1.00  0.00     0.124 S 
ATOM     80  O   UNL     1      -6.792  -1.473  17.904  1.00  0.00    -0.237 OA
ATOM     81  O   UNL     1      -6.765  -3.369  16.312  1.00  0.00    -0.237 OA
ATOM     82  O   UNL     1      -4.704  -2.724  17.499  1.00  0.00    -0.744 OA
ENDBRANCH  75  79
ENDBRANCH  48  72
BRANCH  60  83
ATOM     83  C   UNL     1     -11.621   4.782  15.546  1.00  0.00     0.023 A 
ATOM     84  C   UNL     1     -10.875   5.672  16.337  1.00  0.00     0.031 A 
ATOM     85  C   UNL     1     -12.907   4.421  15.988  1.00  0.00     0.131 A 
ATOM     86  C   UNL     1     -11.408   6.139  17.549  1.00  0.00     0.055 A 
ATOM     87  C   UNL     1     -13.456   4.939  17.160  1.00  0.00     0.041 A 
ATOM     88  F   UNL     1     -13.661   3.570  15.274  1.00  0.00    -0.206 F 
ATOM     89  C   UNL     1     -12.701   5.797  17.953  1.00  0.00     0.022 A 
BRANCH  86  90
ATOM     90  S   UNL     1     -10.358   7.142  18.637  1.00  0.00     0.124 S 
ATOM     91  O   UNL     1      -9.237   6.242  18.887  1.00  0.00    -0.237 OA
ATOM     92  O   UNL     1     -10.069   8.307  17.807  1.00  0.00    -0.237 OA
ATOM     93  O   UNL     1     -11.213   7.402  19.794  1.00  0.00    -0.744 OA
ENDBRANCH  86  90
ENDBRANCH  60  83
ENDBRANCH  34  35
ENDBRANCH  27  29
ENDBRANCH  26  27
ENDBRANCH  25  26
ENDBRANCH  24  25
ENDBRANCH   1  24
TORSDOF 20
