REMARK SMILES Cc1cc(C(=O)OCCOCCOC(=O)c2ccc(-c3c4nc(c(-c5cc(S(=O)(=O)[O-])ccc5F)c5ccc([nH]5)c(-c5cc(S(=O)(=O)[O-])ccc5F)c5nc(c(-c6cc(S(=O)(=O)[O-])ccc6F)c6ccc3[nH]6)C=C5)C=C4)cc2)nc(N2CCN(c3ccccc3Cl)CC2)n1
REMARK SMILES IDX 11 1 10 2 9 3 8 4 7 5 5 6 6 7 4 8 1 9 2 10 3 11 94 12 80 13
REMARK SMILES IDX 79 14 81 15 82 16 93 17 83 18 92 19 84 20 85 21 86 22 90 23
REMARK SMILES IDX 87 24 89 25 91 26 88 27 12 28 13 29 14 30 15 31 16 32 17 33
REMARK SMILES IDX 78 34 18 35 77 36 19 37 20 38 21 39 71 40 22 41 76 42 70 43
REMARK SMILES IDX 72 44 23 45 75 46 69 47 68 48 24 50 56 51 36 52 55 53 37 54
REMARK SMILES IDX 40 55 54 56 73 57 38 58 39 59 53 61 74 62 41 63 25 64 26 65
REMARK SMILES IDX 34 66 27 67 33 68 35 69 32 70 28 71 29 72 30 73 31 74 57 75
REMARK SMILES IDX 58 76 66 77 59 78 65 79 67 80 64 81 60 82 61 83 62 84 63 85
REMARK SMILES IDX 42 86 43 87 51 88 44 89 50 90 52 91 49 92 45 93 46 94 47 95
REMARK SMILES IDX 48 96
REMARK H PARENT 72 49 40 60
REMARK Flexibility Score: inf
ROOT
ATOM      1  C   UNL     1       3.113  -2.595  -1.816  1.00  0.00     0.202 C 
ENDROOT
BRANCH   1   2
ATOM      2  O   UNL     1       3.876  -3.574  -1.108  1.00  0.00    -0.374 OA
BRANCH   2   3
ATOM      3  C   UNL     1       3.149  -4.634  -0.484  1.00  0.00     0.202 C 
BRANCH   3   4
ATOM      4  C   UNL     1       2.555  -4.312   0.891  1.00  0.00     0.261 C 
BRANCH   4   5
ATOM      5  O   UNL     1       1.561  -3.278   0.787  1.00  0.00    -0.459 OA
BRANCH   5   6
ATOM      6  C   UNL     1       1.880  -2.122   1.419  1.00  0.00     0.357 C 
ATOM      7  O   UNL     1       2.794  -1.954   2.215  1.00  0.00    -0.244 OA
BRANCH   6   8
ATOM      8  C   UNL     1       1.043  -1.017   0.889  1.00  0.00     0.154 A 
ATOM      9  C   UNL     1      -2.422   0.016   0.002  1.00  0.00     0.067 C 
ATOM     10  C   UNL     1      -0.943  -0.001   0.247  1.00  0.00     0.044 A 
ATOM     11  C   UNL     1      -0.310  -1.145   0.682  1.00  0.00     0.059 A 
ATOM     12  N   UNL     1      -0.284   1.169   0.068  1.00  0.00    -0.218 NA
ATOM     13  C   UNL     1       1.044   1.173   0.247  1.00  0.00     0.226 A 
ATOM     14  N   UNL     1       1.734   0.109   0.637  1.00  0.00    -0.206 NA
BRANCH  13  15
ATOM     15  N   UNL     1       1.775   2.307   0.055  1.00  0.00    -0.337 N 
ATOM     16  C   UNL     1       1.315   3.574   0.605  1.00  0.00     0.141 C 
ATOM     17  C   UNL     1       2.586   2.365  -1.161  1.00  0.00     0.141 C 
ATOM     18  C   UNL     1       2.545   4.484   0.858  1.00  0.00     0.138 C 
ATOM     19  C   UNL     1       3.788   3.315  -0.959  1.00  0.00     0.138 C 
ATOM     20  N   UNL     1       3.339   4.591  -0.374  1.00  0.00    -0.367 N 
BRANCH  20  21
ATOM     21  C   UNL     1       3.933   5.778  -0.749  1.00  0.00     0.056 A 
ATOM     22  C   UNL     1       4.741   6.484   0.155  1.00  0.00     0.027 A 
ATOM     23  C   UNL     1       3.737   6.346  -2.026  1.00  0.00     0.064 A 
ATOM     24  C   UNL     1       5.328   7.706  -0.191  1.00  0.00     0.002 A 
ATOM     25  C   UNL     1       4.316   7.572  -2.371  1.00  0.00     0.023 A 
ATOM     26  Cl  UNL     1       2.704   5.603  -3.204  1.00  0.00    -0.082 Cl
ATOM     27  C   UNL     1       5.111   8.252  -1.453  1.00  0.00     0.002 A 
ENDBRANCH  20  21
ENDBRANCH  13  15
ENDBRANCH   6   8
ENDBRANCH   5   6
ENDBRANCH   4   5
ENDBRANCH   3   4
ENDBRANCH   2   3
ENDBRANCH   1   2
BRANCH   1  28
ATOM     28  C   UNL     1       2.641  -2.992  -3.221  1.00  0.00     0.261 C 
BRANCH  28  29
ATOM     29  O   UNL     1       1.651  -4.036  -3.183  1.00  0.00    -0.460 OA
BRANCH  29  30
ATOM     30  C   UNL     1       2.079  -5.242  -3.629  1.00  0.00     0.338 C 
ATOM     31  O   UNL     1       3.170  -5.495  -4.124  1.00  0.00    -0.246 OA
BRANCH  30  32
ATOM     32  C   UNL     1       1.108  -6.292  -3.264  1.00  0.00     0.060 A 
ATOM     33  C   UNL     1       1.601  -7.430  -2.613  1.00  0.00     0.016 A 
ATOM     34  C   UNL     1      -0.245  -6.199  -3.597  1.00  0.00     0.016 A 
ATOM     35  C   UNL     1       0.752  -8.499  -2.332  1.00  0.00     0.010 A 
ATOM     36  C   UNL     1      -1.095  -7.278  -3.322  1.00  0.00     0.010 A 
ATOM     37  C   UNL     1      -0.594  -8.446  -2.717  1.00  0.00    -0.014 A 
BRANCH  37  38
ATOM     38  C   UNL     1      -1.436  -9.665  -2.615  1.00  0.00     0.031 A 
ATOM     39  C   UNL     1      -1.668 -10.495  -3.849  1.00  0.00     0.074 A 
ATOM     40  C   UNL     1      -1.958 -10.046  -1.435  1.00  0.00     0.049 A 
ATOM     41  N   UNL     1      -2.399 -11.569  -4.003  1.00  0.00    -0.248 NA
ATOM     42  C   UNL     1      -0.985 -10.050  -5.073  1.00  0.00     0.031 C 
ATOM     43  C   UNL     1      -1.762  -9.352  -0.163  1.00  0.00     0.029 A 
ATOM     44  N   UNL     1      -2.765 -11.110  -1.115  1.00  0.00    -0.354 N 
ATOM     45  C   UNL     1      -2.266 -11.930  -5.340  1.00  0.00     0.074 A 
ATOM     46  C   UNL     1      -1.415 -10.935  -5.960  1.00  0.00     0.031 C 
ATOM     47  C   UNL     1      -2.440 -10.003   0.798  1.00  0.00     0.029 A 
ATOM     48  C   UNL     1      -3.149 -11.136   0.205  1.00  0.00     0.049 A 
ATOM     49  H   UNL     1      -3.042 -11.791  -1.770  1.00  0.00     0.167 HD
ATOM     50  C   UNL     1      -2.796 -12.997  -5.988  1.00  0.00     0.034 A 
ATOM     51  C   UNL     1      -3.996 -11.963   0.853  1.00  0.00     0.034 A 
ATOM     52  C   UNL     1      -3.651 -13.975  -5.361  1.00  0.00     0.049 A 
ATOM     53  C   UNL     1      -4.647 -13.091   0.088  1.00  0.00     0.074 A 
ATOM     54  C   UNL     1      -4.234 -15.097  -5.923  1.00  0.00     0.029 A 
ATOM     55  N   UNL     1      -4.055 -13.943  -4.032  1.00  0.00    -0.354 N 
ATOM     56  N   UNL     1      -4.509 -13.423  -1.175  1.00  0.00    -0.248 NA
ATOM     57  C   UNL     1      -5.562 -13.961   0.840  1.00  0.00     0.031 C 
ATOM     58  C   UNL     1      -5.044 -15.703  -4.956  1.00  0.00     0.029 A 
ATOM     59  C   UNL     1      -4.906 -15.005  -3.767  1.00  0.00     0.049 A 
ATOM     60  H   UNL     1      -3.778 -13.264  -3.375  1.00  0.00     0.167 HD
ATOM     61  C   UNL     1      -5.294 -14.560  -1.358  1.00  0.00     0.074 A 
ATOM     62  C   UNL     1      -5.890 -14.863  -0.074  1.00  0.00     0.031 C 
ATOM     63  C   UNL     1      -5.500 -15.291  -2.483  1.00  0.00     0.034 A 
BRANCH  50  64
ATOM     64  C   UNL     1      -2.503 -13.129  -7.463  1.00  0.00     0.023 A 
ATOM     65  C   UNL     1      -1.202 -13.362  -7.942  1.00  0.00     0.031 A 
ATOM     66  C   UNL     1      -3.539 -13.003  -8.405  1.00  0.00     0.131 A 
ATOM     67  C   UNL     1      -0.962 -13.400  -9.324  1.00  0.00     0.055 A 
ATOM     68  C   UNL     1      -3.306 -13.117  -9.777  1.00  0.00     0.041 A 
ATOM     69  F   UNL     1      -4.798 -12.757  -8.007  1.00  0.00    -0.206 F 
ATOM     70  C   UNL     1      -2.008 -13.304 -10.244  1.00  0.00     0.022 A 
BRANCH  67  71
ATOM     71  S   UNL     1       0.755 -13.450  -9.906  1.00  0.00     0.124 S 
ATOM     72  O   UNL     1       1.298 -12.223  -9.329  1.00  0.00    -0.237 OA
ATOM     73  O   UNL     1       1.247 -14.698  -9.334  1.00  0.00    -0.237 OA
ATOM     74  O   UNL     1       0.624 -13.441 -11.362  1.00  0.00    -0.744 OA
ENDBRANCH  67  71
ENDBRANCH  50  64
BRANCH  51  75
ATOM     75  C   UNL     1      -4.324 -11.738   2.291  1.00  0.00     0.023 A 
ATOM     76  C   UNL     1      -4.018 -12.700   3.267  1.00  0.00     0.031 A 
ATOM     77  C   UNL     1      -5.019 -10.585   2.699  1.00  0.00     0.131 A 
ATOM     78  C   UNL     1      -4.452 -12.517   4.590  1.00  0.00     0.055 A 
ATOM     79  C   UNL     1      -5.399 -10.381   4.027  1.00  0.00     0.041 A 
ATOM     80  F   UNL     1      -5.340  -9.634   1.807  1.00  0.00    -0.206 F 
ATOM     81  C   UNL     1      -5.129 -11.359   4.979  1.00  0.00     0.022 A 
BRANCH  78  82
ATOM     82  S   UNL     1      -4.208 -13.866   5.778  1.00  0.00     0.124 S 
ATOM     83  O   UNL     1      -4.901 -14.969   5.120  1.00  0.00    -0.237 OA
ATOM     84  O   UNL     1      -2.753 -13.962   5.830  1.00  0.00    -0.237 OA
ATOM     85  O   UNL     1      -4.843 -13.366   6.995  1.00  0.00    -0.744 OA
ENDBRANCH  78  82
ENDBRANCH  51  75
BRANCH  63  86
ATOM     86  C   UNL     1      -6.371 -16.519  -2.356  1.00  0.00     0.023 A 
ATOM     87  C   UNL     1      -7.746 -16.428  -2.078  1.00  0.00     0.031 A 
ATOM     88  C   UNL     1      -5.810 -17.800  -2.508  1.00  0.00     0.131 A 
ATOM     89  C   UNL     1      -8.502 -17.597  -1.905  1.00  0.00     0.055 A 
ATOM     90  C   UNL     1      -6.580 -18.958  -2.394  1.00  0.00     0.041 A 
ATOM     91  F   UNL     1      -4.502 -17.946  -2.773  1.00  0.00    -0.206 F 
ATOM     92  C   UNL     1      -7.932 -18.861  -2.077  1.00  0.00     0.022 A 
BRANCH  89  93
ATOM     93  S   UNL     1     -10.227 -17.448  -1.362  1.00  0.00     0.124 S 
ATOM     94  O   UNL     1     -10.087 -16.730  -0.099  1.00  0.00    -0.237 OA
ATOM     95  O   UNL     1     -10.835 -16.698  -2.457  1.00  0.00    -0.237 OA
ATOM     96  O   UNL     1     -10.671 -18.835  -1.241  1.00  0.00    -0.744 OA
ENDBRANCH  89  93
ENDBRANCH  63  86
ENDBRANCH  37  38
ENDBRANCH  30  32
ENDBRANCH  29  30
ENDBRANCH  28  29
ENDBRANCH   1  28
TORSDOF 19
