REMARK SMILES COc1cc(/C=C2/N=C(c3ccccc3)OC2=O)ccc1OCC(=O)OCCOCCOC(=O)c1ccc(-c2c3nc(c(-c4cc(S(=O)(=O)[O-])ccc4F)c4ccc([nH]4)c(-c4cc(S(=O)(=O)[O-])ccc4F)c4nc(c(-c5cc(S(=O)(=O)[O-])ccc5F)c5ccc2[nH]5)C=C4)C=C3)cc1
REMARK SMILES IDX 28 1 27 2 26 3 24 4 25 5 23 6 22 7 21 8 3 9 4 10 5 11 20 12
REMARK SMILES IDX 19 13 2 14 1 15 6 16 7 17 8 18 17 19 9 20 16 21 18 22 10 23
REMARK SMILES IDX 11 24 15 25 12 26 14 27 13 28 29 29 30 30 31 31 32 32 33 33
REMARK SMILES IDX 34 34 35 35 36 36 97 37 37 38 96 39 38 40 39 41 40 42 90 43
REMARK SMILES IDX 41 44 95 45 89 46 91 47 42 48 94 49 88 50 87 51 43 53 75 54
REMARK SMILES IDX 55 55 74 56 56 57 59 58 73 59 92 60 57 61 58 62 72 64 93 65
REMARK SMILES IDX 60 66 44 67 45 68 53 69 46 70 52 71 54 72 51 73 47 74 48 75
REMARK SMILES IDX 49 76 50 77 76 78 77 79 85 80 78 81 84 82 86 83 83 84 79 85
REMARK SMILES IDX 80 86 81 87 82 88 61 89 62 90 70 91 63 92 69 93 71 94 68 95
REMARK SMILES IDX 64 96 65 97 66 98 67 99
REMARK H PARENT 91 52 59 63
REMARK Flexibility Score: inf
ROOT
ATOM      1  C   UNL     1      -0.385  -1.314   3.205  1.00  0.00     0.202 C 
ENDROOT
BRANCH   1   2
ATOM      2  C   UNL     1       0.865  -1.989   2.624  1.00  0.00     0.261 C 
BRANCH   2   3
ATOM      3  O   UNL     1       1.847  -1.043   2.146  1.00  0.00    -0.461 OA
BRANCH   3   4
ATOM      4  C   UNL     1       2.252  -1.201   0.855  1.00  0.00     0.344 C 
ATOM      5  O   UNL     1       1.865  -2.095   0.107  1.00  0.00    -0.248 OA
BRANCH   4   6
ATOM      6  C   UNL     1       3.304  -0.176   0.411  1.00  0.00     0.352 C 
BRANCH   6   7
ATOM      7  O   UNL     1       3.448   1.070   1.051  1.00  0.00    -0.478 OA
BRANCH   7   8
ATOM      8  C   UNL     1       2.602   2.117   0.834  1.00  0.00     0.162 A 
ATOM      9  C   UNL     1       1.665   2.335  -0.186  1.00  0.00     0.161 A 
ATOM     10  C   UNL     1       0.840   3.484  -0.146  1.00  0.00     0.058 A 
ATOM     11  C   UNL     1       0.983   4.438   0.879  1.00  0.00    -0.019 A 
ATOM     12  C   UNL     1       2.768   3.108   1.813  1.00  0.00     0.051 A 
ATOM     13  C   UNL     1       1.981   4.258   1.836  1.00  0.00     0.012 A 
BRANCH   9  14
ATOM     14  O   UNL     1       1.695   1.603  -1.344  1.00  0.00    -0.493 OA
ATOM     15  C   UNL     1       0.694   0.598  -1.463  1.00  0.00     0.278 C 
ENDBRANCH   9  14
BRANCH  11  16
ATOM     16  C   UNL     1       0.114   5.615   1.010  1.00  0.00     0.044 C 
ATOM     17  C   UNL     1       0.359   6.833   0.508  1.00  0.00     0.153 C 
ATOM     18  N   UNL     1      -0.457   7.926   0.699  1.00  0.00    -0.205 NA
ATOM     19  C   UNL     1       1.510   7.199  -0.368  1.00  0.00     0.363 C 
ATOM     20  C   UNL     1       0.105   8.822  -0.043  1.00  0.00     0.231 C 
ATOM     21  O   UNL     1       1.242   8.492  -0.696  1.00  0.00    -0.402 OA
ATOM     22  O   UNL     1       2.457   6.540  -0.750  1.00  0.00    -0.244 OA
BRANCH  20  23
ATOM     23  C   UNL     1      -0.322  10.196  -0.297  1.00  0.00     0.037 A 
ATOM     24  C   UNL     1      -0.604  11.062   0.761  1.00  0.00     0.014 A 
ATOM     25  C   UNL     1      -0.445  10.630  -1.622  1.00  0.00     0.014 A 
ATOM     26  C   UNL     1      -0.990  12.377   0.486  1.00  0.00     0.001 A 
ATOM     27  C   UNL     1      -0.848  11.937  -1.890  1.00  0.00     0.001 A 
ATOM     28  C   UNL     1      -1.114  12.811  -0.836  1.00  0.00     0.000 A 
ENDBRANCH  20  23
ENDBRANCH  11  16
ENDBRANCH   7   8
ENDBRANCH   6   7
ENDBRANCH   4   6
ENDBRANCH   3   4
ENDBRANCH   2   3
ENDBRANCH   1   2
BRANCH   1  29
ATOM     29  O   UNL     1      -1.188  -0.572   2.285  1.00  0.00    -0.374 OA
BRANCH  29  30
ATOM     30  C   UNL     1      -0.671   0.689   1.870  1.00  0.00     0.202 C 
BRANCH  30  31
ATOM     31  C   UNL     1      -0.837   1.858   2.835  1.00  0.00     0.261 C 
BRANCH  31  32
ATOM     32  O   UNL     1      -0.052   1.672   4.014  1.00  0.00    -0.460 OA
BRANCH  32  33
ATOM     33  C   UNL     1      -0.793   1.566   5.138  1.00  0.00     0.338 C 
ATOM     34  O   UNL     1      -1.994   1.742   5.253  1.00  0.00    -0.246 OA
BRANCH  33  35
ATOM     35  C   UNL     1       0.034   0.986   6.202  1.00  0.00     0.060 A 
ATOM     36  C   UNL     1      -0.498  -0.127   6.859  1.00  0.00     0.016 A 
ATOM     37  C   UNL     1       1.258   1.542   6.583  1.00  0.00     0.016 A 
ATOM     38  C   UNL     1       0.149  -0.635   7.971  1.00  0.00     0.010 A 
ATOM     39  C   UNL     1       1.911   1.028   7.702  1.00  0.00     0.010 A 
ATOM     40  C   UNL     1       1.324  -0.023   8.428  1.00  0.00    -0.014 A 
BRANCH  40  41
ATOM     41  C   UNL     1       1.801  -0.378   9.779  1.00  0.00     0.031 A 
ATOM     42  C   UNL     1       1.446   0.531  10.922  1.00  0.00     0.074 A 
ATOM     43  C   UNL     1       2.426  -1.549   9.977  1.00  0.00     0.049 A 
ATOM     44  N   UNL     1       1.670   0.386  12.200  1.00  0.00    -0.248 NA
ATOM     45  C   UNL     1       0.738   1.773  10.572  1.00  0.00     0.031 C 
ATOM     46  C   UNL     1       2.749  -2.514   8.925  1.00  0.00     0.029 A 
ATOM     47  N   UNL     1       2.871  -2.140  11.127  1.00  0.00    -0.354 N 
ATOM     48  C   UNL     1       1.125   1.512  12.809  1.00  0.00     0.074 A 
ATOM     49  C   UNL     1       0.615   2.358  11.752  1.00  0.00     0.031 C 
ATOM     50  C   UNL     1       3.318  -3.593   9.486  1.00  0.00     0.029 A 
ATOM     51  C   UNL     1       3.434  -3.376  10.925  1.00  0.00     0.049 A 
ATOM     52  H   UNL     1       2.795  -1.719  12.014  1.00  0.00     0.167 HD
ATOM     53  C   UNL     1       1.044   1.800  14.131  1.00  0.00     0.034 A 
ATOM     54  C   UNL     1       3.982  -4.228  11.812  1.00  0.00     0.034 A 
ATOM     55  C   UNL     1       1.588   0.940  15.154  1.00  0.00     0.049 A 
ATOM     56  C   UNL     1       3.973  -3.839  13.268  1.00  0.00     0.074 A 
ATOM     57  C   UNL     1       1.597   1.122  16.525  1.00  0.00     0.029 A 
ATOM     58  N   UNL     1       2.235  -0.268  14.910  1.00  0.00    -0.354 N 
ATOM     59  N   UNL     1       3.463  -2.768  13.836  1.00  0.00    -0.248 NA
ATOM     60  C   UNL     1       4.599  -4.779  14.202  1.00  0.00     0.031 C 
ATOM     61  C   UNL     1       2.316   0.067  17.100  1.00  0.00     0.029 A 
ATOM     62  C   UNL     1       2.677  -0.824  16.100  1.00  0.00     0.049 A 
ATOM     63  H   UNL     1       2.360  -0.670  14.020  1.00  0.00     0.167 HD
ATOM     64  C   UNL     1       3.680  -2.923  15.203  1.00  0.00     0.074 A 
ATOM     65  C   UNL     1       4.346  -4.201  15.367  1.00  0.00     0.031 C 
ATOM     66  C   UNL     1       3.359  -2.093  16.230  1.00  0.00     0.034 A 
BRANCH  53  67
ATOM     67  C   UNL     1       0.405   3.117  14.513  1.00  0.00     0.023 A 
ATOM     68  C   UNL     1      -0.931   3.417  14.188  1.00  0.00     0.031 A 
ATOM     69  C   UNL     1       1.163   4.119  15.145  1.00  0.00     0.131 A 
ATOM     70  C   UNL     1      -1.436   4.709  14.408  1.00  0.00     0.055 A 
ATOM     71  C   UNL     1       0.626   5.372  15.447  1.00  0.00     0.041 A 
ATOM     72  F   UNL     1       2.452   3.908  15.456  1.00  0.00    -0.206 F 
ATOM     73  C   UNL     1      -0.675   5.681  15.060  1.00  0.00     0.022 A 
BRANCH  70  74
ATOM     74  S   UNL     1      -3.031   5.156  13.666  1.00  0.00     0.124 S 
ATOM     75  O   UNL     1      -2.781   4.894  12.251  1.00  0.00    -0.237 OA
ATOM     76  O   UNL     1      -3.955   4.246  14.333  1.00  0.00    -0.237 OA
ATOM     77  O   UNL     1      -3.186   6.568  14.012  1.00  0.00    -0.744 OA
ENDBRANCH  70  74
ENDBRANCH  53  67
BRANCH  54  78
ATOM     78  C   UNL     1       4.584  -5.512  11.353  1.00  0.00     0.023 A 
ATOM     79  C   UNL     1       4.074  -6.746  11.784  1.00  0.00     0.031 A 
ATOM     80  C   UNL     1       5.703  -5.524  10.500  1.00  0.00     0.131 A 
ATOM     81  C   UNL     1       4.705  -7.938  11.395  1.00  0.00     0.055 A 
ATOM     82  C   UNL     1       6.293  -6.713  10.070  1.00  0.00     0.041 A 
ATOM     83  F   UNL     1       6.232  -4.372  10.057  1.00  0.00    -0.206 F 
ATOM     84  C   UNL     1       5.801  -7.931  10.529  1.00  0.00     0.022 A 
BRANCH  81  85
ATOM     85  S   UNL     1       4.122  -9.501  12.107  1.00  0.00     0.124 S 
ATOM     86  O   UNL     1       4.276  -9.252  13.536  1.00  0.00    -0.237 OA
ATOM     87  O   UNL     1       2.752  -9.566  11.610  1.00  0.00    -0.237 OA
ATOM     88  O   UNL     1       5.035 -10.493  11.543  1.00  0.00    -0.744 OA
ENDBRANCH  81  85
ENDBRANCH  54  78
BRANCH  66  89
ATOM     89  C   UNL     1       3.697  -2.578  17.619  1.00  0.00     0.023 A 
ATOM     90  C   UNL     1       5.027  -2.787  18.025  1.00  0.00     0.031 A 
ATOM     91  C   UNL     1       2.672  -2.873  18.536  1.00  0.00     0.131 A 
ATOM     92  C   UNL     1       5.292  -3.357  19.279  1.00  0.00     0.055 A 
ATOM     93  C   UNL     1       2.947  -3.364  19.812  1.00  0.00     0.041 A 
ATOM     94  F   UNL     1       1.384  -2.696  18.202  1.00  0.00    -0.206 F 
ATOM     95  C   UNL     1       4.263  -3.627  20.183  1.00  0.00     0.022 A 
BRANCH  92  96
ATOM     96  S   UNL     1       6.991  -3.868  19.654  1.00  0.00     0.124 S 
ATOM     97  O   UNL     1       7.284  -4.777  18.551  1.00  0.00    -0.237 OA
ATOM     98  O   UNL     1       7.709  -2.597  19.641  1.00  0.00    -0.237 OA
ATOM     99  O   UNL     1       6.876  -4.501  20.967  1.00  0.00    -0.744 OA
ENDBRANCH  92  96
ENDBRANCH  66  89
ENDBRANCH  40  41
ENDBRANCH  33  35
ENDBRANCH  32  33
ENDBRANCH  31  32
ENDBRANCH  30  31
ENDBRANCH  29  30
ENDBRANCH   1  29
TORSDOF 22
