REMARK SMILES C[C@@H](CCC(=O)OCCOCCOC(=O)c1ccc(-c2c3nc(c(-c4cc(S(=O)(=O)[O-])ccc4F)c4ccc([nH]4)c(-c4cc(S(=O)(=O)[O-])ccc4F)c4nc(c(-c5cc(S(=O)(=O)[O-])ccc5F)c5ccc2[nH]5)C=C4)C=C3)cc1)[C@@H]1CC[C@@H]2[C@H]3CC[C@@H]4CC(=O)CC[C@]4(C)[C@@H]3CC(=O)[C@]21C
REMARK SMILES IDX 10 1 9 2 8 3 7 4 5 5 6 6 4 7 3 8 2 9 1 10 79 11 80 12 98 13
REMARK SMILES IDX 81 14 82 15 96 16 99 17 83 18 95 19 97 20 84 21 94 22 85 23
REMARK SMILES IDX 92 24 86 25 91 26 93 27 87 28 90 29 88 30 89 31 11 32 12 33
REMARK SMILES IDX 13 34 14 35 15 36 16 37 17 38 78 39 18 40 77 41 19 42 20 43
REMARK SMILES IDX 21 44 71 45 22 46 76 47 70 48 72 49 23 50 75 51 69 52 68 53
REMARK SMILES IDX 24 55 56 56 36 57 55 58 37 59 40 60 54 61 73 62 38 63 39 64
REMARK SMILES IDX 53 66 74 67 41 68 25 69 26 70 34 71 27 72 33 73 35 74 32 75
REMARK SMILES IDX 28 76 29 77 30 78 31 79 57 80 58 81 66 82 59 83 65 84 67 85
REMARK SMILES IDX 64 86 60 87 61 88 62 89 63 90 42 91 43 92 51 93 44 94 50 95
REMARK SMILES IDX 52 96 49 97 45 98 46 99 47 100 48 101
REMARK H PARENT 72 54 40 65
REMARK Flexibility Score: inf
ROOT
ATOM      1  O   UNL     1       3.215  -3.236   2.197  1.00  0.00    -0.374 OA
ENDROOT
BRANCH   1   2
ATOM      2  C   UNL     1       1.962  -3.909   2.360  1.00  0.00     0.202 C 
BRANCH   2   3
ATOM      3  C   UNL     1       1.256  -3.576   3.682  1.00  0.00     0.261 C 
BRANCH   3   4
ATOM      4  O   UNL     1       0.515  -2.349   3.543  1.00  0.00    -0.463 OA
BRANCH   4   5
ATOM      5  C   UNL     1       0.542  -1.468   4.567  1.00  0.00     0.305 C 
ATOM      6  O   UNL     1       1.008  -1.697   5.677  1.00  0.00    -0.252 OA
BRANCH   5   7
ATOM      7  C   UNL     1      -0.120  -0.148   4.210  1.00  0.00     0.123 C 
BRANCH   7   8
ATOM      8  C   UNL     1      -0.304   0.150   2.710  1.00  0.00     0.015 C 
BRANCH   8   9
ATOM      9  C   UNL     1      -1.736   0.411   2.167  1.00  0.00    -0.010 C 
ATOM     10  C   UNL     1      -2.603   1.234   3.126  1.00  0.00     0.008 C 
BRANCH   9  11
ATOM     11  C   UNL     1      -2.433  -0.787   1.431  1.00  0.00     0.005 C 
ATOM     12  C   UNL     1      -3.784  -0.368   0.777  1.00  0.00     0.005 C 
ATOM     13  C   UNL     1      -2.745  -2.166   2.113  1.00  0.00     0.032 C 
ATOM     14  C   UNL     1      -4.838  -1.357   1.277  1.00  0.00     0.005 C 
ATOM     15  C   UNL     1      -4.024  -2.632   1.364  1.00  0.00     0.006 C 
ATOM     16  C   UNL     1      -1.794  -3.300   1.753  1.00  0.00     0.139 C 
ATOM     17  C   UNL     1      -2.934  -2.090   3.632  1.00  0.00     0.020 C 
ATOM     18  C   UNL     1      -4.638  -3.901   1.977  1.00  0.00    -0.003 C 
ATOM     19  C   UNL     1      -2.170  -4.684   2.260  1.00  0.00     0.080 C 
ATOM     20  O   UNL     1      -0.810  -3.137   1.038  1.00  0.00    -0.299 OA
ATOM     21  C   UNL     1      -5.952  -4.295   1.300  1.00  0.00     0.004 C 
ATOM     22  C   UNL     1      -3.610  -5.076   1.851  1.00  0.00     0.006 C 
ATOM     23  C   UNL     1      -6.520  -5.575   1.904  1.00  0.00     0.005 C 
ATOM     24  C   UNL     1      -4.136  -6.394   2.533  1.00  0.00    -0.025 C 
ATOM     25  C   UNL     1      -5.517  -6.746   1.901  1.00  0.00     0.002 C 
ATOM     26  C   UNL     1      -4.222  -6.266   4.080  1.00  0.00     0.015 C 
ATOM     27  C   UNL     1      -3.133  -7.544   2.228  1.00  0.00     0.012 C 
ATOM     28  C   UNL     1      -6.142  -7.989   2.542  1.00  0.00     0.079 C 
ATOM     29  C   UNL     1      -5.470  -6.814   4.769  1.00  0.00     0.076 C 
ATOM     30  C   UNL     1      -6.238  -7.892   4.043  1.00  0.00     0.133 C 
ATOM     31  O   UNL     1      -6.966  -8.660   4.677  1.00  0.00    -0.300 OA
ENDBRANCH   9  11
ENDBRANCH   8   9
ENDBRANCH   7   8
ENDBRANCH   5   7
ENDBRANCH   4   5
ENDBRANCH   3   4
ENDBRANCH   2   3
ENDBRANCH   1   2
BRANCH   1  32
ATOM     32  C   UNL     1       3.141  -1.835   1.947  1.00  0.00     0.202 C 
BRANCH  32  33
ATOM     33  C   UNL     1       3.020  -1.402   0.480  1.00  0.00     0.261 C 
BRANCH  33  34
ATOM     34  O   UNL     1       1.776  -1.722  -0.167  1.00  0.00    -0.460 OA
BRANCH  34  35
ATOM     35  C   UNL     1       1.814  -2.833  -0.944  1.00  0.00     0.338 C 
ATOM     36  O   UNL     1       2.735  -3.643  -0.984  1.00  0.00    -0.246 OA
BRANCH  35  37
ATOM     37  C   UNL     1       0.614  -2.975  -1.808  1.00  0.00     0.060 A 
ATOM     38  C   UNL     1       0.243  -4.270  -2.193  1.00  0.00     0.016 A 
ATOM     39  C   UNL     1      -0.056  -1.874  -2.355  1.00  0.00     0.016 A 
ATOM     40  C   UNL     1      -0.750  -4.468  -3.155  1.00  0.00     0.010 A 
ATOM     41  C   UNL     1      -1.055  -2.075  -3.323  1.00  0.00     0.010 A 
ATOM     42  C   UNL     1      -1.383  -3.372  -3.756  1.00  0.00    -0.014 A 
BRANCH  42  43
ATOM     43  C   UNL     1      -2.282  -3.594  -4.921  1.00  0.00     0.031 A 
ATOM     44  C   UNL     1      -1.739  -3.431  -6.317  1.00  0.00     0.074 A 
ATOM     45  C   UNL     1      -3.560  -3.980  -4.744  1.00  0.00     0.049 A 
ATOM     46  N   UNL     1      -2.336  -3.606  -7.469  1.00  0.00    -0.248 NA
ATOM     47  C   UNL     1      -0.333  -3.014  -6.425  1.00  0.00     0.031 C 
ATOM     48  C   UNL     1      -4.201  -4.201  -3.449  1.00  0.00     0.029 A 
ATOM     49  N   UNL     1      -4.547  -4.253  -5.659  1.00  0.00    -0.354 N 
ATOM     50  C   UNL     1      -1.378  -3.333  -8.441  1.00  0.00     0.074 A 
ATOM     51  C   UNL     1      -0.175  -2.935  -7.738  1.00  0.00     0.031 C 
ATOM     52  C   UNL     1      -5.479  -4.567  -3.653  1.00  0.00     0.029 A 
ATOM     53  C   UNL     1      -5.755  -4.581  -5.090  1.00  0.00     0.049 A 
ATOM     54  H   UNL     1      -4.403  -4.217  -6.632  1.00  0.00     0.167 HD
ATOM     55  C   UNL     1      -1.484  -3.416  -9.791  1.00  0.00     0.034 A 
ATOM     56  C   UNL     1      -6.949  -4.846  -5.659  1.00  0.00     0.034 A 
ATOM     57  C   UNL     1      -2.693  -3.789 -10.487  1.00  0.00     0.049 A 
ATOM     58  C   UNL     1      -7.070  -4.847  -7.165  1.00  0.00     0.074 A 
ATOM     59  C   UNL     1      -2.898  -3.924 -11.850  1.00  0.00     0.029 A 
ATOM     60  N   UNL     1      -3.909  -4.067  -9.877  1.00  0.00    -0.354 N 
ATOM     61  N   UNL     1      -6.145  -4.623  -8.070  1.00  0.00    -0.248 NA
ATOM     62  C   UNL     1      -8.396  -5.148  -7.726  1.00  0.00     0.031 C 
ATOM     63  C   UNL     1      -4.252  -4.210 -12.066  1.00  0.00     0.029 A 
ATOM     64  C   UNL     1      -4.876  -4.331 -10.836  1.00  0.00     0.049 A 
ATOM     65  H   UNL     1      -4.063  -4.076  -8.904  1.00  0.00     0.167 HD
ATOM     66  C   UNL     1      -6.772  -4.787  -9.305  1.00  0.00     0.074 A 
ATOM     67  C   UNL     1      -8.149  -5.138  -9.028  1.00  0.00     0.031 C 
ATOM     68  C   UNL     1      -6.253  -4.667 -10.553  1.00  0.00     0.034 A 
BRANCH  55  69
ATOM     69  C   UNL     1      -0.266  -3.045 -10.603  1.00  0.00     0.023 A 
ATOM     70  C   UNL     1       0.923  -3.793 -10.537  1.00  0.00     0.031 A 
ATOM     71  C   UNL     1      -0.283  -1.908 -11.431  1.00  0.00     0.131 A 
ATOM     72  C   UNL     1       2.065  -3.356 -11.225  1.00  0.00     0.055 A 
ATOM     73  C   UNL     1       0.835  -1.521 -12.173  1.00  0.00     0.041 A 
ATOM     74  F   UNL     1      -1.383  -1.144 -11.521  1.00  0.00    -0.206 F 
ATOM     75  C   UNL     1       2.023  -2.237 -12.060  1.00  0.00     0.022 A 
BRANCH  72  76
ATOM     76  S   UNL     1       3.645  -4.185 -10.899  1.00  0.00     0.124 S 
ATOM     77  O   UNL     1       3.777  -4.012  -9.455  1.00  0.00    -0.237 OA
ATOM     78  O   UNL     1       3.388  -5.545 -11.360  1.00  0.00    -0.237 OA
ATOM     79  O   UNL     1       4.603  -3.425 -11.700  1.00  0.00    -0.744 OA
ENDBRANCH  72  76
ENDBRANCH  55  69
BRANCH  56  80
ATOM     80  C   UNL     1      -8.149  -5.093  -4.808  1.00  0.00     0.023 A 
ATOM     81  C   UNL     1      -8.811  -6.330  -4.819  1.00  0.00     0.031 A 
ATOM     82  C   UNL     1      -8.687  -4.063  -4.014  1.00  0.00     0.131 A 
ATOM     83  C   UNL     1      -9.998  -6.494  -4.086  1.00  0.00     0.055 A 
ATOM     84  C   UNL     1      -9.840  -4.246  -3.250  1.00  0.00     0.041 A 
ATOM     85  F   UNL     1      -8.092  -2.860  -3.968  1.00  0.00    -0.206 F 
ATOM     86  C   UNL     1     -10.510  -5.464  -3.293  1.00  0.00     0.022 A 
BRANCH  83  87
ATOM     87  S   UNL     1     -10.911  -8.053  -4.247  1.00  0.00     0.124 S 
ATOM     88  O   UNL     1     -11.178  -8.094  -5.681  1.00  0.00    -0.237 OA
ATOM     89  O   UNL     1      -9.943  -9.021  -3.745  1.00  0.00    -0.237 OA
ATOM     90  O   UNL     1     -12.083  -7.848  -3.398  1.00  0.00    -0.744 OA
ENDBRANCH  83  87
ENDBRANCH  56  80
BRANCH  68  91
ATOM     91  C   UNL     1      -7.171  -4.960 -11.717  1.00  0.00     0.023 A 
ATOM     92  C   UNL     1      -8.258  -4.128 -12.034  1.00  0.00     0.031 A 
ATOM     93  C   UNL     1      -6.950  -6.094 -12.521  1.00  0.00     0.131 A 
ATOM     94  C   UNL     1      -9.111  -4.465 -13.098  1.00  0.00     0.055 A 
ATOM     95  C   UNL     1      -7.770  -6.394 -13.610  1.00  0.00     0.041 A 
ATOM     96  F   UNL     1      -5.928  -6.925 -12.264  1.00  0.00    -0.206 F 
ATOM     97  C   UNL     1      -8.864  -5.584 -13.897  1.00  0.00     0.022 A 
BRANCH  94  98
ATOM     98  S   UNL     1     -10.596  -3.461 -13.381  1.00  0.00     0.124 S 
ATOM     99  O   UNL     1     -11.301  -3.597 -12.110  1.00  0.00    -0.237 OA
ATOM    100  O   UNL     1     -10.035  -2.144 -13.660  1.00  0.00    -0.237 OA
ATOM    101  O   UNL     1     -11.240  -4.113 -14.520  1.00  0.00    -0.744 OA
ENDBRANCH  94  98
ENDBRANCH  68  91
ENDBRANCH  42  43
ENDBRANCH  35  37
ENDBRANCH  34  35
ENDBRANCH  33  34
ENDBRANCH  32  33
ENDBRANCH   1  32
TORSDOF 20
