REMARK SMILES CC1(C)[C@H](C(=O)OCCOCCOC(=O)c2ccc(-c3c4nc(c(-c5cc(S(=O)(=O)[O-])ccc5F)c5ccc([nH]5)c(-c5cc(S(=O)(=O)[O-])ccc5F)c5nc(c(-c6cc(S(=O)(=O)[O-])ccc6F)c6ccc3[nH]6)C=C5)C=C4)cc2)[C@@H]1C(=O)Nc1ccc(Cl)c(Br)c1
REMARK SMILES IDX 11 1 10 2 9 3 8 4 7 5 5 6 6 7 4 8 1 9 2 10 3 11 79 12 80 13
REMARK SMILES IDX 81 14 82 15 83 17 84 18 90 19 85 20 88 21 86 22 89 23 87 24
REMARK SMILES IDX 12 25 13 26 14 27 15 28 16 29 17 30 78 31 18 32 77 33 19 34
REMARK SMILES IDX 20 35 21 36 71 37 22 38 76 39 70 40 72 41 23 42 75 43 69 44
REMARK SMILES IDX 68 45 24 47 56 48 36 49 55 50 37 51 40 52 54 53 73 54 38 55
REMARK SMILES IDX 39 56 53 58 74 59 41 60 25 61 26 62 34 63 27 64 33 65 35 66
REMARK SMILES IDX 32 67 28 68 29 69 30 70 31 71 57 72 58 73 66 74 59 75 65 76
REMARK SMILES IDX 67 77 64 78 60 79 61 80 62 81 63 82 42 83 43 84 51 85 44 86
REMARK SMILES IDX 50 87 52 88 49 89 45 90 46 91 47 92 48 93
REMARK H PARENT 82 16 72 46 40 57
REMARK Flexibility Score: inf
ROOT
ATOM      1  C   UNL     1      -0.256   0.820  -4.264  1.00  0.00     0.202 C 
ENDROOT
BRANCH   1   2
ATOM      2  O   UNL     1      -1.519   1.343  -4.653  1.00  0.00    -0.374 OA
BRANCH   2   3
ATOM      3  C   UNL     1      -1.970   2.583  -4.132  1.00  0.00     0.202 C 
BRANCH   3   4
ATOM      4  C   UNL     1      -2.187   2.767  -2.619  1.00  0.00     0.261 C 
BRANCH   4   5
ATOM      5  O   UNL     1      -1.430   1.929  -1.743  1.00  0.00    -0.463 OA
BRANCH   5   6
ATOM      6  C   UNL     1      -1.963   0.693  -1.585  1.00  0.00     0.310 C 
ATOM      7  O   UNL     1      -2.912   0.253  -2.219  1.00  0.00    -0.252 OA
BRANCH   6   8
ATOM      8  C   UNL     1      -1.257  -0.193  -0.633  1.00  0.00     0.118 C 
ATOM      9  C   UNL     1       0.987  -1.063   0.231  1.00  0.00     0.013 C 
ATOM     10  C   UNL     1       0.005   0.085   0.153  1.00  0.00    -0.009 C 
ATOM     11  C   UNL     1       0.694   1.429   0.084  1.00  0.00     0.013 C 
ATOM     12  C   UNL     1      -1.354  -0.062   0.872  1.00  0.00     0.100 C 
BRANCH  12  13
ATOM     13  C   UNL     1      -1.875   1.094   1.651  1.00  0.00     0.228 C 
ATOM     14  O   UNL     1      -1.181   1.546   2.558  1.00  0.00    -0.274 OA
ATOM     15  N   UNL     1      -3.081   1.686   1.373  1.00  0.00    -0.326 N 
ATOM     16  H   UNL     1      -3.225   2.546   1.831  1.00  0.00     0.169 HD
BRANCH  15  17
ATOM     17  C   UNL     1      -4.144   1.286   0.554  1.00  0.00     0.042 A 
ATOM     18  C   UNL     1      -4.903   2.301  -0.036  1.00  0.00     0.028 A 
ATOM     19  C   UNL     1      -4.441  -0.048   0.270  1.00  0.00     0.043 A 
ATOM     20  C   UNL     1      -5.843   1.991  -1.024  1.00  0.00     0.024 A 
ATOM     21  C   UNL     1      -5.395  -0.362  -0.710  1.00  0.00     0.038 A 
ATOM     22  C   UNL     1      -6.069   0.661  -1.386  1.00  0.00     0.055 A 
ATOM     23  Br  UNL     1      -5.647  -2.201  -1.122  1.00  0.00    -0.049 Br
ATOM     24  Cl  UNL     1      -7.164   0.363  -2.688  1.00  0.00    -0.083 Cl
ENDBRANCH  15  17
ENDBRANCH  12  13
ENDBRANCH   6   8
ENDBRANCH   5   6
ENDBRANCH   4   5
ENDBRANCH   3   4
ENDBRANCH   2   3
ENDBRANCH   1   2
BRANCH   1  25
ATOM     25  C   UNL     1       1.001   1.686  -4.374  1.00  0.00     0.261 C 
BRANCH  25  26
ATOM     26  O   UNL     1       0.930   2.909  -3.624  1.00  0.00    -0.460 OA
BRANCH  26  27
ATOM     27  C   UNL     1       0.991   4.026  -4.392  1.00  0.00     0.338 C 
ATOM     28  O   UNL     1       1.093   4.074  -5.607  1.00  0.00    -0.246 OA
BRANCH  27  29
ATOM     29  C   UNL     1       0.736   5.230  -3.584  1.00  0.00     0.060 A 
ATOM     30  C   UNL     1      -0.289   6.085  -4.008  1.00  0.00     0.016 A 
ATOM     31  C   UNL     1       1.581   5.593  -2.534  1.00  0.00     0.016 A 
ATOM     32  C   UNL     1      -0.428   7.342  -3.431  1.00  0.00     0.010 A 
ATOM     33  C   UNL     1       1.446   6.863  -1.962  1.00  0.00     0.010 A 
ATOM     34  C   UNL     1       0.475   7.759  -2.445  1.00  0.00    -0.014 A 
BRANCH  34  35
ATOM     35  C   UNL     1       0.522   9.198  -2.085  1.00  0.00     0.031 A 
ATOM     36  C   UNL     1       1.549  10.074  -2.752  1.00  0.00     0.074 A 
ATOM     37  C   UNL     1      -0.375   9.726  -1.234  1.00  0.00     0.049 A 
ATOM     38  N   UNL     1       1.772  11.354  -2.607  1.00  0.00    -0.248 NA
ATOM     39  C   UNL     1       2.445   9.412  -3.714  1.00  0.00     0.031 C 
ATOM     40  C   UNL     1      -1.446   8.982  -0.571  1.00  0.00     0.029 A 
ATOM     41  N   UNL     1      -0.531  11.013  -0.787  1.00  0.00    -0.354 N 
ATOM     42  C   UNL     1       2.832  11.653  -3.457  1.00  0.00     0.074 A 
ATOM     43  C   UNL     1       3.233  10.411  -4.081  1.00  0.00     0.031 C 
ATOM     44  C   UNL     1      -2.145   9.829   0.205  1.00  0.00     0.029 A 
ATOM     45  C   UNL     1      -1.554  11.162   0.118  1.00  0.00     0.049 A 
ATOM     46  H   UNL     1       0.037  11.759  -1.087  1.00  0.00     0.167 HD
ATOM     47  C   UNL     1       3.409  12.856  -3.704  1.00  0.00     0.034 A 
ATOM     48  C   UNL     1      -1.950  12.248   0.812  1.00  0.00     0.034 A 
ATOM     49  C   UNL     1       3.004  14.083  -3.063  1.00  0.00     0.049 A 
ATOM     50  C   UNL     1      -1.236  13.560   0.587  1.00  0.00     0.074 A 
ATOM     51  C   UNL     1       3.511  15.358  -3.241  1.00  0.00     0.029 A 
ATOM     52  N   UNL     1       2.000  14.187  -2.108  1.00  0.00    -0.354 N 
ATOM     53  N   UNL     1      -0.241  13.832  -0.227  1.00  0.00    -0.248 NA
ATOM     54  C   UNL     1      -1.706  14.711   1.367  1.00  0.00     0.031 C 
ATOM     55  C   UNL     1       2.866  16.217  -2.344  1.00  0.00     0.029 A 
ATOM     56  C   UNL     1       1.898  15.496  -1.663  1.00  0.00     0.049 A 
ATOM     57  H   UNL     1       1.442  13.440  -1.793  1.00  0.00     0.167 HD
ATOM     58  C   UNL     1       0.012  15.194  -0.076  1.00  0.00     0.074 A 
ATOM     59  C   UNL     1      -0.946  15.687   0.892  1.00  0.00     0.031 C 
ATOM     60  C   UNL     1       0.946  15.969  -0.684  1.00  0.00     0.034 A 
BRANCH  47  61
ATOM     61  C   UNL     1       4.572  12.881  -4.666  1.00  0.00     0.023 A 
ATOM     62  C   UNL     1       4.422  12.545  -6.023  1.00  0.00     0.031 A 
ATOM     63  C   UNL     1       5.861  13.211  -4.210  1.00  0.00     0.131 A 
ATOM     64  C   UNL     1       5.548  12.477  -6.857  1.00  0.00     0.055 A 
ATOM     65  C   UNL     1       6.966  13.219  -5.063  1.00  0.00     0.041 A 
ATOM     66  F   UNL     1       6.072  13.517  -2.920  1.00  0.00    -0.206 F 
ATOM     67  C   UNL     1       6.816  12.835  -6.393  1.00  0.00     0.022 A 
BRANCH  64  68
ATOM     68  S   UNL     1       5.357  11.775  -8.519  1.00  0.00     0.124 S 
ATOM     69  O   UNL     1       4.841  10.442  -8.219  1.00  0.00    -0.237 OA
ATOM     70  O   UNL     1       4.418  12.699  -9.145  1.00  0.00    -0.237 OA
ATOM     71  O   UNL     1       6.715  11.803  -9.061  1.00  0.00    -0.744 OA
ENDBRANCH  64  68
ENDBRANCH  47  61
BRANCH  48  72
ATOM     72  C   UNL     1      -3.050  12.145   1.813  1.00  0.00     0.023 A 
ATOM     73  C   UNL     1      -4.248  12.859   1.658  1.00  0.00     0.031 A 
ATOM     74  C   UNL     1      -2.891  11.369   2.976  1.00  0.00     0.131 A 
ATOM     75  C   UNL     1      -5.220  12.822   2.671  1.00  0.00     0.055 A 
ATOM     76  C   UNL     1      -3.882  11.294   3.956  1.00  0.00     0.041 A 
ATOM     77  F   UNL     1      -1.765  10.665   3.174  1.00  0.00    -0.206 F 
ATOM     78  C   UNL     1      -5.050  12.035   3.812  1.00  0.00     0.022 A 
BRANCH  75  79
ATOM     79  S   UNL     1      -6.679  13.889   2.514  1.00  0.00     0.124 S 
ATOM     80  O   UNL     1      -6.072  15.210   2.414  1.00  0.00    -0.237 OA
ATOM     81  O   UNL     1      -7.299  13.373   1.298  1.00  0.00    -0.237 OA
ATOM     82  O   UNL     1      -7.421  13.632   3.746  1.00  0.00    -0.744 OA
ENDBRANCH  75  79
ENDBRANCH  48  72
BRANCH  60  83
ATOM     83  C   UNL     1       0.943  17.441  -0.344  1.00  0.00     0.023 A 
ATOM     84  C   UNL     1       1.269  17.904   0.943  1.00  0.00     0.031 A 
ATOM     85  C   UNL     1       0.592  18.392  -1.319  1.00  0.00     0.131 A 
ATOM     86  C   UNL     1       1.178  19.274   1.237  1.00  0.00     0.055 A 
ATOM     87  C   UNL     1       0.566  19.758  -1.038  1.00  0.00     0.041 A 
ATOM     88  F   UNL     1       0.270  18.006  -2.565  1.00  0.00    -0.206 F 
ATOM     89  C   UNL     1       0.845  20.205   0.250  1.00  0.00     0.022 A 
BRANCH  86  90
ATOM     90  S   UNL     1       1.403  19.813   2.954  1.00  0.00     0.124 S 
ATOM     91  O   UNL     1       0.373  19.047   3.649  1.00  0.00    -0.237 OA
ATOM     92  O   UNL     1       2.782  19.421   3.226  1.00  0.00    -0.237 OA
ATOM     93  O   UNL     1       1.169  21.254   2.895  1.00  0.00    -0.744 OA
ENDBRANCH  86  90
ENDBRANCH  60  83
ENDBRANCH  34  35
ENDBRANCH  27  29
ENDBRANCH  26  27
ENDBRANCH  25  26
ENDBRANCH   1  25
TORSDOF 19
