REMARK SMILES O=C(OCCOCCOC(=O)c1cc(-c2ccc(Cl)cc2)nc2c3c(C4CC4)cc(C(F)(F)F)nc3nn12)c1ccc(-c2c3nc(c(-c4cc(S(=O)(=O)[O-])ccc4F)c4ccc([nH]4)c(-c4cc(S(=O)(=O)[O-])ccc4F)c4nc(c(-c5cc(S(=O)(=O)[O-])ccc5F)c5ccc2[nH]5)C=C4)C=C3)cc1
REMARK SMILES IDX 5 1 4 2 3 3 2 4 1 5 39 6 40 7 101 8 41 9 100 10 42 11 43 12
REMARK SMILES IDX 44 13 94 14 45 15 99 16 93 17 95 18 46 19 98 20 92 21 91 22
REMARK SMILES IDX 47 24 79 25 59 26 78 27 60 28 63 29 77 30 96 31 61 32 62 33
REMARK SMILES IDX 76 35 97 36 64 37 48 38 49 39 57 40 50 41 56 42 58 43 55 44
REMARK SMILES IDX 51 45 52 46 53 47 54 48 80 49 81 50 89 51 82 52 88 53 90 54
REMARK SMILES IDX 87 55 83 56 84 57 85 58 86 59 65 60 66 61 74 62 67 63 73 64
REMARK SMILES IDX 75 65 72 66 68 67 69 68 70 69 71 70 6 71 7 72 8 73 9 74
REMARK SMILES IDX 10 75 11 76 12 77 13 78 38 79 14 80 23 81 37 82 22 83 24 84
REMARK SMILES IDX 36 85 25 86 35 87 29 88 30 89 15 90 16 91 21 92 17 93 20 94
REMARK SMILES IDX 18 95 19 96 26 97 27 98 28 99 31 100 32 101 33 102 34 103
REMARK H PARENT 95 23 63 34
REMARK Flexibility Score: inf
ROOT
ATOM      1  C   UNL     1       3.940   1.202  -0.841  1.00  0.00     0.202 C 
ENDROOT
BRANCH   1   2
ATOM      2  C   UNL     1       3.860  -0.162  -1.546  1.00  0.00     0.261 C 
BRANCH   2   3
ATOM      3  O   UNL     1       2.704  -0.921  -1.156  1.00  0.00    -0.460 OA
BRANCH   3   4
ATOM      4  C   UNL     1       2.590  -1.429   0.097  1.00  0.00     0.338 C 
ATOM      5  O   UNL     1       1.532  -1.524   0.689  1.00  0.00    -0.246 OA
BRANCH   4   6
ATOM      6  C   UNL     1       3.827  -1.989   0.667  1.00  0.00     0.060 A 
ATOM      7  C   UNL     1       4.702  -1.181   1.397  1.00  0.00     0.016 A 
ATOM      8  C   UNL     1       4.070  -3.351   0.526  1.00  0.00     0.016 A 
ATOM      9  C   UNL     1       5.842  -1.713   1.971  1.00  0.00     0.010 A 
ATOM     10  C   UNL     1       5.196  -3.898   1.131  1.00  0.00     0.010 A 
ATOM     11  C   UNL     1       6.068  -3.081   1.869  1.00  0.00    -0.014 A 
BRANCH  11  12
ATOM     12  C   UNL     1       7.141  -3.635   2.703  1.00  0.00     0.031 A 
ATOM     13  C   UNL     1       6.661  -4.653   3.676  1.00  0.00     0.074 A 
ATOM     14  C   UNL     1       8.423  -3.619   2.292  1.00  0.00     0.049 A 
ATOM     15  N   UNL     1       6.399  -5.860   3.275  1.00  0.00    -0.248 NA
ATOM     16  C   UNL     1       6.118  -4.338   4.995  1.00  0.00     0.031 C 
ATOM     17  C   UNL     1       8.813  -3.531   0.878  1.00  0.00     0.029 A 
ATOM     18  N   UNL     1       9.584  -3.930   2.953  1.00  0.00    -0.354 N 
ATOM     19  C   UNL     1       5.548  -6.422   4.201  1.00  0.00     0.074 A 
ATOM     20  C   UNL     1       5.451  -5.469   5.285  1.00  0.00     0.031 C 
ATOM     21  C   UNL     1      10.068  -4.008   0.754  1.00  0.00     0.029 A 
ATOM     22  C   UNL     1      10.617  -4.268   2.080  1.00  0.00     0.049 A 
ATOM     23  H   UNL     1       9.677  -3.917   3.933  1.00  0.00     0.167 HD
ATOM     24  C   UNL     1       4.925  -7.607   3.970  1.00  0.00     0.034 A 
ATOM     25  C   UNL     1      11.568  -5.201   2.354  1.00  0.00     0.034 A 
ATOM     26  C   UNL     1       5.202  -8.201   2.692  1.00  0.00     0.049 A 
ATOM     27  C   UNL     1      10.743  -6.472   2.351  1.00  0.00     0.074 A 
ATOM     28  C   UNL     1       4.573  -8.280   1.469  1.00  0.00     0.029 A 
ATOM     29  N   UNL     1       6.436  -8.777   2.495  1.00  0.00    -0.354 N 
ATOM     30  N   UNL     1      10.322  -7.114   1.289  1.00  0.00    -0.248 NA
ATOM     31  C   UNL     1      10.074  -6.863   3.593  1.00  0.00     0.031 C 
ATOM     32  C   UNL     1       5.612  -8.509   0.514  1.00  0.00     0.029 A 
ATOM     33  C   UNL     1       6.825  -8.508   1.204  1.00  0.00     0.049 A 
ATOM     34  H   UNL     1       6.949  -9.291   3.160  1.00  0.00     0.167 HD
ATOM     35  C   UNL     1       9.149  -7.769   1.686  1.00  0.00     0.074 A 
ATOM     36  C   UNL     1       9.082  -7.606   3.122  1.00  0.00     0.031 C 
ATOM     37  C   UNL     1       8.202  -8.243   0.821  1.00  0.00     0.034 A 
BRANCH  24  38
ATOM     38  C   UNL     1       4.103  -8.325   4.962  1.00  0.00     0.023 A 
ATOM     39  C   UNL     1       2.738  -8.078   5.164  1.00  0.00     0.031 A 
ATOM     40  C   UNL     1       4.703  -9.416   5.613  1.00  0.00     0.131 A 
ATOM     41  C   UNL     1       2.010  -8.943   5.997  1.00  0.00     0.055 A 
ATOM     42  C   UNL     1       3.975 -10.273   6.430  1.00  0.00     0.041 A 
ATOM     43  F   UNL     1       6.008  -9.680   5.422  1.00  0.00    -0.206 F 
ATOM     44  C   UNL     1       2.619 -10.042   6.620  1.00  0.00     0.022 A 
BRANCH  41  45
ATOM     45  S   UNL     1       0.232  -8.718   6.281  1.00  0.00     0.124 S 
ATOM     46  O   UNL     1      -0.317  -9.995   5.830  1.00  0.00    -0.237 OA
ATOM     47  O   UNL     1       0.185  -8.494   7.724  1.00  0.00    -0.237 OA
ATOM     48  O   UNL     1      -0.111  -7.563   5.459  1.00  0.00    -0.744 OA
ENDBRANCH  41  45
ENDBRANCH  24  38
BRANCH  25  49
ATOM     49  C   UNL     1      12.483  -4.772   3.466  1.00  0.00     0.023 A 
ATOM     50  C   UNL     1      12.680  -5.465   4.667  1.00  0.00     0.031 A 
ATOM     51  C   UNL     1      13.151  -3.530   3.335  1.00  0.00     0.131 A 
ATOM     52  C   UNL     1      13.349  -4.848   5.737  1.00  0.00     0.055 A 
ATOM     53  C   UNL     1      13.870  -2.945   4.381  1.00  0.00     0.041 A 
ATOM     54  F   UNL     1      13.092  -2.844   2.181  1.00  0.00    -0.206 F 
ATOM     55  C   UNL     1      13.943  -3.592   5.605  1.00  0.00     0.022 A 
BRANCH  52  56
ATOM     56  S   UNL     1      13.388  -5.639   7.370  1.00  0.00     0.124 S 
ATOM     57  O   UNL     1      14.786  -5.480   7.761  1.00  0.00    -0.237 OA
ATOM     58  O   UNL     1      12.427  -4.824   8.107  1.00  0.00    -0.237 OA
ATOM     59  O   UNL     1      12.968  -7.008   7.090  1.00  0.00    -0.744 OA
ENDBRANCH  52  56
ENDBRANCH  25  49
BRANCH  37  60
ATOM     60  C   UNL     1       8.575  -8.283  -0.628  1.00  0.00     0.023 A 
ATOM     61  C   UNL     1       7.904  -7.495  -1.584  1.00  0.00     0.031 A 
ATOM     62  C   UNL     1       9.525  -9.211  -1.079  1.00  0.00     0.131 A 
ATOM     63  C   UNL     1       8.143  -7.702  -2.949  1.00  0.00     0.055 A 
ATOM     64  C   UNL     1       9.797  -9.377  -2.438  1.00  0.00     0.041 A 
ATOM     65  F   UNL     1      10.165 -10.011  -0.209  1.00  0.00    -0.206 F 
ATOM     66  C   UNL     1       9.095  -8.631  -3.381  1.00  0.00     0.022 A 
BRANCH  63  67
ATOM     67  S   UNL     1       7.187  -6.808  -4.206  1.00  0.00     0.124 S 
ATOM     68  O   UNL     1       8.205  -6.455  -5.194  1.00  0.00    -0.237 OA
ATOM     69  O   UNL     1       6.231  -7.825  -4.636  1.00  0.00    -0.237 OA
ATOM     70  O   UNL     1       6.619  -5.676  -3.479  1.00  0.00    -0.744 OA
ENDBRANCH  63  67
ENDBRANCH  37  60
ENDBRANCH  11  12
ENDBRANCH   4   6
ENDBRANCH   3   4
ENDBRANCH   2   3
ENDBRANCH   1   2
BRANCH   1  71
ATOM     71  O   UNL     1       2.740   1.534  -0.144  1.00  0.00    -0.374 OA
BRANCH  71  72
ATOM     72  C   UNL     1       2.899   1.916   1.226  1.00  0.00     0.202 C 
BRANCH  72  73
ATOM     73  C   UNL     1       2.639   3.403   1.415  1.00  0.00     0.261 C 
BRANCH  73  74
ATOM     74  O   UNL     1       3.360   4.176   0.448  1.00  0.00    -0.459 OA
BRANCH  74  75
ATOM     75  C   UNL     1       4.708   4.118   0.446  1.00  0.00     0.357 C 
ATOM     76  O   UNL     1       5.417   3.586   1.287  1.00  0.00    -0.244 OA
BRANCH  75  77
ATOM     77  C   UNL     1       5.198   4.629  -0.847  1.00  0.00     0.154 A 
ATOM     78  C   UNL     1       6.246   3.999  -1.404  1.00  0.00     0.065 A 
ATOM     79  N   UNL     1       4.569   5.679  -1.508  1.00  0.00    -0.205 N 
ATOM     80  C   UNL     1       6.633   4.487  -2.759  1.00  0.00     0.075 A 
ATOM     81  C   UNL     1       5.048   6.128  -2.755  1.00  0.00     0.166 A 
ATOM     82  N   UNL     1       3.514   6.406  -1.072  1.00  0.00    -0.145 NA
ATOM     83  N   UNL     1       6.096   5.496  -3.383  1.00  0.00    -0.228 NA
ATOM     84  C   UNL     1       4.251   7.213  -3.071  1.00  0.00     0.069 A 
ATOM     85  C   UNL     1       3.298   7.299  -2.019  1.00  0.00     0.184 A 
ATOM     86  C   UNL     1       4.341   8.072  -4.174  1.00  0.00    -0.028 A 
ATOM     87  N   UNL     1       2.324   8.232  -1.978  1.00  0.00    -0.222 NA
ATOM     88  C   UNL     1       3.310   9.035  -4.100  1.00  0.00     0.038 A 
ATOM     89  C   UNL     1       2.361   9.094  -3.037  1.00  0.00     0.147 A 
BRANCH  80  90
ATOM     90  C   UNL     1       7.729   3.716  -3.382  1.00  0.00     0.000 A 
ATOM     91  C   UNL     1       9.028   4.226  -3.332  1.00  0.00     0.012 A 
ATOM     92  C   UNL     1       7.471   2.468  -3.963  1.00  0.00     0.012 A 
ATOM     93  C   UNL     1      10.081   3.475  -3.860  1.00  0.00     0.021 A 
ATOM     94  C   UNL     1       8.529   1.724  -4.495  1.00  0.00     0.021 A 
ATOM     95  C   UNL     1       9.829   2.230  -4.439  1.00  0.00     0.041 A 
ATOM     96  Cl  UNL     1      11.134   1.320  -5.093  1.00  0.00    -0.084 Cl
ENDBRANCH  80  90
BRANCH  86  97
ATOM     97  C   UNL     1       5.438   7.986  -5.184  1.00  0.00     0.020 C 
ATOM     98  C   UNL     1       5.661   9.041  -6.241  1.00  0.00     0.009 C 
ATOM     99  C   UNL     1       6.582   8.969  -5.061  1.00  0.00     0.009 C 
ENDBRANCH  86  97
BRANCH  89 100
ATOM    100  C   UNL     1       1.316  10.203  -3.036  1.00  0.00     0.433 C 
ATOM    101  F   UNL     1       0.055   9.751  -3.287  1.00  0.00    -0.165 F 
ATOM    102  F   UNL     1       1.249  10.877  -1.852  1.00  0.00    -0.165 F 
ATOM    103  F   UNL     1       1.550  11.165  -3.980  1.00  0.00    -0.165 F 
ENDBRANCH  89 100
ENDBRANCH  75  77
ENDBRANCH  74  75
ENDBRANCH  73  74
ENDBRANCH  72  73
ENDBRANCH  71  72
ENDBRANCH   1  71
TORSDOF 20
