REMARK SMILES CC(C)C[C@H](C(=O)OCCOCCOC(=O)c1ccc(-c2c3nc(c(-c4cc(S(=O)(=O)[O-])ccc4F)c4ccc([nH]4)c(-c4cc(S(=O)(=O)[O-])ccc4F)c4nc(c(-c5cc(S(=O)(=O)[O-])ccc5F)c5ccc2[nH]5)C=C4)C=C3)cc1)N1C(=O)/C(=C2\C(=O)Nc3ccc(Br)cc32)SC1=S
REMARK SMILES IDX 12 1 11 2 10 3 9 4 8 5 6 6 7 7 5 8 4 9 2 10 1 11 3 12 80 13
REMARK SMILES IDX 81 14 96 15 82 16 83 17 95 18 97 19 84 20 85 21 94 22 86 23
REMARK SMILES IDX 87 24 88 25 93 26 89 28 91 29 90 30 92 31 13 32 14 33 15 34
REMARK SMILES IDX 16 35 17 36 18 37 79 38 19 39 78 40 20 41 21 42 22 43 72 44
REMARK SMILES IDX 23 45 77 46 71 47 73 48 24 49 76 50 70 51 69 52 25 54 57 55
REMARK SMILES IDX 37 56 56 57 38 58 41 59 55 60 74 61 39 62 40 63 54 65 75 66
REMARK SMILES IDX 42 67 26 68 27 69 35 70 28 71 34 72 36 73 33 74 29 75 30 76
REMARK SMILES IDX 31 77 32 78 58 79 59 80 67 81 60 82 66 83 68 84 65 85 61 86
REMARK SMILES IDX 62 87 63 88 64 89 43 90 44 91 52 92 45 93 51 94 53 95 50 96
REMARK SMILES IDX 46 97 47 98 48 99 49 100
REMARK H PARENT 87 27 73 53 41 64
REMARK Flexibility Score: inf
ROOT
ATOM      1  C   UNL     1      -1.613  -1.128   3.787  1.00  0.00     0.202 C 
ENDROOT
BRANCH   1   2
ATOM      2  O   UNL     1      -0.819  -0.044   4.258  1.00  0.00    -0.374 OA
BRANCH   2   3
ATOM      3  C   UNL     1      -0.965   1.221   3.614  1.00  0.00     0.202 C 
BRANCH   3   4
ATOM      4  C   UNL     1      -0.655   1.294   2.115  1.00  0.00     0.261 C 
BRANCH   4   5
ATOM      5  O   UNL     1      -1.529   0.450   1.331  1.00  0.00    -0.462 OA
BRANCH   5   6
ATOM      6  C   UNL     1      -0.906  -0.229   0.329  1.00  0.00     0.329 C 
ATOM      7  O   UNL     1       0.280  -0.083   0.035  1.00  0.00    -0.250 OA
BRANCH   6   8
ATOM      8  C   UNL     1      -1.737  -1.396  -0.276  1.00  0.00     0.202 C 
BRANCH   8   9
ATOM      9  C   UNL     1      -1.006  -2.655   0.324  1.00  0.00     0.040 C 
BRANCH   9  10
ATOM     10  C   UNL     1      -1.584  -4.061   0.496  1.00  0.00    -0.015 C 
ATOM     11  C   UNL     1      -1.950  -4.705  -0.832  1.00  0.00     0.007 C 
ATOM     12  C   UNL     1      -0.562  -4.955   1.223  1.00  0.00     0.007 C 
ENDBRANCH   9  10
ENDBRANCH   8   9
BRANCH   8  13
ATOM     13  N   UNL     1      -3.221  -1.236  -0.359  1.00  0.00    -0.278 N 
ATOM     14  C   UNL     1      -4.143  -2.218  -0.046  1.00  0.00     0.267 C 
ATOM     15  C   UNL     1      -3.786  -0.193  -1.084  1.00  0.00     0.149 C 
ATOM     16  O   UNL     1      -4.213  -2.809   1.018  1.00  0.00    -0.268 OA
ATOM     17  C   UNL     1      -5.241  -2.250  -1.079  1.00  0.00     0.093 C 
ATOM     18  S   UNL     1      -5.396  -0.632  -1.648  1.00  0.00    -0.053 SA
ATOM     19  S   UNL     1      -3.128   1.280  -1.512  1.00  0.00    -0.052 S 
ATOM     20  C   UNL     1      -5.915  -3.317  -1.551  1.00  0.00     0.069 C 
ATOM     21  C   UNL     1      -5.672  -4.726  -1.061  1.00  0.00     0.257 C 
ATOM     22  C   UNL     1      -6.952  -3.438  -2.617  1.00  0.00     0.013 A 
ATOM     23  O   UNL     1      -4.866  -5.130  -0.247  1.00  0.00    -0.269 OA
ATOM     24  N   UNL     1      -6.536  -5.530  -1.776  1.00  0.00    -0.321 N 
ATOM     25  C   UNL     1      -7.291  -4.799  -2.677  1.00  0.00     0.049 A 
ATOM     26  C   UNL     1      -7.578  -2.565  -3.496  1.00  0.00     0.026 A 
ATOM     27  H   UNL     1      -6.608  -6.505  -1.659  1.00  0.00     0.170 HD
ATOM     28  C   UNL     1      -8.241  -5.324  -3.536  1.00  0.00     0.028 A 
ATOM     29  C   UNL     1      -8.544  -3.077  -4.380  1.00  0.00     0.018 A 
ATOM     30  C   UNL     1      -8.883  -4.440  -4.397  1.00  0.00     0.018 A 
ATOM     31  Br  UNL     1      -9.417  -1.911  -5.591  1.00  0.00    -0.051 Br
ENDBRANCH   8  13
ENDBRANCH   6   8
ENDBRANCH   5   6
ENDBRANCH   4   5
ENDBRANCH   3   4
ENDBRANCH   2   3
ENDBRANCH   1   2
BRANCH   1  32
ATOM     32  C   UNL     1      -3.126  -1.113   4.038  1.00  0.00     0.261 C 
BRANCH  32  33
ATOM     33  O   UNL     1      -3.792   0.063   3.553  1.00  0.00    -0.460 OA
BRANCH  33  34
ATOM     34  C   UNL     1      -4.148   0.936   4.530  1.00  0.00     0.338 C 
ATOM     35  O   UNL     1      -3.958   0.812   5.728  1.00  0.00    -0.246 OA
BRANCH  34  36
ATOM     36  C   UNL     1      -4.648   2.190   3.936  1.00  0.00     0.060 A 
ATOM     37  C   UNL     1      -4.010   3.382   4.302  1.00  0.00     0.016 A 
ATOM     38  C   UNL     1      -5.779   2.211   3.119  1.00  0.00     0.016 A 
ATOM     39  C   UNL     1      -4.525   4.606   3.887  1.00  0.00     0.010 A 
ATOM     40  C   UNL     1      -6.300   3.444   2.710  1.00  0.00     0.010 A 
ATOM     41  C   UNL     1      -5.696   4.648   3.120  1.00  0.00    -0.014 A 
BRANCH  41  42
ATOM     42  C   UNL     1      -6.361   5.954   2.876  1.00  0.00     0.031 A 
ATOM     43  C   UNL     1      -7.586   6.312   3.675  1.00  0.00     0.074 A 
ATOM     44  C   UNL     1      -5.855   6.826   1.986  1.00  0.00     0.049 A 
ATOM     45  N   UNL     1      -8.349   7.371   3.596  1.00  0.00    -0.248 NA
ATOM     46  C   UNL     1      -8.007   5.340   4.695  1.00  0.00     0.031 C 
ATOM     47  C   UNL     1      -4.644   6.613   1.194  1.00  0.00     0.029 A 
ATOM     48  N   UNL     1      -6.298   8.065   1.596  1.00  0.00    -0.354 N 
ATOM     49  C   UNL     1      -9.347   7.192   4.548  1.00  0.00     0.074 A 
ATOM     50  C   UNL     1      -9.112   5.901   5.162  1.00  0.00     0.031 C 
ATOM     51  C   UNL     1      -4.442   7.686   0.411  1.00  0.00     0.029 A 
ATOM     52  C   UNL     1      -5.533   8.638   0.607  1.00  0.00     0.049 A 
ATOM     53  H   UNL     1      -7.088   8.503   1.988  1.00  0.00     0.167 HD
ATOM     54  C   UNL     1     -10.359   8.030   4.884  1.00  0.00     0.034 A 
ATOM     55  C   UNL     1      -5.711   9.784  -0.083  1.00  0.00     0.034 A 
ATOM     56  C   UNL     1     -10.582   9.310   4.255  1.00  0.00     0.049 A 
ATOM     57  C   UNL     1      -6.902  10.655   0.239  1.00  0.00     0.074 A 
ATOM     58  C   UNL     1     -11.566  10.244   4.529  1.00  0.00     0.029 A 
ATOM     59  N   UNL     1      -9.820   9.832   3.216  1.00  0.00    -0.354 N 
ATOM     60  N   UNL     1      -7.839  10.476   1.144  1.00  0.00    -0.248 NA
ATOM     61  C   UNL     1      -7.057  11.885  -0.548  1.00  0.00     0.031 C 
ATOM     62  C   UNL     1     -11.454  11.285   3.601  1.00  0.00     0.029 A 
ATOM     63  C   UNL     1     -10.340  11.053   2.811  1.00  0.00     0.049 A 
ATOM     64  H   UNL     1      -9.028   9.399   2.825  1.00  0.00     0.167 HD
ATOM     65  C   UNL     1      -8.670  11.591   1.056  1.00  0.00     0.074 A 
ATOM     66  C   UNL     1      -8.117  12.440   0.021  1.00  0.00     0.031 C 
ATOM     67  C   UNL     1      -9.786  11.890   1.770  1.00  0.00     0.034 A 
BRANCH  54  68
ATOM     68  C   UNL     1     -11.334   7.560   5.939  1.00  0.00     0.023 A 
ATOM     69  C   UNL     1     -10.934   7.302   7.261  1.00  0.00     0.031 A 
ATOM     70  C   UNL     1     -12.684   7.345   5.609  1.00  0.00     0.131 A 
ATOM     71  C   UNL     1     -11.854   6.777   8.182  1.00  0.00     0.055 A 
ATOM     72  C   UNL     1     -13.615   6.906   6.552  1.00  0.00     0.041 A 
ATOM     73  F   UNL     1     -13.123   7.548   4.356  1.00  0.00    -0.206 F 
ATOM     74  C   UNL     1     -13.198   6.604   7.845  1.00  0.00     0.022 A 
BRANCH  71  75
ATOM     75  S   UNL     1     -11.237   6.180   9.780  1.00  0.00     0.124 S 
ATOM     76  O   UNL     1     -10.250   5.188   9.363  1.00  0.00    -0.237 OA
ATOM     77  O   UNL     1     -10.706   7.395  10.388  1.00  0.00    -0.237 OA
ATOM     78  O   UNL     1     -12.429   5.630  10.424  1.00  0.00    -0.744 OA
ENDBRANCH  71  75
ENDBRANCH  54  68
BRANCH  55  79
ATOM     79  C   UNL     1      -4.771  10.160  -1.179  1.00  0.00     0.023 A 
ATOM     80  C   UNL     1      -4.019  11.343  -1.120  1.00  0.00     0.031 A 
ATOM     81  C   UNL     1      -4.658   9.366  -2.336  1.00  0.00     0.131 A 
ATOM     82  C   UNL     1      -3.228  11.726  -2.216  1.00  0.00     0.055 A 
ATOM     83  C   UNL     1      -3.821   9.718  -3.396  1.00  0.00     0.041 A 
ATOM     84  F   UNL     1      -5.361   8.228  -2.451  1.00  0.00    -0.206 F 
ATOM     85  C   UNL     1      -3.111  10.913  -3.345  1.00  0.00     0.022 A 
BRANCH  82  86
ATOM     86  S   UNL     1      -2.437  13.358  -2.187  1.00  0.00     0.124 S 
ATOM     87  O   UNL     1      -3.586  14.241  -2.024  1.00  0.00    -0.237 OA
ATOM     88  O   UNL     1      -1.547  13.243  -1.037  1.00  0.00    -0.237 OA
ATOM     89  O   UNL     1      -1.769  13.435  -3.485  1.00  0.00    -0.744 OA
ENDBRANCH  82  86
ENDBRANCH  55  79
BRANCH  67  90
ATOM     90  C   UNL     1     -10.452  13.219   1.494  1.00  0.00     0.023 A 
ATOM     91  C   UNL     1     -11.046  13.513   0.254  1.00  0.00     0.031 A 
ATOM     92  C   UNL     1     -10.485  14.212   2.491  1.00  0.00     0.131 A 
ATOM     93  C   UNL     1     -11.592  14.786   0.024  1.00  0.00     0.055 A 
ATOM     94  C   UNL     1     -11.093  15.450   2.280  1.00  0.00     0.041 A 
ATOM     95  F   UNL     1      -9.929  13.992   3.694  1.00  0.00    -0.206 F 
ATOM     96  C   UNL     1     -11.639  15.748   1.036  1.00  0.00     0.022 A 
BRANCH  93  97
ATOM     97  S   UNL     1     -12.148  15.207  -1.651  1.00  0.00     0.124 S 
ATOM     98  O   UNL     1     -10.935  14.996  -2.434  1.00  0.00    -0.237 OA
ATOM     99  O   UNL     1     -13.225  14.248  -1.874  1.00  0.00    -0.237 OA
ATOM    100  O   UNL     1     -12.575  16.600  -1.531  1.00  0.00    -0.744 OA
ENDBRANCH  93  97
ENDBRANCH  67  90
ENDBRANCH  41  42
ENDBRANCH  34  36
ENDBRANCH  33  34
ENDBRANCH  32  33
ENDBRANCH   1  32
TORSDOF 20
