REMARK SMILES COc1ccc2c(c1)c(CC(=O)OCCOCCOC(=O)c1ccc(-c3c4nc(c(-c5cc(S(=O)(=O)[O-])ccc5F)c5ccc([nH]5)c(-c5cc(S(=O)(=O)[O-])ccc5F)c5nc(c(-c6cc(S(=O)(=O)[O-])ccc6F)c6ccc3[nH]6)C=C5)C=C4)cc1)c(C)n2Cc1ccn(C(F)F)c(=O)c1
REMARK SMILES IDX 15 1 14 2 13 3 11 4 12 5 10 6 9 7 3 8 4 9 8 10 5 11 7 12
REMARK SMILES IDX 6 13 87 14 85 15 86 16 2 17 1 18 88 19 89 20 90 21 98 22
REMARK SMILES IDX 91 23 96 24 92 25 97 26 93 27 94 28 95 29 16 30 17 31 18 32
REMARK SMILES IDX 19 33 20 34 21 35 22 36 23 37 84 38 24 39 83 40 25 41 26 42
REMARK SMILES IDX 27 43 77 44 28 45 82 46 76 47 78 48 29 49 81 50 75 51 74 52
REMARK SMILES IDX 30 54 62 55 42 56 61 57 43 58 46 59 60 60 79 61 44 62 45 63
REMARK SMILES IDX 59 65 80 66 47 67 31 68 32 69 40 70 33 71 39 72 41 73 38 74
REMARK SMILES IDX 34 75 35 76 36 77 37 78 63 79 64 80 72 81 65 82 71 83 73 84
REMARK SMILES IDX 70 85 66 86 67 87 68 88 69 89 48 90 49 91 57 92 50 93 56 94
REMARK SMILES IDX 58 95 55 96 51 97 52 98 53 99 54 100
REMARK H PARENT 78 53 46 64
REMARK Flexibility Score: inf
ROOT
ATOM      1  C   UNL     1      -2.841  -6.180  -1.092  1.00  0.00     0.202 C 
ENDROOT
BRANCH   1   2
ATOM      2  C   UNL     1      -3.003  -6.343  -2.615  1.00  0.00     0.261 C 
BRANCH   2   3
ATOM      3  O   UNL     1      -2.307  -5.370  -3.415  1.00  0.00    -0.463 OA
BRANCH   3   4
ATOM      4  C   UNL     1      -3.104  -4.417  -3.963  1.00  0.00     0.310 C 
ATOM      5  O   UNL     1      -4.330  -4.402  -3.861  1.00  0.00    -0.252 OA
BRANCH   4   6
ATOM      6  C   UNL     1      -2.402  -3.308  -4.719  1.00  0.00     0.160 C 
BRANCH   6   7
ATOM      7  C   UNL     1      -0.897  -3.257  -4.761  1.00  0.00    -0.008 A 
ATOM      8  C   UNL     1       0.757  -1.381  -1.869  1.00  0.00     0.119 A 
ATOM      9  C   UNL     1       2.068  -1.685  -2.215  1.00  0.00     0.048 A 
ATOM     10  C   UNL     1      -0.290  -1.795  -2.694  1.00  0.00     0.057 A 
ATOM     11  C   UNL     1       2.354  -2.390  -3.400  1.00  0.00     0.031 A 
ATOM     12  C   UNL     1      -0.041  -2.585  -3.836  1.00  0.00     0.007 A 
ATOM     13  C   UNL     1       1.283  -2.834  -4.206  1.00  0.00     0.049 A 
ATOM     14  N   UNL     1       1.242  -3.526  -5.414  1.00  0.00    -0.340 N 
ATOM     15  C   UNL     1      -0.083  -3.669  -5.808  1.00  0.00     0.020 A 
ATOM     16  C   UNL     1      -0.530  -4.155  -7.142  1.00  0.00     0.065 C 
BRANCH   8  17
ATOM     17  O   UNL     1       0.354  -0.875  -0.663  1.00  0.00    -0.497 OA
ATOM     18  C   UNL     1       1.128   0.190  -0.135  1.00  0.00     0.278 C 
ENDBRANCH   8  17
BRANCH  14  19
ATOM     19  C   UNL     1       2.430  -3.847  -6.227  1.00  0.00     0.158 C 
BRANCH  19  20
ATOM     20  C   UNL     1       2.763  -5.321  -6.331  1.00  0.00    -0.021 A 
ATOM     21  C   UNL     1       2.015  -6.152  -7.254  1.00  0.00     0.024 A 
ATOM     22  C   UNL     1       3.777  -5.893  -5.656  1.00  0.00     0.077 A 
ATOM     23  C   UNL     1       2.154  -7.481  -7.257  1.00  0.00     0.095 A 
ATOM     24  C   UNL     1       4.038  -7.363  -5.750  1.00  0.00     0.255 A 
ATOM     25  N   UNL     1       3.108  -8.092  -6.472  1.00  0.00    -0.258 N 
ATOM     26  O   UNL     1       5.030  -7.815  -5.187  1.00  0.00    -0.269 OA
BRANCH  25  27
ATOM     27  C   UNL     1       3.227  -9.529  -6.471  1.00  0.00     0.451 C 
ATOM     28  F   UNL     1       4.334  -9.915  -7.152  1.00  0.00    -0.185 F 
ATOM     29  F   UNL     1       3.321 -10.008  -5.209  1.00  0.00    -0.185 F 
ENDBRANCH  25  27
ENDBRANCH  19  20
ENDBRANCH  14  19
ENDBRANCH   6   7
ENDBRANCH   4   6
ENDBRANCH   3   4
ENDBRANCH   2   3
ENDBRANCH   1   2
BRANCH   1  30
ATOM     30  O   UNL     1      -2.790  -4.888  -0.501  1.00  0.00    -0.374 OA
BRANCH  30  31
ATOM     31  C   UNL     1      -1.694  -4.049  -0.849  1.00  0.00     0.202 C 
BRANCH  31  32
ATOM     32  C   UNL     1      -0.250  -4.489  -0.543  1.00  0.00     0.261 C 
BRANCH  32  33
ATOM     33  O   UNL     1       0.075  -5.767  -1.078  1.00  0.00    -0.460 OA
BRANCH  33  34
ATOM     34  C   UNL     1       0.835  -6.540  -0.258  1.00  0.00     0.338 C 
ATOM     35  O   UNL     1       1.579  -6.177   0.640  1.00  0.00    -0.246 OA
BRANCH  34  36
ATOM     36  C   UNL     1       0.242  -7.875  -0.399  1.00  0.00     0.060 A 
ATOM     37  C   UNL     1       0.067  -8.418  -1.675  1.00  0.00     0.016 A 
ATOM     38  C   UNL     1      -0.483  -8.337   0.710  1.00  0.00     0.016 A 
ATOM     39  C   UNL     1      -0.933  -9.359  -1.857  1.00  0.00     0.010 A 
ATOM     40  C   UNL     1      -1.497  -9.263   0.517  1.00  0.00     0.010 A 
ATOM     41  C   UNL     1      -1.751  -9.733  -0.773  1.00  0.00    -0.014 A 
BRANCH  41  42
ATOM     42  C   UNL     1      -2.697 -10.825  -0.991  1.00  0.00     0.031 A 
ATOM     43  C   UNL     1      -1.980 -12.100  -1.266  1.00  0.00     0.074 A 
ATOM     44  C   UNL     1      -4.033 -10.772  -0.815  1.00  0.00     0.049 A 
ATOM     45  N   UNL     1      -1.955 -12.786  -2.361  1.00  0.00    -0.248 NA
ATOM     46  C   UNL     1      -0.993 -12.532  -0.259  1.00  0.00     0.031 C 
ATOM     47  C   UNL     1      -4.834  -9.687  -0.246  1.00  0.00     0.029 A 
ATOM     48  N   UNL     1      -4.963 -11.748  -1.026  1.00  0.00    -0.354 N 
ATOM     49  C   UNL     1      -1.101 -13.857  -2.102  1.00  0.00     0.074 A 
ATOM     50  C   UNL     1      -0.382 -13.523  -0.902  1.00  0.00     0.031 C 
ATOM     51  C   UNL     1      -6.071 -10.149   0.056  1.00  0.00     0.029 A 
ATOM     52  C   UNL     1      -6.192 -11.517  -0.418  1.00  0.00     0.049 A 
ATOM     53  H   UNL     1      -4.779 -12.551  -1.565  1.00  0.00     0.167 HD
ATOM     54  C   UNL     1      -1.225 -15.051  -2.745  1.00  0.00     0.034 A 
ATOM     55  C   UNL     1      -7.203 -12.409  -0.244  1.00  0.00     0.034 A 
ATOM     56  C   UNL     1      -2.018 -14.922  -3.936  1.00  0.00     0.049 A 
ATOM     57  C   UNL     1      -6.982 -13.536  -1.180  1.00  0.00     0.074 A 
ATOM     58  C   UNL     1      -1.874 -14.253  -5.133  1.00  0.00     0.029 A 
ATOM     59  N   UNL     1      -3.346 -15.255  -3.839  1.00  0.00    -0.354 N 
ATOM     60  N   UNL     1      -7.075 -13.438  -2.475  1.00  0.00    -0.248 NA
ATOM     61  C   UNL     1      -6.212 -14.667  -0.688  1.00  0.00     0.031 C 
ATOM     62  C   UNL     1      -3.187 -13.828  -5.478  1.00  0.00     0.029 A 
ATOM     63  C   UNL     1      -4.073 -14.307  -4.509  1.00  0.00     0.049 A 
ATOM     64  H   UNL     1      -3.712 -16.039  -3.370  1.00  0.00     0.167 HD
ATOM     65  C   UNL     1      -6.018 -14.196  -2.954  1.00  0.00     0.074 A 
ATOM     66  C   UNL     1      -5.583 -15.004  -1.815  1.00  0.00     0.031 C 
ATOM     67  C   UNL     1      -5.412 -13.893  -4.138  1.00  0.00     0.034 A 
BRANCH  54  68
ATOM     68  C   UNL     1      -0.950 -16.378  -2.077  1.00  0.00     0.023 A 
ATOM     69  C   UNL     1      -0.754 -16.512  -0.688  1.00  0.00     0.031 A 
ATOM     70  C   UNL     1      -1.107 -17.583  -2.788  1.00  0.00     0.131 A 
ATOM     71  C   UNL     1      -0.695 -17.761  -0.063  1.00  0.00     0.055 A 
ATOM     72  C   UNL     1      -1.123 -18.832  -2.154  1.00  0.00     0.041 A 
ATOM     73  F   UNL     1      -1.314 -17.579  -4.115  1.00  0.00    -0.206 F 
ATOM     74  C   UNL     1      -0.915 -18.927  -0.783  1.00  0.00     0.022 A 
BRANCH  71  75
ATOM     75  S   UNL     1      -0.343 -17.876   1.713  1.00  0.00     0.124 S 
ATOM     76  O   UNL     1      -1.545 -18.533   2.215  1.00  0.00    -0.237 OA
ATOM     77  O   UNL     1       0.873 -18.686   1.720  1.00  0.00    -0.237 OA
ATOM     78  O   UNL     1      -0.160 -16.485   2.117  1.00  0.00    -0.744 OA
ENDBRANCH  71  75
ENDBRANCH  54  68
BRANCH  55  79
ATOM     79  C   UNL     1      -8.002 -12.598   0.995  1.00  0.00     0.023 A 
ATOM     80  C   UNL     1      -7.413 -12.313   2.241  1.00  0.00     0.031 A 
ATOM     81  C   UNL     1      -9.187 -13.357   1.002  1.00  0.00     0.131 A 
ATOM     82  C   UNL     1      -7.969 -12.814   3.426  1.00  0.00     0.055 A 
ATOM     83  C   UNL     1      -9.754 -13.839   2.191  1.00  0.00     0.041 A 
ATOM     84  F   UNL     1      -9.777 -13.710  -0.150  1.00  0.00    -0.206 F 
ATOM     85  C   UNL     1      -9.135 -13.580   3.411  1.00  0.00     0.022 A 
BRANCH  82  86
ATOM     86  S   UNL     1      -7.118 -12.570   5.010  1.00  0.00     0.124 S 
ATOM     87  O   UNL     1      -8.180 -12.013   5.844  1.00  0.00    -0.237 OA
ATOM     88  O   UNL     1      -6.709 -13.931   5.340  1.00  0.00    -0.237 OA
ATOM     89  O   UNL     1      -6.040 -11.643   4.680  1.00  0.00    -0.744 OA
ENDBRANCH  82  86
ENDBRANCH  55  79
BRANCH  67  90
ATOM     90  C   UNL     1      -6.058 -12.867  -5.045  1.00  0.00     0.023 A 
ATOM     91  C   UNL     1      -6.227 -13.233  -6.391  1.00  0.00     0.031 A 
ATOM     92  C   UNL     1      -6.261 -11.515  -4.708  1.00  0.00     0.131 A 
ATOM     93  C   UNL     1      -6.509 -12.262  -7.357  1.00  0.00     0.055 A 
ATOM     94  C   UNL     1      -6.626 -10.561  -5.665  1.00  0.00     0.041 A 
ATOM     95  F   UNL     1      -6.024 -11.057  -3.473  1.00  0.00    -0.206 F 
ATOM     96  C   UNL     1      -6.729 -10.929  -7.002  1.00  0.00     0.022 A 
BRANCH  93  97
ATOM     97  S   UNL     1      -6.409 -12.679  -9.115  1.00  0.00     0.124 S 
ATOM     98  O   UNL     1      -7.761 -12.386  -9.582  1.00  0.00    -0.237 OA
ATOM     99  O   UNL     1      -5.370 -11.765  -9.588  1.00  0.00    -0.237 OA
ATOM    100  O   UNL     1      -6.037 -14.091  -9.124  1.00  0.00    -0.744 OA
ENDBRANCH  93  97
ENDBRANCH  67  90
ENDBRANCH  41  42
ENDBRANCH  34  36
ENDBRANCH  33  34
ENDBRANCH  32  33
ENDBRANCH  31  32
ENDBRANCH  30  31
ENDBRANCH   1  30
TORSDOF 22
