REMARK SMILES O=C(CCN1C(=O)S/C(=C\c2ccccc2F)C1=O)Nc1ccc(C(=O)OCCOCCOC(=O)c2ccc(-c3c4nc(c(-c5cc(S(=O)(=O)[O-])ccc5F)c5ccc([nH]5)c(-c5cc(S(=O)(=O)[O-])ccc5F)c5nc(c(-c6cc(S(=O)(=O)[O-])ccc6F)c6ccc3[nH]6)C=C5)C=C4)cc2)c(O)c1
REMARK SMILES IDX 29 1 28 2 27 3 25 4 26 5 24 6 21 7 22 8 101 9 23 10 99 11
REMARK SMILES IDX 20 12 1 13 2 14 3 16 4 17 5 18 6 19 18 20 7 21 8 22 9 23
REMARK SMILES IDX 19 24 10 25 11 26 12 27 16 28 13 29 15 30 17 31 14 32 100 33
REMARK SMILES IDX 30 35 31 36 32 37 33 38 34 39 35 40 36 41 37 42 98 43 38 44
REMARK SMILES IDX 97 45 39 46 40 47 41 48 91 49 42 50 96 51 90 52 92 53 43 54
REMARK SMILES IDX 95 55 89 56 88 57 44 59 76 60 56 61 75 62 57 63 60 64 74 65
REMARK SMILES IDX 93 66 58 67 59 68 73 70 94 71 61 72 45 73 46 74 54 75 47 76
REMARK SMILES IDX 53 77 55 78 52 79 48 80 49 81 50 82 51 83 77 84 78 85 86 86
REMARK SMILES IDX 79 87 85 88 87 89 84 90 80 91 81 92 82 93 83 94 62 95 63 96
REMARK SMILES IDX 71 97 64 98 70 99 72 100 69 101 65 102 66 103 67 104 68 105
REMARK H PARENT 20 15 100 34 92 58 60 69
REMARK Flexibility Score: inf
ROOT
ATOM      1  C   UNL     1      -1.799   7.431   3.284  1.00  0.00     0.202 C 
ENDROOT
BRANCH   1   2
ATOM      2  C   UNL     1      -0.419   7.328   3.944  1.00  0.00     0.261 C 
BRANCH   2   3
ATOM      3  O   UNL     1       0.450   6.424   3.240  1.00  0.00    -0.460 OA
BRANCH   3   4
ATOM      4  C   UNL     1       0.662   5.243   3.877  1.00  0.00     0.341 C 
ATOM      5  O   UNL     1       0.335   4.953   5.016  1.00  0.00    -0.246 OA
BRANCH   4   6
ATOM      6  C   UNL     1       1.201   4.251   2.924  1.00  0.00     0.101 A 
ATOM      7  C   UNL     1       2.157   2.207   1.261  1.00  0.00     0.044 A 
ATOM      8  C   UNL     1       1.150   1.936   2.184  1.00  0.00     0.027 A 
ATOM      9  C   UNL     1       2.662   3.511   1.150  1.00  0.00     0.073 A 
ATOM     10  C   UNL     1       0.694   2.948   3.031  1.00  0.00     0.022 A 
ATOM     11  C   UNL     1       2.153   4.538   1.947  1.00  0.00     0.132 A 
BRANCH   7  12
ATOM     12  N   UNL     1       2.747   1.208   0.468  1.00  0.00    -0.326 N 
ATOM     13  O   UNL     1       1.056  -0.371   0.341  1.00  0.00    -0.275 OA
ATOM     14  C   UNL     1       2.213  -0.017   0.131  1.00  0.00     0.226 C 
ATOM     15  H   UNL     1       3.644   1.406   0.113  1.00  0.00     0.169 HD
BRANCH  14  16
ATOM     16  C   UNL     1       3.211  -0.991  -0.477  1.00  0.00     0.122 C 
BRANCH  16  17
ATOM     17  C   UNL     1       3.986  -0.490  -1.699  1.00  0.00     0.140 C 
BRANCH  17  18
ATOM     18  N   UNL     1       5.051   0.453  -1.372  1.00  0.00    -0.268 N 
ATOM     19  C   UNL     1       5.040   1.746  -1.834  1.00  0.00     0.293 C 
ATOM     20  C   UNL     1       6.142   0.074  -0.620  1.00  0.00     0.268 C 
ATOM     21  O   UNL     1       4.183   2.261  -2.529  1.00  0.00    -0.261 OA
ATOM     22  S   UNL     1       6.388   2.634  -1.160  1.00  0.00    -0.022 SA
ATOM     23  C   UNL     1       6.940   1.274  -0.263  1.00  0.00     0.083 C 
ATOM     24  O   UNL     1       6.399  -1.061  -0.246  1.00  0.00    -0.268 OA
ATOM     25  C   UNL     1       7.853   1.243   0.716  1.00  0.00     0.032 C 
BRANCH  25  26
ATOM     26  C   UNL     1       8.491   2.433   1.284  1.00  0.00     0.012 A 
ATOM     27  C   UNL     1       9.815   2.753   0.977  1.00  0.00     0.011 A 
ATOM     28  C   UNL     1       7.770   3.273   2.145  1.00  0.00     0.130 A 
ATOM     29  C   UNL     1      10.397   3.905   1.517  1.00  0.00     0.001 A 
ATOM     30  C   UNL     1       8.344   4.420   2.682  1.00  0.00     0.040 A 
ATOM     31  F   UNL     1       6.500   2.975   2.464  1.00  0.00    -0.206 F 
ATOM     32  C   UNL     1       9.662   4.738   2.364  1.00  0.00     0.003 A 
ENDBRANCH  25  26
ENDBRANCH  17  18
ENDBRANCH  16  17
ENDBRANCH  14  16
ENDBRANCH   7  12
BRANCH  11  33
ATOM     33  O   UNL     1       2.642   5.791   1.704  1.00  0.00    -0.507 OA
ATOM     34  H   UNL     1       2.336   6.519   2.208  1.00  0.00     0.293 HD
ENDBRANCH  11  33
ENDBRANCH   4   6
ENDBRANCH   3   4
ENDBRANCH   2   3
ENDBRANCH   1   2
BRANCH   1  35
ATOM     35  O   UNL     1      -2.551   6.225   3.157  1.00  0.00    -0.374 OA
BRANCH  35  36
ATOM     36  C   UNL     1      -2.218   5.343   2.085  1.00  0.00     0.202 C 
BRANCH  36  37
ATOM     37  C   UNL     1      -2.650   5.738   0.667  1.00  0.00     0.261 C 
BRANCH  37  38
ATOM     38  O   UNL     1      -1.961   6.905   0.188  1.00  0.00    -0.460 OA
BRANCH  38  39
ATOM     39  C   UNL     1      -2.728   8.022   0.120  1.00  0.00     0.338 C 
ATOM     40  O   UNL     1      -3.913   8.117   0.388  1.00  0.00    -0.246 OA
BRANCH  39  41
ATOM     41  C   UNL     1      -1.872   9.194  -0.146  1.00  0.00     0.060 A 
ATOM     42  C   UNL     1      -1.979  10.290   0.720  1.00  0.00     0.016 A 
ATOM     43  C   UNL     1      -1.038   9.247  -1.264  1.00  0.00     0.016 A 
ATOM     44  C   UNL     1      -1.292  11.469   0.440  1.00  0.00     0.010 A 
ATOM     45  C   UNL     1      -0.358  10.434  -1.548  1.00  0.00     0.010 A 
ATOM     46  C   UNL     1      -0.512  11.561  -0.719  1.00  0.00    -0.014 A 
BRANCH  46  47
ATOM     47  C   UNL     1       0.008  12.875  -1.165  1.00  0.00     0.031 A 
ATOM     48  C   UNL     1      -0.719  13.601  -2.264  1.00  0.00     0.074 A 
ATOM     49  C   UNL     1       1.099  13.417  -0.597  1.00  0.00     0.049 A 
ATOM     50  N   UNL     1      -0.377  14.685  -2.909  1.00  0.00    -0.248 NA
ATOM     51  C   UNL     1      -2.001  13.020  -2.696  1.00  0.00     0.031 C 
ATOM     52  C   UNL     1       1.844  12.843   0.523  1.00  0.00     0.029 A 
ATOM     53  N   UNL     1       1.776  14.572  -0.895  1.00  0.00    -0.354 N 
ATOM     54  C   UNL     1      -1.392  14.910  -3.832  1.00  0.00     0.074 A 
ATOM     55  C   UNL     1      -2.349  13.836  -3.680  1.00  0.00     0.031 C 
ATOM     56  C   UNL     1       2.882  13.646   0.811  1.00  0.00     0.029 A 
ATOM     57  C   UNL     1       2.905  14.761  -0.133  1.00  0.00     0.049 A 
ATOM     58  H   UNL     1       1.482  15.206  -1.589  1.00  0.00     0.167 HD
ATOM     59  C   UNL     1      -1.513  15.924  -4.722  1.00  0.00     0.034 A 
ATOM     60  C   UNL     1       3.863  15.705  -0.213  1.00  0.00     0.034 A 
ATOM     61  C   UNL     1      -0.552  16.989  -4.859  1.00  0.00     0.049 A 
ATOM     62  C   UNL     1       3.758  16.770  -1.276  1.00  0.00     0.074 A 
ATOM     63  C   UNL     1      -0.582  18.067  -5.727  1.00  0.00     0.029 A 
ATOM     64  N   UNL     1       0.611  17.112  -4.113  1.00  0.00    -0.354 N 
ATOM     65  N   UNL     1       2.821  16.947  -2.178  1.00  0.00    -0.248 NA
ATOM     66  C   UNL     1       4.845  17.756  -1.336  1.00  0.00     0.031 C 
ATOM     67  C   UNL     1       0.593  18.803  -5.550  1.00  0.00     0.029 A 
ATOM     68  C   UNL     1       1.323  18.228  -4.522  1.00  0.00     0.049 A 
ATOM     69  H   UNL     1       0.890  16.495  -3.398  1.00  0.00     0.167 HD
ATOM     70  C   UNL     1       3.199  18.074  -2.903  1.00  0.00     0.074 A 
ATOM     71  C   UNL     1       4.441  18.543  -2.323  1.00  0.00     0.031 C 
ATOM     72  C   UNL     1       2.574  18.669  -3.951  1.00  0.00     0.034 A 
BRANCH  59  73
ATOM     73  C   UNL     1      -2.702  15.905  -5.646  1.00  0.00     0.023 A 
ATOM     74  C   UNL     1      -4.008  16.122  -5.176  1.00  0.00     0.031 A 
ATOM     75  C   UNL     1      -2.520  15.685  -7.023  1.00  0.00     0.131 A 
ATOM     76  C   UNL     1      -5.087  16.078  -6.072  1.00  0.00     0.055 A 
ATOM     77  C   UNL     1      -3.591  15.704  -7.918  1.00  0.00     0.041 A 
ATOM     78  F   UNL     1      -1.296  15.451  -7.521  1.00  0.00    -0.206 F 
ATOM     79  C   UNL     1      -4.885  15.895  -7.442  1.00  0.00     0.022 A 
BRANCH  76  80
ATOM     80  S   UNL     1      -6.772  16.192  -5.412  1.00  0.00     0.124 S 
ATOM     81  O   UNL     1      -6.859  14.972  -4.613  1.00  0.00    -0.237 OA
ATOM     82  O   UNL     1      -6.737  17.444  -4.665  1.00  0.00    -0.237 OA
ATOM     83  O   UNL     1      -7.609  16.206  -6.610  1.00  0.00    -0.744 OA
ENDBRANCH  76  80
ENDBRANCH  59  73
BRANCH  60  84
ATOM     84  C   UNL     1       5.031  15.662   0.708  1.00  0.00     0.023 A 
ATOM     85  C   UNL     1       5.217  16.649   1.687  1.00  0.00     0.031 A 
ATOM     86  C   UNL     1       5.986  14.633   0.614  1.00  0.00     0.131 A 
ATOM     87  C   UNL     1       6.344  16.600   2.522  1.00  0.00     0.055 A 
ATOM     88  C   UNL     1       7.084  14.566   1.473  1.00  0.00     0.041 A 
ATOM     89  F   UNL     1       5.851  13.663  -0.305  1.00  0.00    -0.206 F 
ATOM     90  C   UNL     1       7.270  15.558   2.431  1.00  0.00     0.022 A 
BRANCH  87  91
ATOM     91  S   UNL     1       6.598  17.936   3.722  1.00  0.00     0.124 S 
ATOM     92  O   UNL     1       6.816  19.082   2.848  1.00  0.00    -0.237 OA
ATOM     93  O   UNL     1       5.341  17.923   4.463  1.00  0.00    -0.237 OA
ATOM     94  O   UNL     1       7.767  17.494   4.480  1.00  0.00    -0.744 OA
ENDBRANCH  87  91
ENDBRANCH  60  84
BRANCH  72  95
ATOM     95  C   UNL     1       3.217  19.904  -4.528  1.00  0.00     0.023 A 
ATOM     96  C   UNL     1       4.433  19.838  -5.229  1.00  0.00     0.031 A 
ATOM     97  C   UNL     1       2.597  21.159  -4.391  1.00  0.00     0.131 A 
ATOM     98  C   UNL     1       5.015  21.013  -5.729  1.00  0.00     0.055 A 
ATOM     99  C   UNL     1       3.152  22.316  -4.939  1.00  0.00     0.041 A 
ATOM    100  F   UNL     1       1.434  21.278  -3.732  1.00  0.00    -0.206 F 
ATOM    101  C   UNL     1       4.373  22.248  -5.604  1.00  0.00     0.022 A 
BRANCH  98 102
ATOM    102  S   UNL     1       6.659  20.916  -6.487  1.00  0.00     0.124 S 
ATOM    103  O   UNL     1       7.476  20.439  -5.376  1.00  0.00    -0.237 OA
ATOM    104  O   UNL     1       6.448  19.967  -7.576  1.00  0.00    -0.237 OA
ATOM    105  O   UNL     1       6.925  22.290  -6.907  1.00  0.00    -0.744 OA
ENDBRANCH  98 102
ENDBRANCH  72  95
ENDBRANCH  46  47
ENDBRANCH  39  41
ENDBRANCH  38  39
ENDBRANCH  37  38
ENDBRANCH  36  37
ENDBRANCH  35  36
ENDBRANCH   1  35
TORSDOF 23
