REMARK SMILES O=C(OCCOCCOC(=O)C1CCN(c2ccc(C(F)(F)F)cc2[N+](=O)[O-])CC1)c1ccc(-c2c3nc(c(-c4cc(S(=O)(=O)[O-])ccc4F)c4ccc([nH]4)c(-c4cc(S(=O)(=O)[O-])ccc4F)c4nc(c(-c5cc(S(=O)(=O)[O-])ccc5F)c5ccc2[nH]5)C=C4)C=C3)cc1
REMARK SMILES IDX 5 1 4 2 3 3 2 4 1 5 31 6 32 7 93 8 33 9 92 10 34 11 35 12
REMARK SMILES IDX 36 13 86 14 37 15 91 16 85 17 87 18 38 19 90 20 84 21 83 22
REMARK SMILES IDX 39 24 71 25 51 26 70 27 52 28 55 29 69 30 88 31 53 32 54 33
REMARK SMILES IDX 68 35 89 36 56 37 40 38 41 39 49 40 42 41 48 42 50 43 47 44
REMARK SMILES IDX 43 45 44 46 45 47 46 48 72 49 73 50 81 51 74 52 80 53 82 54
REMARK SMILES IDX 79 55 75 56 76 57 77 58 78 59 57 60 58 61 66 62 59 63 65 64
REMARK SMILES IDX 67 65 64 66 60 67 61 68 62 69 63 70 6 71 7 72 8 73 9 74
REMARK SMILES IDX 10 75 11 76 12 77 13 78 30 79 14 80 29 81 15 82 16 83 17 84
REMARK SMILES IDX 25 85 18 86 24 87 19 88 26 89 27 90 28 91 20 92 21 93 22 94
REMARK SMILES IDX 23 95
REMARK H PARENT 87 23 55 34
REMARK Flexibility Score: inf
ROOT
ATOM      1  C   UNL     1       4.540  -0.275   0.976  1.00  0.00     0.202 C 
ENDROOT
BRANCH   1   2
ATOM      2  C   UNL     1       4.054   0.710  -0.105  1.00  0.00     0.261 C 
BRANCH   2   3
ATOM      3  O   UNL     1       2.612   0.814  -0.191  1.00  0.00    -0.460 OA
BRANCH   3   4
ATOM      4  C   UNL     1       1.864   0.310  -1.215  1.00  0.00     0.338 C 
ATOM      5  O   UNL     1       0.679   0.607  -1.349  1.00  0.00    -0.246 OA
BRANCH   4   6
ATOM      6  C   UNL     1       2.520  -0.613  -2.162  1.00  0.00     0.060 A 
ATOM      7  C   UNL     1       3.339  -1.603  -1.652  1.00  0.00     0.016 A 
ATOM      8  C   UNL     1       2.368  -0.520  -3.539  1.00  0.00     0.016 A 
ATOM      9  C   UNL     1       4.263  -2.243  -2.422  1.00  0.00     0.010 A 
ATOM     10  C   UNL     1       3.095  -1.399  -4.354  1.00  0.00     0.010 A 
ATOM     11  C   UNL     1       4.059  -2.253  -3.785  1.00  0.00    -0.014 A 
BRANCH  11  12
ATOM     12  C   UNL     1       4.857  -3.230  -4.540  1.00  0.00     0.031 A 
ATOM     13  C   UNL     1       5.797  -2.727  -5.577  1.00  0.00     0.074 A 
ATOM     14  C   UNL     1       4.791  -4.532  -4.184  1.00  0.00     0.049 A 
ATOM     15  N   UNL     1       6.439  -3.398  -6.486  1.00  0.00    -0.248 NA
ATOM     16  C   UNL     1       6.043  -1.274  -5.602  1.00  0.00     0.031 C 
ATOM     17  C   UNL     1       4.007  -5.072  -3.057  1.00  0.00     0.029 A 
ATOM     18  N   UNL     1       5.409  -5.641  -4.693  1.00  0.00    -0.354 N 
ATOM     19  C   UNL     1       7.102  -2.447  -7.247  1.00  0.00     0.074 A 
ATOM     20  C   UNL     1       6.813  -1.153  -6.673  1.00  0.00     0.031 C 
ATOM     21  C   UNL     1       4.234  -6.385  -2.938  1.00  0.00     0.029 A 
ATOM     22  C   UNL     1       5.027  -6.812  -4.074  1.00  0.00     0.049 A 
ATOM     23  H   UNL     1       6.063  -5.606  -5.428  1.00  0.00     0.167 HD
ATOM     24  C   UNL     1       7.848  -2.669  -8.352  1.00  0.00     0.034 A 
ATOM     25  C   UNL     1       5.206  -8.090  -4.452  1.00  0.00     0.034 A 
ATOM     26  C   UNL     1       8.103  -3.997  -8.848  1.00  0.00     0.049 A 
ATOM     27  C   UNL     1       5.949  -8.299  -5.744  1.00  0.00     0.074 A 
ATOM     28  C   UNL     1       8.816  -4.379  -9.966  1.00  0.00     0.029 A 
ATOM     29  N   UNL     1       7.638  -5.164  -8.247  1.00  0.00    -0.354 N 
ATOM     30  N   UNL     1       6.513  -7.397  -6.519  1.00  0.00    -0.248 NA
ATOM     31  C   UNL     1       6.057  -9.674  -6.233  1.00  0.00     0.031 C 
ATOM     32  C   UNL     1       8.713  -5.769 -10.085  1.00  0.00     0.029 A 
ATOM     33  C   UNL     1       8.007  -6.264  -8.997  1.00  0.00     0.049 A 
ATOM     34  H   UNL     1       7.122  -5.200  -7.409  1.00  0.00     0.167 HD
ATOM     35  C   UNL     1       7.048  -8.100  -7.588  1.00  0.00     0.074 A 
ATOM     36  C   UNL     1       6.771  -9.502  -7.335  1.00  0.00     0.031 C 
ATOM     37  C   UNL     1       7.698  -7.641  -8.688  1.00  0.00     0.034 A 
BRANCH  24  38
ATOM     38  C   UNL     1       8.299  -1.470  -9.138  1.00  0.00     0.023 A 
ATOM     39  C   UNL     1       9.227  -0.539  -8.642  1.00  0.00     0.031 A 
ATOM     40  C   UNL     1       7.734  -1.228 -10.404  1.00  0.00     0.131 A 
ATOM     41  C   UNL     1       9.521   0.615  -9.386  1.00  0.00     0.055 A 
ATOM     42  C   UNL     1       8.084  -0.117 -11.170  1.00  0.00     0.041 A 
ATOM     43  F   UNL     1       6.809  -2.061 -10.908  1.00  0.00    -0.206 F 
ATOM     44  C   UNL     1       8.977   0.819 -10.657  1.00  0.00     0.022 A 
BRANCH  41  45
ATOM     45  S   UNL     1      10.535   1.912  -8.623  1.00  0.00     0.124 S 
ATOM     46  O   UNL     1       9.696   2.317  -7.498  1.00  0.00    -0.237 OA
ATOM     47  O   UNL     1      11.760   1.198  -8.282  1.00  0.00    -0.237 OA
ATOM     48  O   UNL     1      10.670   2.910  -9.682  1.00  0.00    -0.744 OA
ENDBRANCH  41  45
ENDBRANCH  24  38
BRANCH  25  49
ATOM     49  C   UNL     1       4.563  -9.220  -3.715  1.00  0.00     0.023 A 
ATOM     50  C   UNL     1       5.320 -10.302  -3.242  1.00  0.00     0.031 A 
ATOM     51  C   UNL     1       3.164  -9.280  -3.538  1.00  0.00     0.131 A 
ATOM     52  C   UNL     1       4.676 -11.416  -2.678  1.00  0.00     0.055 A 
ATOM     53  C   UNL     1       2.537 -10.354  -2.904  1.00  0.00     0.041 A 
ATOM     54  F   UNL     1       2.375  -8.287  -3.980  1.00  0.00    -0.206 F 
ATOM     55  C   UNL     1       3.293 -11.442  -2.489  1.00  0.00     0.022 A 
BRANCH  52  56
ATOM     56  S   UNL     1       5.662 -12.899  -2.331  1.00  0.00     0.124 S 
ATOM     57  O   UNL     1       6.309 -13.130  -3.618  1.00  0.00    -0.237 OA
ATOM     58  O   UNL     1       6.527 -12.440  -1.250  1.00  0.00    -0.237 OA
ATOM     59  O   UNL     1       4.660 -13.892  -1.950  1.00  0.00    -0.744 OA
ENDBRANCH  52  56
ENDBRANCH  25  49
BRANCH  37  60
ATOM     60  C   UNL     1       8.166  -8.683  -9.662  1.00  0.00     0.023 A 
ATOM     61  C   UNL     1       7.254  -9.418 -10.435  1.00  0.00     0.031 A 
ATOM     62  C   UNL     1       9.539  -8.926  -9.826  1.00  0.00     0.131 A 
ATOM     63  C   UNL     1       7.728 -10.398 -11.315  1.00  0.00     0.055 A 
ATOM     64  C   UNL     1      10.007  -9.854 -10.753  1.00  0.00     0.041 A 
ATOM     65  F   UNL     1      10.445  -8.248  -9.102  1.00  0.00    -0.206 F 
ATOM     66  C   UNL     1       9.099 -10.603 -11.496  1.00  0.00     0.022 A 
BRANCH  63  67
ATOM     67  S   UNL     1       6.524 -11.451 -12.165  1.00  0.00     0.124 S 
ATOM     68  O   UNL     1       5.864 -12.118 -11.047  1.00  0.00    -0.237 OA
ATOM     69  O   UNL     1       5.716 -10.479 -12.895  1.00  0.00    -0.237 OA
ATOM     70  O   UNL     1       7.357 -12.314 -13.000  1.00  0.00    -0.744 OA
ENDBRANCH  63  67
ENDBRANCH  37  60
ENDBRANCH  11  12
ENDBRANCH   4   6
ENDBRANCH   3   4
ENDBRANCH   2   3
ENDBRANCH   1   2
BRANCH   1  71
ATOM     71  O   UNL     1       3.828  -1.482   1.214  1.00  0.00    -0.374 OA
BRANCH  71  72
ATOM     72  C   UNL     1       2.519  -1.367   1.772  1.00  0.00     0.202 C 
BRANCH  72  73
ATOM     73  C   UNL     1       2.484  -2.095   3.109  1.00  0.00     0.261 C 
BRANCH  73  74
ATOM     74  O   UNL     1       3.145  -1.256   4.074  1.00  0.00    -0.463 OA
BRANCH  74  75
ATOM     75  C   UNL     1       4.505  -1.340   4.090  1.00  0.00     0.309 C 
ATOM     76  O   UNL     1       5.154  -2.283   3.660  1.00  0.00    -0.252 OA
BRANCH  75  77
ATOM     77  C   UNL     1       5.109  -0.131   4.793  1.00  0.00     0.103 C 
ATOM     78  C   UNL     1       4.398   1.211   4.525  1.00  0.00     0.037 C 
ATOM     79  C   UNL     1       6.627  -0.055   4.585  1.00  0.00     0.037 C 
ATOM     80  C   UNL     1       4.986   2.149   3.469  1.00  0.00     0.117 C 
ATOM     81  C   UNL     1       7.038   0.684   3.318  1.00  0.00     0.117 C 
ATOM     82  N   UNL     1       6.432   2.010   3.319  1.00  0.00    -0.366 N 
BRANCH  82  83
ATOM     83  C   UNL     1       7.162   3.135   2.957  1.00  0.00     0.116 A 
ATOM     84  C   UNL     1       7.110   4.222   3.851  1.00  0.00     0.034 A 
ATOM     85  C   UNL     1       7.998   3.300   1.833  1.00  0.00     0.293 A 
ATOM     86  C   UNL     1       7.864   5.383   3.672  1.00  0.00     0.016 A 
ATOM     87  C   UNL     1       8.770   4.471   1.643  1.00  0.00     0.101 A 
ATOM     88  C   UNL     1       8.719   5.514   2.576  1.00  0.00     0.062 A 
BRANCH  85  89
ATOM     89  N   UNL     1       8.081   2.303   0.770  1.00  0.00     0.064 N 
ATOM     90  O   UNL     1       9.208   2.070   0.309  1.00  0.00    -0.258 OA
ATOM     91  O   UNL     1       7.029   1.792   0.364  1.00  0.00    -0.258 OA
ENDBRANCH  85  89
BRANCH  88  92
ATOM     92  C   UNL     1       9.568   6.753   2.444  1.00  0.00     0.416 C 
ATOM     93  F   UNL     1       8.819   7.887   2.363  1.00  0.00    -0.166 F 
ATOM     94  F   UNL     1      10.386   6.927   3.520  1.00  0.00    -0.166 F 
ATOM     95  F   UNL     1      10.378   6.754   1.353  1.00  0.00    -0.166 F 
ENDBRANCH  88  92
ENDBRANCH  82  83
ENDBRANCH  75  77
ENDBRANCH  74  75
ENDBRANCH  73  74
ENDBRANCH  72  73
ENDBRANCH  71  72
ENDBRANCH   1  71
TORSDOF 20
