REMARK SMILES COc1cccc(-c2ccc(C#N)c(SCC(=O)OCCOCCOC(=O)c3ccc(-c4c5nc(c(-c6cc(S(=O)(=O)[O-])ccc6F)c6ccc([nH]6)c(-c6cc(S(=O)(=O)[O-])ccc6F)c6nc(c(-c7cc(S(=O)(=O)[O-])ccc7F)c7ccc4[nH]7)C=C6)C=C5)cc3)n2)c1
REMARK SMILES IDX 21 1 20 2 19 3 17 4 18 5 16 6 15 7 14 8 8 9 9 10 91 11 10 12
REMARK SMILES IDX 11 13 7 14 3 15 4 16 92 17 5 18 6 19 2 20 1 21 12 22 13 23
REMARK SMILES IDX 22 24 23 25 24 26 25 27 26 28 27 29 28 30 29 31 90 32 30 33
REMARK SMILES IDX 89 34 31 35 32 36 33 37 83 38 34 39 88 40 82 41 84 42 35 43
REMARK SMILES IDX 87 44 81 45 80 46 36 48 68 49 48 50 67 51 49 52 52 53 66 54
REMARK SMILES IDX 85 55 50 56 51 57 65 59 86 60 53 61 37 62 38 63 46 64 39 65
REMARK SMILES IDX 45 66 47 67 44 68 40 69 41 70 42 71 43 72 69 73 70 74 78 75
REMARK SMILES IDX 71 76 77 77 79 78 76 79 72 80 73 81 74 82 75 83 54 84 55 85
REMARK SMILES IDX 63 86 56 87 62 88 64 89 61 90 57 91 58 92 59 93 60 94
REMARK H PARENT 84 47 52 58
REMARK Flexibility Score: inf
ROOT
ATOM      1  C   UNL     1       9.148  -0.733   4.493  1.00  0.00     0.202 C 
ENDROOT
BRANCH   1   2
ATOM      2  C   UNL     1       9.159  -0.029   5.858  1.00  0.00     0.261 C 
BRANCH   2   3
ATOM      3  O   UNL     1       8.198   1.043   6.021  1.00  0.00    -0.463 OA
BRANCH   3   4
ATOM      4  C   UNL     1       8.731   2.272   6.266  1.00  0.00     0.316 C 
ATOM      5  O   UNL     1       9.938   2.504   6.246  1.00  0.00    -0.251 OA
BRANCH   4   6
ATOM      6  C   UNL     1       7.754   3.350   6.682  1.00  0.00     0.199 C 
BRANCH   6   7
ATOM      7  S   UNL     1       6.006   3.207   6.221  1.00  0.00    -0.093 SA
BRANCH   7   8
ATOM      8  C   UNL     1       5.742   3.713   4.527  1.00  0.00     0.115 A 
ATOM      9  C   UNL     1       4.085   3.460   2.848  1.00  0.00     0.072 A 
ATOM     10  C   UNL     1       4.969   3.860   1.860  1.00  0.00     0.030 A 
ATOM     11  N   UNL     1       4.463   3.390   4.151  1.00  0.00    -0.240 NA
ATOM     12  C   UNL     1       6.236   4.287   2.241  1.00  0.00     0.024 A 
ATOM     13  C   UNL     1       6.628   4.251   3.593  1.00  0.00     0.084 A 
BRANCH   9  14
ATOM     14  C   UNL     1       2.671   3.203   2.529  1.00  0.00     0.004 A 
ATOM     15  C   UNL     1       0.951   2.109   1.184  1.00  0.00     0.119 A 
ATOM     16  C   UNL     1       0.006   3.022   1.654  1.00  0.00     0.046 A 
ATOM     17  C   UNL     1       2.278   2.196   1.621  1.00  0.00     0.056 A 
ATOM     18  C   UNL     1       0.365   3.991   2.587  1.00  0.00     0.005 A 
ATOM     19  C   UNL     1       1.687   4.075   3.025  1.00  0.00     0.010 A 
BRANCH  15  20
ATOM     20  O   UNL     1       0.483   1.249   0.228  1.00  0.00    -0.497 OA
ATOM     21  C   UNL     1       1.083  -0.042   0.185  1.00  0.00     0.278 C 
ENDBRANCH  15  20
ENDBRANCH   9  14
BRANCH  13  22
ATOM     22  C   UNL     1       7.932   4.734   3.882  1.00  0.00     0.102 C 
ATOM     23  N   UNL     1       9.009   5.145   4.054  1.00  0.00    -0.192 NA
ENDBRANCH  13  22
ENDBRANCH   7   8
ENDBRANCH   6   7
ENDBRANCH   4   6
ENDBRANCH   3   4
ENDBRANCH   2   3
ENDBRANCH   1   2
BRANCH   1  24
ATOM     24  O   UNL     1       9.332   0.038   3.310  1.00  0.00    -0.374 OA
BRANCH  24  25
ATOM     25  C   UNL     1       8.448   1.119   3.077  1.00  0.00     0.202 C 
BRANCH  25  26
ATOM     26  C   UNL     1       6.954   0.833   2.903  1.00  0.00     0.261 C 
BRANCH  26  27
ATOM     27  O   UNL     1       6.412  -0.169   3.746  1.00  0.00    -0.460 OA
BRANCH  27  28
ATOM     28  C   UNL     1       6.037  -1.274   3.068  1.00  0.00     0.338 C 
ATOM     29  O   UNL     1       6.102  -1.475   1.869  1.00  0.00    -0.246 OA
BRANCH  28  30
ATOM     30  C   UNL     1       5.660  -2.295   4.041  1.00  0.00     0.060 A 
ATOM     31  C   UNL     1       6.447  -3.448   4.083  1.00  0.00     0.016 A 
ATOM     32  C   UNL     1       4.508  -2.154   4.817  1.00  0.00     0.016 A 
ATOM     33  C   UNL     1       6.024  -4.522   4.844  1.00  0.00     0.010 A 
ATOM     34  C   UNL     1       4.086  -3.236   5.584  1.00  0.00     0.010 A 
ATOM     35  C   UNL     1       4.812  -4.439   5.543  1.00  0.00    -0.014 A 
BRANCH  35  36
ATOM     36  C   UNL     1       4.214  -5.696   6.035  1.00  0.00     0.031 A 
ATOM     37  C   UNL     1       3.113  -6.322   5.226  1.00  0.00     0.074 A 
ATOM     38  C   UNL     1       4.728  -6.302   7.116  1.00  0.00     0.049 A 
ATOM     39  N   UNL     1       2.462  -7.435   5.433  1.00  0.00    -0.248 NA
ATOM     40  C   UNL     1       2.687  -5.593   4.019  1.00  0.00     0.031 C 
ATOM     41  C   UNL     1       5.840  -5.788   7.918  1.00  0.00     0.029 A 
ATOM     42  N   UNL     1       4.398  -7.486   7.714  1.00  0.00    -0.354 N 
ATOM     43  C   UNL     1       1.548  -7.536   4.390  1.00  0.00     0.074 A 
ATOM     44  C   UNL     1       1.693  -6.348   3.580  1.00  0.00     0.031 C 
ATOM     45  C   UNL     1       6.107  -6.664   8.900  1.00  0.00     0.029 A 
ATOM     46  C   UNL     1       5.157  -7.770   8.823  1.00  0.00     0.049 A 
ATOM     47  H   UNL     1       3.685  -8.079   7.381  1.00  0.00     0.167 HD
ATOM     48  C   UNL     1       0.677  -8.541   4.130  1.00  0.00     0.034 A 
ATOM     49  C   UNL     1       5.071  -8.800   9.686  1.00  0.00     0.034 A 
ATOM     50  C   UNL     1       0.555  -9.709   4.967  1.00  0.00     0.049 A 
ATOM     51  C   UNL     1       4.033  -9.864   9.425  1.00  0.00     0.074 A 
ATOM     52  C   UNL     1      -0.288 -10.794   4.817  1.00  0.00     0.029 A 
ATOM     53  N   UNL     1       1.296  -9.937   6.123  1.00  0.00    -0.354 N 
ATOM     54  N   UNL     1       3.166  -9.950   8.440  1.00  0.00    -0.248 NA
ATOM     55  C   UNL     1       3.972 -10.974  10.380  1.00  0.00     0.031 C 
ATOM     56  C   UNL     1      -0.120 -11.632   5.924  1.00  0.00     0.029 A 
ATOM     57  C   UNL     1       0.903 -11.127   6.713  1.00  0.00     0.049 A 
ATOM     58  H   UNL     1       1.997  -9.339   6.470  1.00  0.00     0.167 HD
ATOM     59  C   UNL     1       2.483 -11.147   8.639  1.00  0.00     0.074 A 
ATOM     60  C   UNL     1       3.051 -11.750   9.828  1.00  0.00     0.031 C 
ATOM     61  C   UNL     1       1.484 -11.703   7.904  1.00  0.00     0.034 A 
BRANCH  48  62
ATOM     62  C   UNL     1      -0.241  -8.380   2.941  1.00  0.00     0.023 A 
ATOM     63  C   UNL     1       0.249  -8.273   1.627  1.00  0.00     0.031 A 
ATOM     64  C   UNL     1      -1.632  -8.291   3.130  1.00  0.00     0.131 A 
ATOM     65  C   UNL     1      -0.633  -8.008   0.568  1.00  0.00     0.055 A 
ATOM     66  C   UNL     1      -2.513  -8.118   2.061  1.00  0.00     0.041 A 
ATOM     67  F   UNL     1      -2.159  -8.352   4.363  1.00  0.00    -0.206 F 
ATOM     68  C   UNL     1      -2.014  -7.960   0.772  1.00  0.00     0.022 A 
BRANCH  65  69
ATOM     69  S   UNL     1       0.058  -7.568  -1.050  1.00  0.00     0.124 S 
ATOM     70  O   UNL     1       0.857  -6.390  -0.719  1.00  0.00    -0.237 OA
ATOM     71  O   UNL     1       0.806  -8.767  -1.411  1.00  0.00    -0.237 OA
ATOM     72  O   UNL     1      -1.124  -7.300  -1.867  1.00  0.00    -0.744 OA
ENDBRANCH  65  69
ENDBRANCH  48  62
BRANCH  49  73
ATOM     73  C   UNL     1       5.961  -8.860  10.879  1.00  0.00     0.023 A 
ATOM     74  C   UNL     1       6.857  -9.922  11.068  1.00  0.00     0.031 A 
ATOM     75  C   UNL     1       5.894  -7.870  11.877  1.00  0.00     0.131 A 
ATOM     76  C   UNL     1       7.611  -9.999  12.249  1.00  0.00     0.055 A 
ATOM     77  C   UNL     1       6.694  -7.916  13.020  1.00  0.00     0.041 A 
ATOM     78  F   UNL     1       5.053  -6.830  11.749  1.00  0.00    -0.206 F 
ATOM     79  C   UNL     1       7.548  -8.995  13.218  1.00  0.00     0.022 A 
BRANCH  76  80
ATOM     80  S   UNL     1       8.599 -11.489  12.550  1.00  0.00     0.124 S 
ATOM     81  O   UNL     1       7.587 -12.536  12.467  1.00  0.00    -0.237 OA
ATOM     82  O   UNL     1       9.563 -11.439  11.456  1.00  0.00    -0.237 OA
ATOM     83  O   UNL     1       9.157 -11.263  13.882  1.00  0.00    -0.744 OA
ENDBRANCH  76  80
ENDBRANCH  49  73
BRANCH  61  84
ATOM     84  C   UNL     1       0.992 -13.064   8.338  1.00  0.00     0.023 A 
ATOM     85  C   UNL     1       0.352 -13.266   9.572  1.00  0.00     0.031 A 
ATOM     86  C   UNL     1       1.182 -14.178   7.500  1.00  0.00     0.131 A 
ATOM     87  C   UNL     1      -0.011 -14.563   9.964  1.00  0.00     0.055 A 
ATOM     88  C   UNL     1       0.746 -15.453   7.862  1.00  0.00     0.041 A 
ATOM     89  F   UNL     1       1.792 -14.045   6.312  1.00  0.00    -0.206 F 
ATOM     90  C   UNL     1       0.161 -15.653   9.108  1.00  0.00     0.022 A 
BRANCH  87  91
ATOM     91  S   UNL     1      -0.596 -14.824  11.661  1.00  0.00     0.124 S 
ATOM     92  O   UNL     1       0.513 -14.296  12.447  1.00  0.00    -0.237 OA
ATOM     93  O   UNL     1      -1.828 -14.042  11.690  1.00  0.00    -0.237 OA
ATOM     94  O   UNL     1      -0.779 -16.272  11.740  1.00  0.00    -0.744 OA
ENDBRANCH  87  91
ENDBRANCH  61  84
ENDBRANCH  35  36
ENDBRANCH  28  30
ENDBRANCH  27  28
ENDBRANCH  26  27
ENDBRANCH  25  26
ENDBRANCH  24  25
ENDBRANCH   1  24
TORSDOF 22
