REMARK SMILES CC[C@H](C)[C@@H](C)NC(=O)N1CC[C@H](C(=O)OCCOCCOC(=O)c2ccc(-c3c4nc(c(-c5cc(S(=O)(=O)[O-])ccc5F)c5ccc([nH]5)c(-c5cc(S(=O)(=O)[O-])ccc5F)c5nc(c(-c6cc(S(=O)(=O)[O-])ccc6F)c6ccc3[nH]6)C=C5)C=C4)cc2)[C@@H]1C
REMARK SMILES IDX 18 1 17 2 16 3 14 4 15 5 13 6 10 7 11 8 88 9 12 10 89 11
REMARK SMILES IDX 8 12 7 13 9 15 5 16 6 17 3 18 4 19 2 20 1 21 19 22 20 23
REMARK SMILES IDX 21 24 22 25 23 26 24 27 25 28 26 29 87 30 27 31 86 32 28 33
REMARK SMILES IDX 29 34 30 35 80 36 31 37 85 38 79 39 81 40 32 41 84 42 78 43
REMARK SMILES IDX 77 44 33 46 65 47 45 48 64 49 46 50 49 51 63 52 82 53 47 54
REMARK SMILES IDX 48 55 62 57 83 58 50 59 34 60 35 61 43 62 36 63 42 64 44 65
REMARK SMILES IDX 41 66 37 67 38 68 39 69 40 70 66 71 67 72 75 73 68 74 74 75
REMARK SMILES IDX 76 76 73 77 69 78 70 79 71 80 72 81 51 82 52 83 60 84 53 85
REMARK SMILES IDX 59 86 61 87 58 88 54 89 55 90 56 91 57 92
REMARK H PARENT 7 14 81 45 49 56
REMARK Flexibility Score: inf
ROOT
ATOM      1  C   UNL     1      -7.179  -7.452   0.230  1.00  0.00     0.202 C 
ENDROOT
BRANCH   1   2
ATOM      2  C   UNL     1      -6.412  -7.566   1.551  1.00  0.00     0.261 C 
BRANCH   2   3
ATOM      3  O   UNL     1      -5.649  -6.375   1.785  1.00  0.00    -0.463 OA
BRANCH   3   4
ATOM      4  C   UNL     1      -4.337  -6.553   2.108  1.00  0.00     0.311 C 
ATOM      5  O   UNL     1      -3.832  -7.611   2.451  1.00  0.00    -0.252 OA
BRANCH   4   6
ATOM      6  C   UNL     1      -3.609  -5.234   1.951  1.00  0.00     0.123 C 
ATOM      7  N   UNL     1      -1.276  -5.087   2.451  1.00  0.00    -0.321 N 
ATOM      8  C   UNL     1      -2.013  -5.092   3.702  1.00  0.00     0.122 C 
ATOM      9  C   UNL     1      -2.196  -5.292   1.325  1.00  0.00     0.098 C 
ATOM     10  C   UNL     1      -3.389  -4.588   3.313  1.00  0.00     0.039 C 
ATOM     11  C   UNL     1      -1.866  -6.539   0.506  1.00  0.00     0.032 C 
BRANCH   7  12
ATOM     12  C   UNL     1       0.082  -5.093   2.492  1.00  0.00     0.317 C 
ATOM     13  N   UNL     1       0.827  -4.705   1.435  1.00  0.00    -0.335 N 
ATOM     14  H   UNL     1       1.717  -5.125   1.399  1.00  0.00     0.165 HD
ATOM     15  O   UNL     1       0.702  -5.415   3.509  1.00  0.00    -0.249 OA
BRANCH  13  16
ATOM     16  C   UNL     1       0.563  -3.779   0.334  1.00  0.00     0.083 C 
ATOM     17  C   UNL     1       1.286  -4.315  -0.907  1.00  0.00     0.031 C 
BRANCH  16  18
ATOM     18  C   UNL     1       0.997  -2.319   0.681  1.00  0.00     0.008 C 
ATOM     19  C   UNL     1       0.532  -1.329  -0.404  1.00  0.00     0.010 C 
BRANCH  18  20
ATOM     20  C   UNL     1       0.494  -1.866   2.075  1.00  0.00     0.002 C 
ATOM     21  C   UNL     1       0.852  -0.429   2.436  1.00  0.00     0.004 C 
ENDBRANCH  18  20
ENDBRANCH  16  18
ENDBRANCH  13  16
ENDBRANCH   7  12
ENDBRANCH   4   6
ENDBRANCH   3   4
ENDBRANCH   2   3
ENDBRANCH   1   2
BRANCH   1  22
ATOM     22  O   UNL     1      -6.391  -7.313  -0.954  1.00  0.00    -0.374 OA
BRANCH  22  23
ATOM     23  C   UNL     1      -5.699  -6.083  -1.164  1.00  0.00     0.202 C 
BRANCH  23  24
ATOM     24  C   UNL     1      -6.535  -4.825  -1.441  1.00  0.00     0.261 C 
BRANCH  24  25
ATOM     25  O   UNL     1      -7.355  -4.431  -0.327  1.00  0.00    -0.460 OA
BRANCH  25  26
ATOM     26  C   UNL     1      -8.687  -4.439  -0.576  1.00  0.00     0.338 C 
ATOM     27  O   UNL     1      -9.233  -4.701  -1.645  1.00  0.00    -0.246 OA
BRANCH  26  28
ATOM     28  C   UNL     1      -9.448  -4.253   0.668  1.00  0.00     0.060 A 
ATOM     29  C   UNL     1     -10.278  -5.299   1.091  1.00  0.00     0.016 A 
ATOM     30  C   UNL     1      -9.442  -3.032   1.346  1.00  0.00     0.016 A 
ATOM     31  C   UNL     1     -11.130  -5.118   2.178  1.00  0.00     0.010 A 
ATOM     32  C   UNL     1     -10.309  -2.848   2.429  1.00  0.00     0.010 A 
ATOM     33  C   UNL     1     -11.179  -3.880   2.830  1.00  0.00    -0.014 A 
BRANCH  33  34
ATOM     34  C   UNL     1     -12.250  -3.622   3.825  1.00  0.00     0.031 A 
ATOM     35  C   UNL     1     -13.490  -2.892   3.384  1.00  0.00     0.074 A 
ATOM     36  C   UNL     1     -12.137  -4.068   5.088  1.00  0.00     0.049 A 
ATOM     37  N   UNL     1     -14.533  -2.527   4.083  1.00  0.00    -0.248 NA
ATOM     38  C   UNL     1     -13.559  -2.523   1.961  1.00  0.00     0.031 C 
ATOM     39  C   UNL     1     -11.008  -4.835   5.614  1.00  0.00     0.029 A 
ATOM     40  N   UNL     1     -12.983  -3.939   6.161  1.00  0.00    -0.354 N 
ATOM     41  C   UNL     1     -15.385  -1.888   3.189  1.00  0.00     0.074 A 
ATOM     42  C   UNL     1     -14.717  -1.882   1.904  1.00  0.00     0.031 C 
ATOM     43  C   UNL     1     -11.227  -5.098   6.913  1.00  0.00     0.029 A 
ATOM     44  C   UNL     1     -12.491  -4.488   7.322  1.00  0.00     0.049 A 
ATOM     45  H   UNL     1     -13.860  -3.494   6.105  1.00  0.00     0.167 HD
ATOM     46  C   UNL     1     -16.614  -1.361   3.417  1.00  0.00     0.034 A 
ATOM     47  C   UNL     1     -12.992  -4.475   8.574  1.00  0.00     0.034 A 
ATOM     48  C   UNL     1     -17.260  -1.361   4.706  1.00  0.00     0.049 A 
ATOM     49  C   UNL     1     -14.320  -3.799   8.823  1.00  0.00     0.074 A 
ATOM     50  C   UNL     1     -18.502  -0.856   5.050  1.00  0.00     0.029 A 
ATOM     51  N   UNL     1     -16.710  -1.883   5.870  1.00  0.00    -0.354 N 
ATOM     52  N   UNL     1     -15.115  -3.196   7.968  1.00  0.00    -0.248 NA
ATOM     53  C   UNL     1     -14.821  -3.808  10.204  1.00  0.00     0.031 C 
ATOM     54  C   UNL     1     -18.674  -1.011   6.430  1.00  0.00     0.029 A 
ATOM     55  C   UNL     1     -17.573  -1.684   6.937  1.00  0.00     0.049 A 
ATOM     56  H   UNL     1     -15.835  -2.330   5.930  1.00  0.00     0.167 HD
ATOM     57  C   UNL     1     -16.225  -2.787   8.705  1.00  0.00     0.074 A 
ATOM     58  C   UNL     1     -16.001  -3.221  10.068  1.00  0.00     0.031 C 
ATOM     59  C   UNL     1     -17.332  -2.117   8.293  1.00  0.00     0.034 A 
BRANCH  46  60
ATOM     60  C   UNL     1     -17.309  -0.696   2.254  1.00  0.00     0.023 A 
ATOM     61  C   UNL     1     -17.721  -1.422   1.123  1.00  0.00     0.031 A 
ATOM     62  C   UNL     1     -17.539   0.692   2.266  1.00  0.00     0.131 A 
ATOM     63  C   UNL     1     -18.282  -0.750   0.026  1.00  0.00     0.055 A 
ATOM     64  C   UNL     1     -18.167   1.343   1.203  1.00  0.00     0.041 A 
ATOM     65  F   UNL     1     -17.146   1.440   3.309  1.00  0.00    -0.206 F 
ATOM     66  C   UNL     1     -18.530   0.624   0.068  1.00  0.00     0.022 A 
BRANCH  63  67
ATOM     67  S   UNL     1     -18.563  -1.675  -1.509  1.00  0.00     0.124 S 
ATOM     68  O   UNL     1     -17.213  -2.134  -1.827  1.00  0.00    -0.237 OA
ATOM     69  O   UNL     1     -19.506  -2.704  -1.089  1.00  0.00    -0.237 OA
ATOM     70  O   UNL     1     -19.102  -0.669  -2.422  1.00  0.00    -0.744 OA
ENDBRANCH  63  67
ENDBRANCH  46  60
BRANCH  47  71
ATOM     71  C   UNL     1     -12.227  -5.077   9.705  1.00  0.00     0.023 A 
ATOM     72  C   UNL     1     -12.740  -6.158  10.438  1.00  0.00     0.031 A 
ATOM     73  C   UNL     1     -10.997  -4.529  10.113  1.00  0.00     0.131 A 
ATOM     74  C   UNL     1     -12.054  -6.623  11.571  1.00  0.00     0.055 A 
ATOM     75  C   UNL     1     -10.291  -5.031  11.207  1.00  0.00     0.041 A 
ATOM     76  F   UNL     1     -10.461  -3.492   9.448  1.00  0.00    -0.206 F 
ATOM     77  C   UNL     1     -10.827  -6.076  11.953  1.00  0.00     0.022 A 
BRANCH  74  78
ATOM     78  S   UNL     1     -12.840  -7.893  12.601  1.00  0.00     0.124 S 
ATOM     79  O   UNL     1     -14.103  -7.253  12.950  1.00  0.00    -0.237 OA
ATOM     80  O   UNL     1     -12.925  -9.020  11.677  1.00  0.00    -0.237 OA
ATOM     81  O   UNL     1     -11.899  -8.065  13.706  1.00  0.00    -0.744 OA
ENDBRANCH  74  78
ENDBRANCH  47  71
BRANCH  59  82
ATOM     82  C   UNL     1     -18.405  -1.864   9.324  1.00  0.00     0.023 A 
ATOM     83  C   UNL     1     -18.203  -0.992  10.407  1.00  0.00     0.031 A 
ATOM     84  C   UNL     1     -19.648  -2.516   9.222  1.00  0.00     0.131 A 
ATOM     85  C   UNL     1     -19.208  -0.836  11.375  1.00  0.00     0.055 A 
ATOM     86  C   UNL     1     -20.664  -2.312  10.156  1.00  0.00     0.041 A 
ATOM     87  F   UNL     1     -19.895  -3.361   8.208  1.00  0.00    -0.206 F 
ATOM     88  C   UNL     1     -20.442  -1.478  11.247  1.00  0.00     0.022 A 
BRANCH  85  89
ATOM     89  S   UNL     1     -18.848   0.152  12.853  1.00  0.00     0.124 S 
ATOM     90  O   UNL     1     -17.696  -0.547  13.413  1.00  0.00    -0.237 OA
ATOM     91  O   UNL     1     -18.580   1.472  12.290  1.00  0.00    -0.237 OA
ATOM     92  O   UNL     1     -20.076   0.053  13.640  1.00  0.00    -0.744 OA
ENDBRANCH  85  89
ENDBRANCH  59  82
ENDBRANCH  33  34
ENDBRANCH  26  28
ENDBRANCH  25  26
ENDBRANCH  24  25
ENDBRANCH  23  24
ENDBRANCH  22  23
ENDBRANCH   1  22
TORSDOF 21
