REMARK SMILES CC(C)=C1[C@H]2CC[C@@H]1[C@H](C(=O)NNC(=O)c1ccoc1C)[C@H]2C(=O)OCCOCCOC(=O)c1ccc(-c2c3nc(c(-c4cc(S(=O)(=O)[O-])ccc4F)c4ccc([nH]4)c(-c4cc(S(=O)(=O)[O-])ccc4F)c4nc(c(-c5cc(S(=O)(=O)[O-])ccc5F)c5ccc2[nH]5)C=C4)C=C3)cc1
REMARK SMILES IDX 28 1 27 2 26 3 25 4 23 5 24 6 22 7 1 8 2 9 3 10 4 11 5 12
REMARK SMILES IDX 8 13 6 14 7 15 9 16 10 17 11 18 12 19 13 21 14 22 15 24
REMARK SMILES IDX 16 25 17 26 20 27 18 28 19 29 21 30 29 31 30 32 31 33 32 34
REMARK SMILES IDX 33 35 34 36 35 37 96 38 36 39 95 40 37 41 38 42 39 43 89 44
REMARK SMILES IDX 40 45 94 46 88 47 90 48 41 49 93 50 87 51 86 52 42 54 74 55
REMARK SMILES IDX 54 56 73 57 55 58 58 59 72 60 91 61 56 62 57 63 71 65 92 66
REMARK SMILES IDX 59 67 43 68 44 69 52 70 45 71 51 72 53 73 50 74 46 75 47 76
REMARK SMILES IDX 48 77 49 78 75 79 76 80 84 81 77 82 83 83 85 84 82 85 78 86
REMARK SMILES IDX 79 87 80 88 81 89 60 90 61 91 69 92 62 93 68 94 70 95 67 96
REMARK SMILES IDX 63 97 64 98 65 99 66 100
REMARK H PARENT 12 20 13 23 90 53 58 64
REMARK Flexibility Score: inf
ROOT
ATOM      1  O   UNL     1       2.719  -7.104   0.229  1.00  0.00    -0.374 OA
ENDROOT
BRANCH   1   2
ATOM      2  C   UNL     1       3.339  -6.121   1.056  1.00  0.00     0.202 C 
BRANCH   2   3
ATOM      3  C   UNL     1       3.918  -4.895   0.350  1.00  0.00     0.261 C 
BRANCH   3   4
ATOM      4  O   UNL     1       2.936  -4.237  -0.468  1.00  0.00    -0.463 OA
BRANCH   4   5
ATOM      5  C   UNL     1       3.213  -4.228  -1.789  1.00  0.00     0.310 C 
ATOM      6  O   UNL     1       4.270  -4.610  -2.285  1.00  0.00    -0.252 OA
BRANCH   5   7
ATOM      7  C   UNL     1       2.120  -3.663  -2.662  1.00  0.00     0.119 C 
ATOM      8  C   UNL     1       0.995   0.185  -0.292  1.00  0.00     0.039 C 
ATOM      9  C   UNL     1       0.702  -1.270  -0.510  1.00  0.00    -0.077 C 
ATOM     10  C   UNL     1       0.076  -2.016   0.637  1.00  0.00     0.039 C 
ATOM     11  C   UNL     1       0.942  -1.883  -1.680  1.00  0.00    -0.064 C 
ATOM     12  C   UNL     1       0.747  -3.323  -2.057  1.00  0.00     0.030 C 
ATOM     13  C   UNL     1       1.415  -1.374  -3.022  1.00  0.00     0.029 C 
ATOM     14  C   UNL     1      -0.260  -3.118  -3.204  1.00  0.00     0.009 C 
ATOM     15  C   UNL     1       0.166  -1.771  -3.822  1.00  0.00     0.009 C 
ATOM     16  C   UNL     1       2.622  -2.308  -3.221  1.00  0.00     0.102 C 
BRANCH  16  17
ATOM     17  C   UNL     1       3.121  -2.563  -4.636  1.00  0.00     0.243 C 
ATOM     18  O   UNL     1       2.368  -2.695  -5.600  1.00  0.00    -0.273 OA
ATOM     19  N   UNL     1       4.459  -2.810  -4.819  1.00  0.00    -0.267 N 
ATOM     20  H   UNL     1       4.730  -3.277  -5.642  1.00  0.00     0.191 HD
BRANCH  19  21
ATOM     21  N   UNL     1       5.461  -2.446  -3.922  1.00  0.00    -0.263 N 
ATOM     22  C   UNL     1       6.753  -2.113  -4.284  1.00  0.00     0.273 C 
ATOM     23  H   UNL     1       5.233  -2.426  -2.965  1.00  0.00     0.191 HD
ATOM     24  O   UNL     1       7.594  -1.909  -3.411  1.00  0.00    -0.267 OA
BRANCH  22  25
ATOM     25  C   UNL     1       7.122  -2.135  -5.691  1.00  0.00     0.082 A 
ATOM     26  C   UNL     1       8.299  -2.749  -6.219  1.00  0.00     0.056 A 
ATOM     27  C   UNL     1       6.480  -1.575  -6.786  1.00  0.00     0.113 A 
ATOM     28  C   UNL     1       8.249  -2.596  -7.581  1.00  0.00     0.196 A 
ATOM     29  O   UNL     1       7.150  -1.886  -7.934  1.00  0.00    -0.469 OA
ATOM     30  C   UNL     1       5.274  -0.740  -6.979  1.00  0.00     0.088 C 
ENDBRANCH  22  25
ENDBRANCH  19  21
ENDBRANCH  16  17
ENDBRANCH   5   7
ENDBRANCH   4   5
ENDBRANCH   3   4
ENDBRANCH   2   3
ENDBRANCH   1   2
BRANCH   1  31
ATOM     31  C   UNL     1       1.427  -6.811  -0.305  1.00  0.00     0.202 C 
BRANCH  31  32
ATOM     32  C   UNL     1       0.249  -6.726   0.675  1.00  0.00     0.261 C 
BRANCH  32  33
ATOM     33  O   UNL     1       0.360  -5.623   1.594  1.00  0.00    -0.460 OA
BRANCH  33  34
ATOM     34  C   UNL     1       0.454  -5.987   2.897  1.00  0.00     0.338 C 
ATOM     35  O   UNL     1       0.378  -7.126   3.345  1.00  0.00    -0.246 OA
BRANCH  34  36
ATOM     36  C   UNL     1       0.872  -4.845   3.731  1.00  0.00     0.060 A 
ATOM     37  C   UNL     1       2.018  -5.011   4.519  1.00  0.00     0.016 A 
ATOM     38  C   UNL     1       0.117  -3.673   3.820  1.00  0.00     0.016 A 
ATOM     39  C   UNL     1       2.380  -4.033   5.441  1.00  0.00     0.010 A 
ATOM     40  C   UNL     1       0.486  -2.688   4.745  1.00  0.00     0.010 A 
ATOM     41  C   UNL     1       1.591  -2.885   5.594  1.00  0.00    -0.014 A 
BRANCH  41  42
ATOM     42  C   UNL     1       1.829  -2.010   6.772  1.00  0.00     0.031 A 
ATOM     43  C   UNL     1       0.937  -2.156   7.977  1.00  0.00     0.074 A 
ATOM     44  C   UNL     1       2.871  -1.160   6.803  1.00  0.00     0.049 A 
ATOM     45  N   UNL     1       0.994  -1.549   9.135  1.00  0.00    -0.248 NA
ATOM     46  C   UNL     1      -0.172  -3.114   7.856  1.00  0.00     0.031 C 
ATOM     47  C   UNL     1       3.822  -0.951   5.712  1.00  0.00     0.029 A 
ATOM     48  N   UNL     1       3.310  -0.321   7.797  1.00  0.00    -0.354 N 
ATOM     49  C   UNL     1      -0.068  -2.051   9.880  1.00  0.00     0.074 A 
ATOM     50  C   UNL     1      -0.781  -2.974   9.023  1.00  0.00     0.031 C 
ATOM     51  C   UNL     1       4.736  -0.043   6.098  1.00  0.00     0.029 A 
ATOM     52  C   UNL     1       4.422   0.411   7.452  1.00  0.00     0.049 A 
ATOM     53  H   UNL     1       2.869  -0.249   8.674  1.00  0.00     0.167 HD
ATOM     54  C   UNL     1      -0.409  -1.782  11.165  1.00  0.00     0.034 A 
ATOM     55  C   UNL     1       5.104   1.344   8.147  1.00  0.00     0.034 A 
ATOM     56  C   UNL     1       0.305  -0.855  12.009  1.00  0.00     0.049 A 
ATOM     57  C   UNL     1       4.674   1.669   9.557  1.00  0.00     0.074 A 
ATOM     58  C   UNL     1       0.058  -0.523  13.330  1.00  0.00     0.029 A 
ATOM     59  N   UNL     1       1.402  -0.101  11.612  1.00  0.00    -0.354 N 
ATOM     60  N   UNL     1       3.683   1.167  10.258  1.00  0.00    -0.248 NA
ATOM     61  C   UNL     1       5.470   2.674  10.274  1.00  0.00     0.031 C 
ATOM     62  C   UNL     1       0.958   0.481  13.708  1.00  0.00     0.029 A 
ATOM     63  C   UNL     1       1.820   0.720  12.650  1.00  0.00     0.049 A 
ATOM     64  H   UNL     1       1.822  -0.142  10.722  1.00  0.00     0.167 HD
ATOM     65  C   UNL     1       3.753   1.779  11.508  1.00  0.00     0.074 A 
ATOM     66  C   UNL     1       4.897   2.667  11.469  1.00  0.00     0.031 C 
ATOM     67  C   UNL     1       2.949   1.621  12.592  1.00  0.00     0.034 A 
BRANCH  54  68
ATOM     68  C   UNL     1      -1.643  -2.466  11.708  1.00  0.00     0.023 A 
ATOM     69  C   UNL     1      -1.719  -3.864  11.844  1.00  0.00     0.031 A 
ATOM     70  C   UNL     1      -2.778  -1.711  12.051  1.00  0.00     0.131 A 
ATOM     71  C   UNL     1      -2.926  -4.466  12.231  1.00  0.00     0.055 A 
ATOM     72  C   UNL     1      -3.951  -2.311  12.515  1.00  0.00     0.041 A 
ATOM     73  F   UNL     1      -2.775  -0.375  11.920  1.00  0.00    -0.206 F 
ATOM     74  C   UNL     1      -4.035  -3.698  12.591  1.00  0.00     0.022 A 
BRANCH  71  75
ATOM     75  S   UNL     1      -3.075  -6.270  12.107  1.00  0.00     0.124 S 
ATOM     76  O   UNL     1      -2.785  -6.494  10.693  1.00  0.00    -0.237 OA
ATOM     77  O   UNL     1      -2.065  -6.736  13.049  1.00  0.00    -0.237 OA
ATOM     78  O   UNL     1      -4.460  -6.527  12.498  1.00  0.00    -0.744 OA
ENDBRANCH  71  75
ENDBRANCH  54  68
BRANCH  55  79
ATOM     79  C   UNL     1       6.247   2.067   7.517  1.00  0.00     0.023 A 
ATOM     80  C   UNL     1       7.555   1.940   8.010  1.00  0.00     0.031 A 
ATOM     81  C   UNL     1       6.030   2.942   6.437  1.00  0.00     0.131 A 
ATOM     82  C   UNL     1       8.589   2.710   7.453  1.00  0.00     0.055 A 
ATOM     83  C   UNL     1       7.070   3.667   5.855  1.00  0.00     0.041 A 
ATOM     84  F   UNL     1       4.798   3.098   5.927  1.00  0.00    -0.206 F 
ATOM     85  C   UNL     1       8.357   3.563   6.372  1.00  0.00     0.022 A 
BRANCH  82  86
ATOM     86  S   UNL     1      10.234   2.638   8.214  1.00  0.00     0.124 S 
ATOM     87  O   UNL     1       9.953   3.080   9.575  1.00  0.00    -0.237 OA
ATOM     88  O   UNL     1      10.579   1.229   8.055  1.00  0.00    -0.237 OA
ATOM     89  O   UNL     1      11.024   3.565   7.406  1.00  0.00    -0.744 OA
ENDBRANCH  82  86
ENDBRANCH  55  79
BRANCH  67  90
ATOM     90  C   UNL     1       3.308   2.408  13.831  1.00  0.00     0.023 A 
ATOM     91  C   UNL     1       3.255   3.813  13.856  1.00  0.00     0.031 A 
ATOM     92  C   UNL     1       3.742   1.744  14.993  1.00  0.00     0.131 A 
ATOM     93  C   UNL     1       3.697   4.511  14.990  1.00  0.00     0.055 A 
ATOM     94  C   UNL     1       4.118   2.442  16.142  1.00  0.00     0.041 A 
ATOM     95  F   UNL     1       3.814   0.404  15.028  1.00  0.00    -0.206 F 
ATOM     96  C   UNL     1       4.114   3.834  16.139  1.00  0.00     0.022 A 
BRANCH  93  97
ATOM     97  S   UNL     1       3.837   6.318  14.902  1.00  0.00     0.124 S 
ATOM     98  O   UNL     1       4.702   6.499  13.740  1.00  0.00    -0.237 OA
ATOM     99  O   UNL     1       2.448   6.729  14.733  1.00  0.00    -0.237 OA
ATOM    100  O   UNL     1       4.439   6.678  16.184  1.00  0.00    -0.744 OA
ENDBRANCH  93  97
ENDBRANCH  67  90
ENDBRANCH  41  42
ENDBRANCH  34  36
ENDBRANCH  33  34
ENDBRANCH  32  33
ENDBRANCH  31  32
ENDBRANCH   1  31
TORSDOF 20
