REMARK SMILES CO[C@@H]1C[NH2+][C@@H](O[C@@H]2C[C@@H](C(=O)OCCOCCOC(=O)c3ccc(-c4c5nc(c(-c6cc(S(=O)(=O)[O-])ccc6F)c6ccc([nH]6)c(-c6cc(S(=O)(=O)[O-])ccc6F)c6nc(c(-c7cc(S(=O)(=O)[O-])ccc7F)c7ccc4[nH]7)C=C6)C=C5)cc3)N(C(=O)OC(C)(C)C)C2)c2cc(Cl)ccc21
REMARK SMILES IDX 16 1 15 2 14 3 13 4 11 5 12 6 10 7 8 8 9 9 93 10 85 11 7 12
REMARK SMILES IDX 6 13 3 14 4 15 100 16 5 17 94 18 99 19 95 22 98 23 96 24
REMARK SMILES IDX 97 25 2 26 1 27 86 28 87 29 88 30 89 31 90 32 91 33 92 34
REMARK SMILES IDX 17 35 18 36 19 37 20 38 21 39 22 40 23 41 84 42 24 43 83 44
REMARK SMILES IDX 25 45 26 46 27 47 77 48 28 49 82 50 76 51 78 52 29 53 81 54
REMARK SMILES IDX 75 55 74 56 30 58 62 59 42 60 61 61 43 62 46 63 60 64 79 65
REMARK SMILES IDX 44 66 45 67 59 69 80 70 47 71 31 72 32 73 40 74 33 75 39 76
REMARK SMILES IDX 41 77 38 78 34 79 35 80 36 81 37 82 63 83 64 84 72 85 65 86
REMARK SMILES IDX 71 87 73 88 70 89 66 90 67 91 68 92 69 93 48 94 49 95 57 96
REMARK SMILES IDX 50 97 56 98 58 99 55 100 51 101 52 102 53 103 54 104
REMARK H PARENT 5 20 5 21 78 57 46 68
REMARK Flexibility Score: inf
ROOT
ATOM      1  O   UNL     1      -1.698   1.108  -6.096  1.00  0.00    -0.374 OA
ENDROOT
BRANCH   1   2
ATOM      2  C   UNL     1      -2.397   2.239  -5.591  1.00  0.00     0.202 C 
BRANCH   2   3
ATOM      3  C   UNL     1      -1.928   3.149  -4.441  1.00  0.00     0.261 C 
BRANCH   3   4
ATOM      4  O   UNL     1      -0.537   3.087  -4.136  1.00  0.00    -0.462 OA
BRANCH   4   5
ATOM      5  C   UNL     1      -0.278   2.295  -3.067  1.00  0.00     0.329 C 
ATOM      6  O   UNL     1      -1.139   1.768  -2.368  1.00  0.00    -0.250 OA
BRANCH   5   7
ATOM      7  C   UNL     1       1.206   2.002  -2.884  1.00  0.00     0.201 C 
ATOM      8  C   UNL     1       3.508   2.483  -2.739  1.00  0.00     0.147 C 
ATOM      9  C   UNL     1       2.170   3.168  -3.031  1.00  0.00     0.071 C 
ATOM     10  C   UNL     1       3.353   1.108  -3.421  1.00  0.00     0.156 C 
ATOM     11  N   UNL     1       1.917   0.858  -3.458  1.00  0.00    -0.292 N 
BRANCH   8  12
ATOM     12  O   UNL     1       3.989   2.490  -1.394  1.00  0.00    -0.320 OA
BRANCH  12  13
ATOM     13  C   UNL     1       3.357   2.100  -0.173  1.00  0.00     0.354 C 
ATOM     14  C   UNL     1       0.939   0.388   0.148  1.00  0.00     0.203 C 
ATOM     15  C   UNL     1       2.364  -0.155  -0.176  1.00  0.00     0.300 C 
ATOM     16  C   UNL     1       0.877   1.893   0.420  1.00  0.00    -0.002 A 
ATOM     17  N   UNL     1       3.508   0.692   0.153  1.00  0.00    -0.315 N 
ATOM     18  C   UNL     1       2.021   2.705   0.216  1.00  0.00     0.046 A 
ATOM     19  C   UNL     1      -0.367   2.513   0.635  1.00  0.00     0.009 A 
ATOM     20  H   UNL     1       4.318   0.337  -0.355  1.00  0.00     0.349 HD
ATOM     21  H   UNL     1       3.607   0.648   1.167  1.00  0.00     0.349 HD
ATOM     22  C   UNL     1       1.904   4.104   0.321  1.00  0.00     0.033 A 
ATOM     23  C   UNL     1      -0.476   3.906   0.677  1.00  0.00     0.021 A 
ATOM     24  C   UNL     1       0.661   4.694   0.537  1.00  0.00     0.041 A 
ATOM     25  Cl  UNL     1       0.529   6.409   0.569  1.00  0.00    -0.084 Cl
BRANCH  14  26
ATOM     26  O   UNL     1       0.156  -0.416   1.030  1.00  0.00    -0.371 OA
ATOM     27  C   UNL     1       0.712  -0.673   2.300  1.00  0.00     0.196 C 
ENDBRANCH  14  26
ENDBRANCH  12  13
ENDBRANCH   8  12
BRANCH  11  28
ATOM     28  C   UNL     1       1.426  -0.429  -3.586  1.00  0.00     0.411 C 
ATOM     29  O   UNL     1       2.125  -1.390  -3.876  1.00  0.00    -0.224 OA
BRANCH  28  30
ATOM     30  O   UNL     1       0.096  -0.479  -3.364  1.00  0.00    -0.444 OA
BRANCH  30  31
ATOM     31  C   UNL     1      -0.716  -1.678  -3.479  1.00  0.00     0.106 C 
ATOM     32  C   UNL     1      -0.699  -2.271  -4.891  1.00  0.00     0.056 C 
ATOM     33  C   UNL     1      -0.299  -2.719  -2.439  1.00  0.00     0.056 C 
ATOM     34  C   UNL     1      -2.149  -1.212  -3.169  1.00  0.00     0.056 C 
ENDBRANCH  30  31
ENDBRANCH  28  30
ENDBRANCH  11  28
ENDBRANCH   5   7
ENDBRANCH   4   5
ENDBRANCH   3   4
ENDBRANCH   2   3
ENDBRANCH   1   2
BRANCH   1  35
ATOM     35  C   UNL     1      -0.288   1.027  -6.117  1.00  0.00     0.202 C 
BRANCH  35  36
ATOM     36  C   UNL     1       0.589   1.902  -7.004  1.00  0.00     0.261 C 
BRANCH  36  37
ATOM     37  O   UNL     1       0.065   3.197  -7.207  1.00  0.00    -0.460 OA
BRANCH  37  38
ATOM     38  C   UNL     1      -0.772   3.265  -8.270  1.00  0.00     0.338 C 
ATOM     39  O   UNL     1      -1.026   2.388  -9.077  1.00  0.00    -0.246 OA
BRANCH  38  40
ATOM     40  C   UNL     1      -1.504   4.526  -8.130  1.00  0.00     0.060 A 
ATOM     41  C   UNL     1      -0.837   5.697  -7.755  1.00  0.00     0.016 A 
ATOM     42  C   UNL     1      -2.895   4.485  -8.274  1.00  0.00     0.016 A 
ATOM     43  C   UNL     1      -1.574   6.852  -7.549  1.00  0.00     0.010 A 
ATOM     44  C   UNL     1      -3.635   5.628  -8.033  1.00  0.00     0.010 A 
ATOM     45  C   UNL     1      -2.968   6.819  -7.717  1.00  0.00    -0.014 A 
BRANCH  45  46
ATOM     46  C   UNL     1      -3.699   8.083  -7.873  1.00  0.00     0.031 A 
ATOM     47  C   UNL     1      -4.480   8.678  -6.758  1.00  0.00     0.074 A 
ATOM     48  C   UNL     1      -3.649   8.627  -9.102  1.00  0.00     0.049 A 
ATOM     49  N   UNL     1      -5.124   9.810  -6.741  1.00  0.00    -0.248 NA
ATOM     50  C   UNL     1      -4.559   7.911  -5.505  1.00  0.00     0.031 C 
ATOM     51  C   UNL     1      -2.927   8.040 -10.237  1.00  0.00     0.029 A 
ATOM     52  N   UNL     1      -4.205   9.763  -9.612  1.00  0.00    -0.354 N 
ATOM     53  C   UNL     1      -5.672   9.912  -5.471  1.00  0.00     0.074 A 
ATOM     54  C   UNL     1      -5.322   8.701  -4.759  1.00  0.00     0.031 C 
ATOM     55  C   UNL     1      -3.074   8.829 -11.307  1.00  0.00     0.029 A 
ATOM     56  C   UNL     1      -3.919   9.958 -10.942  1.00  0.00     0.049 A 
ATOM     57  H   UNL     1      -4.757  10.382  -9.081  1.00  0.00     0.167 HD
ATOM     58  C   UNL     1      -6.387  10.944  -4.966  1.00  0.00     0.034 A 
ATOM     59  C   UNL     1      -4.295  10.947 -11.773  1.00  0.00     0.034 A 
ATOM     60  C   UNL     1      -6.733  12.108  -5.745  1.00  0.00     0.049 A 
ATOM     61  C   UNL     1      -5.095  12.073 -11.184  1.00  0.00     0.074 A 
ATOM     62  C   UNL     1      -7.429  13.232  -5.340  1.00  0.00     0.029 A 
ATOM     63  N   UNL     1      -6.421  12.294  -7.088  1.00  0.00    -0.354 N 
ATOM     64  N   UNL     1      -5.520  12.217  -9.949  1.00  0.00    -0.248 NA
ATOM     65  C   UNL     1      -5.449  13.180 -12.076  1.00  0.00     0.031 C 
ATOM     66  C   UNL     1      -7.601  14.058  -6.451  1.00  0.00     0.029 A 
ATOM     67  C   UNL     1      -6.937  13.499  -7.533  1.00  0.00     0.049 A 
ATOM     68  H   UNL     1      -5.909  11.661  -7.641  1.00  0.00     0.167 HD
ATOM     69  C   UNL     1      -6.169  13.444  -9.907  1.00  0.00     0.074 A 
ATOM     70  C   UNL     1      -6.058  14.010 -11.238  1.00  0.00     0.031 C 
ATOM     71  C   UNL     1      -6.801  14.044  -8.867  1.00  0.00     0.034 A 
BRANCH  58  72
ATOM     72  C   UNL     1      -6.831  10.889  -3.526  1.00  0.00     0.023 A 
ATOM     73  C   UNL     1      -8.200  10.936  -3.204  1.00  0.00     0.031 A 
ATOM     74  C   UNL     1      -5.901  10.934  -2.472  1.00  0.00     0.131 A 
ATOM     75  C   UNL     1      -8.599  11.068  -1.868  1.00  0.00     0.055 A 
ATOM     76  C   UNL     1      -6.304  11.022  -1.138  1.00  0.00     0.041 A 
ATOM     77  F   UNL     1      -4.582  10.893  -2.723  1.00  0.00    -0.206 F 
ATOM     78  C   UNL     1      -7.659  11.104  -0.833  1.00  0.00     0.022 A 
BRANCH  75  79
ATOM     79  S   UNL     1     -10.347  11.265  -1.425  1.00  0.00     0.124 S 
ATOM     80  O   UNL     1     -10.553  10.141  -0.513  1.00  0.00    -0.237 OA
ATOM     81  O   UNL     1     -10.356  12.584  -0.800  1.00  0.00    -0.237 OA
ATOM     82  O   UNL     1     -11.046  11.163  -2.701  1.00  0.00    -0.744 OA
ENDBRANCH  75  79
ENDBRANCH  58  72
BRANCH  59  83
ATOM     83  C   UNL     1      -3.813  10.923 -13.183  1.00  0.00     0.023 A 
ATOM     84  C   UNL     1      -4.148   9.859 -14.043  1.00  0.00     0.031 A 
ATOM     85  C   UNL     1      -2.882  11.871 -13.636  1.00  0.00     0.131 A 
ATOM     86  C   UNL     1      -3.501   9.732 -15.280  1.00  0.00     0.055 A 
ATOM     87  C   UNL     1      -2.294  11.780 -14.899  1.00  0.00     0.041 A 
ATOM     88  F   UNL     1      -2.507  12.884 -12.841  1.00  0.00    -0.206 F 
ATOM     89  C   UNL     1      -2.589  10.695 -15.720  1.00  0.00     0.022 A 
BRANCH  86  90
ATOM     90  S   UNL     1      -3.703   8.234 -16.286  1.00  0.00     0.124 S 
ATOM     91  O   UNL     1      -4.282   8.770 -17.514  1.00  0.00    -0.237 OA
ATOM     92  O   UNL     1      -2.326   7.758 -16.392  1.00  0.00    -0.237 OA
ATOM     93  O   UNL     1      -4.587   7.396 -15.483  1.00  0.00    -0.744 OA
ENDBRANCH  86  90
ENDBRANCH  59  83
BRANCH  71  94
ATOM     94  C   UNL     1      -7.430  15.394  -9.105  1.00  0.00     0.023 A 
ATOM     95  C   UNL     1      -6.982  16.509  -8.372  1.00  0.00     0.031 A 
ATOM     96  C   UNL     1      -8.567  15.539  -9.917  1.00  0.00     0.131 A 
ATOM     97  C   UNL     1      -7.702  17.707  -8.422  1.00  0.00     0.055 A 
ATOM     98  C   UNL     1      -9.247  16.753 -10.009  1.00  0.00     0.041 A 
ATOM     99  F   UNL     1      -9.037  14.500 -10.626  1.00  0.00    -0.206 F 
ATOM    100  C   UNL     1      -8.826  17.838  -9.245  1.00  0.00     0.022 A 
BRANCH  97 101
ATOM    101  S   UNL     1      -7.273  19.098  -7.341  1.00  0.00     0.124 S 
ATOM    102  O   UNL     1      -6.973  20.150  -8.309  1.00  0.00    -0.237 OA
ATOM    103  O   UNL     1      -8.504  19.283  -6.578  1.00  0.00    -0.237 OA
ATOM    104  O   UNL     1      -6.128  18.612  -6.578  1.00  0.00    -0.744 OA
ENDBRANCH  97 101
ENDBRANCH  71  94
ENDBRANCH  45  46
ENDBRANCH  38  40
ENDBRANCH  37  38
ENDBRANCH  36  37
ENDBRANCH  35  36
ENDBRANCH   1  35
TORSDOF 23
