REMARK SMILES C[C@H](Cc1ccco1)[NH2+]Cc1cc(C(=O)OCCOCCOC(=O)c2ccc(-c3c4nc(c(-c5cc(S(=O)(=O)[O-])ccc5F)c5ccc([nH]5)c(-c5cc(S(=O)(=O)[O-])ccc5F)c5nc(c(-c6cc(S(=O)(=O)[O-])ccc6F)c6ccc3[nH]6)C=C5)C=C4)cc2)cs1
REMARK SMILES IDX 18 1 17 2 16 3 14 4 15 5 13 6 11 7 12 8 89 9 88 10 10 11
REMARK SMILES IDX 9 12 2 15 1 16 3 17 4 18 5 19 8 20 6 21 7 22 19 23 20 24
REMARK SMILES IDX 21 25 22 26 23 27 24 28 25 29 26 30 87 31 27 32 86 33 28 34
REMARK SMILES IDX 29 35 30 36 80 37 31 38 85 39 79 40 81 41 32 42 84 43 78 44
REMARK SMILES IDX 77 45 33 47 65 48 45 49 64 50 46 51 49 52 63 53 82 54 47 55
REMARK SMILES IDX 48 56 62 58 83 59 50 60 34 61 35 62 43 63 36 64 42 65 44 66
REMARK SMILES IDX 41 67 37 68 38 69 39 70 40 71 66 72 67 73 75 74 68 75 74 76
REMARK SMILES IDX 76 77 73 78 69 79 70 80 71 81 72 82 51 83 52 84 60 85 53 86
REMARK SMILES IDX 59 87 61 88 58 89 54 90 55 91 56 92 57 93
REMARK H PARENT 9 13 9 14 81 46 49 57
REMARK Flexibility Score: inf
ROOT
ATOM      1  C   UNL     1       1.965  -0.489  -9.104  1.00  0.00     0.202 C 
ENDROOT
BRANCH   1   2
ATOM      2  C   UNL     1       0.491  -0.101  -9.237  1.00  0.00     0.261 C 
BRANCH   2   3
ATOM      3  O   UNL     1      -0.100   0.059  -7.936  1.00  0.00    -0.460 OA
BRANCH   3   4
ATOM      4  C   UNL     1      -0.893  -0.967  -7.518  1.00  0.00     0.339 C 
ATOM      5  O   UNL     1      -1.266  -1.898  -8.223  1.00  0.00    -0.246 OA
BRANCH   4   6
ATOM      6  C   UNL     1      -1.201  -0.890  -6.090  1.00  0.00     0.071 A 
ATOM      7  C   UNL     1      -1.358  -0.064  -3.889  1.00  0.00     0.060 A 
ATOM      8  C   UNL     1      -0.961   0.204  -5.188  1.00  0.00     0.037 A 
ATOM      9  S   UNL     1      -2.032  -1.636  -3.762  1.00  0.00    -0.142 S 
ATOM     10  C   UNL     1      -1.768  -1.955  -5.414  1.00  0.00     0.081 A 
BRANCH   7  11
ATOM     11  C   UNL     1      -1.305   0.845  -2.690  1.00  0.00     0.308 C 
BRANCH  11  12
ATOM     12  N   UNL     1      -0.746   0.222  -1.490  1.00  0.00    -0.339 N 
ATOM     13  H   UNL     1      -1.193   0.647  -0.678  1.00  0.00     0.346 HD
ATOM     14  H   UNL     1      -0.927  -0.778  -1.585  1.00  0.00     0.346 HD
BRANCH  12  15
ATOM     15  C   UNL     1       0.709   0.352  -1.325  1.00  0.00     0.187 C 
ATOM     16  C   UNL     1       1.536  -0.323  -2.426  1.00  0.00     0.075 C 
BRANCH  15  17
ATOM     17  C   UNL     1       1.138  -0.122   0.088  1.00  0.00     0.140 C 
BRANCH  17  18
ATOM     18  C   UNL     1       0.764  -1.515   0.480  1.00  0.00     0.109 A 
ATOM     19  C   UNL     1       0.452  -2.081   1.701  1.00  0.00     0.046 A 
ATOM     20  O   UNL     1       0.731  -2.471  -0.490  1.00  0.00    -0.469 OA
ATOM     21  C   UNL     1       0.205  -3.453   1.457  1.00  0.00     0.042 A 
ATOM     22  C   UNL     1       0.382  -3.638   0.107  1.00  0.00     0.195 A 
ENDBRANCH  17  18
ENDBRANCH  15  17
ENDBRANCH  12  15
ENDBRANCH  11  12
ENDBRANCH   7  11
ENDBRANCH   4   6
ENDBRANCH   3   4
ENDBRANCH   2   3
ENDBRANCH   1   2
BRANCH   1  23
ATOM     23  O   UNL     1       2.165  -1.781  -8.526  1.00  0.00    -0.374 OA
BRANCH  23  24
ATOM     24  C   UNL     1       2.341  -1.804  -7.106  1.00  0.00     0.202 C 
BRANCH  24  25
ATOM     25  C   UNL     1       3.780  -1.554  -6.642  1.00  0.00     0.261 C 
BRANCH  25  26
ATOM     26  O   UNL     1       4.118  -0.160  -6.760  1.00  0.00    -0.460 OA
BRANCH  26  27
ATOM     27  C   UNL     1       4.960   0.145  -7.778  1.00  0.00     0.338 C 
ATOM     28  O   UNL     1       5.526  -0.643  -8.517  1.00  0.00    -0.246 OA
BRANCH  27  29
ATOM     29  C   UNL     1       4.960   1.607  -8.004  1.00  0.00     0.060 A 
ATOM     30  C   UNL     1       4.934   2.052  -9.332  1.00  0.00     0.016 A 
ATOM     31  C   UNL     1       5.018   2.527  -6.954  1.00  0.00     0.016 A 
ATOM     32  C   UNL     1       5.018   3.414  -9.617  1.00  0.00     0.010 A 
ATOM     33  C   UNL     1       5.108   3.894  -7.241  1.00  0.00     0.010 A 
ATOM     34  C   UNL     1       5.144   4.341  -8.574  1.00  0.00    -0.014 A 
BRANCH  34  35
ATOM     35  C   UNL     1       5.487   5.751  -8.883  1.00  0.00     0.031 A 
ATOM     36  C   UNL     1       6.927   6.179  -8.785  1.00  0.00     0.074 A 
ATOM     37  C   UNL     1       4.543   6.629  -9.267  1.00  0.00     0.049 A 
ATOM     38  N   UNL     1       7.457   7.362  -8.953  1.00  0.00    -0.248 NA
ATOM     39  C   UNL     1       7.895   5.125  -8.446  1.00  0.00     0.031 C 
ATOM     40  C   UNL     1       3.125   6.320  -9.445  1.00  0.00     0.029 A 
ATOM     41  N   UNL     1       4.638   7.964  -9.572  1.00  0.00    -0.354 N 
ATOM     42  C   UNL     1       8.822   7.199  -8.738  1.00  0.00     0.074 A 
ATOM     43  C   UNL     1       9.028   5.809  -8.390  1.00  0.00     0.031 C 
ATOM     44  C   UNL     1       2.479   7.440  -9.814  1.00  0.00     0.029 A 
ATOM     45  C   UNL     1       3.429   8.550  -9.864  1.00  0.00     0.049 A 
ATOM     46  H   UNL     1       5.491   8.455  -9.580  1.00  0.00     0.167 HD
ATOM     47  C   UNL     1       9.812   8.120  -8.830  1.00  0.00     0.034 A 
ATOM     48  C   UNL     1       3.123   9.840 -10.116  1.00  0.00     0.034 A 
ATOM     49  C   UNL     1       9.590   9.506  -9.164  1.00  0.00     0.049 A 
ATOM     50  C   UNL     1       4.230  10.867 -10.128  1.00  0.00     0.074 A 
ATOM     51  C   UNL     1      10.519  10.524  -9.290  1.00  0.00     0.029 A 
ATOM     52  N   UNL     1       8.347  10.072  -9.415  1.00  0.00    -0.354 N 
ATOM     53  N   UNL     1       5.516  10.701  -9.922  1.00  0.00    -0.248 NA
ATOM     54  C   UNL     1       3.842  12.256 -10.414  1.00  0.00     0.031 C 
ATOM     55  C   UNL     1       9.833  11.715  -9.552  1.00  0.00     0.029 A 
ATOM     56  C   UNL     1       8.482  11.429  -9.664  1.00  0.00     0.049 A 
ATOM     57  H   UNL     1       7.493   9.581  -9.417  1.00  0.00     0.167 HD
ATOM     58  C   UNL     1       6.093  11.958 -10.085  1.00  0.00     0.074 A 
ATOM     59  C   UNL     1       5.016  12.870 -10.414  1.00  0.00     0.031 C 
ATOM     60  C   UNL     1       7.396  12.326  -9.982  1.00  0.00     0.034 A 
BRANCH  47  61
ATOM     61  C   UNL     1      11.213   7.660  -8.507  1.00  0.00     0.023 A 
ATOM     62  C   UNL     1      11.877   6.705  -9.296  1.00  0.00     0.031 A 
ATOM     63  C   UNL     1      11.876   8.152  -7.370  1.00  0.00     0.131 A 
ATOM     64  C   UNL     1      13.132   6.218  -8.896  1.00  0.00     0.055 A 
ATOM     65  C   UNL     1      13.157   7.721  -7.020  1.00  0.00     0.041 A 
ATOM     66  F   UNL     1      11.280   9.048  -6.566  1.00  0.00    -0.206 F 
ATOM     67  C   UNL     1      13.786   6.737  -7.777  1.00  0.00     0.022 A 
BRANCH  64  68
ATOM     68  S   UNL     1      13.831   4.795  -9.778  1.00  0.00     0.124 S 
ATOM     69  O   UNL     1      12.791   3.788  -9.585  1.00  0.00    -0.237 OA
ATOM     70  O   UNL     1      13.982   5.308 -11.135  1.00  0.00    -0.237 OA
ATOM     71  O   UNL     1      15.081   4.533  -9.067  1.00  0.00    -0.744 OA
ENDBRANCH  64  68
ENDBRANCH  47  61
BRANCH  48  72
ATOM     72  C   UNL     1       1.707  10.252 -10.331  1.00  0.00     0.023 A 
ATOM     73  C   UNL     1       1.279  10.777 -11.560  1.00  0.00     0.031 A 
ATOM     74  C   UNL     1       0.771  10.177  -9.284  1.00  0.00     0.131 A 
ATOM     75  C   UNL     1      -0.036  11.248 -11.700  1.00  0.00     0.055 A 
ATOM     76  C   UNL     1      -0.549  10.603  -9.442  1.00  0.00     0.041 A 
ATOM     77  F   UNL     1       1.128   9.684  -8.087  1.00  0.00    -0.206 F 
ATOM     78  C   UNL     1      -0.956  11.154 -10.652  1.00  0.00     0.022 A 
BRANCH  75  79
ATOM     79  S   UNL     1      -0.508  12.062 -13.251  1.00  0.00     0.124 S 
ATOM     80  O   UNL     1       0.444  13.165 -13.309  1.00  0.00    -0.237 OA
ATOM     81  O   UNL     1      -0.313  10.992 -14.224  1.00  0.00    -0.237 OA
ATOM     82  O   UNL     1      -1.899  12.447 -13.022  1.00  0.00    -0.744 OA
ENDBRANCH  75  79
ENDBRANCH  48  72
BRANCH  60  83
ATOM     83  C   UNL     1       7.729  13.768 -10.278  1.00  0.00     0.023 A 
ATOM     84  C   UNL     1       7.320  14.814  -9.433  1.00  0.00     0.031 A 
ATOM     85  C   UNL     1       8.465  14.097 -11.431  1.00  0.00     0.131 A 
ATOM     86  C   UNL     1       7.607  16.144  -9.779  1.00  0.00     0.055 A 
ATOM     87  C   UNL     1       8.794  15.417 -11.742  1.00  0.00     0.041 A 
ATOM     88  F   UNL     1       8.880  13.137 -12.273  1.00  0.00    -0.206 F 
ATOM     89  C   UNL     1       8.354  16.450 -10.919  1.00  0.00     0.022 A 
BRANCH  86  90
ATOM     90  S   UNL     1       6.922  17.478  -8.758  1.00  0.00     0.124 S 
ATOM     91  O   UNL     1       5.487  17.225  -8.850  1.00  0.00    -0.237 OA
ATOM     92  O   UNL     1       7.532  17.221  -7.458  1.00  0.00    -0.237 OA
ATOM     93  O   UNL     1       7.381  18.693  -9.428  1.00  0.00    -0.744 OA
ENDBRANCH  86  90
ENDBRANCH  60  83
ENDBRANCH  34  35
ENDBRANCH  27  29
ENDBRANCH  26  27
ENDBRANCH  25  26
ENDBRANCH  24  25
ENDBRANCH  23  24
ENDBRANCH   1  23
TORSDOF 22
