REMARK SMILES CCCc1nn2c(=O)cc(CSc3ccccc3C(=O)OCCOCCOC(=O)c3ccc(-c4c5nc(c(-c6cc(S(=O)(=O)[O-])ccc6F)c6ccc([nH]6)c(-c6cc(S(=O)(=O)[O-])ccc6F)c6nc(c(-c7cc(S(=O)(=O)[O-])ccc7F)c7ccc4[nH]7)C=C6)C=C5)cc3)nc2s1
REMARK SMILES IDX 23 1 22 2 21 3 19 4 20 5 18 6 13 7 14 8 15 9 17 10 16 11
REMARK SMILES IDX 12 12 11 13 10 14 4 15 5 16 95 17 6 18 94 19 7 20 93 21 8 22
REMARK SMILES IDX 9 23 3 24 2 25 1 26 24 27 25 28 26 29 27 30 28 31 29 32
REMARK SMILES IDX 30 33 31 34 92 35 32 36 91 37 33 38 34 39 35 40 85 41 36 42
REMARK SMILES IDX 90 43 84 44 86 45 37 46 89 47 83 48 82 49 38 51 70 52 50 53
REMARK SMILES IDX 69 54 51 55 54 56 68 57 87 58 52 59 53 60 67 62 88 63 55 64
REMARK SMILES IDX 39 65 40 66 48 67 41 68 47 69 49 70 46 71 42 72 43 73 44 74
REMARK SMILES IDX 45 75 71 76 72 77 80 78 73 79 79 80 81 81 78 82 74 83 75 84
REMARK SMILES IDX 76 85 77 86 56 87 57 88 65 89 58 90 64 91 66 92 63 93 59 94
REMARK SMILES IDX 60 95 61 96 62 97
REMARK H PARENT 86 50 54 61
REMARK Flexibility Score: inf
ROOT
ATOM      1  C   UNL     1      -3.216 -13.083   0.155  1.00  0.00     0.202 C 
ENDROOT
BRANCH   1   2
ATOM      2  C   UNL     1      -2.950 -12.392  -1.183  1.00  0.00     0.261 C 
BRANCH   2   3
ATOM      3  O   UNL     1      -2.928 -10.970  -0.990  1.00  0.00    -0.460 OA
BRANCH   3   4
ATOM      4  C   UNL     1      -3.751 -10.255  -1.784  1.00  0.00     0.339 C 
ATOM      5  O   UNL     1      -4.405 -10.679  -2.726  1.00  0.00    -0.246 OA
BRANCH   4   6
ATOM      6  C   UNL     1      -3.963  -8.891  -1.239  1.00  0.00     0.073 A 
ATOM      7  C   UNL     1      -2.949  -8.018  -0.810  1.00  0.00     0.022 A 
ATOM      8  C   UNL     1      -3.329  -6.697  -0.518  1.00  0.00     0.016 A 
ATOM      9  C   UNL     1      -4.664  -6.288  -0.500  1.00  0.00     0.001 A 
ATOM     10  C   UNL     1      -5.312  -8.476  -1.221  1.00  0.00     0.017 A 
ATOM     11  C   UNL     1      -5.664  -7.189  -0.826  1.00  0.00     0.001 A 
BRANCH   7  12
ATOM     12  S   UNL     1      -1.216  -8.472  -0.732  1.00  0.00    -0.119 SA
BRANCH  12  13
ATOM     13  C   UNL     1      -0.683  -7.867   0.940  1.00  0.00     0.131 C 
BRANCH  13  14
ATOM     14  C   UNL     1      -0.381  -6.379   0.904  1.00  0.00     0.060 A 
ATOM     15  C   UNL     1       0.643  -2.474  -1.210  1.00  0.00     0.117 A 
ATOM     16  N   UNL     1      -0.163  -2.480  -0.195  1.00  0.00    -0.156 NA
ATOM     17  S   UNL     1       1.384  -3.995  -1.648  1.00  0.00    -0.079 S 
ATOM     18  N   UNL     1      -0.224  -3.755   0.314  1.00  0.00    -0.167 N 
ATOM     19  C   UNL     1       0.487  -4.712  -0.354  1.00  0.00     0.215 A 
ATOM     20  C   UNL     1      -0.975  -4.069   1.426  1.00  0.00     0.275 A 
ATOM     21  N   UNL     1       0.480  -5.971  -0.094  1.00  0.00    -0.223 NA
ATOM     22  O   UNL     1      -1.631  -3.292   2.114  1.00  0.00    -0.267 OA
ATOM     23  C   UNL     1      -1.024  -5.523   1.720  1.00  0.00     0.098 A 
BRANCH  15  24
ATOM     24  C   UNL     1       0.966  -1.276  -2.055  1.00  0.00     0.069 C 
BRANCH  24  25
ATOM     25  C   UNL     1       0.493   0.052  -1.470  1.00  0.00     0.004 C 
ATOM     26  C   UNL     1       1.189   0.411  -0.165  1.00  0.00     0.004 C 
ENDBRANCH  24  25
ENDBRANCH  15  24
ENDBRANCH  13  14
ENDBRANCH  12  13
ENDBRANCH   7  12
ENDBRANCH   4   6
ENDBRANCH   3   4
ENDBRANCH   2   3
ENDBRANCH   1   2
BRANCH   1  27
ATOM     27  O   UNL     1      -4.508 -12.841   0.720  1.00  0.00    -0.374 OA
BRANCH  27  28
ATOM     28  C   UNL     1      -4.704 -11.591   1.382  1.00  0.00     0.202 C 
BRANCH  28  29
ATOM     29  C   UNL     1      -4.167 -11.485   2.814  1.00  0.00     0.261 C 
BRANCH  29  30
ATOM     30  O   UNL     1      -2.730 -11.528   2.868  1.00  0.00    -0.460 OA
BRANCH  30  31
ATOM     31  C   UNL     1      -2.222 -12.693   3.341  1.00  0.00     0.338 C 
ATOM     32  O   UNL     1      -2.855 -13.647   3.772  1.00  0.00    -0.246 OA
BRANCH  31  33
ATOM     33  C   UNL     1      -0.767 -12.746   3.104  1.00  0.00     0.060 A 
ATOM     34  C   UNL     1      -0.257 -13.887   2.471  1.00  0.00     0.016 A 
ATOM     35  C   UNL     1       0.091 -11.738   3.549  1.00  0.00     0.016 A 
ATOM     36  C   UNL     1       1.119 -14.047   2.324  1.00  0.00     0.010 A 
ATOM     37  C   UNL     1       1.474 -11.905   3.406  1.00  0.00     0.010 A 
ATOM     38  C   UNL     1       1.995 -13.075   2.824  1.00  0.00    -0.014 A 
BRANCH  38  39
ATOM     39  C   UNL     1       3.451 -13.359   2.871  1.00  0.00     0.031 A 
ATOM     40  C   UNL     1       4.064 -13.811   4.168  1.00  0.00     0.074 A 
ATOM     41  C   UNL     1       4.209 -13.245   1.766  1.00  0.00     0.049 A 
ATOM     42  N   UNL     1       5.313 -14.079   4.450  1.00  0.00    -0.248 NA
ATOM     43  C   UNL     1       3.140 -13.974   5.299  1.00  0.00     0.031 C 
ATOM     44  C   UNL     1       3.720 -12.855   0.445  1.00  0.00     0.029 A 
ATOM     45  N   UNL     1       5.555 -13.441   1.583  1.00  0.00    -0.354 N 
ATOM     46  C   UNL     1       5.328 -14.442   5.793  1.00  0.00     0.074 A 
ATOM     47  C   UNL     1       3.969 -14.312   6.275  1.00  0.00     0.031 C 
ATOM     48  C   UNL     1       4.755 -12.830  -0.412  1.00  0.00     0.029 A 
ATOM     49  C   UNL     1       5.983 -13.165   0.307  1.00  0.00     0.049 A 
ATOM     50  H   UNL     1       6.157 -13.751   2.299  1.00  0.00     0.167 HD
ATOM     51  C   UNL     1       6.376 -14.856   6.549  1.00  0.00     0.034 A 
ATOM     52  C   UNL     1       7.226 -13.156  -0.214  1.00  0.00     0.034 A 
ATOM     53  C   UNL     1       7.728 -14.962   6.054  1.00  0.00     0.049 A 
ATOM     54  C   UNL     1       8.393 -13.534   0.665  1.00  0.00     0.074 A 
ATOM     55  C   UNL     1       8.863 -15.383   6.726  1.00  0.00     0.029 A 
ATOM     56  N   UNL     1       8.133 -14.629   4.767  1.00  0.00    -0.354 N 
ATOM     57  N   UNL     1       8.396 -13.884   1.931  1.00  0.00    -0.248 NA
ATOM     58  C   UNL     1       9.723 -13.522   0.041  1.00  0.00     0.031 C 
ATOM     59  C   UNL     1       9.961 -15.232   5.871  1.00  0.00     0.029 A 
ATOM     60  C   UNL     1       9.504 -14.797   4.637  1.00  0.00     0.049 A 
ATOM     61  H   UNL     1       7.533 -14.318   4.051  1.00  0.00     0.167 HD
ATOM     62  C   UNL     1       9.724 -14.159   2.247  1.00  0.00     0.074 A 
ATOM     63  C   UNL     1      10.490 -13.946   1.035  1.00  0.00     0.031 C 
ATOM     64  C   UNL     1      10.261 -14.561   3.428  1.00  0.00     0.034 A 
BRANCH  51  65
ATOM     65  C   UNL     1       6.097 -15.164   8.002  1.00  0.00     0.023 A 
ATOM     66  C   UNL     1       5.219 -16.194   8.386  1.00  0.00     0.031 A 
ATOM     67  C   UNL     1       6.673 -14.382   9.018  1.00  0.00     0.131 A 
ATOM     68  C   UNL     1       4.876 -16.356   9.737  1.00  0.00     0.055 A 
ATOM     69  C   UNL     1       6.395 -14.605  10.368  1.00  0.00     0.041 A 
ATOM     70  F   UNL     1       7.501 -13.370   8.715  1.00  0.00    -0.206 F 
ATOM     71  C   UNL     1       5.477 -15.585  10.733  1.00  0.00     0.022 A 
BRANCH  68  72
ATOM     72  S   UNL     1       3.506 -17.470  10.155  1.00  0.00     0.124 S 
ATOM     73  O   UNL     1       2.417 -16.913   9.355  1.00  0.00    -0.237 OA
ATOM     74  O   UNL     1       4.014 -18.768   9.728  1.00  0.00    -0.237 OA
ATOM     75  O   UNL     1       3.356 -17.302  11.599  1.00  0.00    -0.744 OA
ENDBRANCH  68  72
ENDBRANCH  51  65
BRANCH  52  76
ATOM     76  C   UNL     1       7.440 -12.735  -1.628  1.00  0.00     0.023 A 
ATOM     77  C   UNL     1       7.920 -13.633  -2.594  1.00  0.00     0.031 A 
ATOM     78  C   UNL     1       7.193 -11.408  -2.024  1.00  0.00     0.131 A 
ATOM     79  C   UNL     1       8.169 -13.184  -3.901  1.00  0.00     0.055 A 
ATOM     80  C   UNL     1       7.395 -10.979  -3.336  1.00  0.00     0.041 A 
ATOM     81  F   UNL     1       6.735 -10.509  -1.138  1.00  0.00    -0.206 F 
ATOM     82  C   UNL     1       7.896 -11.868  -4.282  1.00  0.00     0.022 A 
BRANCH  79  83
ATOM     83  S   UNL     1       8.916 -14.334  -5.088  1.00  0.00     0.124 S 
ATOM     84  O   UNL     1      10.181 -14.655  -4.435  1.00  0.00    -0.237 OA
ATOM     85  O   UNL     1       7.928 -15.407  -5.136  1.00  0.00    -0.237 OA
ATOM     86  O   UNL     1       9.028 -13.539  -6.309  1.00  0.00    -0.744 OA
ENDBRANCH  79  83
ENDBRANCH  52  76
BRANCH  64  87
ATOM     87  C   UNL     1      11.747 -14.833   3.451  1.00  0.00     0.023 A 
ATOM     88  C   UNL     1      12.693 -13.806   3.287  1.00  0.00     0.031 A 
ATOM     89  C   UNL     1      12.221 -16.145   3.633  1.00  0.00     0.131 A 
ATOM     90  C   UNL     1      14.062 -14.115   3.254  1.00  0.00     0.055 A 
ATOM     91  C   UNL     1      13.586 -16.437   3.660  1.00  0.00     0.041 A 
ATOM     92  F   UNL     1      11.364 -17.166   3.792  1.00  0.00    -0.206 F 
ATOM     93  C   UNL     1      14.515 -15.421   3.456  1.00  0.00     0.022 A 
BRANCH  90  94
ATOM     94  S   UNL     1      15.245 -12.799   2.852  1.00  0.00     0.124 S 
ATOM     95  O   UNL     1      14.779 -12.362   1.540  1.00  0.00    -0.237 OA
ATOM     96  O   UNL     1      15.046 -11.855   3.947  1.00  0.00    -0.237 OA
ATOM     97  O   UNL     1      16.536 -13.485   2.854  1.00  0.00    -0.744 OA
ENDBRANCH  90  94
ENDBRANCH  64  87
ENDBRANCH  38  39
ENDBRANCH  31  33
ENDBRANCH  30  31
ENDBRANCH  29  30
ENDBRANCH  28  29
ENDBRANCH  27  28
ENDBRANCH   1  27
TORSDOF 22
