REMARK SMILES CCCOC(=O)c1c(NC(=O)[C@H]2[C@@H](C(=O)OCCOCCOC(=O)c3ccc(-c4c5nc(c(-c6cc(S(=O)(=O)[O-])ccc6F)c6ccc([nH]6)c(-c6cc(S(=O)(=O)[O-])ccc6F)c6nc(c(-c7cc(S(=O)(=O)[O-])ccc7F)c7ccc4[nH]7)C=C6)C=C5)cc3)[C@@H]3C=C[C@H]2C3)sc2c1CCCCC2
REMARK SMILES IDX 17 1 16 2 14 3 15 4 13 5 12 6 91 7 88 8 90 9 92 10 89 11
REMARK SMILES IDX 10 12 9 13 11 15 8 16 7 17 95 18 93 19 94 20 5 21 6 22 4 23
REMARK SMILES IDX 3 24 2 25 1 26 96 27 97 28 100 30 99 31 98 32 18 34 19 35
REMARK SMILES IDX 20 36 21 37 22 38 23 39 24 40 25 41 26 42 87 43 27 44 86 45
REMARK SMILES IDX 28 46 29 47 30 48 80 49 31 50 85 51 79 52 81 53 32 54 84 55
REMARK SMILES IDX 78 56 77 57 33 59 65 60 45 61 64 62 46 63 49 64 63 65 82 66
REMARK SMILES IDX 47 67 48 68 62 70 83 71 50 72 34 73 35 74 43 75 36 76 42 77
REMARK SMILES IDX 44 78 41 79 37 80 38 81 39 82 40 83 66 84 67 85 75 86 68 87
REMARK SMILES IDX 74 88 76 89 73 90 69 91 70 92 71 93 72 94 51 95 52 96 60 97
REMARK SMILES IDX 53 98 59 99 61 100 58 101 54 102 55 103 56 104 57 105
REMARK H PARENT 9 14 81 58 49 69
REMARK Flexibility Score: 100.00
ROOT
ATOM      1  C   UNL     1      -2.385  -6.499   5.998  1.00  0.00     0.261 C 
ENDROOT
BRANCH   1   2
ATOM      2  O   UNL     1      -3.228  -5.335   5.987  1.00  0.00    -0.463 OA
BRANCH   2   3
ATOM      3  C   UNL     1      -2.687  -4.260   6.631  1.00  0.00     0.310 C 
ATOM      4  O   UNL     1      -1.968  -4.351   7.613  1.00  0.00    -0.252 OA
BRANCH   3   5
ATOM      5  C   UNL     1      -3.099  -2.980   5.918  1.00  0.00     0.119 C 
ATOM      6  C   UNL     1      -2.021  -1.842   5.806  1.00  0.00     0.100 C 
ATOM      7  C   UNL     1      -2.669  -0.732   6.690  1.00  0.00     0.025 C 
ATOM      8  C   UNL     1      -4.270  -2.296   6.646  1.00  0.00     0.027 C 
ATOM      9  C   UNL     1      -3.809  -0.176   5.856  1.00  0.00    -0.027 C 
ATOM     10  C   UNL     1      -3.513  -1.508   7.710  1.00  0.00     0.017 C 
ATOM     11  C   UNL     1      -4.752  -1.131   5.796  1.00  0.00    -0.027 C 
BRANCH   6  12
ATOM     12  C   UNL     1      -0.569  -2.134   6.193  1.00  0.00     0.229 C 
ATOM     13  N   UNL     1       0.401  -2.498   5.290  1.00  0.00    -0.317 N 
ATOM     14  H   UNL     1       1.163  -2.960   5.709  1.00  0.00     0.170 HD
ATOM     15  O   UNL     1      -0.231  -2.088   7.383  1.00  0.00    -0.274 OA
BRANCH  13  16
ATOM     16  C   UNL     1       0.539  -2.356   3.913  1.00  0.00     0.110 A 
ATOM     17  C   UNL     1       1.425  -3.017   3.066  1.00  0.00     0.098 A 
ATOM     18  C   UNL     1       1.179  -2.699   1.660  1.00  0.00    -0.017 A 
ATOM     19  S   UNL     1      -0.305  -1.155   3.064  1.00  0.00    -0.122 S 
ATOM     20  C   UNL     1       0.151  -1.777   1.541  1.00  0.00     0.011 A 
BRANCH  17  21
ATOM     21  C   UNL     1       2.369  -4.029   3.523  1.00  0.00     0.341 C 
ATOM     22  O   UNL     1       2.028  -5.069   4.065  1.00  0.00    -0.246 OA
BRANCH  21  23
ATOM     23  O   UNL     1       3.660  -3.670   3.273  1.00  0.00    -0.462 OA
BRANCH  23  24
ATOM     24  C   UNL     1       4.664  -4.651   3.579  1.00  0.00     0.233 C 
BRANCH  24  25
ATOM     25  C   UNL     1       5.193  -4.507   5.006  1.00  0.00     0.038 C 
ATOM     26  C   UNL     1       4.251  -5.057   6.067  1.00  0.00     0.007 C 
ENDBRANCH  24  25
ENDBRANCH  23  24
ENDBRANCH  21  23
ENDBRANCH  17  21
BRANCH  18  27
ATOM     27  C   UNL     1       1.874  -3.369   0.491  1.00  0.00     0.037 C 
BRANCH  27  28
ATOM     28  C   UNL     1       0.908  -3.889  -0.572  1.00  0.00     0.005 CG0
ATOM     29  G   UNL     1       0.305  -2.844  -1.509  1.00  0.00     0.000 G0
ENDBRANCH  27  28
ENDBRANCH  18  27
BRANCH  20  30
ATOM     30  C   UNL     1      -0.592  -1.303   0.323  1.00  0.00     0.047 C 
BRANCH  30  31
ATOM     31  C   UNL     1       0.188  -1.417  -0.980  1.00  0.00     0.006 C 
BRANCH  31  32
ATOM     32  C   UNL     1       0.305  -2.844  -1.509  1.00  0.00     0.001 CG0
ATOM     33  G   UNL     1       0.908  -3.889  -0.572  1.00  0.00     0.000 G0
ENDBRANCH  31  32
ENDBRANCH  30  31
ENDBRANCH  20  30
ENDBRANCH  13  16
ENDBRANCH   6  12
ENDBRANCH   3   5
ENDBRANCH   2   3
ENDBRANCH   1   2
BRANCH   1  34
ATOM     34  C   UNL     1      -1.096  -6.294   5.183  1.00  0.00     0.202 C 
BRANCH  34  35
ATOM     35  O   UNL     1      -0.982  -4.989   4.618  1.00  0.00    -0.374 OA
BRANCH  35  36
ATOM     36  C   UNL     1      -1.859  -4.696   3.538  1.00  0.00     0.202 C 
BRANCH  36  37
ATOM     37  C   UNL     1      -1.359  -5.259   2.250  1.00  0.00     0.261 C 
BRANCH  37  38
ATOM     38  O   UNL     1      -1.710  -6.649   2.270  1.00  0.00    -0.460 OA
BRANCH  38  39
ATOM     39  C   UNL     1      -0.869  -7.410   1.537  1.00  0.00     0.338 C 
ATOM     40  O   UNL     1      -0.109  -8.236   2.004  1.00  0.00    -0.246 OA
BRANCH  39  41
ATOM     41  C   UNL     1      -1.052  -7.120   0.104  1.00  0.00     0.060 A 
ATOM     42  C   UNL     1      -0.050  -7.501  -0.784  1.00  0.00     0.016 A 
ATOM     43  C   UNL     1      -2.208  -6.445  -0.332  1.00  0.00     0.016 A 
ATOM     44  C   UNL     1      -0.233  -7.240  -2.129  1.00  0.00     0.010 A 
ATOM     45  C   UNL     1      -2.331  -6.072  -1.645  1.00  0.00     0.010 A 
ATOM     46  C   UNL     1      -1.384  -6.555  -2.543  1.00  0.00    -0.014 A 
BRANCH  46  47
ATOM     47  C   UNL     1      -1.848  -6.775  -3.900  1.00  0.00     0.031 A 
ATOM     48  C   UNL     1      -2.472  -8.119  -4.081  1.00  0.00     0.074 A 
ATOM     49  C   UNL     1      -2.008  -5.801  -4.804  1.00  0.00     0.049 A 
ATOM     50  N   UNL     1      -2.065  -9.100  -4.815  1.00  0.00    -0.248 NA
ATOM     51  C   UNL     1      -3.597  -8.477  -3.192  1.00  0.00     0.031 C 
ATOM     52  C   UNL     1      -1.850  -4.365  -4.596  1.00  0.00     0.029 A 
ATOM     53  N   UNL     1      -2.493  -5.896  -6.068  1.00  0.00    -0.354 N 
ATOM     54  C   UNL     1      -3.009 -10.110  -4.643  1.00  0.00     0.074 A 
ATOM     55  C   UNL     1      -3.752  -9.768  -3.467  1.00  0.00     0.031 C 
ATOM     56  C   UNL     1      -2.422  -3.708  -5.626  1.00  0.00     0.029 A 
ATOM     57  C   UNL     1      -2.873  -4.681  -6.609  1.00  0.00     0.049 A 
ATOM     58  H   UNL     1      -2.568  -6.749  -6.554  1.00  0.00     0.167 HD
ATOM     59  C   UNL     1      -3.291 -10.999  -5.632  1.00  0.00     0.034 A 
ATOM     60  C   UNL     1      -3.584  -4.494  -7.745  1.00  0.00     0.034 A 
ATOM     61  C   UNL     1      -2.238 -11.004  -6.622  1.00  0.00     0.049 A 
ATOM     62  C   UNL     1      -3.455  -5.726  -8.563  1.00  0.00     0.074 A 
ATOM     63  C   UNL     1      -0.887 -11.283  -6.600  1.00  0.00     0.029 A 
ATOM     64  N   UNL     1      -2.466 -10.300  -7.783  1.00  0.00    -0.354 N 
ATOM     65  N   UNL     1      -2.319  -6.167  -9.033  1.00  0.00    -0.248 NA
ATOM     66  C   UNL     1      -4.530  -6.710  -8.552  1.00  0.00     0.031 C 
ATOM     67  C   UNL     1      -0.299 -10.376  -7.530  1.00  0.00     0.029 A 
ATOM     68  C   UNL     1      -1.320  -9.619  -8.112  1.00  0.00     0.049 A 
ATOM     69  H   UNL     1      -3.309 -10.287  -8.292  1.00  0.00     0.167 HD
ATOM     70  C   UNL     1      -2.411  -7.548  -8.977  1.00  0.00     0.074 A 
ATOM     71  C   UNL     1      -3.835  -7.818  -8.829  1.00  0.00     0.031 C 
ATOM     72  C   UNL     1      -1.303  -8.319  -8.766  1.00  0.00     0.034 A 
BRANCH  59  73
ATOM     73  C   UNL     1      -4.675 -11.561  -5.914  1.00  0.00     0.023 A 
ATOM     74  C   UNL     1      -4.797 -12.406  -7.034  1.00  0.00     0.031 A 
ATOM     75  C   UNL     1      -5.899 -11.123  -5.352  1.00  0.00     0.131 A 
ATOM     76  C   UNL     1      -6.051 -12.677  -7.608  1.00  0.00     0.055 A 
ATOM     77  C   UNL     1      -7.149 -11.453  -5.887  1.00  0.00     0.041 A 
ATOM     78  F   UNL     1      -5.975 -10.286  -4.313  1.00  0.00    -0.206 F 
ATOM     79  C   UNL     1      -7.230 -12.204  -7.044  1.00  0.00     0.022 A 
BRANCH  76  80
ATOM     80  S   UNL     1      -6.094 -13.497  -9.221  1.00  0.00     0.124 S 
ATOM     81  O   UNL     1      -5.151 -12.689  -9.987  1.00  0.00    -0.237 OA
ATOM     82  O   UNL     1      -5.660 -14.847  -8.878  1.00  0.00    -0.237 OA
ATOM     83  O   UNL     1      -7.492 -13.373  -9.624  1.00  0.00    -0.744 OA
ENDBRANCH  76  80
ENDBRANCH  59  73
BRANCH  60  84
ATOM     84  C   UNL     1      -4.569  -3.415  -7.984  1.00  0.00     0.023 A 
ATOM     85  C   UNL     1      -4.923  -2.999  -9.277  1.00  0.00     0.031 A 
ATOM     86  C   UNL     1      -5.332  -2.896  -6.911  1.00  0.00     0.131 A 
ATOM     87  C   UNL     1      -5.990  -2.093  -9.458  1.00  0.00     0.055 A 
ATOM     88  C   UNL     1      -6.371  -1.984  -7.093  1.00  0.00     0.041 A 
ATOM     89  F   UNL     1      -5.141  -3.320  -5.651  1.00  0.00    -0.206 F 
ATOM     90  C   UNL     1      -6.710  -1.582  -8.374  1.00  0.00     0.022 A 
BRANCH  87  91
ATOM     91  S   UNL     1      -6.524  -1.653 -11.139  1.00  0.00     0.124 S 
ATOM     92  O   UNL     1      -5.427  -0.809 -11.599  1.00  0.00    -0.237 OA
ATOM     93  O   UNL     1      -6.650  -2.958 -11.777  1.00  0.00    -0.237 OA
ATOM     94  O   UNL     1      -7.791  -0.954 -10.920  1.00  0.00    -0.744 OA
ENDBRANCH  87  91
ENDBRANCH  60  84
BRANCH  72  95
ATOM     95  C   UNL     1       0.054  -7.697  -9.023  1.00  0.00     0.023 A 
ATOM     96  C   UNL     1       0.559  -6.559  -8.355  1.00  0.00     0.031 A 
ATOM     97  C   UNL     1       0.911  -8.360  -9.919  1.00  0.00     0.131 A 
ATOM     98  C   UNL     1       1.873  -6.119  -8.607  1.00  0.00     0.055 A 
ATOM     99  C   UNL     1       2.218  -7.932 -10.152  1.00  0.00     0.041 A 
ATOM    100  F   UNL     1       0.501  -9.467 -10.562  1.00  0.00    -0.206 F 
ATOM    101  C   UNL     1       2.702  -6.804  -9.501  1.00  0.00     0.022 A 
BRANCH  98 102
ATOM    102  S   UNL     1       2.524  -4.633  -7.779  1.00  0.00     0.124 S 
ATOM    103  O   UNL     1       1.458  -3.651  -7.941  1.00  0.00    -0.237 OA
ATOM    104  O   UNL     1       2.754  -5.105  -6.415  1.00  0.00    -0.237 OA
ATOM    105  O   UNL     1       3.746  -4.333  -8.529  1.00  0.00    -0.744 OA
ENDBRANCH  98 102
ENDBRANCH  72  95
ENDBRANCH  46  47
ENDBRANCH  39  41
ENDBRANCH  38  39
ENDBRANCH  37  38
ENDBRANCH  36  37
ENDBRANCH  35  36
ENDBRANCH  34  35
ENDBRANCH   1  34
TORSDOF 23
