REMARK SMILES COc1ccc(/C=C/c2cc(OC)cc(OC)c2/C=C/C(=O)OCCOCCOC(=O)c2ccc(-c3c4nc(c(-c5cc(S(=O)(=O)[O-])ccc5F)c5ccc([nH]5)c(-c5cc(S(=O)(=O)[O-])ccc5F)c5nc(c(-c6cc(S(=O)(=O)[O-])ccc6F)c6ccc3[nH]6)C=C5)C=C4)cc2)cc1
REMARK SMILES IDX 25 1 24 2 23 3 21 4 22 5 20 6 19 7 18 8 9 9 10 10 11 11
REMARK SMILES IDX 15 12 14 13 8 14 7 15 6 16 3 17 4 18 96 19 5 20 95 21 2 22
REMARK SMILES IDX 1 23 12 24 13 25 16 26 17 27 26 28 27 29 28 30 29 31 30 32
REMARK SMILES IDX 31 33 32 34 33 35 94 36 34 37 93 38 35 39 36 40 37 41 87 42
REMARK SMILES IDX 38 43 92 44 86 45 88 46 39 47 91 48 85 49 84 50 40 52 72 53
REMARK SMILES IDX 52 54 71 55 53 56 56 57 70 58 89 59 54 60 55 61 69 63 90 64
REMARK SMILES IDX 57 65 41 66 42 67 50 68 43 69 49 70 51 71 48 72 44 73 45 74
REMARK SMILES IDX 46 75 47 76 73 77 74 78 82 79 75 80 81 81 83 82 80 83 76 84
REMARK SMILES IDX 77 85 78 86 79 87 58 88 59 89 67 90 60 91 66 92 68 93 65 94
REMARK SMILES IDX 61 95 62 96 63 97 64 98
REMARK H PARENT 88 51 56 62
REMARK Flexibility Score: inf
ROOT
ATOM      1  C   UNL     1       6.705  -6.906  -4.314  1.00  0.00     0.202 C 
ENDROOT
BRANCH   1   2
ATOM      2  C   UNL     1       6.607  -5.392  -4.534  1.00  0.00     0.261 C 
BRANCH   2   3
ATOM      3  O   UNL     1       5.511  -5.028  -5.389  1.00  0.00    -0.460 OA
BRANCH   3   4
ATOM      4  C   UNL     1       5.852  -4.332  -6.500  1.00  0.00     0.330 C 
ATOM      5  O   UNL     1       6.965  -3.917  -6.787  1.00  0.00    -0.247 OA
BRANCH   4   6
ATOM      6  C   UNL     1       4.719  -4.142  -7.426  1.00  0.00     0.094 C 
ATOM      7  C   UNL     1       3.522  -4.742  -7.341  1.00  0.00     0.020 C 
BRANCH   7   8
ATOM      8  C   UNL     1       2.486  -4.528  -8.372  1.00  0.00     0.024 A 
ATOM      9  C   UNL     1       1.272  -3.897  -8.001  1.00  0.00    -0.011 A 
ATOM     10  C   UNL     1       0.300  -3.613  -8.976  1.00  0.00     0.055 A 
ATOM     11  C   UNL     1       0.494  -3.954 -10.313  1.00  0.00     0.123 A 
ATOM     12  C   UNL     1       2.662  -4.895  -9.725  1.00  0.00     0.130 A 
ATOM     13  C   UNL     1       1.674  -4.592 -10.679  1.00  0.00     0.093 A 
BRANCH   9  14
ATOM     14  C   UNL     1       0.913  -3.539  -6.616  1.00  0.00     0.009 C 
ATOM     15  C   UNL     1       1.625  -2.694  -5.853  1.00  0.00     0.009 C 
BRANCH  15  16
ATOM     16  C   UNL     1       1.303  -2.344  -4.460  1.00  0.00    -0.025 A 
ATOM     17  C   UNL     1       0.773  -1.557  -1.813  1.00  0.00     0.118 A 
ATOM     18  C   UNL     1      -0.241  -2.093  -2.599  1.00  0.00     0.047 A 
ATOM     19  C   UNL     1       2.064  -1.448  -2.324  1.00  0.00     0.047 A 
ATOM     20  C   UNL     1       0.016  -2.468  -3.920  1.00  0.00     0.012 A 
ATOM     21  C   UNL     1       2.324  -1.833  -3.644  1.00  0.00     0.012 A 
BRANCH  17  22
ATOM     22  O   UNL     1       0.423  -1.206  -0.541  1.00  0.00    -0.497 OA
ATOM     23  C   UNL     1       0.927   0.067  -0.146  1.00  0.00     0.278 C 
ENDBRANCH  17  22
ENDBRANCH  15  16
ENDBRANCH   9  14
BRANCH  11  24
ATOM     24  O   UNL     1      -0.528  -3.605 -11.152  1.00  0.00    -0.497 OA
ATOM     25  C   UNL     1      -0.463  -4.102 -12.483  1.00  0.00     0.278 C 
ENDBRANCH  11  24
BRANCH  12  26
ATOM     26  O   UNL     1       3.772  -5.472 -10.294  1.00  0.00    -0.496 OA
ATOM     27  C   UNL     1       4.404  -6.534  -9.591  1.00  0.00     0.278 C 
ENDBRANCH  12  26
ENDBRANCH   7   8
ENDBRANCH   4   6
ENDBRANCH   3   4
ENDBRANCH   2   3
ENDBRANCH   1   2
BRANCH   1  28
ATOM     28  O   UNL     1       6.745  -7.727  -5.479  1.00  0.00    -0.374 OA
BRANCH  28  29
ATOM     29  C   UNL     1       5.521  -7.926  -6.186  1.00  0.00     0.202 C 
BRANCH  29  30
ATOM     30  C   UNL     1       4.435  -8.771  -5.506  1.00  0.00     0.261 C 
BRANCH  30  31
ATOM     31  O   UNL     1       3.884  -8.139  -4.335  1.00  0.00    -0.460 OA
BRANCH  31  32
ATOM     32  C   UNL     1       4.078  -8.830  -3.180  1.00  0.00     0.338 C 
ATOM     33  O   UNL     1       4.601  -9.924  -3.064  1.00  0.00    -0.246 OA
BRANCH  32  34
ATOM     34  C   UNL     1       3.738  -7.990  -2.015  1.00  0.00     0.060 A 
ATOM     35  C   UNL     1       4.745  -7.764  -1.069  1.00  0.00     0.016 A 
ATOM     36  C   UNL     1       2.441  -7.521  -1.796  1.00  0.00     0.016 A 
ATOM     37  C   UNL     1       4.447  -7.109   0.124  1.00  0.00     0.010 A 
ATOM     38  C   UNL     1       2.143  -6.869  -0.592  1.00  0.00     0.010 A 
ATOM     39  C   UNL     1       3.136  -6.692   0.389  1.00  0.00    -0.014 A 
BRANCH  39  40
ATOM     40  C   UNL     1       2.798  -6.210   1.753  1.00  0.00     0.031 A 
ATOM     41  C   UNL     1       2.143  -7.157   2.724  1.00  0.00     0.074 A 
ATOM     42  C   UNL     1       3.134  -4.967   2.143  1.00  0.00     0.049 A 
ATOM     43  N   UNL     1       1.791  -6.962   3.969  1.00  0.00    -0.248 NA
ATOM     44  C   UNL     1       1.845  -8.506   2.219  1.00  0.00     0.031 C 
ATOM     45  C   UNL     1       3.797  -3.971   1.302  1.00  0.00     0.029 A 
ATOM     46  N   UNL     1       2.968  -4.332   3.349  1.00  0.00    -0.354 N 
ATOM     47  C   UNL     1       1.227  -8.160   4.398  1.00  0.00     0.074 A 
ATOM     48  C   UNL     1       1.250  -9.061   3.265  1.00  0.00     0.031 C 
ATOM     49  C   UNL     1       3.984  -2.850   2.019  1.00  0.00     0.029 A 
ATOM     50  C   UNL     1       3.424  -3.035   3.357  1.00  0.00     0.049 A 
ATOM     51  H   UNL     1       2.561  -4.765   4.134  1.00  0.00     0.167 HD
ATOM     52  C   UNL     1       0.745  -8.480   5.625  1.00  0.00     0.034 A 
ATOM     53  C   UNL     1       3.375  -2.098   4.326  1.00  0.00     0.034 A 
ATOM     54  C   UNL     1       0.716  -7.564   6.741  1.00  0.00     0.049 A 
ATOM     55  C   UNL     1       2.766  -2.454   5.659  1.00  0.00     0.074 A 
ATOM     56  C   UNL     1       0.268  -7.789   8.032  1.00  0.00     0.029 A 
ATOM     57  N   UNL     1       1.137  -6.240   6.697  1.00  0.00    -0.354 N 
ATOM     58  N   UNL     1       2.250  -3.595   6.057  1.00  0.00    -0.248 NA
ATOM     59  C   UNL     1       2.743  -1.395   6.676  1.00  0.00     0.031 C 
ATOM     60  C   UNL     1       0.348  -6.586   8.742  1.00  0.00     0.029 A 
ATOM     61  C   UNL     1       0.927  -5.629   7.925  1.00  0.00     0.049 A 
ATOM     62  H   UNL     1       1.529  -5.800   5.908  1.00  0.00     0.167 HD
ATOM     63  C   UNL     1       1.865  -3.396   7.380  1.00  0.00     0.074 A 
ATOM     64  C   UNL     1       2.228  -2.034   7.715  1.00  0.00     0.031 C 
ATOM     65  C   UNL     1       1.272  -4.262   8.243  1.00  0.00     0.034 A 
BRANCH  52  66
ATOM     66  C   UNL     1       0.158  -9.862   5.800  1.00  0.00     0.023 A 
ATOM     67  C   UNL     1       0.938 -11.025   5.666  1.00  0.00     0.031 A 
ATOM     68  C   UNL     1      -1.212 -10.020   6.076  1.00  0.00     0.131 A 
ATOM     69  C   UNL     1       0.330 -12.289   5.734  1.00  0.00     0.055 A 
ATOM     70  C   UNL     1      -1.796 -11.280   6.222  1.00  0.00     0.041 A 
ATOM     71  F   UNL     1      -2.014  -8.949   6.193  1.00  0.00    -0.206 F 
ATOM     72  C   UNL     1      -1.027 -12.425   6.035  1.00  0.00     0.022 A 
BRANCH  69  73
ATOM     73  S   UNL     1       1.306 -13.749   5.277  1.00  0.00     0.124 S 
ATOM     74  O   UNL     1       1.718 -13.415   3.916  1.00  0.00    -0.237 OA
ATOM     75  O   UNL     1       2.361 -13.750   6.282  1.00  0.00    -0.237 OA
ATOM     76  O   UNL     1       0.347 -14.848   5.377  1.00  0.00    -0.744 OA
ENDBRANCH  69  73
ENDBRANCH  52  66
BRANCH  53  77
ATOM     77  C   UNL     1       3.858  -0.713   4.061  1.00  0.00     0.023 A 
ATOM     78  C   UNL     1       4.944  -0.158   4.753  1.00  0.00     0.031 A 
ATOM     79  C   UNL     1       3.179   0.102   3.139  1.00  0.00     0.131 A 
ATOM     80  C   UNL     1       5.298   1.184   4.534  1.00  0.00     0.055 A 
ATOM     81  C   UNL     1       3.570   1.416   2.880  1.00  0.00     0.041 A 
ATOM     82  F   UNL     1       2.118  -0.376   2.476  1.00  0.00    -0.206 F 
ATOM     83  C   UNL     1       4.630   1.968   3.589  1.00  0.00     0.022 A 
BRANCH  80  84
ATOM     84  S   UNL     1       6.591   1.925   5.567  1.00  0.00     0.124 S 
ATOM     85  O   UNL     1       6.034   1.759   6.904  1.00  0.00    -0.237 OA
ATOM     86  O   UNL     1       7.748   1.096   5.245  1.00  0.00    -0.237 OA
ATOM     87  O   UNL     1       6.662   3.303   5.086  1.00  0.00    -0.744 OA
ENDBRANCH  80  84
ENDBRANCH  53  77
BRANCH  65  88
ATOM     88  C   UNL     1       1.024  -3.763   9.648  1.00  0.00     0.023 A 
ATOM     89  C   UNL     1       0.131  -2.710   9.916  1.00  0.00     0.031 A 
ATOM     90  C   UNL     1       1.725  -4.324  10.731  1.00  0.00     0.131 A 
ATOM     91  C   UNL     1       0.017  -2.204  11.220  1.00  0.00     0.055 A 
ATOM     92  C   UNL     1       1.555  -3.862  12.037  1.00  0.00     0.041 A 
ATOM     93  F   UNL     1       2.594  -5.329  10.536  1.00  0.00    -0.206 F 
ATOM     94  C   UNL     1       0.710  -2.784  12.284  1.00  0.00     0.022 A 
BRANCH  91  95
ATOM     95  S   UNL     1      -0.954  -0.694  11.486  1.00  0.00     0.124 S 
ATOM     96  O   UNL     1      -0.317   0.243  10.567  1.00  0.00    -0.237 OA
ATOM     97  O   UNL     1      -2.302  -1.123  11.127  1.00  0.00    -0.237 OA
ATOM     98  O   UNL     1      -0.754  -0.404  12.905  1.00  0.00    -0.744 OA
ENDBRANCH  91  95
ENDBRANCH  65  88
ENDBRANCH  39  40
ENDBRANCH  32  34
ENDBRANCH  31  32
ENDBRANCH  30  31
ENDBRANCH  29  30
ENDBRANCH  28  29
ENDBRANCH   1  28
TORSDOF 23
