REMARK SMILES CCCc1nc(C[N@H+]2CCCC[C@@H]2C(=O)OCCOCCOC(=O)c2ccc(-c3c4nc(c(-c5cc(S(=O)(=O)[O-])ccc5F)c5ccc([nH]5)c(-c5cc(S(=O)(=O)[O-])ccc5F)c5nc(c(-c6cc(S(=O)(=O)[O-])ccc6F)c6ccc3[nH]6)C=C5)C=C4)cc2)cs1
REMARK SMILES IDX 18 1 17 2 16 3 14 4 15 5 13 6 8 7 9 8 10 10 12 11 11 12 7 13
REMARK SMILES IDX 6 14 4 15 5 16 89 17 88 18 3 19 2 20 1 21 19 22 20 23 21 24
REMARK SMILES IDX 22 25 23 26 24 27 25 28 26 29 87 30 27 31 86 32 28 33 29 34
REMARK SMILES IDX 30 35 80 36 31 37 85 38 79 39 81 40 32 41 84 42 78 43 77 44
REMARK SMILES IDX 33 46 65 47 45 48 64 49 46 50 49 51 63 52 82 53 47 54 48 55
REMARK SMILES IDX 62 57 83 58 50 59 34 60 35 61 43 62 36 63 42 64 44 65 41 66
REMARK SMILES IDX 37 67 38 68 39 69 40 70 66 71 67 72 75 73 68 74 74 75 76 76
REMARK SMILES IDX 73 77 69 78 70 79 71 80 72 81 51 82 52 83 60 84 53 85 59 86
REMARK SMILES IDX 61 87 58 88 54 89 55 90 56 91 57 92
REMARK H PARENT 8 9 81 45 49 56
REMARK Flexibility Score: inf
ROOT
ATOM      1  C   UNL     1      -1.471   8.366   5.445  1.00  0.00     0.202 C 
ENDROOT
BRANCH   1   2
ATOM      2  C   UNL     1      -0.190   8.197   4.617  1.00  0.00     0.261 C 
BRANCH   2   3
ATOM      3  O   UNL     1      -0.399   7.615   3.325  1.00  0.00    -0.459 OA
BRANCH   3   4
ATOM      4  C   UNL     1      -0.221   6.267   3.305  1.00  0.00     0.364 C 
ATOM      5  O   UNL     1       0.085   5.615   4.301  1.00  0.00    -0.245 OA
BRANCH   4   6
ATOM      6  C   UNL     1      -0.515   5.610   1.935  1.00  0.00     0.295 C 
ATOM      7  N   UNL     1       0.708   5.021   1.333  1.00  0.00    -0.318 N 
ATOM      8  C   UNL     1       0.438   4.346   0.055  1.00  0.00     0.263 C 
ATOM      9  H   UNL     1       1.296   5.835   1.151  1.00  0.00     0.349 HD
ATOM     10  C   UNL     1      -0.253   5.267  -0.952  1.00  0.00     0.062 C 
ATOM     11  C   UNL     1      -1.207   6.567   0.945  1.00  0.00     0.078 C 
ATOM     12  C   UNL     1      -1.525   5.861  -0.369  1.00  0.00     0.013 C 
BRANCH   7  13
ATOM     13  C   UNL     1       1.512   4.162   2.234  1.00  0.00     0.321 C 
BRANCH  13  14
ATOM     14  C   UNL     1       0.849   2.878   2.671  1.00  0.00     0.106 A 
ATOM     15  C   UNL     1       0.716   0.660   2.672  1.00  0.00     0.093 A 
ATOM     16  N   UNL     1       1.379   1.688   2.191  1.00  0.00    -0.240 NA
ATOM     17  S   UNL     1      -0.579   1.037   3.727  1.00  0.00    -0.127 S 
ATOM     18  C   UNL     1      -0.209   2.698   3.546  1.00  0.00     0.096 A 
BRANCH  15  19
ATOM     19  C   UNL     1       1.029  -0.756   2.320  1.00  0.00     0.067 C 
BRANCH  19  20
ATOM     20  C   UNL     1       0.428  -1.157   0.971  1.00  0.00     0.004 C 
ATOM     21  C   UNL     1       0.936  -0.317  -0.195  1.00  0.00     0.004 C 
ENDBRANCH  19  20
ENDBRANCH  15  19
ENDBRANCH  13  14
ENDBRANCH   7  13
ENDBRANCH   4   6
ENDBRANCH   3   4
ENDBRANCH   2   3
ENDBRANCH   1   2
BRANCH   1  22
ATOM     22  O   UNL     1      -2.396   7.285   5.503  1.00  0.00    -0.374 OA
BRANCH  22  23
ATOM     23  C   UNL     1      -3.209   7.008   4.363  1.00  0.00     0.202 C 
BRANCH  23  24
ATOM     24  C   UNL     1      -4.136   8.107   3.832  1.00  0.00     0.261 C 
BRANCH  24  25
ATOM     25  O   UNL     1      -3.406   9.200   3.245  1.00  0.00    -0.460 OA
BRANCH  25  26
ATOM     26  C   UNL     1      -3.645  10.403   3.819  1.00  0.00     0.338 C 
ATOM     27  O   UNL     1      -4.445  10.641   4.717  1.00  0.00    -0.246 OA
BRANCH  26  28
ATOM     28  C   UNL     1      -2.656  11.394   3.368  1.00  0.00     0.060 A 
ATOM     29  C   UNL     1      -1.884  12.034   4.347  1.00  0.00     0.016 A 
ATOM     30  C   UNL     1      -2.570  11.779   2.029  1.00  0.00     0.016 A 
ATOM     31  C   UNL     1      -1.068  13.107   4.002  1.00  0.00     0.010 A 
ATOM     32  C   UNL     1      -1.760  12.867   1.686  1.00  0.00     0.010 A 
ATOM     33  C   UNL     1      -1.043  13.562   2.678  1.00  0.00    -0.014 A 
BRANCH  33  34
ATOM     34  C   UNL     1      -0.442  14.884   2.376  1.00  0.00     0.031 A 
ATOM     35  C   UNL     1      -1.354  16.078   2.277  1.00  0.00     0.074 A 
ATOM     36  C   UNL     1       0.887  15.028   2.232  1.00  0.00     0.049 A 
ATOM     37  N   UNL     1      -1.076  17.315   1.958  1.00  0.00    -0.248 NA
ATOM     38  C   UNL     1      -2.775  15.837   2.575  1.00  0.00     0.031 C 
ATOM     39  C   UNL     1       1.871  13.957   2.374  1.00  0.00     0.029 A 
ATOM     40  N   UNL     1       1.635  16.136   1.928  1.00  0.00    -0.354 N 
ATOM     41  C   UNL     1      -2.286  17.999   2.007  1.00  0.00     0.074 A 
ATOM     42  C   UNL     1      -3.304  17.030   2.354  1.00  0.00     0.031 C 
ATOM     43  C   UNL     1       3.096  14.459   2.141  1.00  0.00     0.029 A 
ATOM     44  C   UNL     1       2.978  15.874   1.792  1.00  0.00     0.049 A 
ATOM     45  H   UNL     1       1.248  17.035   1.817  1.00  0.00     0.167 HD
ATOM     46  C   UNL     1      -2.524  19.316   1.788  1.00  0.00     0.034 A 
ATOM     47  C   UNL     1       3.988  16.677   1.400  1.00  0.00     0.034 A 
ATOM     48  C   UNL     1      -1.498  20.264   1.433  1.00  0.00     0.049 A 
ATOM     49  C   UNL     1       3.687  18.121   1.070  1.00  0.00     0.074 A 
ATOM     50  C   UNL     1      -1.623  21.620   1.185  1.00  0.00     0.029 A 
ATOM     51  N   UNL     1      -0.154  19.953   1.264  1.00  0.00    -0.354 N 
ATOM     52  N   UNL     1       2.537  18.755   1.106  1.00  0.00    -0.248 NA
ATOM     53  C   UNL     1       4.820  18.957   0.653  1.00  0.00     0.031 C 
ATOM     54  C   UNL     1      -0.371  22.113   0.800  1.00  0.00     0.029 A 
ATOM     55  C   UNL     1       0.553  21.084   0.887  1.00  0.00     0.049 A 
ATOM     56  H   UNL     1       0.238  19.059   1.394  1.00  0.00     0.167 HD
ATOM     57  C   UNL     1       2.819  20.074   0.755  1.00  0.00     0.074 A 
ATOM     58  C   UNL     1       4.245  20.143   0.514  1.00  0.00     0.031 C 
ATOM     59  C   UNL     1       1.977  21.134   0.651  1.00  0.00     0.034 A 
BRANCH  46  60
ATOM     60  C   UNL     1      -3.958  19.783   1.868  1.00  0.00     0.023 A 
ATOM     61  C   UNL     1      -4.690  19.733   3.067  1.00  0.00     0.031 A 
ATOM     62  C   UNL     1      -4.614  20.248   0.715  1.00  0.00     0.131 A 
ATOM     63  C   UNL     1      -6.052  20.074   3.070  1.00  0.00     0.055 A 
ATOM     64  C   UNL     1      -5.947  20.662   0.742  1.00  0.00     0.041 A 
ATOM     65  F   UNL     1      -3.974  20.294  -0.465  1.00  0.00    -0.206 F 
ATOM     66  C   UNL     1      -6.679  20.561   1.921  1.00  0.00     0.022 A 
BRANCH  63  67
ATOM     67  S   UNL     1      -7.029  19.732   4.560  1.00  0.00     0.124 S 
ATOM     68  O   UNL     1      -6.843  18.291   4.710  1.00  0.00    -0.237 OA
ATOM     69  O   UNL     1      -6.380  20.569   5.562  1.00  0.00    -0.237 OA
ATOM     70  O   UNL     1      -8.381  20.142   4.185  1.00  0.00    -0.744 OA
ENDBRANCH  63  67
ENDBRANCH  46  60
BRANCH  47  71
ATOM     71  C   UNL     1       5.369  16.135   1.249  1.00  0.00     0.023 A 
ATOM     72  C   UNL     1       6.428  16.608   2.039  1.00  0.00     0.031 A 
ATOM     73  C   UNL     1       5.658  15.169   0.268  1.00  0.00     0.131 A 
ATOM     74  C   UNL     1       7.734  16.148   1.805  1.00  0.00     0.055 A 
ATOM     75  C   UNL     1       6.949  14.675   0.075  1.00  0.00     0.041 A 
ATOM     76  F   UNL     1       4.682  14.684  -0.516  1.00  0.00    -0.206 F 
ATOM     77  C   UNL     1       7.999  15.175   0.838  1.00  0.00     0.022 A 
BRANCH  74  78
ATOM     78  S   UNL     1       9.100  16.905   2.727  1.00  0.00     0.124 S 
ATOM     79  O   UNL     1       8.963  18.309   2.360  1.00  0.00    -0.237 OA
ATOM     80  O   UNL     1       8.759  16.565   4.105  1.00  0.00    -0.237 OA
ATOM     81  O   UNL     1      10.283  16.232   2.196  1.00  0.00    -0.744 OA
ENDBRANCH  74  78
ENDBRANCH  47  71
BRANCH  59  82
ATOM     82  C   UNL     1       2.591  22.475   0.327  1.00  0.00     0.023 A 
ATOM     83  C   UNL     1       3.158  22.753  -0.929  1.00  0.00     0.031 A 
ATOM     84  C   UNL     1       2.596  23.494   1.296  1.00  0.00     0.131 A 
ATOM     85  C   UNL     1       3.747  24.004  -1.167  1.00  0.00     0.055 A 
ATOM     86  C   UNL     1       3.132  24.755   1.035  1.00  0.00     0.041 A 
ATOM     87  F   UNL     1       2.067  23.283   2.513  1.00  0.00    -0.206 F 
ATOM     88  C   UNL     1       3.722  25.012  -0.199  1.00  0.00     0.022 A 
BRANCH  85  89
ATOM     89  S   UNL     1       4.614  24.278  -2.736  1.00  0.00     0.124 S 
ATOM     90  O   UNL     1       5.638  23.238  -2.702  1.00  0.00    -0.237 OA
ATOM     91  O   UNL     1       3.550  24.093  -3.718  1.00  0.00    -0.237 OA
ATOM     92  O   UNL     1       5.115  25.646  -2.618  1.00  0.00    -0.744 OA
ENDBRANCH  85  89
ENDBRANCH  59  82
ENDBRANCH  33  34
ENDBRANCH  26  28
ENDBRANCH  25  26
ENDBRANCH  24  25
ENDBRANCH  23  24
ENDBRANCH  22  23
ENDBRANCH   1  22
TORSDOF 21
