REMARK SMILES O=C(OCCOCCOC(=O)[C@H](c1cnn(Cc2ccccc2)c1)[NH+]1CCOCC1)c1ccc(-c2c3nc(c(-c4cc(S(=O)(=O)[O-])ccc4F)c4ccc([nH]4)c(-c4cc(S(=O)(=O)[O-])ccc4F)c4nc(c(-c5cc(S(=O)(=O)[O-])ccc5F)c5ccc2[nH]5)C=C4)C=C3)cc1
REMARK SMILES IDX 6 1 5 2 4 3 3 4 2 5 1 6 31 7 32 8 93 9 33 10 92 11 34 12
REMARK SMILES IDX 35 13 36 14 86 15 37 16 91 17 85 18 87 19 38 20 90 21 84 22
REMARK SMILES IDX 83 23 39 25 71 26 51 27 70 28 52 29 55 30 69 31 88 32 53 33
REMARK SMILES IDX 54 34 68 36 89 37 56 38 40 39 41 40 49 41 42 42 48 43 50 44
REMARK SMILES IDX 47 45 43 46 44 47 45 48 46 49 72 50 73 51 81 52 74 53 80 54
REMARK SMILES IDX 82 55 79 56 75 57 76 58 77 59 78 60 57 61 58 62 66 63 59 64
REMARK SMILES IDX 65 65 67 66 64 67 60 68 61 69 62 70 63 71 7 72 8 73 9 74
REMARK SMILES IDX 10 75 11 76 12 77 25 78 26 79 30 80 27 82 29 83 28 84 13 85
REMARK SMILES IDX 14 86 24 87 15 88 16 89 17 90 18 91 19 92 23 93 20 94 22 95
REMARK SMILES IDX 21 96
REMARK H PARENT 87 24 55 35 25 81
REMARK Flexibility Score: inf
ROOT
ATOM      1  O   UNL     1       5.354   3.580  -2.443  1.00  0.00    -0.374 OA
ENDROOT
BRANCH   1   2
ATOM      2  C   UNL     1       6.088   3.083  -1.330  1.00  0.00     0.202 C 
BRANCH   2   3
ATOM      3  C   UNL     1       7.539   3.514  -1.099  1.00  0.00     0.261 C 
BRANCH   3   4
ATOM      4  O   UNL     1       7.649   4.891  -0.707  1.00  0.00    -0.460 OA
BRANCH   4   5
ATOM      5  C   UNL     1       7.516   5.994  -1.472  1.00  0.00     0.338 C 
ATOM      6  O   UNL     1       7.121   7.028  -0.933  1.00  0.00    -0.246 OA
BRANCH   5   7
ATOM      7  C   UNL     1       7.851   6.029  -2.930  1.00  0.00     0.060 A 
ATOM      8  C   UNL     1       8.064   4.923  -3.751  1.00  0.00     0.016 A 
ATOM      9  C   UNL     1       7.936   7.309  -3.510  1.00  0.00     0.016 A 
ATOM     10  C   UNL     1       8.581   5.079  -5.023  1.00  0.00     0.010 A 
ATOM     11  C   UNL     1       8.382   7.474  -4.815  1.00  0.00     0.010 A 
ATOM     12  C   UNL     1       8.793   6.357  -5.531  1.00  0.00    -0.014 A 
BRANCH  12  13
ATOM     13  C   UNL     1       9.437   6.437  -6.833  1.00  0.00     0.031 A 
ATOM     14  C   UNL     1       8.760   5.695  -7.931  1.00  0.00     0.074 A 
ATOM     15  C   UNL     1      10.577   7.123  -7.032  1.00  0.00     0.049 A 
ATOM     16  N   UNL     1       9.198   4.671  -8.587  1.00  0.00    -0.248 NA
ATOM     17  C   UNL     1       7.369   6.052  -8.241  1.00  0.00     0.031 C 
ATOM     18  C   UNL     1      11.244   8.063  -6.128  1.00  0.00     0.029 A 
ATOM     19  N   UNL     1      11.337   7.184  -8.158  1.00  0.00    -0.354 N 
ATOM     20  C   UNL     1       8.220   4.364  -9.530  1.00  0.00     0.074 A 
ATOM     21  C   UNL     1       7.067   5.151  -9.176  1.00  0.00     0.031 C 
ATOM     22  C   UNL     1      12.157   8.775  -6.825  1.00  0.00     0.029 A 
ATOM     23  C   UNL     1      12.240   8.236  -8.172  1.00  0.00     0.049 A 
ATOM     24  H   UNL     1      11.254   6.538  -8.896  1.00  0.00     0.167 HD
ATOM     25  C   UNL     1       8.498   3.615 -10.633  1.00  0.00     0.034 A 
ATOM     26  C   UNL     1      12.944   8.686  -9.242  1.00  0.00     0.034 A 
ATOM     27  C   UNL     1       9.704   2.845 -10.453  1.00  0.00     0.049 A 
ATOM     28  C   UNL     1      13.042   7.554 -10.199  1.00  0.00     0.074 A 
ATOM     29  C   UNL     1      10.093   1.850  -9.575  1.00  0.00     0.029 A 
ATOM     30  N   UNL     1      10.867   3.298 -11.033  1.00  0.00    -0.354 N 
ATOM     31  N   UNL     1      13.695   6.452  -9.939  1.00  0.00    -0.248 NA
ATOM     32  C   UNL     1      12.030   7.439 -11.240  1.00  0.00     0.031 C 
ATOM     33  C   UNL     1      11.464   2.122  -9.300  1.00  0.00     0.029 A 
ATOM     34  C   UNL     1      11.846   3.221 -10.074  1.00  0.00     0.049 A 
ATOM     35  H   UNL     1      10.975   3.616 -11.958  1.00  0.00     0.167 HD
ATOM     36  C   UNL     1      12.910   5.435 -10.459  1.00  0.00     0.074 A 
ATOM     37  C   UNL     1      11.948   6.108 -11.329  1.00  0.00     0.031 C 
ATOM     38  C   UNL     1      12.931   4.173  -9.934  1.00  0.00     0.034 A 
BRANCH  25  39
ATOM     39  C   UNL     1       7.872   3.816 -11.995  1.00  0.00     0.023 A 
ATOM     40  C   UNL     1       8.302   2.972 -13.040  1.00  0.00     0.031 A 
ATOM     41  C   UNL     1       7.128   4.950 -12.391  1.00  0.00     0.131 A 
ATOM     42  C   UNL     1       8.096   3.323 -14.386  1.00  0.00     0.055 A 
ATOM     43  C   UNL     1       6.867   5.259 -13.729  1.00  0.00     0.041 A 
ATOM     44  F   UNL     1       6.697   5.871 -11.523  1.00  0.00    -0.206 F 
ATOM     45  C   UNL     1       7.382   4.464 -14.738  1.00  0.00     0.022 A 
BRANCH  42  46
ATOM     46  S   UNL     1       8.950   2.366 -15.666  1.00  0.00     0.124 S 
ATOM     47  O   UNL     1      10.328   2.397 -15.188  1.00  0.00    -0.237 OA
ATOM     48  O   UNL     1       8.268   1.079 -15.585  1.00  0.00    -0.237 OA
ATOM     49  O   UNL     1       8.696   3.131 -16.885  1.00  0.00    -0.744 OA
ENDBRANCH  42  46
ENDBRANCH  25  39
BRANCH  26  50
ATOM     50  C   UNL     1      13.141  10.117  -9.597  1.00  0.00     0.023 A 
ATOM     51  C   UNL     1      14.153  10.556 -10.473  1.00  0.00     0.031 A 
ATOM     52  C   UNL     1      12.166  11.074  -9.224  1.00  0.00     0.131 A 
ATOM     53  C   UNL     1      14.167  11.898 -10.925  1.00  0.00     0.055 A 
ATOM     54  C   UNL     1      12.191  12.398  -9.665  1.00  0.00     0.041 A 
ATOM     55  F   UNL     1      11.105  10.733  -8.476  1.00  0.00    -0.206 F 
ATOM     56  C   UNL     1      13.191  12.814 -10.525  1.00  0.00     0.022 A 
BRANCH  53  57
ATOM     57  S   UNL     1      15.425  12.451 -12.120  1.00  0.00     0.124 S 
ATOM     58  O   UNL     1      16.650  12.386 -11.331  1.00  0.00    -0.237 OA
ATOM     59  O   UNL     1      15.290  11.472 -13.191  1.00  0.00    -0.237 OA
ATOM     60  O   UNL     1      14.991  13.805 -12.470  1.00  0.00    -0.744 OA
ENDBRANCH  53  57
ENDBRANCH  26  50
BRANCH  38  61
ATOM     61  C   UNL     1      14.028   3.800  -8.961  1.00  0.00     0.023 A 
ATOM     62  C   UNL     1      14.234   4.414  -7.705  1.00  0.00     0.031 A 
ATOM     63  C   UNL     1      14.784   2.652  -9.262  1.00  0.00     0.131 A 
ATOM     64  C   UNL     1      15.171   3.869  -6.804  1.00  0.00     0.055 A 
ATOM     65  C   UNL     1      15.696   2.107  -8.361  1.00  0.00     0.041 A 
ATOM     66  F   UNL     1      14.606   2.006 -10.426  1.00  0.00    -0.206 F 
ATOM     67  C   UNL     1      15.895   2.716  -7.127  1.00  0.00     0.022 A 
BRANCH  64  68
ATOM     68  S   UNL     1      15.456   4.642  -5.178  1.00  0.00     0.124 S 
ATOM     69  O   UNL     1      15.711   6.040  -5.507  1.00  0.00    -0.237 OA
ATOM     70  O   UNL     1      14.209   4.366  -4.470  1.00  0.00    -0.237 OA
ATOM     71  O   UNL     1      16.619   3.920  -4.656  1.00  0.00    -0.744 OA
ENDBRANCH  64  68
ENDBRANCH  38  61
ENDBRANCH  12  13
ENDBRANCH   5   7
ENDBRANCH   4   5
ENDBRANCH   3   4
ENDBRANCH   2   3
ENDBRANCH   1   2
BRANCH   1  72
ATOM     72  C   UNL     1       4.702   4.850  -2.405  1.00  0.00     0.202 C 
BRANCH  72  73
ATOM     73  C   UNL     1       3.588   5.137  -1.398  1.00  0.00     0.261 C 
BRANCH  73  74
ATOM     74  O   UNL     1       3.975   4.873  -0.044  1.00  0.00    -0.459 OA
BRANCH  74  75
ATOM     75  C   UNL     1       3.471   3.710   0.438  1.00  0.00     0.370 C 
ATOM     76  O   UNL     1       2.770   2.974  -0.256  1.00  0.00    -0.245 OA
BRANCH  75  77
ATOM     77  C   UNL     1       3.990   3.352   1.856  1.00  0.00     0.329 C 
BRANCH  77  78
ATOM     78  N   UNL     1       3.823   4.365   2.924  1.00  0.00    -0.315 N 
ATOM     79  C   UNL     1       2.467   4.851   3.191  1.00  0.00     0.292 C 
ATOM     80  C   UNL     1       4.776   5.494   2.903  1.00  0.00     0.292 C 
ATOM     81  H   UNL     1       4.064   3.772   3.718  1.00  0.00     0.349 HD
ATOM     82  C   UNL     1       2.061   6.060   2.342  1.00  0.00     0.221 C 
ATOM     83  C   UNL     1       4.305   6.803   2.229  1.00  0.00     0.221 C 
ATOM     84  O   UNL     1       2.956   7.152   2.568  1.00  0.00    -0.370 OA
ENDBRANCH  77  78
BRANCH  77  85
ATOM     85  C   UNL     1       3.354   2.039   2.273  1.00  0.00     0.059 A 
ATOM     86  C   UNL     1       2.046   1.609   1.928  1.00  0.00     0.145 A 
ATOM     87  C   UNL     1       3.887   0.946   2.937  1.00  0.00     0.119 A 
ATOM     88  N   UNL     1       1.824   0.336   2.221  1.00  0.00    -0.181 NA
ATOM     89  N   UNL     1       2.903  -0.008   2.945  1.00  0.00    -0.268 N 
BRANCH  89  90
ATOM     90  C   UNL     1       2.860  -1.266   3.679  1.00  0.00     0.179 C 
BRANCH  90  91
ATOM     91  C   UNL     1       2.024  -1.132   4.937  1.00  0.00    -0.027 A 
ATOM     92  C   UNL     1       2.497  -1.636   6.153  1.00  0.00     0.005 A 
ATOM     93  C   UNL     1       0.757  -0.515   4.920  1.00  0.00     0.005 A 
ATOM     94  C   UNL     1       1.750  -1.470   7.323  1.00  0.00     0.000 A 
ATOM     95  C   UNL     1       0.026  -0.326   6.089  1.00  0.00     0.000 A 
ATOM     96  C   UNL     1       0.527  -0.801   7.294  1.00  0.00     0.000 A 
ENDBRANCH  90  91
ENDBRANCH  89  90
ENDBRANCH  77  85
ENDBRANCH  75  77
ENDBRANCH  74  75
ENDBRANCH  73  74
ENDBRANCH  72  73
ENDBRANCH   1  72
TORSDOF 21
