REMARK SMILES O=C(OCCOCCOC(=O)c1ccc(-c2c3nc(c(-c4cc(S(=O)(=O)[O-])ccc4F)c4ccc([nH]4)c(-c4cc(S(=O)(=O)[O-])ccc4F)c4nc(c(-c5cc(S(=O)(=O)[O-])ccc5F)c5ccc2[nH]5)C=C4)C=C3)cc1)C1=Cc2cc(S(F)(F)(F)(F)F)ccc2O[C@@H]1C(F)(F)F
REMARK SMILES IDX 7 1 6 2 5 3 4 4 3 5 2 6 1 7 75 8 76 9 90 10 77 11 89 12
REMARK SMILES IDX 78 13 88 14 79 15 87 16 86 17 91 18 92 19 93 20 94 21 80 22
REMARK SMILES IDX 81 23 82 24 83 25 84 26 85 27 8 28 9 29 10 30 11 31 12 32
REMARK SMILES IDX 13 33 74 34 14 35 73 36 15 37 16 38 17 39 67 40 18 41 72 42
REMARK SMILES IDX 66 43 68 44 19 45 71 46 65 47 64 48 20 50 52 51 32 52 51 53
REMARK SMILES IDX 33 54 36 55 50 56 69 57 34 58 35 59 49 61 70 62 37 63 21 64
REMARK SMILES IDX 22 65 30 66 23 67 29 68 31 69 28 70 24 71 25 72 26 73 27 74
REMARK SMILES IDX 53 75 54 76 62 77 55 78 61 79 63 80 60 81 56 82 57 83 58 84
REMARK SMILES IDX 59 85 38 86 39 87 47 88 40 89 46 90 48 91 45 92 41 93 42 94
REMARK SMILES IDX 43 95 44 96
REMARK H PARENT 68 49 36 60
REMARK Flexibility Score: inf
ROOT
ATOM      1  C   UNL     1       3.017  -1.305  -0.607  1.00  0.00     0.202 C 
ENDROOT
BRANCH   1   2
ATOM      2  O   UNL     1       4.437  -1.305  -0.607  1.00  0.00    -0.374 OA
BRANCH   2   3
ATOM      3  C   UNL     1       4.910  -1.026   0.702  1.00  0.00     0.202 C 
BRANCH   3   4
ATOM      4  C   UNL     1       4.403   0.338   1.144  1.00  0.00     0.261 C 
BRANCH   4   5
ATOM      5  O   UNL     1       2.983   0.338   1.144  1.00  0.00    -0.460 OA
BRANCH   5   6
ATOM      6  C   UNL     1       2.273   0.081  -0.059  1.00  0.00     0.338 C 
ATOM      7  O   UNL     1       1.002   0.081  -0.059  1.00  0.00    -0.246 OA
BRANCH   6   8
ATOM      8  C   UNL     1       3.033  -0.194  -1.346  1.00  0.00     0.087 C 
ATOM      9  C   UNL     1       4.394  -0.194  -1.346  1.00  0.00     0.027 C 
ATOM     10  C   UNL     1       2.273  -0.469  -2.634  1.00  0.00     0.316 C 
ATOM     11  C   UNL     1       5.154   0.081  -0.059  1.00  0.00     0.019 A 
ATOM     12  O   UNL     1       3.546  -1.245   1.084  1.00  0.00    -0.475 OA
ATOM     13  C   UNL     1       6.253   0.923  -0.079  1.00  0.00     0.036 A 
ATOM     14  C   UNL     1       4.766  -0.519   1.061  1.00  0.00     0.128 A 
ATOM     15  C   UNL     1       7.059   0.842   1.081  1.00  0.00     0.107 A 
ATOM     16  C   UNL     1       5.535  -0.443   2.197  1.00  0.00     0.048 A 
ATOM     17  C   UNL     1       6.667   0.323   2.230  1.00  0.00     0.028 A 
BRANCH  10  18
ATOM     18  C   UNL     1       2.640  -1.849  -3.154  1.00  0.00     0.430 C 
ATOM     19  F   UNL     1       2.319  -2.766  -2.245  1.00  0.00    -0.167 F 
ATOM     20  F   UNL     1       1.975  -2.090  -4.280  1.00  0.00    -0.167 F 
ATOM     21  F   UNL     1       3.948  -1.900  -3.391  1.00  0.00    -0.167 F 
ENDBRANCH  10  18
BRANCH  15  22
ATOM     22  S   UNL     1       8.744   1.496   0.983  1.00  0.00     0.310 S 
ATOM     23  F   UNL     1       8.900   1.501   2.562  1.00  0.00    -0.094 F 
ATOM     24  F   UNL     1       8.155   2.952   1.105  1.00  0.00    -0.094 F 
ATOM     25  F   UNL     1      10.191   2.058   0.899  1.00  0.00    -0.094 F 
ATOM     26  F   UNL     1       9.324   0.027   1.004  1.00  0.00    -0.094 F 
ATOM     27  F   UNL     1       7.290   0.908   1.181  1.00  0.00    -0.094 F 
ENDBRANCH  15  22
ENDBRANCH   6   8
ENDBRANCH   5   6
ENDBRANCH   4   5
ENDBRANCH   3   4
ENDBRANCH   2   3
ENDBRANCH   1   2
BRANCH   1  28
ATOM     28  C   UNL     1       2.510  -2.369   0.353  1.00  0.00     0.261 C 
BRANCH  28  29
ATOM     29  O   UNL     1       2.983  -2.090   1.662  1.00  0.00    -0.460 OA
BRANCH  29  30
ATOM     30  C   UNL     1       4.379  -2.035   1.916  1.00  0.00     0.338 C 
ATOM     31  O   UNL     1       5.205  -2.237   0.972  1.00  0.00    -0.246 OA
BRANCH  30  32
ATOM     32  C   UNL     1       4.886  -1.736   3.318  1.00  0.00     0.060 A 
ATOM     33  C   UNL     1       5.954  -0.871   3.491  1.00  0.00     0.016 A 
ATOM     34  C   UNL     1       4.326  -2.355   4.350  1.00  0.00     0.016 A 
ATOM     35  C   UNL     1       6.551  -0.946   4.771  1.00  0.00     0.010 A 
ATOM     36  C   UNL     1       4.888  -2.275   5.602  1.00  0.00     0.010 A 
ATOM     37  C   UNL     1       5.979  -1.485   5.833  1.00  0.00    -0.014 A 
BRANCH  37  38
ATOM     38  C   UNL     1       6.508  -1.240   7.238  1.00  0.00     0.031 A 
ATOM     39  C   UNL     1       6.924  -2.348   7.978  1.00  0.00     0.074 A 
ATOM     40  C   UNL     1       6.583   0.066   7.690  1.00  0.00     0.049 A 
ATOM     41  N   UNL     1       7.478  -2.354   9.191  1.00  0.00    -0.248 NA
ATOM     42  C   UNL     1       6.813  -3.739   7.513  1.00  0.00     0.031 C 
ATOM     43  C   UNL     1       6.173   1.190   6.946  1.00  0.00     0.029 A 
ATOM     44  N   UNL     1       7.051   0.514   8.905  1.00  0.00    -0.354 N 
ATOM     45  C   UNL     1       7.759  -3.605   9.564  1.00  0.00     0.074 A 
ATOM     46  C   UNL     1       7.329  -4.514   8.492  1.00  0.00     0.031 C 
ATOM     47  C   UNL     1       6.381   2.297   7.706  1.00  0.00     0.029 A 
ATOM     48  C   UNL     1       6.924   1.885   8.937  1.00  0.00     0.049 A 
ATOM     49  H   UNL     1       7.414  -0.049   9.627  1.00  0.00     0.167 HD
ATOM     50  C   UNL     1       8.357  -4.022  10.754  1.00  0.00     0.034 A 
ATOM     51  C   UNL     1       7.256   2.744   9.972  1.00  0.00     0.034 A 
ATOM     52  C   UNL     1       8.729  -3.158  11.771  1.00  0.00     0.049 A 
ATOM     53  C   UNL     1       7.801   2.321  11.187  1.00  0.00     0.074 A 
ATOM     54  C   UNL     1       9.340  -3.562  12.974  1.00  0.00     0.029 A 
ATOM     55  N   UNL     1       8.579  -1.790  11.813  1.00  0.00    -0.354 N 
ATOM     56  N   UNL     1       8.117   1.075  11.543  1.00  0.00    -0.248 NA
ATOM     57  C   UNL     1       8.126   3.219  12.303  1.00  0.00     0.031 C 
ATOM     58  C   UNL     1       9.547  -2.454  13.734  1.00  0.00     0.029 A 
ATOM     59  C   UNL     1       9.068  -1.340  13.019  1.00  0.00     0.049 A 
ATOM     60  H   UNL     1       8.189  -1.230  11.103  1.00  0.00     0.167 HD
ATOM     61  C   UNL     1       8.634   1.065  12.773  1.00  0.00     0.074 A 
ATOM     62  C   UNL     1       8.640   2.444  13.283  1.00  0.00     0.031 C 
ATOM     63  C   UNL     1       9.104  -0.036  13.490  1.00  0.00     0.034 A 
BRANCH  50  64
ATOM     64  C   UNL     1       8.616  -5.508  10.944  1.00  0.00     0.023 A 
ATOM     65  C   UNL     1       9.429  -6.174  10.042  1.00  0.00     0.031 A 
ATOM     66  C   UNL     1       8.052  -6.145  11.963  1.00  0.00     0.131 A 
ATOM     67  C   UNL     1       9.355  -7.584  10.136  1.00  0.00     0.055 A 
ATOM     68  C   UNL     1       8.134  -7.513  12.066  1.00  0.00     0.041 A 
ATOM     69  F   UNL     1       7.401  -5.453  12.894  1.00  0.00    -0.206 F 
ATOM     70  C   UNL     1       8.873  -8.241  11.175  1.00  0.00     0.022 A 
BRANCH  67  71
ATOM     71  S   UNL     1       9.964  -8.554   8.734  1.00  0.00     0.124 S 
ATOM     72  O   UNL     1       9.166  -8.193   7.479  1.00  0.00    -0.237 OA
ATOM     73  O   UNL     1      11.445  -8.244   8.504  1.00  0.00    -0.237 OA
ATOM     74  O   UNL     1       9.776 -10.220   9.070  1.00  0.00    -0.744 OA
ENDBRANCH  67  71
ENDBRANCH  50  64
BRANCH  51  75
ATOM     75  C   UNL     1       7.013   4.232   9.775  1.00  0.00     0.023 A 
ATOM     76  C   UNL     1       8.090   5.100   9.847  1.00  0.00     0.031 A 
ATOM     77  C   UNL     1       5.784   4.676   9.539  1.00  0.00     0.131 A 
ATOM     78  C   UNL     1       7.722   6.463   9.941  1.00  0.00     0.055 A 
ATOM     79  C   UNL     1       5.521   6.025   9.511  1.00  0.00     0.041 A 
ATOM     80  F   UNL     1       4.799   3.808   9.327  1.00  0.00    -0.206 F 
ATOM     81  C   UNL     1       6.530   6.940   9.634  1.00  0.00     0.022 A 
BRANCH  78  82
ATOM     82  S   UNL     1       8.973   7.634  10.525  1.00  0.00     0.124 S 
ATOM     83  O   UNL     1       9.422   7.240  11.934  1.00  0.00    -0.237 OA
ATOM     84  O   UNL     1      10.176   7.607   9.579  1.00  0.00    -0.237 OA
ATOM     85  O   UNL     1       8.308   9.209  10.557  1.00  0.00    -0.744 OA
ENDBRANCH  78  82
ENDBRANCH  51  75
BRANCH  63  86
ATOM     86  C   UNL     1       9.689   0.208  14.871  1.00  0.00     0.023 A 
ATOM     87  C   UNL     1       8.913   0.812  15.846  1.00  0.00     0.031 A 
ATOM     88  C   UNL     1      10.951  -0.134  15.109  1.00  0.00     0.131 A 
ATOM     89  C   UNL     1       9.652   1.281  16.958  1.00  0.00     0.055 A 
ATOM     90  C   UNL     1      11.569   0.242  16.277  1.00  0.00     0.041 A 
ATOM     91  F   UNL     1      11.621  -0.845  14.207  1.00  0.00    -0.206 F 
ATOM     92  C   UNL     1      10.878   0.894  17.260  1.00  0.00     0.022 A 
BRANCH  89  93
ATOM     93  S   UNL     1       8.861   2.495  18.043  1.00  0.00     0.124 S 
ATOM     94  O   UNL     1       8.511   3.748  17.237  1.00  0.00    -0.237 OA
ATOM     95  O   UNL     1       7.583   1.896  18.634  1.00  0.00    -0.237 OA
ATOM     96  O   UNL     1       9.933   2.913  19.308  1.00  0.00    -0.744 OA
ENDBRANCH  89  93
ENDBRANCH  63  86
ENDBRANCH  37  38
ENDBRANCH  30  32
ENDBRANCH  29  30
ENDBRANCH  28  29
ENDBRANCH   1  28
TORSDOF 19
