REMARK SMILES O=C(OCCOCCOC(=O)[C@@H]1CCCN(C(=O)c2c(F)cc(Br)cc2F)C1)c1ccc(-c2c3nc(c(-c4cc(S(=O)(=O)[O-])ccc4F)c4ccc([nH]4)c(-c4cc(S(=O)(=O)[O-])ccc4F)c4nc(c(-c5cc(S(=O)(=O)[O-])ccc5F)c5ccc2[nH]5)C=C4)C=C3)cc1
REMARK SMILES IDX 5 1 4 2 3 3 2 4 1 5 29 6 30 7 91 8 31 9 90 10 32 11 33 12
REMARK SMILES IDX 34 13 84 14 35 15 89 16 83 17 85 18 36 19 88 20 82 21 81 22
REMARK SMILES IDX 37 24 69 25 49 26 68 27 50 28 53 29 67 30 86 31 51 32 52 33
REMARK SMILES IDX 66 35 87 36 54 37 38 38 39 39 47 40 40 41 46 42 48 43 45 44
REMARK SMILES IDX 41 45 42 46 43 47 44 48 70 49 71 50 79 51 72 52 78 53 80 54
REMARK SMILES IDX 77 55 73 56 74 57 75 58 76 59 55 60 56 61 64 62 57 63 63 64
REMARK SMILES IDX 65 65 62 66 58 67 59 68 60 69 61 70 6 71 7 72 8 73 9 74
REMARK SMILES IDX 10 75 11 76 12 77 13 78 28 79 14 80 16 81 15 82 17 83 18 84
REMARK SMILES IDX 19 85 20 86 26 87 21 88 22 89 25 90 27 91 23 92 24 93
REMARK H PARENT 85 23 53 34
REMARK Flexibility Score: inf
ROOT
ATOM      1  C   UNL     1       4.247   0.932  -1.063  1.00  0.00     0.202 C 
ENDROOT
BRANCH   1   2
ATOM      2  C   UNL     1       4.085  -0.585  -1.220  1.00  0.00     0.261 C 
BRANCH   2   3
ATOM      3  O   UNL     1       2.732  -0.987  -0.959  1.00  0.00    -0.460 OA
BRANCH   3   4
ATOM      4  C   UNL     1       2.187  -1.322   0.237  1.00  0.00     0.338 C 
ATOM      5  O   UNL     1       0.970  -1.496   0.294  1.00  0.00    -0.246 OA
BRANCH   4   6
ATOM      6  C   UNL     1       2.981  -1.500   1.492  1.00  0.00     0.060 A 
ATOM      7  C   UNL     1       4.204  -0.885   1.762  1.00  0.00     0.016 A 
ATOM      8  C   UNL     1       2.412  -2.292   2.504  1.00  0.00     0.016 A 
ATOM      9  C   UNL     1       4.863  -1.057   2.957  1.00  0.00     0.010 A 
ATOM     10  C   UNL     1       3.063  -2.466   3.730  1.00  0.00     0.010 A 
ATOM     11  C   UNL     1       4.298  -1.849   3.944  1.00  0.00    -0.014 A 
BRANCH  11  12
ATOM     12  C   UNL     1       5.161  -2.116   5.099  1.00  0.00     0.031 A 
ATOM     13  C   UNL     1       5.911  -3.409   5.107  1.00  0.00     0.074 A 
ATOM     14  C   UNL     1       5.440  -1.109   5.946  1.00  0.00     0.049 A 
ATOM     15  N   UNL     1       6.742  -3.877   5.992  1.00  0.00    -0.248 NA
ATOM     16  C   UNL     1       5.715  -4.284   3.936  1.00  0.00     0.031 C 
ATOM     17  C   UNL     1       4.885   0.247   5.851  1.00  0.00     0.029 A 
ATOM     18  N   UNL     1       6.295  -1.044   7.008  1.00  0.00    -0.354 N 
ATOM     19  C   UNL     1       7.159  -5.106   5.497  1.00  0.00     0.074 A 
ATOM     20  C   UNL     1       6.475  -5.322   4.243  1.00  0.00     0.031 C 
ATOM     21  C   UNL     1       5.428   1.011   6.811  1.00  0.00     0.029 A 
ATOM     22  C   UNL     1       6.296   0.180   7.636  1.00  0.00     0.049 A 
ATOM     23  H   UNL     1       6.857  -1.799   7.296  1.00  0.00     0.167 HD
ATOM     24  C   UNL     1       8.040  -5.967   6.056  1.00  0.00     0.034 A 
ATOM     25  C   UNL     1       6.894   0.552   8.783  1.00  0.00     0.034 A 
ATOM     26  C   UNL     1       8.671  -5.701   7.322  1.00  0.00     0.049 A 
ATOM     27  C   UNL     1       7.735  -0.492   9.477  1.00  0.00     0.074 A 
ATOM     28  C   UNL     1       9.473  -6.525   8.085  1.00  0.00     0.029 A 
ATOM     29  N   UNL     1       8.559  -4.496   8.013  1.00  0.00    -0.354 N 
ATOM     30  N   UNL     1       8.028  -1.713   9.079  1.00  0.00    -0.248 NA
ATOM     31  C   UNL     1       8.320  -0.121  10.767  1.00  0.00     0.031 C 
ATOM     32  C   UNL     1       9.793  -5.842   9.265  1.00  0.00     0.029 A 
ATOM     33  C   UNL     1       9.262  -4.561   9.202  1.00  0.00     0.049 A 
ATOM     34  H   UNL     1       8.052  -3.712   7.701  1.00  0.00     0.167 HD
ATOM     35  C   UNL     1       8.852  -2.247  10.063  1.00  0.00     0.074 A 
ATOM     36  C   UNL     1       9.031  -1.200  11.053  1.00  0.00     0.031 C 
ATOM     37  C   UNL     1       9.407  -3.484  10.155  1.00  0.00     0.034 A 
BRANCH  24  38
ATOM     38  C   UNL     1       8.250  -7.279   5.347  1.00  0.00     0.023 A 
ATOM     39  C   UNL     1       8.827  -7.347   4.065  1.00  0.00     0.031 A 
ATOM     40  C   UNL     1       7.763  -8.470   5.913  1.00  0.00     0.131 A 
ATOM     41  C   UNL     1       8.826  -8.562   3.362  1.00  0.00     0.055 A 
ATOM     42  C   UNL     1       7.842  -9.691   5.242  1.00  0.00     0.041 A 
ATOM     43  F   UNL     1       7.165  -8.461   7.115  1.00  0.00    -0.206 F 
ATOM     44  C   UNL     1       8.361  -9.740   3.951  1.00  0.00     0.022 A 
BRANCH  41  45
ATOM     45  S   UNL     1       9.287  -8.550   1.606  1.00  0.00     0.124 S 
ATOM     46  O   UNL     1       8.265  -7.672   1.040  1.00  0.00    -0.237 OA
ATOM     47  O   UNL     1      10.643  -8.013   1.637  1.00  0.00    -0.237 OA
ATOM     48  O   UNL     1       9.180  -9.953   1.213  1.00  0.00    -0.744 OA
ENDBRANCH  41  45
ENDBRANCH  24  38
BRANCH  25  49
ATOM     49  C   UNL     1       6.641   1.893   9.391  1.00  0.00     0.023 A 
ATOM     50  C   UNL     1       7.691   2.763   9.722  1.00  0.00     0.031 A 
ATOM     51  C   UNL     1       5.333   2.292   9.734  1.00  0.00     0.131 A 
ATOM     52  C   UNL     1       7.425   3.948  10.429  1.00  0.00     0.055 A 
ATOM     53  C   UNL     1       5.067   3.504  10.372  1.00  0.00     0.041 A 
ATOM     54  F   UNL     1       4.284   1.501   9.458  1.00  0.00    -0.206 F 
ATOM     55  C   UNL     1       6.119   4.331  10.743  1.00  0.00     0.022 A 
BRANCH  52  56
ATOM     56  S   UNL     1       8.824   4.918  11.058  1.00  0.00     0.124 S 
ATOM     57  O   UNL     1       9.566   3.914  11.811  1.00  0.00    -0.237 OA
ATOM     58  O   UNL     1       9.446   5.385   9.823  1.00  0.00    -0.237 OA
ATOM     59  O   UNL     1       8.184   5.956  11.863  1.00  0.00    -0.744 OA
ENDBRANCH  52  56
ENDBRANCH  25  49
BRANCH  37  60
ATOM     60  C   UNL     1      10.294  -3.729  11.347  1.00  0.00     0.023 A 
ATOM     61  C   UNL     1       9.782  -3.745  12.654  1.00  0.00     0.031 A 
ATOM     62  C   UNL     1      11.672  -3.935  11.166  1.00  0.00     0.131 A 
ATOM     63  C   UNL     1      10.656  -3.890  13.738  1.00  0.00     0.055 A 
ATOM     64  C   UNL     1      12.525  -4.157  12.245  1.00  0.00     0.041 A 
ATOM     65  F   UNL     1      12.210  -3.927   9.935  1.00  0.00    -0.206 F 
ATOM     66  C   UNL     1      12.020  -4.118  13.542  1.00  0.00     0.022 A 
BRANCH  63  67
ATOM     67  S   UNL     1      10.000  -3.658  15.412  1.00  0.00     0.124 S 
ATOM     68  O   UNL     1       9.455  -2.306  15.337  1.00  0.00    -0.237 OA
ATOM     69  O   UNL     1       9.022  -4.735  15.516  1.00  0.00    -0.237 OA
ATOM     70  O   UNL     1      11.179  -3.806  16.263  1.00  0.00    -0.744 OA
ENDBRANCH  63  67
ENDBRANCH  37  60
ENDBRANCH  11  12
ENDBRANCH   4   6
ENDBRANCH   3   4
ENDBRANCH   2   3
ENDBRANCH   1   2
BRANCH   1  71
ATOM     71  O   UNL     1       3.821   1.454   0.199  1.00  0.00    -0.374 OA
BRANCH  71  72
ATOM     72  C   UNL     1       2.436   1.799   0.319  1.00  0.00     0.202 C 
BRANCH  72  73
ATOM     73  C   UNL     1       2.267   3.311   0.405  1.00  0.00     0.261 C 
BRANCH  73  74
ATOM     74  O   UNL     1       2.838   3.862  -0.786  1.00  0.00    -0.463 OA
BRANCH  74  75
ATOM     75  C   UNL     1       4.175   4.097  -0.677  1.00  0.00     0.310 C 
ATOM     76  O   UNL     1       4.806   4.139   0.374  1.00  0.00    -0.252 OA
BRANCH  75  77
ATOM     77  C   UNL     1       4.787   4.240  -2.057  1.00  0.00     0.119 C 
ATOM     78  C   UNL     1       6.319   4.177  -1.991  1.00  0.00     0.019 C 
ATOM     79  C   UNL     1       4.355   5.568  -2.648  1.00  0.00     0.135 C 
ATOM     80  C   UNL     1       6.929   5.386  -1.270  1.00  0.00     0.022 C 
ATOM     81  N   UNL     1       4.802   6.622  -1.751  1.00  0.00    -0.338 N 
ATOM     82  C   UNL     1       6.261   6.726  -1.611  1.00  0.00     0.120 C 
BRANCH  81  83
ATOM     83  C   UNL     1       3.826   7.203  -0.938  1.00  0.00     0.259 C 
ATOM     84  O   UNL     1       2.622   6.993  -1.074  1.00  0.00    -0.269 OA
BRANCH  83  85
ATOM     85  C   UNL     1       4.204   8.102   0.145  1.00  0.00     0.111 A 
ATOM     86  C   UNL     1       4.810   9.318  -0.142  1.00  0.00     0.140 A 
ATOM     87  C   UNL     1       3.819   7.814   1.454  1.00  0.00     0.140 A 
ATOM     88  F   UNL     1       5.147   9.634  -1.401  1.00  0.00    -0.206 F 
ATOM     89  C   UNL     1       5.066  10.236   0.869  1.00  0.00     0.056 A 
ATOM     90  C   UNL     1       4.065   8.725   2.479  1.00  0.00     0.056 A 
ATOM     91  F   UNL     1       3.194   6.667   1.755  1.00  0.00    -0.206 F 
ATOM     92  C   UNL     1       4.687   9.935   2.177  1.00  0.00     0.023 A 
ATOM     93  Br  UNL     1       4.995  11.201   3.544  1.00  0.00    -0.051 Br
ENDBRANCH  83  85
ENDBRANCH  81  83
ENDBRANCH  75  77
ENDBRANCH  74  75
ENDBRANCH  73  74
ENDBRANCH  72  73
ENDBRANCH  71  72
ENDBRANCH   1  71
TORSDOF 19
