REMARK SMILES C[NH2+]CCCC(=O)NC[C@@H]1CC[C@H](C(=O)OCCOCCOC(=O)c2ccc(-c3c4nc(c(-c5cc(S(=O)(=O)[O-])ccc5F)c5ccc([nH]5)c(-c5cc(S(=O)(=O)[O-])ccc5F)c5nc(c(-c6cc(S(=O)(=O)[O-])ccc6F)c6ccc3[nH]6)C=C5)C=C4)cc2)O1
REMARK SMILES IDX 17 1 16 2 14 3 15 4 13 5 10 6 11 7 88 8 12 9 9 10 8 11 6 12
REMARK SMILES IDX 7 13 5 15 4 16 3 17 2 18 1 19 18 22 19 23 20 24 21 25 22 26
REMARK SMILES IDX 23 27 24 28 25 29 26 30 87 31 27 32 86 33 28 34 29 35 30 36
REMARK SMILES IDX 80 37 31 38 85 39 79 40 81 41 32 42 84 43 78 44 77 45 33 47
REMARK SMILES IDX 65 48 45 49 64 50 46 51 49 52 63 53 82 54 47 55 48 56 62 58
REMARK SMILES IDX 83 59 50 60 34 61 35 62 43 63 36 64 42 65 44 66 41 67 37 68
REMARK SMILES IDX 38 69 39 70 40 71 66 72 67 73 75 74 68 75 74 76 76 77 73 78
REMARK SMILES IDX 69 79 70 80 71 81 72 82 51 83 52 84 60 85 53 86 59 87 61 88
REMARK SMILES IDX 58 89 54 90 55 91 56 92 57 93
REMARK H PARENT 8 14 2 20 2 21 81 46 49 57
REMARK Flexibility Score: inf
ROOT
ATOM      1  C   UNL     1      -4.240  -0.701  -0.587  1.00  0.00     0.261 C 
ENDROOT
BRANCH   1   2
ATOM      2  O   UNL     1      -3.689  -1.583   0.408  1.00  0.00    -0.461 OA
BRANCH   2   3
ATOM      3  C   UNL     1      -3.099  -0.970   1.474  1.00  0.00     0.335 C 
ATOM      4  O   UNL     1      -3.070   0.244   1.652  1.00  0.00    -0.249 OA
BRANCH   3   5
ATOM      5  C   UNL     1      -2.421  -1.959   2.433  1.00  0.00     0.228 C 
ATOM      6  C   UNL     1      -1.064  -3.714   1.660  1.00  0.00     0.138 C 
ATOM      7  C   UNL     1      -2.477  -4.261   1.818  1.00  0.00     0.037 C 
ATOM      8  O   UNL     1      -1.119  -2.313   1.966  1.00  0.00    -0.361 OA
ATOM      9  C   UNL     1      -3.154  -3.256   2.719  1.00  0.00     0.047 C 
BRANCH   6  10
ATOM     10  C   UNL     1      -0.378  -3.948   0.291  1.00  0.00     0.147 C 
BRANCH  10  11
ATOM     11  N   UNL     1      -1.301  -3.897  -0.838  1.00  0.00    -0.353 N 
ATOM     12  C   UNL     1      -1.389  -3.068  -1.905  1.00  0.00     0.220 C 
ATOM     13  O   UNL     1      -2.426  -3.100  -2.571  1.00  0.00    -0.275 OA
ATOM     14  H   UNL     1      -1.991  -4.599  -0.820  1.00  0.00     0.163 HD
BRANCH  12  15
ATOM     15  C   UNL     1      -0.250  -2.153  -2.290  1.00  0.00     0.106 C 
BRANCH  15  16
ATOM     16  C   UNL     1      -0.549  -0.685  -1.985  1.00  0.00     0.071 C 
BRANCH  16  17
ATOM     17  C   UNL     1      -0.258  -0.285  -0.540  1.00  0.00     0.260 C 
BRANCH  17  18
ATOM     18  N   UNL     1       1.162  -0.317  -0.184  1.00  0.00    -0.349 N 
ATOM     19  C   UNL     1       1.781   0.990  -0.332  1.00  0.00     0.330 C 
ATOM     20  H   UNL     1       1.253  -0.618   0.786  1.00  0.00     0.346 HD
ATOM     21  H   UNL     1       1.633  -0.966  -0.814  1.00  0.00     0.346 HD
ENDBRANCH  17  18
ENDBRANCH  16  17
ENDBRANCH  15  16
ENDBRANCH  12  15
ENDBRANCH  10  11
ENDBRANCH   6  10
ENDBRANCH   3   5
ENDBRANCH   2   3
ENDBRANCH   1   2
BRANCH   1  22
ATOM     22  C   UNL     1      -5.771  -0.698  -0.646  1.00  0.00     0.202 C 
BRANCH  22  23
ATOM     23  O   UNL     1      -6.472  -0.353   0.545  1.00  0.00    -0.374 OA
BRANCH  23  24
ATOM     24  C   UNL     1      -6.478  -1.301   1.609  1.00  0.00     0.202 C 
BRANCH  24  25
ATOM     25  C   UNL     1      -7.216  -2.626   1.377  1.00  0.00     0.261 C 
BRANCH  25  26
ATOM     26  O   UNL     1      -6.614  -3.442   0.354  1.00  0.00    -0.460 OA
BRANCH  26  27
ATOM     27  C   UNL     1      -7.442  -3.747  -0.679  1.00  0.00     0.338 C 
ATOM     28  O   UNL     1      -8.626  -3.451  -0.780  1.00  0.00    -0.246 OA
BRANCH  27  29
ATOM     29  C   UNL     1      -6.700  -4.382  -1.782  1.00  0.00     0.060 A 
ATOM     30  C   UNL     1      -6.700  -3.742  -3.028  1.00  0.00     0.016 A 
ATOM     31  C   UNL     1      -6.129  -5.647  -1.636  1.00  0.00     0.016 A 
ATOM     32  C   UNL     1      -6.156  -4.379  -4.143  1.00  0.00     0.010 A 
ATOM     33  C   UNL     1      -5.593  -6.289  -2.760  1.00  0.00     0.010 A 
ATOM     34  C   UNL     1      -5.628  -5.671  -4.024  1.00  0.00    -0.014 A 
BRANCH  34  35
ATOM     35  C   UNL     1      -5.218  -6.427  -5.236  1.00  0.00     0.031 A 
ATOM     36  C   UNL     1      -6.155  -7.453  -5.814  1.00  0.00     0.074 A 
ATOM     37  C   UNL     1      -4.026  -6.202  -5.815  1.00  0.00     0.049 A 
ATOM     38  N   UNL     1      -5.958  -8.301  -6.790  1.00  0.00    -0.248 NA
ATOM     39  C   UNL     1      -7.492  -7.530  -5.207  1.00  0.00     0.031 C 
ATOM     40  C   UNL     1      -3.062  -5.190  -5.389  1.00  0.00     0.029 A 
ATOM     41  N   UNL     1      -3.414  -6.823  -6.877  1.00  0.00    -0.354 N 
ATOM     42  C   UNL     1      -7.144  -9.018  -6.915  1.00  0.00     0.074 A 
ATOM     43  C   UNL     1      -8.042  -8.522  -5.893  1.00  0.00     0.031 C 
ATOM     44  C   UNL     1      -1.968  -5.275  -6.166  1.00  0.00     0.029 A 
ATOM     45  C   UNL     1      -2.134  -6.378  -7.110  1.00  0.00     0.049 A 
ATOM     46  H   UNL     1      -3.850  -7.520  -7.418  1.00  0.00     0.167 HD
ATOM     47  C   UNL     1      -7.453  -9.995  -7.804  1.00  0.00     0.034 A 
ATOM     48  C   UNL     1      -1.189  -6.837  -7.956  1.00  0.00     0.034 A 
ATOM     49  C   UNL     1      -6.542 -10.484  -8.810  1.00  0.00     0.049 A 
ATOM     50  C   UNL     1      -1.509  -8.015  -8.844  1.00  0.00     0.074 A 
ATOM     51  C   UNL     1      -6.764 -11.447  -9.781  1.00  0.00     0.029 A 
ATOM     52  N   UNL     1      -5.227 -10.065  -8.963  1.00  0.00    -0.354 N 
ATOM     53  N   UNL     1      -2.632  -8.687  -8.954  1.00  0.00    -0.248 NA
ATOM     54  C   UNL     1      -0.429  -8.505  -9.713  1.00  0.00     0.031 C 
ATOM     55  C   UNL     1      -5.564 -11.662 -10.468  1.00  0.00     0.029 A 
ATOM     56  C   UNL     1      -4.611 -10.784  -9.976  1.00  0.00     0.049 A 
ATOM     57  H   UNL     1      -4.795  -9.359  -8.431  1.00  0.00     0.167 HD
ATOM     58  C   UNL     1      -2.398  -9.664  -9.918  1.00  0.00     0.074 A 
ATOM     59  C   UNL     1      -1.033  -9.488 -10.367  1.00  0.00     0.031 C 
ATOM     60  C   UNL     1      -3.239 -10.617 -10.394  1.00  0.00     0.034 A 
BRANCH  47  61
ATOM     61  C   UNL     1      -8.814 -10.635  -7.686  1.00  0.00     0.023 A 
ATOM     62  C   UNL     1      -9.997  -9.917  -7.930  1.00  0.00     0.031 A 
ATOM     63  C   UNL     1      -8.928 -11.984  -7.302  1.00  0.00     0.131 A 
ATOM     64  C   UNL     1     -11.243 -10.532  -7.727  1.00  0.00     0.055 A 
ATOM     65  C   UNL     1     -10.169 -12.610  -7.171  1.00  0.00     0.041 A 
ATOM     66  F   UNL     1      -7.833 -12.713  -7.036  1.00  0.00    -0.206 F 
ATOM     67  C   UNL     1     -11.336 -11.879  -7.371  1.00  0.00     0.022 A 
BRANCH  64  68
ATOM     68  S   UNL     1     -12.740  -9.510  -7.808  1.00  0.00     0.124 S 
ATOM     69  O   UNL     1     -12.467  -8.502  -6.787  1.00  0.00    -0.237 OA
ATOM     70  O   UNL     1     -12.727  -9.042  -9.189  1.00  0.00    -0.237 OA
ATOM     71  O   UNL     1     -13.812 -10.447  -7.476  1.00  0.00    -0.744 OA
ENDBRANCH  64  68
ENDBRANCH  47  61
BRANCH  48  72
ATOM     72  C   UNL     1       0.177  -6.239  -7.955  1.00  0.00     0.023 A 
ATOM     73  C   UNL     1       0.688  -5.585  -9.087  1.00  0.00     0.031 A 
ATOM     74  C   UNL     1       1.014  -6.364  -6.831  1.00  0.00     0.131 A 
ATOM     75  C   UNL     1       2.010  -5.115  -9.083  1.00  0.00     0.055 A 
ATOM     76  C   UNL     1       2.311  -5.851  -6.815  1.00  0.00     0.041 A 
ATOM     77  F   UNL     1       0.578  -6.988  -5.724  1.00  0.00    -0.206 F 
ATOM     78  C   UNL     1       2.820  -5.231  -7.951  1.00  0.00     0.022 A 
BRANCH  75  79
ATOM     79  S   UNL     1       2.690  -4.416 -10.613  1.00  0.00     0.124 S 
ATOM     80  O   UNL     1       2.545  -5.533 -11.540  1.00  0.00    -0.237 OA
ATOM     81  O   UNL     1       1.812  -3.273 -10.841  1.00  0.00    -0.237 OA
ATOM     82  O   UNL     1       4.065  -4.079 -10.252  1.00  0.00    -0.744 OA
ENDBRANCH  75  79
ENDBRANCH  48  72
BRANCH  60  83
ATOM     83  C   UNL     1      -2.705 -11.528 -11.471  1.00  0.00     0.023 A 
ATOM     84  C   UNL     1      -1.720 -12.493 -11.197  1.00  0.00     0.031 A 
ATOM     85  C   UNL     1      -3.192 -11.433 -12.787  1.00  0.00     0.131 A 
ATOM     86  C   UNL     1      -1.226 -13.300 -12.233  1.00  0.00     0.055 A 
ATOM     87  C   UNL     1      -2.733 -12.273 -13.802  1.00  0.00     0.041 A 
ATOM     88  F   UNL     1      -4.132 -10.527 -13.103  1.00  0.00    -0.206 F 
ATOM     89  C   UNL     1      -1.738 -13.207 -13.530  1.00  0.00     0.022 A 
BRANCH  86  90
ATOM     90  S   UNL     1       0.141 -14.439 -11.878  1.00  0.00     0.124 S 
ATOM     91  O   UNL     1       1.207 -13.521 -11.490  1.00  0.00    -0.237 OA
ATOM     92  O   UNL     1      -0.408 -15.266 -10.809  1.00  0.00    -0.237 OA
ATOM     93  O   UNL     1       0.351 -15.131 -13.149  1.00  0.00    -0.744 OA
ENDBRANCH  86  90
ENDBRANCH  60  83
ENDBRANCH  34  35
ENDBRANCH  27  29
ENDBRANCH  26  27
ENDBRANCH  25  26
ENDBRANCH  24  25
ENDBRANCH  23  24
ENDBRANCH  22  23
ENDBRANCH   1  22
TORSDOF 23
