REMARK SMILES O=C1CN(S(=O)(=O)c2ccc(CC(=O)OCCOCCOC(=O)c3ccc(-c4c5nc(c(-c6cc(S(=O)(=O)[O-])ccc6F)c6ccc([nH]6)c(-c6cc(S(=O)(=O)[O-])ccc6F)c6nc(c(-c7cc(S(=O)(=O)[O-])ccc7F)c7ccc4[nH]7)C=C6)C=C5)cc3)cc2)CCN1
REMARK SMILES IDX 18 1 17 2 16 3 15 4 13 5 14 6 12 7 11 8 8 9 9 10 88 11 10 12
REMARK SMILES IDX 87 13 5 14 6 15 7 16 4 17 1 18 2 19 3 20 91 21 90 22 89 24
REMARK SMILES IDX 19 25 20 26 21 27 22 28 23 29 24 30 25 31 86 32 26 33 85 34
REMARK SMILES IDX 27 35 28 36 29 37 79 38 30 39 84 40 78 41 80 42 31 43 83 44
REMARK SMILES IDX 77 45 76 46 32 48 64 49 44 50 63 51 45 52 48 53 62 54 81 55
REMARK SMILES IDX 46 56 47 57 61 59 82 60 49 61 33 62 34 63 42 64 35 65 41 66
REMARK SMILES IDX 43 67 40 68 36 69 37 70 38 71 39 72 65 73 66 74 74 75 67 76
REMARK SMILES IDX 73 77 75 78 72 79 68 80 69 81 70 82 71 83 50 84 51 85 59 86
REMARK SMILES IDX 52 87 58 88 60 89 57 90 53 91 54 92 55 93 56 94
REMARK H PARENT 91 23 80 47 48 58
REMARK Flexibility Score: inf
ROOT
ATOM      1  O   UNL     1      -1.554  -5.405   8.580  1.00  0.00    -0.374 OA
ENDROOT
BRANCH   1   2
ATOM      2  C   UNL     1      -0.341  -4.735   8.918  1.00  0.00     0.202 C 
BRANCH   2   3
ATOM      3  C   UNL     1       0.942  -5.198   8.220  1.00  0.00     0.261 C 
BRANCH   3   4
ATOM      4  O   UNL     1       0.867  -5.118   6.784  1.00  0.00    -0.463 OA
BRANCH   4   5
ATOM      5  C   UNL     1       0.894  -6.306   6.127  1.00  0.00     0.310 C 
ATOM      6  O   UNL     1       1.042  -7.399   6.669  1.00  0.00    -0.252 OA
BRANCH   5   7
ATOM      7  C   UNL     1       0.757  -6.199   4.625  1.00  0.00     0.158 C 
BRANCH   7   8
ATOM      8  C   UNL     1       0.193  -4.930   4.022  1.00  0.00    -0.037 A 
ATOM      9  C   UNL     1      -0.815  -2.614   2.789  1.00  0.00     0.082 A 
ATOM     10  C   UNL     1      -1.681  -3.664   3.103  1.00  0.00     0.022 A 
ATOM     11  C   UNL     1       0.541  -2.702   3.116  1.00  0.00     0.022 A 
ATOM     12  C   UNL     1      -1.174  -4.819   3.714  1.00  0.00     0.006 A 
ATOM     13  C   UNL     1       1.043  -3.859   3.718  1.00  0.00     0.006 A 
BRANCH   9  14
ATOM     14  S   UNL     1      -1.463  -1.078   2.167  1.00  0.00     0.243 S 
ATOM     15  O   UNL     1      -0.616  -0.019   2.683  1.00  0.00    -0.207 OA
ATOM     16  O   UNL     1      -2.885  -1.066   2.417  1.00  0.00    -0.207 OA
BRANCH  14  17
ATOM     17  N   UNL     1      -1.267  -1.138   0.465  1.00  0.00    -0.187 NA
ATOM     18  O   UNL     1       2.194  -0.038   0.034  1.00  0.00    -0.274 OA
ATOM     19  C   UNL     1       0.966  -0.006   0.012  1.00  0.00     0.235 C 
ATOM     20  C   UNL     1       0.129  -1.274  -0.037  1.00  0.00     0.202 C 
ATOM     21  N   UNL     1       0.302   1.189  -0.105  1.00  0.00    -0.354 N 
ATOM     22  C   UNL     1      -1.139   1.332   0.015  1.00  0.00     0.132 C 
ATOM     23  H   UNL     1       0.834   1.998  -0.282  1.00  0.00     0.163 HD
ATOM     24  C   UNL     1      -1.911   0.028  -0.238  1.00  0.00     0.124 C 
ENDBRANCH  14  17
ENDBRANCH   9  14
ENDBRANCH   7   8
ENDBRANCH   5   7
ENDBRANCH   4   5
ENDBRANCH   3   4
ENDBRANCH   2   3
ENDBRANCH   1   2
BRANCH   1  25
ATOM     25  C   UNL     1      -2.127  -5.136   7.303  1.00  0.00     0.202 C 
BRANCH  25  26
ATOM     26  C   UNL     1      -2.779  -3.765   7.069  1.00  0.00     0.261 C 
BRANCH  26  27
ATOM     27  O   UNL     1      -1.867  -2.666   7.214  1.00  0.00    -0.460 OA
BRANCH  27  28
ATOM     28  C   UNL     1      -2.082  -1.914   8.323  1.00  0.00     0.338 C 
ATOM     29  O   UNL     1      -2.970  -2.068   9.147  1.00  0.00    -0.246 OA
BRANCH  28  30
ATOM     30  C   UNL     1      -0.968  -0.969   8.535  1.00  0.00     0.060 A 
ATOM     31  C   UNL     1      -0.407  -0.925   9.818  1.00  0.00     0.016 A 
ATOM     32  C   UNL     1      -0.542  -0.084   7.543  1.00  0.00     0.016 A 
ATOM     33  C   UNL     1       0.529   0.053  10.138  1.00  0.00     0.010 A 
ATOM     34  C   UNL     1       0.398   0.902   7.868  1.00  0.00     0.010 A 
ATOM     35  C   UNL     1       0.900   1.004   9.179  1.00  0.00    -0.014 A 
BRANCH  35  36
ATOM     36  C   UNL     1       1.666   2.201   9.611  1.00  0.00     0.031 A 
ATOM     37  C   UNL     1       0.925   3.496   9.819  1.00  0.00     0.074 A 
ATOM     38  C   UNL     1       2.983   2.121   9.872  1.00  0.00     0.049 A 
ATOM     39  N   UNL     1       1.381   4.668  10.181  1.00  0.00    -0.248 NA
ATOM     40  C   UNL     1      -0.527   3.462   9.585  1.00  0.00     0.031 C 
ATOM     41  C   UNL     1       3.791   0.907   9.759  1.00  0.00     0.029 A 
ATOM     42  N   UNL     1       3.872   3.079  10.291  1.00  0.00    -0.354 N 
ATOM     43  C   UNL     1       0.275   5.512  10.210  1.00  0.00     0.074 A 
ATOM     44  C   UNL     1      -0.865   4.726   9.789  1.00  0.00     0.031 C 
ATOM     45  C   UNL     1       5.059   1.196  10.096  1.00  0.00     0.029 A 
ATOM     46  C   UNL     1       5.162   2.619  10.410  1.00  0.00     0.049 A 
ATOM     47  H   UNL     1       3.610   4.007  10.487  1.00  0.00     0.167 HD
ATOM     48  C   UNL     1       0.215   6.820  10.566  1.00  0.00     0.034 A 
ATOM     49  C   UNL     1       6.298   3.279  10.716  1.00  0.00     0.034 A 
ATOM     50  C   UNL     1       1.367   7.588  10.974  1.00  0.00     0.049 A 
ATOM     51  C   UNL     1       6.222   4.755  11.028  1.00  0.00     0.074 A 
ATOM     52  C   UNL     1       1.424   8.916  11.360  1.00  0.00     0.029 A 
ATOM     53  N   UNL     1       2.667   7.101  11.039  1.00  0.00    -0.354 N 
ATOM     54  N   UNL     1       5.171   5.543  11.052  1.00  0.00    -0.248 NA
ATOM     55  C   UNL     1       7.484   5.426  11.367  1.00  0.00     0.031 C 
ATOM     56  C   UNL     1       2.765   9.251  11.581  1.00  0.00     0.029 A 
ATOM     57  C   UNL     1       3.536   8.110  11.426  1.00  0.00     0.049 A 
ATOM     58  H   UNL     1       2.932   6.175  10.839  1.00  0.00     0.167 HD
ATOM     59  C   UNL     1       5.642   6.793  11.449  1.00  0.00     0.074 A 
ATOM     60  C   UNL     1       7.067   6.649  11.662  1.00  0.00     0.031 C 
ATOM     61  C   UNL     1       4.958   7.953  11.631  1.00  0.00     0.034 A 
BRANCH  48  62
ATOM     62  C   UNL     1      -1.127   7.507  10.469  1.00  0.00     0.023 A 
ATOM     63  C   UNL     1      -2.227   7.110  11.252  1.00  0.00     0.031 A 
ATOM     64  C   UNL     1      -1.320   8.558   9.554  1.00  0.00     0.131 A 
ATOM     65  C   UNL     1      -3.481   7.708  11.053  1.00  0.00     0.055 A 
ATOM     66  C   UNL     1      -2.550   9.205   9.421  1.00  0.00     0.041 A 
ATOM     67  F   UNL     1      -0.317   8.966   8.760  1.00  0.00    -0.206 F 
ATOM     68  C   UNL     1      -3.644   8.771  10.162  1.00  0.00     0.022 A 
BRANCH  65  69
ATOM     69  S   UNL     1      -4.930   6.979  11.867  1.00  0.00     0.124 S 
ATOM     70  O   UNL     1      -4.901   5.612  11.352  1.00  0.00    -0.237 OA
ATOM     71  O   UNL     1      -4.611   7.137  13.280  1.00  0.00    -0.237 OA
ATOM     72  O   UNL     1      -6.042   7.795  11.382  1.00  0.00    -0.744 OA
ENDBRANCH  65  69
ENDBRANCH  48  62
BRANCH  49  73
ATOM     73  C   UNL     1       7.611   2.568  10.709  1.00  0.00     0.023 A 
ATOM     74  C   UNL     1       8.386   2.455  11.874  1.00  0.00     0.031 A 
ATOM     75  C   UNL     1       8.136   2.038   9.516  1.00  0.00     0.131 A 
ATOM     76  C   UNL     1       9.662   1.871  11.812  1.00  0.00     0.055 A 
ATOM     77  C   UNL     1       9.379   1.406   9.472  1.00  0.00     0.041 A 
ATOM     78  F   UNL     1       7.439   2.121   8.371  1.00  0.00    -0.206 F 
ATOM     79  C   UNL     1      10.157   1.333  10.623  1.00  0.00     0.022 A 
BRANCH  76  80
ATOM     80  S   UNL     1      10.709   1.911  13.293  1.00  0.00     0.124 S 
ATOM     81  O   UNL     1      10.788   3.342  13.562  1.00  0.00    -0.237 OA
ATOM     82  O   UNL     1       9.926   1.122  14.238  1.00  0.00    -0.237 OA
ATOM     83  O   UNL     1      11.953   1.288  12.846  1.00  0.00    -0.744 OA
ENDBRANCH  76  80
ENDBRANCH  49  73
BRANCH  61  84
ATOM     84  C   UNL     1       5.737   9.141  12.146  1.00  0.00     0.023 A 
ATOM     85  C   UNL     1       6.757   9.750  11.394  1.00  0.00     0.031 A 
ATOM     86  C   UNL     1       5.458   9.663  13.423  1.00  0.00     0.131 A 
ATOM     87  C   UNL     1       7.501  10.803  11.948  1.00  0.00     0.055 A 
ATOM     88  C   UNL     1       6.155  10.755  13.941  1.00  0.00     0.041 A 
ATOM     89  F   UNL     1       4.498   9.121  14.189  1.00  0.00    -0.206 F 
ATOM     90  C   UNL     1       7.194  11.322  13.209  1.00  0.00     0.022 A 
BRANCH  87  91
ATOM     91  S   UNL     1       8.949  11.418  11.045  1.00  0.00     0.124 S 
ATOM     92  O   UNL     1       9.747  10.205  10.890  1.00  0.00    -0.237 OA
ATOM     93  O   UNL     1       8.353  11.949   9.824  1.00  0.00    -0.237 OA
ATOM     94  O   UNL     1       9.515  12.421  11.945  1.00  0.00    -0.744 OA
ENDBRANCH  87  91
ENDBRANCH  61  84
ENDBRANCH  35  36
ENDBRANCH  28  30
ENDBRANCH  27  28
ENDBRANCH  26  27
ENDBRANCH  25  26
ENDBRANCH   1  25
TORSDOF 20
