REMARK SMILES O=C(CSc1nc(-c2cccc(F)c2)n[nH]1)OCCOCCOC(=O)c1ccc(-c2c3nc(c(-c4cc(S(=O)(=O)[O-])ccc4F)c4ccc([nH]4)c(-c4cc(S(=O)(=O)[O-])ccc4F)c4nc(c(-c5cc(S(=O)(=O)[O-])ccc5F)c5ccc2[nH]5)C=C4)C=C3)cc1
REMARK SMILES IDX 20 1 19 2 18 3 17 4 2 5 1 6 3 7 4 8 5 9 6 10 16 11 7 12
REMARK SMILES IDX 15 13 8 15 9 16 14 17 10 18 12 19 11 20 13 21 21 22 22 23
REMARK SMILES IDX 23 24 24 25 25 26 26 27 27 28 88 29 28 30 87 31 29 32 30 33
REMARK SMILES IDX 31 34 81 35 32 36 86 37 80 38 82 39 33 40 85 41 79 42 78 43
REMARK SMILES IDX 34 45 66 46 46 47 65 48 47 49 50 50 64 51 83 52 48 53 49 54
REMARK SMILES IDX 63 56 84 57 51 58 35 59 36 60 44 61 37 62 43 63 45 64 42 65
REMARK SMILES IDX 38 66 39 67 40 68 41 69 67 70 68 71 76 72 69 73 75 74 77 75
REMARK SMILES IDX 74 76 70 77 71 78 72 79 73 80 52 81 53 82 61 83 54 84 60 85
REMARK SMILES IDX 62 86 59 87 55 88 56 89 57 90 58 91
REMARK H PARENT 16 14 82 44 50 55
REMARK Flexibility Score: inf
ROOT
ATOM      1  O   UNL     1       4.176   0.354   1.503  1.00  0.00    -0.374 OA
ENDROOT
BRANCH   1   2
ATOM      2  C   UNL     1       4.682   0.946   0.307  1.00  0.00     0.202 C 
BRANCH   2   3
ATOM      3  C   UNL     1       4.323   0.225  -0.987  1.00  0.00     0.261 C 
BRANCH   3   4
ATOM      4  O   UNL     1       2.907   0.046  -1.152  1.00  0.00    -0.463 OA
BRANCH   4   5
ATOM      5  C   UNL     1       2.175  -0.972  -0.651  1.00  0.00     0.316 C 
ATOM      6  O   UNL     1       0.944  -0.914  -0.723  1.00  0.00    -0.251 OA
BRANCH   5   7
ATOM      7  C   UNL     1       2.821  -2.100   0.122  1.00  0.00     0.200 C 
BRANCH   7   8
ATOM      8  S   UNL     1       4.053  -3.103  -0.744  1.00  0.00    -0.075 SA
BRANCH   8   9
ATOM      9  C   UNL     1       3.126  -3.566  -2.102  1.00  0.00     0.184 A 
ATOM     10  N   UNL     1       2.474  -2.796  -2.928  1.00  0.00    -0.201 NA
ATOM     11  N   UNL     1       2.852  -4.866  -2.349  1.00  0.00    -0.254 N 
ATOM     12  C   UNL     1       1.699  -3.693  -3.624  1.00  0.00     0.182 A 
ATOM     13  N   UNL     1       1.902  -4.981  -3.287  1.00  0.00    -0.153 NA
ATOM     14  H   UNL     1       3.291  -5.625  -1.901  1.00  0.00     0.192 HD
BRANCH  12  15
ATOM     15  C   UNL     1       0.700  -3.273  -4.586  1.00  0.00     0.024 A 
ATOM     16  C   UNL     1       0.992  -2.291  -5.542  1.00  0.00     0.012 A 
ATOM     17  C   UNL     1      -0.568  -3.864  -4.566  1.00  0.00     0.051 A 
ATOM     18  C   UNL     1       0.038  -1.939  -6.501  1.00  0.00     0.004 A 
ATOM     19  C   UNL     1      -1.512  -3.495  -5.514  1.00  0.00     0.123 A 
ATOM     20  C   UNL     1      -1.217  -2.549  -6.489  1.00  0.00     0.039 A 
ATOM     21  F   UNL     1      -2.723  -4.067  -5.492  1.00  0.00    -0.207 F 
ENDBRANCH  12  15
ENDBRANCH   8   9
ENDBRANCH   7   8
ENDBRANCH   5   7
ENDBRANCH   4   5
ENDBRANCH   3   4
ENDBRANCH   2   3
ENDBRANCH   1   2
BRANCH   1  22
ATOM     22  C   UNL     1       2.917   0.873   1.956  1.00  0.00     0.202 C 
BRANCH  22  23
ATOM     23  C   UNL     1       2.992   2.158   2.786  1.00  0.00     0.261 C 
BRANCH  23  24
ATOM     24  O   UNL     1       3.313   3.293   1.969  1.00  0.00    -0.460 OA
BRANCH  24  25
ATOM     25  C   UNL     1       4.619   3.654   1.960  1.00  0.00     0.338 C 
ATOM     26  O   UNL     1       5.518   3.180   2.637  1.00  0.00    -0.246 OA
BRANCH  25  27
ATOM     27  C   UNL     1       4.840   4.568   0.822  1.00  0.00     0.060 A 
ATOM     28  C   UNL     1       5.952   4.346  -0.005  1.00  0.00     0.016 A 
ATOM     29  C   UNL     1       3.960   5.620   0.565  1.00  0.00     0.016 A 
ATOM     30  C   UNL     1       6.213   5.210  -1.068  1.00  0.00     0.010 A 
ATOM     31  C   UNL     1       4.229   6.488  -0.490  1.00  0.00     0.010 A 
ATOM     32  C   UNL     1       5.374   6.308  -1.286  1.00  0.00    -0.014 A 
BRANCH  32  33
ATOM     33  C   UNL     1       5.761   7.395  -2.210  1.00  0.00     0.031 A 
ATOM     34  C   UNL     1       6.317   8.657  -1.611  1.00  0.00     0.074 A 
ATOM     35  C   UNL     1       5.576   7.282  -3.537  1.00  0.00     0.049 A 
ATOM     36  N   UNL     1       6.503   9.824  -2.165  1.00  0.00    -0.248 NA
ATOM     37  C   UNL     1       6.699   8.595  -0.188  1.00  0.00     0.031 C 
ATOM     38  C   UNL     1       5.112   6.081  -4.230  1.00  0.00     0.029 A 
ATOM     39  N   UNL     1       5.736   8.207  -4.537  1.00  0.00    -0.354 N 
ATOM     40  C   UNL     1       7.010  10.639  -1.160  1.00  0.00     0.074 A 
ATOM     41  C   UNL     1       7.080   9.843   0.045  1.00  0.00     0.031 C 
ATOM     42  C   UNL     1       5.008   6.350  -5.543  1.00  0.00     0.029 A 
ATOM     43  C   UNL     1       5.340   7.754  -5.773  1.00  0.00     0.049 A 
ATOM     44  H   UNL     1       6.099   9.110  -4.383  1.00  0.00     0.167 HD
ATOM     45  C   UNL     1       7.386  11.935  -1.243  1.00  0.00     0.034 A 
ATOM     46  C   UNL     1       5.221   8.415  -6.942  1.00  0.00     0.034 A 
ATOM     47  C   UNL     1       7.314  12.710  -2.453  1.00  0.00     0.049 A 
ATOM     48  C   UNL     1       5.551   9.889  -6.982  1.00  0.00     0.074 A 
ATOM     49  C   UNL     1       7.658  14.035  -2.645  1.00  0.00     0.029 A 
ATOM     50  N   UNL     1       6.875  12.227  -3.677  1.00  0.00    -0.354 N 
ATOM     51  N   UNL     1       5.973  10.669  -6.013  1.00  0.00    -0.248 NA
ATOM     52  C   UNL     1       5.381  10.573  -8.271  1.00  0.00     0.031 C 
ATOM     53  C   UNL     1       7.375  14.370  -3.972  1.00  0.00     0.029 A 
ATOM     54  C   UNL     1       6.925  13.234  -4.625  1.00  0.00     0.049 A 
ATOM     55  H   UNL     1       6.574  11.305  -3.847  1.00  0.00     0.167 HD
ATOM     56  C   UNL     1       6.153  11.925  -6.588  1.00  0.00     0.074 A 
ATOM     57  C   UNL     1       5.802  11.796  -7.986  1.00  0.00     0.031 C 
ATOM     58  C   UNL     1       6.574  13.081  -6.015  1.00  0.00     0.034 A 
BRANCH  45  59
ATOM     59  C   UNL     1       7.893  12.608   0.001  1.00  0.00     0.023 A 
ATOM     60  C   UNL     1       9.152  12.298   0.538  1.00  0.00     0.031 A 
ATOM     61  C   UNL     1       7.138  13.624   0.613  1.00  0.00     0.131 A 
ATOM     62  C   UNL     1       9.620  12.995   1.661  1.00  0.00     0.055 A 
ATOM     63  C   UNL     1       7.630  14.349   1.699  1.00  0.00     0.041 A 
ATOM     64  F   UNL     1       5.919  13.942   0.149  1.00  0.00    -0.206 F 
ATOM     65  C   UNL     1       8.879  14.036   2.228  1.00  0.00     0.022 A 
BRANCH  62  66
ATOM     66  S   UNL     1      11.204  12.505   2.393  1.00  0.00     0.124 S 
ATOM     67  O   UNL     1      10.890  11.176   2.911  1.00  0.00    -0.237 OA
ATOM     68  O   UNL     1      12.110  12.547   1.251  1.00  0.00    -0.237 OA
ATOM     69  O   UNL     1      11.440  13.526   3.412  1.00  0.00    -0.744 OA
ENDBRANCH  62  66
ENDBRANCH  45  59
BRANCH  46  70
ATOM     70  C   UNL     1       4.737   7.718  -8.167  1.00  0.00     0.023 A 
ATOM     71  C   UNL     1       5.568   7.587  -9.290  1.00  0.00     0.031 A 
ATOM     72  C   UNL     1       3.423   7.226  -8.258  1.00  0.00     0.131 A 
ATOM     73  C   UNL     1       5.065   7.022 -10.472  1.00  0.00     0.055 A 
ATOM     74  C   UNL     1       2.943   6.616  -9.419  1.00  0.00     0.041 A 
ATOM     75  F   UNL     1       2.585   7.327  -7.214  1.00  0.00    -0.206 F 
ATOM     76  C   UNL     1       3.762   6.524 -10.540  1.00  0.00     0.022 A 
BRANCH  73  77
ATOM     77  S   UNL     1       6.120   7.019 -11.946  1.00  0.00     0.124 S 
ATOM     78  O   UNL     1       6.330   8.446 -12.162  1.00  0.00    -0.237 OA
ATOM     79  O   UNL     1       7.279   6.262 -11.488  1.00  0.00    -0.237 OA
ATOM     80  O   UNL     1       5.298   6.348 -12.951  1.00  0.00    -0.744 OA
ENDBRANCH  73  77
ENDBRANCH  46  70
BRANCH  58  81
ATOM     81  C   UNL     1       6.730  14.282  -6.910  1.00  0.00     0.023 A 
ATOM     82  C   UNL     1       5.620  14.925  -7.481  1.00  0.00     0.031 A 
ATOM     83  C   UNL     1       8.010  14.805  -7.171  1.00  0.00     0.131 A 
ATOM     84  C   UNL     1       5.812  16.029  -8.323  1.00  0.00     0.055 A 
ATOM     85  C   UNL     1       8.191  15.940  -7.962  1.00  0.00     0.041 A 
ATOM     86  F   UNL     1       9.103  14.230  -6.646  1.00  0.00    -0.206 F 
ATOM     87  C   UNL     1       7.088  16.552  -8.552  1.00  0.00     0.022 A 
BRANCH  84  88
ATOM     88  S   UNL     1       4.374  16.737  -9.168  1.00  0.00     0.124 S 
ATOM     89  O   UNL     1       3.920  15.614  -9.983  1.00  0.00    -0.237 OA
ATOM     90  O   UNL     1       3.506  17.108  -8.055  1.00  0.00    -0.237 OA
ATOM     91  O   UNL     1       4.934  17.860  -9.917  1.00  0.00    -0.744 OA
ENDBRANCH  84  88
ENDBRANCH  58  81
ENDBRANCH  32  33
ENDBRANCH  25  27
ENDBRANCH  24  25
ENDBRANCH  23  24
ENDBRANCH  22  23
ENDBRANCH   1  22
TORSDOF 20
