REMARK SMILES CC(C)C[C@H](CNC(=O)c1cc(F)ccc1F)C(=O)OCCOCCOC(=O)c1ccc(-c2c3nc(c(-c4cc(S(=O)(=O)[O-])ccc4F)c4ccc([nH]4)c(-c4cc(S(=O)(=O)[O-])ccc4F)c4nc(c(-c5cc(S(=O)(=O)[O-])ccc5F)c5ccc2[nH]5)C=C4)C=C3)cc1
REMARK SMILES IDX 23 1 22 2 21 3 20 4 18 5 19 6 5 7 4 8 2 9 1 10 3 11 6 12
REMARK SMILES IDX 7 13 8 14 9 16 10 17 11 18 16 19 12 20 15 21 17 22 13 23
REMARK SMILES IDX 14 24 24 25 25 26 26 27 27 28 28 29 29 30 30 31 91 32 31 33
REMARK SMILES IDX 90 34 32 35 33 36 34 37 84 38 35 39 89 40 83 41 85 42 36 43
REMARK SMILES IDX 88 44 82 45 81 46 37 48 69 49 49 50 68 51 50 52 53 53 67 54
REMARK SMILES IDX 86 55 51 56 52 57 66 59 87 60 54 61 38 62 39 63 47 64 40 65
REMARK SMILES IDX 46 66 48 67 45 68 41 69 42 70 43 71 44 72 70 73 71 74 79 75
REMARK SMILES IDX 72 76 78 77 80 78 77 79 73 80 74 81 75 82 76 83 55 84 56 85
REMARK SMILES IDX 64 86 57 87 63 88 65 89 62 90 58 91 59 92 60 93 61 94
REMARK H PARENT 7 15 85 47 53 58
REMARK Flexibility Score: inf
ROOT
ATOM      1  O   UNL     1      -5.381   0.236  -0.199  1.00  0.00    -0.374 OA
ENDROOT
BRANCH   1   2
ATOM      2  C   UNL     1      -5.721  -0.877   0.628  1.00  0.00     0.202 C 
BRANCH   2   3
ATOM      3  C   UNL     1      -4.959  -2.176   0.355  1.00  0.00     0.261 C 
BRANCH   3   4
ATOM      4  O   UNL     1      -3.562  -2.063   0.692  1.00  0.00    -0.463 OA
BRANCH   4   5
ATOM      5  C   UNL     1      -2.692  -2.128  -0.350  1.00  0.00     0.310 C 
ATOM      6  O   UNL     1      -3.006  -2.272  -1.526  1.00  0.00    -0.252 OA
BRANCH   5   7
ATOM      7  C   UNL     1      -1.247  -2.039   0.085  1.00  0.00     0.118 C 
BRANCH   7   8
ATOM      8  C   UNL     1      -0.541  -3.399   0.192  1.00  0.00     0.020 C 
BRANCH   8   9
ATOM      9  C   UNL     1      -1.279  -4.556   0.897  1.00  0.00    -0.017 C 
ATOM     10  C   UNL     1      -2.330  -5.223   0.000  1.00  0.00     0.007 C 
ATOM     11  C   UNL     1      -0.249  -5.619   1.302  1.00  0.00     0.007 C 
ENDBRANCH   8   9
ENDBRANCH   7   8
BRANCH   7  12
ATOM     12  C   UNL     1      -0.951  -1.080   1.246  1.00  0.00     0.131 C 
BRANCH  12  13
ATOM     13  N   UNL     1      -1.405  -1.496   2.557  1.00  0.00    -0.351 N 
ATOM     14  C   UNL     1      -0.710  -1.610   3.735  1.00  0.00     0.254 C 
ATOM     15  H   UNL     1      -2.358  -1.734   2.611  1.00  0.00     0.163 HD
ATOM     16  O   UNL     1      -1.291  -1.907   4.772  1.00  0.00    -0.269 OA
BRANCH  14  17
ATOM     17  C   UNL     1       0.740  -1.365   3.771  1.00  0.00     0.078 A 
ATOM     18  C   UNL     1       1.272  -0.114   3.442  1.00  0.00     0.056 A 
ATOM     19  C   UNL     1       1.585  -2.392   4.195  1.00  0.00     0.136 A 
ATOM     20  C   UNL     1       2.650   0.067   3.493  1.00  0.00     0.124 A 
ATOM     21  C   UNL     1       2.963  -2.194   4.260  1.00  0.00     0.043 A 
ATOM     22  F   UNL     1       1.098  -3.598   4.516  1.00  0.00    -0.206 F 
ATOM     23  F   UNL     1       3.172   1.248   3.137  1.00  0.00    -0.207 F 
ATOM     24  C   UNL     1       3.501  -0.959   3.898  1.00  0.00     0.042 A 
ENDBRANCH  14  17
ENDBRANCH  12  13
ENDBRANCH   7  12
ENDBRANCH   5   7
ENDBRANCH   4   5
ENDBRANCH   3   4
ENDBRANCH   2   3
ENDBRANCH   1   2
BRANCH   1  25
ATOM     25  C   UNL     1      -4.165   0.921   0.087  1.00  0.00     0.202 C 
BRANCH  25  26
ATOM     26  C   UNL     1      -4.162   1.863   1.297  1.00  0.00     0.261 C 
BRANCH  26  27
ATOM     27  O   UNL     1      -4.381   1.173   2.539  1.00  0.00    -0.460 OA
BRANCH  27  28
ATOM     28  C   UNL     1      -5.582   1.436   3.109  1.00  0.00     0.338 C 
ATOM     29  O   UNL     1      -6.424   2.229   2.695  1.00  0.00    -0.246 OA
BRANCH  28  30
ATOM     30  C   UNL     1      -5.865   0.516   4.226  1.00  0.00     0.060 A 
ATOM     31  C   UNL     1      -7.133  -0.080   4.247  1.00  0.00     0.016 A 
ATOM     32  C   UNL     1      -4.973   0.317   5.283  1.00  0.00     0.016 A 
ATOM     33  C   UNL     1      -7.548  -0.803   5.361  1.00  0.00     0.010 A 
ATOM     34  C   UNL     1      -5.395  -0.408   6.407  1.00  0.00     0.010 A 
ATOM     35  C   UNL     1      -6.703  -0.924   6.472  1.00  0.00    -0.014 A 
BRANCH  35  36
ATOM     36  C   UNL     1      -7.281  -1.415   7.749  1.00  0.00     0.031 A 
ATOM     37  C   UNL     1      -7.738  -0.407   8.772  1.00  0.00     0.074 A 
ATOM     38  C   UNL     1      -7.484  -2.728   7.957  1.00  0.00     0.049 A 
ATOM     39  N   UNL     1      -8.338  -0.596   9.919  1.00  0.00    -0.248 NA
ATOM     40  C   UNL     1      -7.486   1.006   8.452  1.00  0.00     0.031 C 
ATOM     41  C   UNL     1      -7.128  -3.794   7.021  1.00  0.00     0.029 A 
ATOM     42  N   UNL     1      -8.054  -3.387   9.017  1.00  0.00    -0.354 N 
ATOM     43  C   UNL     1      -8.536   0.671  10.458  1.00  0.00     0.074 A 
ATOM     44  C   UNL     1      -7.953   1.616   9.530  1.00  0.00     0.031 C 
ATOM     45  C   UNL     1      -7.496  -4.975   7.547  1.00  0.00     0.029 A 
ATOM     46  C   UNL     1      -8.087  -4.753   8.865  1.00  0.00     0.049 A 
ATOM     47  H   UNL     1      -8.406  -2.925   9.812  1.00  0.00     0.167 HD
ATOM     48  C   UNL     1      -9.157   1.018  11.614  1.00  0.00     0.034 A 
ATOM     49  C   UNL     1      -8.536  -5.713   9.700  1.00  0.00     0.034 A 
ATOM     50  C   UNL     1      -9.723   0.064  12.537  1.00  0.00     0.049 A 
ATOM     51  C   UNL     1      -9.146  -5.309  11.021  1.00  0.00     0.074 A 
ATOM     52  C   UNL     1     -10.388   0.303  13.727  1.00  0.00     0.029 A 
ATOM     53  N   UNL     1      -9.675  -1.317  12.383  1.00  0.00    -0.354 N 
ATOM     54  N   UNL     1      -9.346  -4.106  11.509  1.00  0.00    -0.248 NA
ATOM     55  C   UNL     1      -9.601  -6.396  11.896  1.00  0.00     0.031 C 
ATOM     56  C   UNL     1     -10.678  -0.929  14.325  1.00  0.00     0.029 A 
ATOM     57  C   UNL     1     -10.265  -1.941  13.473  1.00  0.00     0.049 A 
ATOM     58  H   UNL     1      -9.280  -1.784  11.612  1.00  0.00     0.167 HD
ATOM     59  C   UNL     1      -9.982  -4.294  12.734  1.00  0.00     0.074 A 
ATOM     60  C   UNL     1     -10.142  -5.724  12.902  1.00  0.00     0.031 C 
ATOM     61  C   UNL     1     -10.405  -3.370  13.635  1.00  0.00     0.034 A 
BRANCH  48  62
ATOM     62  C   UNL     1      -9.196   2.487  11.963  1.00  0.00     0.023 A 
ATOM     63  C   UNL     1      -9.884   3.423  11.168  1.00  0.00     0.031 A 
ATOM     64  C   UNL     1      -8.493   2.967  13.082  1.00  0.00     0.131 A 
ATOM     65  C   UNL     1      -9.790   4.793  11.459  1.00  0.00     0.055 A 
ATOM     66  C   UNL     1      -8.469   4.324  13.412  1.00  0.00     0.041 A 
ATOM     67  F   UNL     1      -7.798   2.127  13.865  1.00  0.00    -0.206 F 
ATOM     68  C   UNL     1      -9.107   5.248  12.589  1.00  0.00     0.022 A 
BRANCH  65  69
ATOM     69  S   UNL     1     -10.443   5.984  10.256  1.00  0.00     0.124 S 
ATOM     70  O   UNL     1      -9.701   5.623   9.050  1.00  0.00    -0.237 OA
ATOM     71  O   UNL     1     -11.868   5.676  10.248  1.00  0.00    -0.237 OA
ATOM     72  O   UNL     1     -10.088   7.281  10.830  1.00  0.00    -0.744 OA
ENDBRANCH  65  69
ENDBRANCH  48  62
BRANCH  49  73
ATOM     73  C   UNL     1      -8.408  -7.152   9.335  1.00  0.00     0.023 A 
ATOM     74  C   UNL     1      -9.542  -7.958   9.143  1.00  0.00     0.031 A 
ATOM     75  C   UNL     1      -7.143  -7.757   9.228  1.00  0.00     0.131 A 
ATOM     76  C   UNL     1      -9.390  -9.332   8.897  1.00  0.00     0.055 A 
ATOM     77  C   UNL     1      -6.996  -9.114   8.935  1.00  0.00     0.041 A 
ATOM     78  F   UNL     1      -6.027  -7.033   9.405  1.00  0.00    -0.206 F 
ATOM     79  C   UNL     1      -8.125  -9.912   8.780  1.00  0.00     0.022 A 
BRANCH  76  80
ATOM     80  S   UNL     1     -10.875 -10.370   8.809  1.00  0.00     0.124 S 
ATOM     81  O   UNL     1     -11.471 -10.150  10.122  1.00  0.00    -0.237 OA
ATOM     82  O   UNL     1     -11.585  -9.787   7.676  1.00  0.00    -0.237 OA
ATOM     83  O   UNL     1     -10.340 -11.711   8.583  1.00  0.00    -0.744 OA
ENDBRANCH  76  80
ENDBRANCH  49  73
BRANCH  61  84
ATOM     84  C   UNL     1     -11.125  -3.885  14.859  1.00  0.00     0.023 A 
ATOM     85  C   UNL     1     -10.471  -4.659  15.834  1.00  0.00     0.031 A 
ATOM     86  C   UNL     1     -12.494  -3.618  15.037  1.00  0.00     0.131 A 
ATOM     87  C   UNL     1     -11.200  -5.191  16.910  1.00  0.00     0.055 A 
ATOM     88  C   UNL     1     -13.200  -4.097  16.141  1.00  0.00     0.041 A 
ATOM     89  F   UNL     1     -13.170  -2.885  14.137  1.00  0.00    -0.206 F 
ATOM     90  C   UNL     1     -12.557  -4.902  17.077  1.00  0.00     0.022 A 
BRANCH  87  91
ATOM     91  S   UNL     1     -10.376  -6.352  18.034  1.00  0.00     0.124 S 
ATOM     92  O   UNL     1      -9.918  -7.391  17.116  1.00  0.00    -0.237 OA
ATOM     93  O   UNL     1      -9.334  -5.523  18.630  1.00  0.00    -0.237 OA
ATOM     94  O   UNL     1     -11.441  -6.760  18.948  1.00  0.00    -0.744 OA
ENDBRANCH  87  91
ENDBRANCH  61  84
ENDBRANCH  35  36
ENDBRANCH  28  30
ENDBRANCH  27  28
ENDBRANCH  26  27
ENDBRANCH  25  26
ENDBRANCH   1  25
TORSDOF 22
