REMARK SMILES C[C@@H](CSc1nc(C(F)(F)F)ccc1C#N)C(=O)OCCOCCOC(=O)c1ccc(-c2c3nc(c(-c4cc(S(=O)(=O)[O-])ccc4F)c4ccc([nH]4)c(-c4cc(S(=O)(=O)[O-])ccc4F)c4nc(c(-c5cc(S(=O)(=O)[O-])ccc5F)c5ccc2[nH]5)C=C4)C=C3)cc1
REMARK SMILES IDX 21 1 20 2 19 3 17 4 18 5 2 6 1 7 3 8 4 9 5 10 6 11 14 12
REMARK SMILES IDX 7 13 13 14 12 15 15 16 16 17 8 18 9 19 10 20 11 21 22 22
REMARK SMILES IDX 23 23 24 24 25 25 26 26 27 27 28 28 29 29 90 30 30 31 89 32
REMARK SMILES IDX 31 33 32 34 33 35 83 36 34 37 88 38 82 39 84 40 35 41 87 42
REMARK SMILES IDX 81 43 80 44 36 46 68 47 48 48 67 49 49 50 52 51 66 52 85 53
REMARK SMILES IDX 50 54 51 55 65 57 86 58 53 59 37 60 38 61 46 62 39 63 45 64
REMARK SMILES IDX 47 65 44 66 40 67 41 68 42 69 43 70 69 71 70 72 78 73 71 74
REMARK SMILES IDX 77 75 79 76 76 77 72 78 73 79 74 80 75 81 54 82 55 83 63 84
REMARK SMILES IDX 56 85 62 86 64 87 61 88 57 89 58 90 59 91 60 92
REMARK H PARENT 84 45 52 56
REMARK Flexibility Score: inf
ROOT
ATOM      1  C   UNL     1      -3.723  -0.788  -0.288  1.00  0.00     0.202 C 
ENDROOT
BRANCH   1   2
ATOM      2  C   UNL     1      -2.959  -1.663   0.707  1.00  0.00     0.261 C 
BRANCH   2   3
ATOM      3  O   UNL     1      -1.567  -1.319   0.766  1.00  0.00    -0.463 OA
BRANCH   3   4
ATOM      4  C   UNL     1      -0.705  -2.232   0.253  1.00  0.00     0.309 C 
ATOM      5  O   UNL     1      -1.016  -3.320  -0.216  1.00  0.00    -0.252 OA
BRANCH   4   6
ATOM      6  C   UNL     1       0.737  -1.766   0.327  1.00  0.00     0.106 C 
ATOM      7  C   UNL     1       0.978  -0.320  -0.099  1.00  0.00     0.021 C 
BRANCH   6   8
ATOM      8  C   UNL     1       1.335  -2.151   1.680  1.00  0.00     0.091 C 
BRANCH   8   9
ATOM      9  S   UNL     1       0.675  -1.312   3.168  1.00  0.00    -0.104 SA
BRANCH   9  10
ATOM     10  C   UNL     1       1.458   0.285   3.075  1.00  0.00     0.115 A 
ATOM     11  N   UNL     1       0.604   1.301   2.794  1.00  0.00    -0.236 NA
ATOM     12  C   UNL     1       2.814   0.506   3.296  1.00  0.00     0.084 A 
ATOM     13  C   UNL     1       1.080   2.579   2.734  1.00  0.00     0.145 A 
ATOM     14  C   UNL     1       3.293   1.818   3.239  1.00  0.00     0.024 A 
ATOM     15  C   UNL     1       2.421   2.865   2.959  1.00  0.00     0.035 A 
BRANCH  12  16
ATOM     16  C   UNL     1       3.739  -0.556   3.548  1.00  0.00     0.102 C 
ATOM     17  N   UNL     1       4.518  -1.400   3.693  1.00  0.00    -0.192 NA
ENDBRANCH  12  16
BRANCH  13  18
ATOM     18  C   UNL     1       0.130   3.708   2.366  1.00  0.00     0.433 C 
ATOM     19  F   UNL     1      -0.337   3.592   1.091  1.00  0.00    -0.165 F 
ATOM     20  F   UNL     1      -0.950   3.789   3.184  1.00  0.00    -0.165 F 
ATOM     21  F   UNL     1       0.718   4.942   2.415  1.00  0.00    -0.165 F 
ENDBRANCH  13  18
ENDBRANCH   9  10
ENDBRANCH   8   9
ENDBRANCH   6   8
ENDBRANCH   4   6
ENDBRANCH   3   4
ENDBRANCH   2   3
ENDBRANCH   1   2
BRANCH   1  22
ATOM     22  O   UNL     1      -3.317  -0.800  -1.655  1.00  0.00    -0.374 OA
BRANCH  22  23
ATOM     23  C   UNL     1      -2.096  -0.153  -1.997  1.00  0.00     0.202 C 
BRANCH  23  24
ATOM     24  C   UNL     1      -2.012   1.381  -1.952  1.00  0.00     0.261 C 
BRANCH  24  25
ATOM     25  O   UNL     1      -2.385   1.966  -0.696  1.00  0.00    -0.460 OA
BRANCH  25  26
ATOM     26  C   UNL     1      -3.636   2.496  -0.685  1.00  0.00     0.338 C 
ATOM     27  O   UNL     1      -4.427   2.521  -1.613  1.00  0.00    -0.246 OA
BRANCH  26  28
ATOM     28  C   UNL     1      -4.004   2.893   0.685  1.00  0.00     0.060 A 
ATOM     29  C   UNL     1      -5.123   2.295   1.271  1.00  0.00     0.016 A 
ATOM     30  C   UNL     1      -3.316   3.903   1.351  1.00  0.00     0.016 A 
ATOM     31  C   UNL     1      -5.584   2.746   2.506  1.00  0.00     0.010 A 
ATOM     32  C   UNL     1      -3.752   4.319   2.613  1.00  0.00     0.010 A 
ATOM     33  C   UNL     1      -4.922   3.784   3.177  1.00  0.00    -0.014 A 
BRANCH  33  34
ATOM     34  C   UNL     1      -5.547   4.402   4.380  1.00  0.00     0.031 A 
ATOM     35  C   UNL     1      -6.030   5.832   4.312  1.00  0.00     0.074 A 
ATOM     36  C   UNL     1      -5.744   3.678   5.499  1.00  0.00     0.049 A 
ATOM     37  N   UNL     1      -6.631   6.550   5.227  1.00  0.00    -0.248 NA
ATOM     38  C   UNL     1      -5.790   6.555   3.053  1.00  0.00     0.031 C 
ATOM     39  C   UNL     1      -5.313   2.292   5.691  1.00  0.00     0.029 A 
ATOM     40  N   UNL     1      -6.368   3.998   6.679  1.00  0.00    -0.354 N 
ATOM     41  C   UNL     1      -6.840   7.801   4.652  1.00  0.00     0.074 A 
ATOM     42  C   UNL     1      -6.226   7.769   3.344  1.00  0.00     0.031 C 
ATOM     43  C   UNL     1      -5.716   1.871   6.902  1.00  0.00     0.029 A 
ATOM     44  C   UNL     1      -6.387   2.969   7.593  1.00  0.00     0.049 A 
ATOM     45  H   UNL     1      -6.765   4.881   6.856  1.00  0.00     0.167 HD
ATOM     46  C   UNL     1      -7.513   8.867   5.150  1.00  0.00     0.034 A 
ATOM     47  C   UNL     1      -6.874   2.920   8.850  1.00  0.00     0.034 A 
ATOM     48  C   UNL     1      -8.123   8.887   6.456  1.00  0.00     0.049 A 
ATOM     49  C   UNL     1      -7.565   4.143   9.407  1.00  0.00     0.074 A 
ATOM     50  C   UNL     1      -8.837   9.909   7.058  1.00  0.00     0.029 A 
ATOM     51  N   UNL     1      -8.089   7.839   7.366  1.00  0.00    -0.354 N 
ATOM     52  N   UNL     1      -7.776   5.308   8.837  1.00  0.00    -0.248 NA
ATOM     53  C   UNL     1      -8.099   4.036  10.770  1.00  0.00     0.031 C 
ATOM     54  C   UNL     1      -9.162   9.510   8.357  1.00  0.00     0.029 A 
ATOM     55  C   UNL     1      -8.742   8.202   8.535  1.00  0.00     0.049 A 
ATOM     56  H   UNL     1      -7.664   6.965   7.206  1.00  0.00     0.167 HD
ATOM     57  C   UNL     1      -8.494   6.060   9.764  1.00  0.00     0.074 A 
ATOM     58  C   UNL     1      -8.707   5.203  10.912  1.00  0.00     0.031 C 
ATOM     59  C   UNL     1      -8.936   7.342   9.679  1.00  0.00     0.034 A 
BRANCH  46  60
ATOM     60  C   UNL     1      -7.604  10.102   4.283  1.00  0.00     0.023 A 
ATOM     61  C   UNL     1      -8.249  10.081   3.034  1.00  0.00     0.031 A 
ATOM     62  C   UNL     1      -7.025  11.314   4.701  1.00  0.00     0.131 A 
ATOM     63  C   UNL     1      -8.238  11.222   2.218  1.00  0.00     0.055 A 
ATOM     64  C   UNL     1      -7.098  12.472   3.923  1.00  0.00     0.041 A 
ATOM     65  F   UNL     1      -6.371  11.393   5.870  1.00  0.00    -0.206 F 
ATOM     66  C   UNL     1      -7.694  12.427   2.667  1.00  0.00     0.022 A 
BRANCH  63  67
ATOM     67  S   UNL     1      -8.808  11.065   0.503  1.00  0.00     0.124 S 
ATOM     68  O   UNL     1      -7.907  10.038  -0.014  1.00  0.00    -0.237 OA
ATOM     69  O   UNL     1     -10.202  10.670   0.668  1.00  0.00    -0.237 OA
ATOM     70  O   UNL     1      -8.599  12.402  -0.051  1.00  0.00    -0.744 OA
ENDBRANCH  63  67
ENDBRANCH  46  60
BRANCH  47  71
ATOM     71  C   UNL     1      -6.699   1.695   9.688  1.00  0.00     0.023 A 
ATOM     72  C   UNL     1      -7.800   0.994  10.208  1.00  0.00     0.031 A 
ATOM     73  C   UNL     1      -5.413   1.250  10.045  1.00  0.00     0.131 A 
ATOM     74  C   UNL     1      -7.595  -0.069  11.102  1.00  0.00     0.055 A 
ATOM     75  C   UNL     1      -5.214   0.144  10.873  1.00  0.00     0.041 A 
ATOM     76  F   UNL     1      -4.322   1.885   9.587  1.00  0.00    -0.206 F 
ATOM     77  C   UNL     1      -6.310  -0.511  11.422  1.00  0.00     0.022 A 
BRANCH  74  78
ATOM     78  S   UNL     1      -9.033  -0.785  11.947  1.00  0.00     0.124 S 
ATOM     79  O   UNL     1      -9.617   0.389  12.584  1.00  0.00    -0.237 OA
ATOM     80  O   UNL     1      -9.787  -1.354  10.834  1.00  0.00    -0.237 OA
ATOM     81  O   UNL     1      -8.440  -1.761  12.859  1.00  0.00    -0.744 OA
ENDBRANCH  74  78
ENDBRANCH  47  71
BRANCH  59  82
ATOM     82  C   UNL     1      -9.735   7.872  10.848  1.00  0.00     0.023 A 
ATOM     83  C   UNL     1      -9.179   7.980  12.135  1.00  0.00     0.031 A 
ATOM     84  C   UNL     1     -11.084   8.234  10.682  1.00  0.00     0.131 A 
ATOM     85  C   UNL     1      -9.991   8.342  13.219  1.00  0.00     0.055 A 
ATOM     86  C   UNL     1     -11.863   8.682  11.750  1.00  0.00     0.041 A 
ATOM     87  F   UNL     1     -11.673   8.150   9.479  1.00  0.00    -0.206 F 
ATOM     88  C   UNL     1     -11.323   8.716  13.032  1.00  0.00     0.022 A 
BRANCH  85  89
ATOM     89  S   UNL     1      -9.324   8.161  14.896  1.00  0.00     0.124 S 
ATOM     90  O   UNL     1      -8.929   6.756  14.913  1.00  0.00    -0.237 OA
ATOM     91  O   UNL     1      -8.233   9.130  14.904  1.00  0.00    -0.237 OA
ATOM     92  O   UNL     1     -10.459   8.497  15.754  1.00  0.00    -0.744 OA
ENDBRANCH  85  89
ENDBRANCH  59  82
ENDBRANCH  33  34
ENDBRANCH  26  28
ENDBRANCH  25  26
ENDBRANCH  24  25
ENDBRANCH  23  24
ENDBRANCH  22  23
ENDBRANCH   1  22
TORSDOF 22
