REMARK SMILES O=C(OCCOCCOC(=O)c1cccc2nc(Cl)c(Cl)nc12)c1ccc(-c2c3nc(c(-c4cc(S(=O)(=O)[O-])ccc4F)c4ccc([nH]4)c(-c4cc(S(=O)(=O)[O-])ccc4F)c4nc(c(-c5cc(S(=O)(=O)[O-])ccc5F)c5ccc2[nH]5)C=C4)C=C3)cc1
REMARK SMILES IDX 4 1 3 2 2 3 1 4 24 5 25 6 86 7 26 8 85 9 27 10 28 11 29 12
REMARK SMILES IDX 79 13 30 14 84 15 78 16 80 17 31 18 83 19 77 20 76 21 32 23
REMARK SMILES IDX 64 24 44 25 63 26 45 27 48 28 62 29 81 30 46 31 47 32 61 34
REMARK SMILES IDX 82 35 49 36 33 37 34 38 42 39 35 40 41 41 43 42 40 43 36 44
REMARK SMILES IDX 37 45 38 46 39 47 65 48 66 49 74 50 67 51 73 52 75 53 72 54
REMARK SMILES IDX 68 55 69 56 70 57 71 58 50 59 51 60 59 61 52 62 58 63 60 64
REMARK SMILES IDX 57 65 53 66 54 67 55 68 56 69 5 70 6 71 7 72 8 73 9 74 10 75
REMARK SMILES IDX 11 76 12 77 13 78 23 79 14 80 16 81 22 82 15 83 17 84 20 85
REMARK SMILES IDX 18 86 21 87 19 88
REMARK H PARENT 80 22 48 33
REMARK Flexibility Score: inf
ROOT
ATOM      1  C   UNL     1       4.091  -1.470  -0.127  1.00  0.00     0.261 C 
ENDROOT
BRANCH   1   2
ATOM      2  O   UNL     1       2.797  -1.597   0.469  1.00  0.00    -0.460 OA
BRANCH   2   3
ATOM      3  C   UNL     1       2.207  -0.772   1.367  1.00  0.00     0.338 C 
ATOM      4  O   UNL     1       1.024  -0.991   1.633  1.00  0.00    -0.246 OA
BRANCH   3   5
ATOM      5  C   UNL     1       2.876   0.397   2.042  1.00  0.00     0.060 A 
ATOM      6  C   UNL     1       2.034   1.226   2.808  1.00  0.00     0.016 A 
ATOM      7  C   UNL     1       4.229   0.750   1.971  1.00  0.00     0.016 A 
ATOM      8  C   UNL     1       2.519   2.376   3.436  1.00  0.00     0.010 A 
ATOM      9  C   UNL     1       4.717   1.911   2.565  1.00  0.00     0.010 A 
ATOM     10  C   UNL     1       3.864   2.725   3.301  1.00  0.00    -0.014 A 
BRANCH  10  11
ATOM     11  C   UNL     1       4.441   3.838   4.070  1.00  0.00     0.031 A 
ATOM     12  C   UNL     1       4.644   5.179   3.450  1.00  0.00     0.074 A 
ATOM     13  C   UNL     1       4.838   3.560   5.324  1.00  0.00     0.049 A 
ATOM     14  N   UNL     1       4.994   6.295   4.027  1.00  0.00    -0.248 NA
ATOM     15  C   UNL     1       4.444   5.287   1.995  1.00  0.00     0.031 C 
ATOM     16  C   UNL     1       4.760   2.232   5.940  1.00  0.00     0.029 A 
ATOM     17  N   UNL     1       5.385   4.349   6.295  1.00  0.00    -0.354 N 
ATOM     18  C   UNL     1       5.027   7.250   3.019  1.00  0.00     0.074 A 
ATOM     19  C   UNL     1       4.716   6.570   1.781  1.00  0.00     0.031 C 
ATOM     20  C   UNL     1       5.219   2.305   7.196  1.00  0.00     0.029 A 
ATOM     21  C   UNL     1       5.618   3.680   7.474  1.00  0.00     0.049 A 
ATOM     22  H   UNL     1       5.593   5.303   6.165  1.00  0.00     0.167 HD
ATOM     23  C   UNL     1       5.281   8.574   3.147  1.00  0.00     0.034 A 
ATOM     24  C   UNL     1       6.063   4.141   8.658  1.00  0.00     0.034 A 
ATOM     25  C   UNL     1       5.619   9.181   4.413  1.00  0.00     0.049 A 
ATOM     26  C   UNL     1       6.276   5.625   8.787  1.00  0.00     0.074 A 
ATOM     27  C   UNL     1       5.837  10.518   4.692  1.00  0.00     0.029 A 
ATOM     28  N   UNL     1       5.799   8.489   5.605  1.00  0.00    -0.354 N 
ATOM     29  N   UNL     1       6.152   6.555   7.868  1.00  0.00    -0.248 NA
ATOM     30  C   UNL     1       6.643   6.136  10.112  1.00  0.00     0.031 C 
ATOM     31  C   UNL     1       6.220  10.623   6.029  1.00  0.00     0.029 A 
ATOM     32  C   UNL     1       6.149   9.368   6.615  1.00  0.00     0.049 A 
ATOM     33  H   UNL     1       5.693   7.516   5.715  1.00  0.00     0.167 HD
ATOM     34  C   UNL     1       6.380   7.765   8.511  1.00  0.00     0.074 A 
ATOM     35  C   UNL     1       6.635   7.446   9.902  1.00  0.00     0.031 C 
ATOM     36  C   UNL     1       6.378   9.023   8.000  1.00  0.00     0.034 A 
BRANCH  23  37
ATOM     37  C   UNL     1       5.177   9.474   1.939  1.00  0.00     0.023 A 
ATOM     38  C   UNL     1       6.283  10.245   1.531  1.00  0.00     0.031 A 
ATOM     39  C   UNL     1       3.941   9.708   1.308  1.00  0.00     0.131 A 
ATOM     40  C   UNL     1       6.119  11.248   0.566  1.00  0.00     0.055 A 
ATOM     41  C   UNL     1       3.793  10.678   0.314  1.00  0.00     0.041 A 
ATOM     42  F   UNL     1       2.851   9.007   1.660  1.00  0.00    -0.206 F 
ATOM     43  C   UNL     1       4.882  11.465  -0.049  1.00  0.00     0.022 A 
BRANCH  40  44
ATOM     44  S   UNL     1       7.481  12.365   0.129  1.00  0.00     0.124 S 
ATOM     45  O   UNL     1       7.562  12.192  -1.320  1.00  0.00    -0.237 OA
ATOM     46  O   UNL     1       6.969  13.658   0.574  1.00  0.00    -0.237 OA
ATOM     47  O   UNL     1       8.618  11.843   0.879  1.00  0.00    -0.744 OA
ENDBRANCH  40  44
ENDBRANCH  23  37
BRANCH  24  48
ATOM     48  C   UNL     1       6.155   3.195   9.807  1.00  0.00     0.023 A 
ATOM     49  C   UNL     1       7.020   2.085   9.766  1.00  0.00     0.031 A 
ATOM     50  C   UNL     1       5.264   3.297  10.889  1.00  0.00     0.131 A 
ATOM     51  C   UNL     1       6.928   1.092  10.752  1.00  0.00     0.055 A 
ATOM     52  C   UNL     1       5.225   2.342  11.906  1.00  0.00     0.041 A 
ATOM     53  F   UNL     1       4.397   4.318  10.957  1.00  0.00    -0.206 F 
ATOM     54  C   UNL     1       6.047   1.222  11.830  1.00  0.00     0.022 A 
BRANCH  51  55
ATOM     55  S   UNL     1       7.832  -0.474  10.584  1.00  0.00     0.124 S 
ATOM     56  O   UNL     1       8.725  -0.434  11.736  1.00  0.00    -0.237 OA
ATOM     57  O   UNL     1       6.752  -1.456  10.657  1.00  0.00    -0.237 OA
ATOM     58  O   UNL     1       8.476  -0.362   9.279  1.00  0.00    -0.744 OA
ENDBRANCH  51  55
ENDBRANCH  24  48
BRANCH  36  59
ATOM     59  C   UNL     1       6.635  10.174   8.941  1.00  0.00     0.023 A 
ATOM     60  C   UNL     1       5.648  11.165   9.111  1.00  0.00     0.031 A 
ATOM     61  C   UNL     1       7.891  10.375   9.536  1.00  0.00     0.131 A 
ATOM     62  C   UNL     1       5.948  12.331   9.823  1.00  0.00     0.055 A 
ATOM     63  C   UNL     1       8.167  11.514  10.292  1.00  0.00     0.041 A 
ATOM     64  F   UNL     1       8.870   9.468   9.386  1.00  0.00    -0.206 F 
ATOM     65  C   UNL     1       7.199  12.505  10.425  1.00  0.00     0.022 A 
BRANCH  62  66
ATOM     66  S   UNL     1       4.768  13.706   9.902  1.00  0.00     0.124 S 
ATOM     67  O   UNL     1       4.484  13.776  11.333  1.00  0.00    -0.237 OA
ATOM     68  O   UNL     1       5.553  14.815   9.367  1.00  0.00    -0.237 OA
ATOM     69  O   UNL     1       3.655  13.266   9.068  1.00  0.00    -0.744 OA
ENDBRANCH  62  66
ENDBRANCH  36  59
ENDBRANCH  10  11
ENDBRANCH   3   5
ENDBRANCH   2   3
ENDBRANCH   1   2
BRANCH   1  70
ATOM     70  C   UNL     1       4.168  -0.346  -1.157  1.00  0.00     0.202 C 
BRANCH  70  71
ATOM     71  O   UNL     1       3.546   0.873  -0.774  1.00  0.00    -0.374 OA
BRANCH  71  72
ATOM     72  C   UNL     1       2.459   1.281  -1.603  1.00  0.00     0.202 C 
BRANCH  72  73
ATOM     73  C   UNL     1       2.908   1.911  -2.928  1.00  0.00     0.261 C 
BRANCH  73  74
ATOM     74  O   UNL     1       3.478   0.914  -3.802  1.00  0.00    -0.460 OA
BRANCH  74  75
ATOM     75  C   UNL     1       4.826   0.952  -3.977  1.00  0.00     0.340 C 
ATOM     76  O   UNL     1       5.599   1.813  -3.602  1.00  0.00    -0.246 OA
BRANCH  75  77
ATOM     77  C   UNL     1       5.221  -0.293  -4.667  1.00  0.00     0.088 A 
ATOM     78  C   UNL     1       4.599  -0.594  -5.886  1.00  0.00     0.018 A 
ATOM     79  C   UNL     1       6.157  -1.158  -4.073  1.00  0.00     0.105 A 
ATOM     80  C   UNL     1       4.917  -1.774  -6.539  1.00  0.00     0.003 A 
ATOM     81  C   UNL     1       6.454  -2.368  -4.751  1.00  0.00     0.091 A 
ATOM     82  N   UNL     1       6.735  -0.917  -2.870  1.00  0.00    -0.230 NA
ATOM     83  C   UNL     1       5.841  -2.645  -5.965  1.00  0.00     0.031 A 
ATOM     84  N   UNL     1       7.294  -3.292  -4.245  1.00  0.00    -0.231 NA
ATOM     85  C   UNL     1       7.567  -1.854  -2.360  1.00  0.00     0.167 A 
ATOM     86  C   UNL     1       7.841  -3.023  -3.037  1.00  0.00     0.167 A 
ATOM     87  Cl  UNL     1       8.148  -1.485  -0.789  1.00  0.00    -0.059 Cl
ATOM     88  Cl  UNL     1       8.839  -4.280  -2.432  1.00  0.00    -0.059 Cl
ENDBRANCH  75  77
ENDBRANCH  74  75
ENDBRANCH  73  74
ENDBRANCH  72  73
ENDBRANCH  71  72
ENDBRANCH  70  71
ENDBRANCH   1  70
TORSDOF 17
