REMARK SMILES CC[NH+](CC)C[C@H](F)C(=O)OCCOCCOC(=O)c1ccc(-c2c3nc(c(-c4cc(S(=O)(=O)[O-])ccc4F)c4ccc([nH]4)c(-c4cc(S(=O)(=O)[O-])ccc4F)c4nc(c(-c5cc(S(=O)(=O)[O-])ccc5F)c5ccc2[nH]5)C=C4)C=C3)cc1
REMARK SMILES IDX 14 1 13 2 12 3 11 4 9 5 10 6 7 7 8 8 6 9 3 10 2 12 1 13 4 14
REMARK SMILES IDX 5 15 15 16 16 17 17 18 18 19 19 20 20 21 21 22 82 23 22 24
REMARK SMILES IDX 81 25 23 26 24 27 25 28 75 29 26 30 80 31 74 32 76 33 27 34
REMARK SMILES IDX 79 35 73 36 72 37 28 39 60 40 40 41 59 42 41 43 44 44 58 45
REMARK SMILES IDX 77 46 42 47 43 48 57 50 78 51 45 52 29 53 30 54 38 55 31 56
REMARK SMILES IDX 37 57 39 58 36 59 32 60 33 61 34 62 35 63 61 64 62 65 70 66
REMARK SMILES IDX 63 67 69 68 71 69 68 70 64 71 65 72 66 73 67 74 46 75 47 76
REMARK SMILES IDX 55 77 48 78 54 79 56 80 53 81 49 82 50 83 51 84 52 85
REMARK H PARENT 3 11 76 38 44 49
REMARK Flexibility Score: inf
ROOT
ATOM      1  O   UNL     1       6.689  -1.324  -4.295  1.00  0.00    -0.374 OA
ENDROOT
BRANCH   1   2
ATOM      2  C   UNL     1       7.323  -0.920  -3.091  1.00  0.00     0.202 C 
BRANCH   2   3
ATOM      3  C   UNL     1       6.636   0.102  -2.172  1.00  0.00     0.261 C 
BRANCH   3   4
ATOM      4  O   UNL     1       5.232  -0.082  -1.958  1.00  0.00    -0.461 OA
BRANCH   4   5
ATOM      5  C   UNL     1       4.454   0.572  -2.866  1.00  0.00     0.346 C 
ATOM      6  O   UNL     1       4.897   1.119  -3.869  1.00  0.00    -0.248 OA
BRANCH   5   7
ATOM      7  C   UNL     1       2.981   0.509  -2.536  1.00  0.00     0.330 C 
ATOM      8  F   UNL     1       2.674  -0.559  -1.728  1.00  0.00    -0.228 F 
BRANCH   7   9
ATOM      9  C   UNL     1       2.376   1.772  -1.891  1.00  0.00     0.312 C 
BRANCH   9  10
ATOM     10  N   UNL     1       2.988   3.103  -1.930  1.00  0.00    -0.332 N 
ATOM     11  H   UNL     1       2.401   3.553  -1.228  1.00  0.00     0.348 HD
BRANCH  10  12
ATOM     12  C   UNL     1       4.316   3.265  -1.339  1.00  0.00     0.258 C 
ATOM     13  C   UNL     1       4.470   2.614   0.036  1.00  0.00     0.071 C 
ENDBRANCH  10  12
BRANCH  10  14
ATOM     14  C   UNL     1       2.745   3.907  -3.129  1.00  0.00     0.258 C 
ATOM     15  C   UNL     1       3.284   3.400  -4.458  1.00  0.00     0.071 C 
ENDBRANCH  10  14
ENDBRANCH   9  10
ENDBRANCH   7   9
ENDBRANCH   5   7
ENDBRANCH   4   5
ENDBRANCH   3   4
ENDBRANCH   2   3
ENDBRANCH   1   2
BRANCH   1  16
ATOM     16  C   UNL     1       5.501  -2.109  -4.240  1.00  0.00     0.202 C 
BRANCH  16  17
ATOM     17  C   UNL     1       5.484  -3.414  -3.438  1.00  0.00     0.261 C 
BRANCH  17  18
ATOM     18  O   UNL     1       5.726  -3.227  -2.035  1.00  0.00    -0.460 OA
BRANCH  18  19
ATOM     19  C   UNL     1       6.840  -3.853  -1.578  1.00  0.00     0.338 C 
ATOM     20  O   UNL     1       7.617  -4.532  -2.228  1.00  0.00    -0.246 OA
BRANCH  19  21
ATOM     21  C   UNL     1       7.118  -3.462  -0.187  1.00  0.00     0.060 A 
ATOM     22  C   UNL     1       8.357  -2.869   0.086  1.00  0.00     0.016 A 
ATOM     23  C   UNL     1       6.251  -3.816   0.847  1.00  0.00     0.016 A 
ATOM     24  C   UNL     1       8.764  -2.686   1.404  1.00  0.00     0.010 A 
ATOM     25  C   UNL     1       6.667  -3.645   2.170  1.00  0.00     0.010 A 
ATOM     26  C   UNL     1       7.943  -3.123   2.451  1.00  0.00    -0.014 A 
BRANCH  26  27
ATOM     27  C   UNL     1       8.508  -3.215   3.818  1.00  0.00     0.031 A 
ATOM     28  C   UNL     1       9.046  -4.540   4.287  1.00  0.00     0.074 A 
ATOM     29  C   UNL     1       8.588  -2.127   4.603  1.00  0.00     0.049 A 
ATOM     30  N   UNL     1       9.563  -4.867   5.442  1.00  0.00    -0.248 NA
ATOM     31  C   UNL     1       8.992  -5.645   3.317  1.00  0.00     0.031 C 
ATOM     32  C   UNL     1       8.151  -0.783   4.226  1.00  0.00     0.029 A 
ATOM     33  N   UNL     1       9.065  -1.981   5.880  1.00  0.00    -0.354 N 
ATOM     34  C   UNL     1       9.900  -6.213   5.339  1.00  0.00     0.074 A 
ATOM     35  C   UNL     1       9.488  -6.650   4.022  1.00  0.00     0.031 C 
ATOM     36  C   UNL     1       8.370   0.050   5.258  1.00  0.00     0.029 A 
ATOM     37  C   UNL     1       8.928  -0.707   6.377  1.00  0.00     0.049 A 
ATOM     38  H   UNL     1       9.466  -2.720   6.393  1.00  0.00     0.167 HD
ATOM     39  C   UNL     1      10.507  -7.007   6.256  1.00  0.00     0.034 A 
ATOM     40  C   UNL     1       9.199  -0.219   7.604  1.00  0.00     0.034 A 
ATOM     41  C   UNL     1      10.889  -6.558   7.572  1.00  0.00     0.049 A 
ATOM     42  C   UNL     1       9.783  -1.146   8.643  1.00  0.00     0.074 A 
ATOM     43  C   UNL     1      11.497  -7.275   8.588  1.00  0.00     0.029 A 
ATOM     44  N   UNL     1      10.689  -5.272   8.061  1.00  0.00    -0.354 N 
ATOM     45  N   UNL     1      10.092  -2.419   8.537  1.00  0.00    -0.248 NA
ATOM     46  C   UNL     1      10.062  -0.569   9.964  1.00  0.00     0.031 C 
ATOM     47  C   UNL     1      11.604  -6.443   9.709  1.00  0.00     0.029 A 
ATOM     48  C   UNL     1      11.134  -5.184   9.371  1.00  0.00     0.049 A 
ATOM     49  H   UNL     1      10.290  -4.531   7.550  1.00  0.00     0.167 HD
ATOM     50  C   UNL     1      10.633  -2.783   9.768  1.00  0.00     0.074 A 
ATOM     51  C   UNL     1      10.619  -1.592  10.593  1.00  0.00     0.031 C 
ATOM     52  C   UNL     1      11.102  -3.989  10.181  1.00  0.00     0.034 A 
BRANCH  39  53
ATOM     53  C   UNL     1      10.736  -8.450   5.875  1.00  0.00     0.023 A 
ATOM     54  C   UNL     1      11.596  -8.810   4.822  1.00  0.00     0.031 A 
ATOM     55  C   UNL     1      10.056  -9.480   6.549  1.00  0.00     0.131 A 
ATOM     56  C   UNL     1      11.698 -10.153   4.428  1.00  0.00     0.055 A 
ATOM     57  C   UNL     1      10.221 -10.822   6.202  1.00  0.00     0.041 A 
ATOM     58  F   UNL     1       9.204  -9.197   7.546  1.00  0.00    -0.206 F 
ATOM     59  C   UNL     1      11.035 -11.165   5.126  1.00  0.00     0.022 A 
BRANCH  56  60
ATOM     60  S   UNL     1      12.598 -10.546   2.902  1.00  0.00     0.124 S 
ATOM     61  O   UNL     1      11.856  -9.768   1.913  1.00  0.00    -0.237 OA
ATOM     62  O   UNL     1      13.946 -10.079   3.202  1.00  0.00    -0.237 OA
ATOM     63  O   UNL     1      12.452 -11.995   2.781  1.00  0.00    -0.744 OA
ENDBRANCH  56  60
ENDBRANCH  39  53
BRANCH  40  64
ATOM     64  C   UNL     1       8.887   1.200   7.940  1.00  0.00     0.023 A 
ATOM     65  C   UNL     1       9.899   2.104   8.296  1.00  0.00     0.031 A 
ATOM     66  C   UNL     1       7.556   1.656   7.969  1.00  0.00     0.131 A 
ATOM     67  C   UNL     1       9.563   3.402   8.713  1.00  0.00     0.055 A 
ATOM     68  C   UNL     1       7.231   2.963   8.332  1.00  0.00     0.041 A 
ATOM     69  F   UNL     1       6.548   0.832   7.639  1.00  0.00    -0.206 F 
ATOM     70  C   UNL     1       8.237   3.841   8.721  1.00  0.00     0.022 A 
BRANCH  67  71
ATOM     71  S   UNL     1      10.880   4.483   9.335  1.00  0.00     0.124 S 
ATOM     72  O   UNL     1      11.430   3.685  10.425  1.00  0.00    -0.237 OA
ATOM     73  O   UNL     1      11.728   4.633   8.157  1.00  0.00    -0.237 OA
ATOM     74  O   UNL     1      10.164   5.690   9.743  1.00  0.00    -0.744 OA
ENDBRANCH  67  71
ENDBRANCH  40  64
BRANCH  52  75
ATOM     75  C   UNL     1      11.683  -4.056  11.572  1.00  0.00     0.023 A 
ATOM     76  C   UNL     1      10.885  -3.890  12.718  1.00  0.00     0.031 A 
ATOM     77  C   UNL     1      13.061  -4.272  11.752  1.00  0.00     0.131 A 
ATOM     78  C   UNL     1      11.480  -3.883  13.989  1.00  0.00     0.055 A 
ATOM     79  C   UNL     1      13.638  -4.326  13.021  1.00  0.00     0.041 A 
ATOM     80  F   UNL     1      13.871  -4.436  10.693  1.00  0.00    -0.206 F 
ATOM     81  C   UNL     1      12.848  -4.117  14.148  1.00  0.00     0.022 A 
BRANCH  78  82
ATOM     82  S   UNL     1      10.456  -3.470  15.427  1.00  0.00     0.124 S 
ATOM     83  O   UNL     1       9.954  -2.146  15.073  1.00  0.00    -0.237 OA
ATOM     84  O   UNL     1       9.469  -4.546  15.428  1.00  0.00    -0.237 OA
ATOM     85  O   UNL     1      11.402  -3.497  16.541  1.00  0.00    -0.744 OA
ENDBRANCH  78  82
ENDBRANCH  52  75
ENDBRANCH  26  27
ENDBRANCH  19  21
ENDBRANCH  18  19
ENDBRANCH  17  18
ENDBRANCH  16  17
ENDBRANCH   1  16
TORSDOF 21
