REMARK SMILES O=C(OCCOCCOC(=O)c1ccc(-c2c3nc(c(-c4cc(S(=O)(=O)[O-])ccc4F)c4ccc([nH]4)c(-c4cc(S(=O)(=O)[O-])ccc4F)c4nc(c(-c5cc(S(=O)(=O)[O-])ccc5F)c5ccc2[nH]5)C=C4)C=C3)cc1)c1ccc(NS(=O)(=O)C2=Cc3ccccc3CC2)cc1
REMARK SMILES IDX 6 1 5 2 4 3 3 4 2 5 1 6 75 7 76 8 94 9 77 10 93 11 78 12
REMARK SMILES IDX 79 13 80 15 81 16 82 17 83 18 84 19 92 20 85 21 91 22 86 23
REMARK SMILES IDX 90 24 87 25 89 26 88 27 7 28 8 29 9 30 10 31 11 32 12 33
REMARK SMILES IDX 13 34 74 35 14 36 73 37 15 38 16 39 17 40 67 41 18 42 72 43
REMARK SMILES IDX 66 44 68 45 19 46 71 47 65 48 64 49 20 51 52 52 32 53 51 54
REMARK SMILES IDX 33 55 36 56 50 57 69 58 34 59 35 60 49 62 70 63 37 64 21 65
REMARK SMILES IDX 22 66 30 67 23 68 29 69 31 70 28 71 24 72 25 73 26 74 27 75
REMARK SMILES IDX 53 76 54 77 62 78 55 79 61 80 63 81 60 82 56 83 57 84 58 85
REMARK SMILES IDX 59 86 38 87 39 88 47 89 40 90 46 91 48 92 45 93 41 94 42 95
REMARK SMILES IDX 43 96 44 97
REMARK H PARENT 79 14 68 50 36 61
REMARK Flexibility Score: inf
ROOT
ATOM      1  O   UNL     1       3.964   1.117   0.666  1.00  0.00    -0.374 OA
ENDROOT
BRANCH   1   2
ATOM      2  C   UNL     1       4.300   1.063  -0.722  1.00  0.00     0.202 C 
BRANCH   2   3
ATOM      3  C   UNL     1       3.947  -0.254  -1.420  1.00  0.00     0.261 C 
BRANCH   3   4
ATOM      4  O   UNL     1       2.614  -0.715  -1.134  1.00  0.00    -0.460 OA
BRANCH   4   5
ATOM      5  C   UNL     1       2.117  -1.392  -0.073  1.00  0.00     0.338 C 
ATOM      6  O   UNL     1       0.896  -1.540  -0.006  1.00  0.00    -0.246 OA
BRANCH   5   7
ATOM      7  C   UNL     1       2.927  -1.936   1.066  1.00  0.00     0.060 A 
ATOM      8  C   UNL     1       4.305  -1.885   1.182  1.00  0.00     0.018 A 
ATOM      9  C   UNL     1       2.227  -2.509   2.147  1.00  0.00     0.018 A 
ATOM     10  C   UNL     1       4.933  -2.265   2.360  1.00  0.00     0.027 A 
ATOM     11  C   UNL     1       2.862  -2.762   3.377  1.00  0.00     0.027 A 
ATOM     12  C   UNL     1       4.222  -2.517   3.508  1.00  0.00     0.049 A 
BRANCH  12  13
ATOM     13  N   UNL     1       4.760  -2.173   4.784  1.00  0.00    -0.280 N 
ATOM     14  H   UNL     1       4.136  -2.099   5.542  1.00  0.00     0.180 HD
BRANCH  13  15
ATOM     15  S   UNL     1       6.409  -1.885   5.077  1.00  0.00     0.258 S 
ATOM     16  O   UNL     1       6.427  -1.564   6.494  1.00  0.00    -0.202 OA
ATOM     17  O   UNL     1       7.089  -3.080   4.618  1.00  0.00    -0.202 OA
BRANCH  15  18
ATOM     18  C   UNL     1       6.981  -0.449   4.128  1.00  0.00     0.066 C 
ATOM     19  C   UNL     1       7.493   0.556   4.885  1.00  0.00     0.026 C 
ATOM     20  C   UNL     1       7.900  -0.718   2.932  1.00  0.00     0.055 C 
ATOM     21  C   UNL     1       8.918   0.319   5.300  1.00  0.00    -0.021 A 
ATOM     22  C   UNL     1       9.214  -1.345   3.399  1.00  0.00     0.041 C 
ATOM     23  C   UNL     1       9.486   1.080   6.320  1.00  0.00     0.008 A 
ATOM     24  C   UNL     1       9.701  -0.673   4.661  1.00  0.00    -0.040 A 
ATOM     25  C   UNL     1      10.768   0.773   6.784  1.00  0.00     0.001 A 
ATOM     26  C   UNL     1      10.948  -1.023   5.182  1.00  0.00     0.004 A 
ATOM     27  C   UNL     1      11.475  -0.306   6.251  1.00  0.00     0.000 A 
ENDBRANCH  15  18
ENDBRANCH  13  15
ENDBRANCH  12  13
ENDBRANCH   5   7
ENDBRANCH   4   5
ENDBRANCH   3   4
ENDBRANCH   2   3
ENDBRANCH   1   2
BRANCH   1  28
ATOM     28  C   UNL     1       2.692   1.728   0.933  1.00  0.00     0.202 C 
BRANCH  28  29
ATOM     29  C   UNL     1       2.776   3.225   1.265  1.00  0.00     0.261 C 
BRANCH  29  30
ATOM     30  O   UNL     1       3.204   3.972   0.121  1.00  0.00    -0.460 OA
BRANCH  30  31
ATOM     31  C   UNL     1       4.543   4.194   0.043  1.00  0.00     0.338 C 
ATOM     32  O   UNL     1       5.375   3.989   0.901  1.00  0.00    -0.246 OA
BRANCH  31  33
ATOM     33  C   UNL     1       4.856   4.501  -1.370  1.00  0.00     0.060 A 
ATOM     34  C   UNL     1       6.005   3.921  -1.927  1.00  0.00     0.016 A 
ATOM     35  C   UNL     1       4.002   5.283  -2.152  1.00  0.00     0.016 A 
ATOM     36  C   UNL     1       6.312   4.133  -3.269  1.00  0.00     0.010 A 
ATOM     37  C   UNL     1       4.313   5.500  -3.490  1.00  0.00     0.010 A 
ATOM     38  C   UNL     1       5.482   4.948  -4.044  1.00  0.00    -0.014 A 
BRANCH  38  39
ATOM     39  C   UNL     1       5.917   5.423  -5.375  1.00  0.00     0.031 A 
ATOM     40  C   UNL     1       6.473   6.813  -5.462  1.00  0.00     0.074 A 
ATOM     41  C   UNL     1       5.746   4.667  -6.472  1.00  0.00     0.049 A 
ATOM     42  N   UNL     1       6.728   7.544  -6.512  1.00  0.00    -0.248 NA
ATOM     43  C   UNL     1       6.745   7.476  -4.177  1.00  0.00     0.031 C 
ATOM     44  C   UNL     1       5.243   3.295  -6.481  1.00  0.00     0.029 A 
ATOM     45  N   UNL     1       5.940   4.968  -7.795  1.00  0.00    -0.354 N 
ATOM     46  C   UNL     1       7.161   8.768  -6.015  1.00  0.00     0.074 A 
ATOM     47  C   UNL     1       7.098   8.687  -4.572  1.00  0.00     0.031 C 
ATOM     48  C   UNL     1       5.131   2.884  -7.756  1.00  0.00     0.029 A 
ATOM     49  C   UNL     1       5.501   3.982  -8.647  1.00  0.00     0.049 A 
ATOM     50  H   UNL     1       6.352   5.807  -8.105  1.00  0.00     0.167 HD
ATOM     51  C   UNL     1       7.571   9.858  -6.708  1.00  0.00     0.034 A 
ATOM     52  C   UNL     1       5.364   3.992  -9.989  1.00  0.00     0.034 A 
ATOM     53  C   UNL     1       7.599   9.905  -8.148  1.00  0.00     0.049 A 
ATOM     54  C   UNL     1       5.760   5.236 -10.747  1.00  0.00     0.074 A 
ATOM     55  C   UNL     1       8.026  10.931  -8.970  1.00  0.00     0.029 A 
ATOM     56  N   UNL     1       7.158   8.883  -8.982  1.00  0.00    -0.354 N 
ATOM     57  N   UNL     1       6.194   6.385 -10.279  1.00  0.00    -0.248 NA
ATOM     58  C   UNL     1       5.655   5.186 -12.211  1.00  0.00     0.031 C 
ATOM     59  C   UNL     1       7.760  10.566 -10.293  1.00  0.00     0.029 A 
ATOM     60  C   UNL     1       7.263   9.271 -10.307  1.00  0.00     0.049 A 
ATOM     61  H   UNL     1       6.821   8.011  -8.675  1.00  0.00     0.167 HD
ATOM     62  C   UNL     1       6.445   7.183 -11.392  1.00  0.00     0.074 A 
ATOM     63  C   UNL     1       6.113   6.383 -12.554  1.00  0.00     0.031 C 
ATOM     64  C   UNL     1       6.920   8.455 -11.451  1.00  0.00     0.034 A 
BRANCH  51  65
ATOM     65  C   UNL     1       7.939  11.087  -5.910  1.00  0.00     0.023 A 
ATOM     66  C   UNL     1       8.972  11.072  -4.955  1.00  0.00     0.031 A 
ATOM     67  C   UNL     1       7.196  12.272  -6.050  1.00  0.00     0.131 A 
ATOM     68  C   UNL     1       9.163  12.176  -4.111  1.00  0.00     0.055 A 
ATOM     69  C   UNL     1       7.457  13.404  -5.275  1.00  0.00     0.041 A 
ATOM     70  F   UNL     1       6.178  12.343  -6.923  1.00  0.00    -0.206 F 
ATOM     71  C   UNL     1       8.431  13.353  -4.282  1.00  0.00     0.022 A 
BRANCH  68  72
ATOM     72  S   UNL     1      10.240  11.979  -2.663  1.00  0.00     0.124 S 
ATOM     73  O   UNL     1       9.625  10.836  -1.992  1.00  0.00    -0.237 OA
ATOM     74  O   UNL     1      11.543  11.738  -3.271  1.00  0.00    -0.237 OA
ATOM     75  O   UNL     1      10.103  13.252  -1.959  1.00  0.00    -0.744 OA
ENDBRANCH  68  72
ENDBRANCH  51  65
BRANCH  52  76
ATOM     76  C   UNL     1       4.775   2.812 -10.684  1.00  0.00     0.023 A 
ATOM     77  C   UNL     1       5.533   2.032 -11.569  1.00  0.00     0.031 A 
ATOM     78  C   UNL     1       3.433   2.447 -10.466  1.00  0.00     0.131 A 
ATOM     79  C   UNL     1       4.939   0.939 -12.223  1.00  0.00     0.055 A 
ATOM     80  C   UNL     1       2.862   1.331 -11.080  1.00  0.00     0.041 A 
ATOM     81  F   UNL     1       2.663   3.159  -9.628  1.00  0.00    -0.206 F 
ATOM     82  C   UNL     1       3.614   0.574 -11.971  1.00  0.00     0.022 A 
BRANCH  79  83
ATOM     83  S   UNL     1       5.910   0.029 -13.455  1.00  0.00     0.124 S 
ATOM     84  O   UNL     1       6.223   1.078 -14.419  1.00  0.00    -0.237 OA
ATOM     85  O   UNL     1       7.028  -0.463 -12.657  1.00  0.00    -0.237 OA
ATOM     86  O   UNL     1       4.984  -0.998 -13.928  1.00  0.00    -0.744 OA
ENDBRANCH  79  83
ENDBRANCH  52  76
BRANCH  64  87
ATOM     87  C   UNL     1       7.172   9.042 -12.819  1.00  0.00     0.023 A 
ATOM     88  C   UNL     1       6.127   9.360 -13.702  1.00  0.00     0.031 A 
ATOM     89  C   UNL     1       8.490   9.327 -13.221  1.00  0.00     0.131 A 
ATOM     90  C   UNL     1       6.421   9.915 -14.957  1.00  0.00     0.055 A 
ATOM     91  C   UNL     1       8.771   9.935 -14.444  1.00  0.00     0.041 A 
ATOM     92  F   UNL     1       9.527   9.039 -12.417  1.00  0.00    -0.206 F 
ATOM     93  C   UNL     1       7.734  10.225 -15.324  1.00  0.00     0.022 A 
BRANCH  90  94
ATOM     94  S   UNL     1       5.070  10.165 -16.141  1.00  0.00     0.124 S 
ATOM     95  O   UNL     1       4.562   8.808 -16.311  1.00  0.00    -0.237 OA
ATOM     96  O   UNL     1       4.195  11.089 -15.428  1.00  0.00    -0.237 OA
ATOM     97  O   UNL     1       5.740  10.727 -17.313  1.00  0.00    -0.744 OA
ENDBRANCH  90  94
ENDBRANCH  64  87
ENDBRANCH  38  39
ENDBRANCH  31  33
ENDBRANCH  30  31
ENDBRANCH  29  30
ENDBRANCH  28  29
ENDBRANCH   1  28
TORSDOF 20
