REMARK SMILES Cc1ccc2c(c1)C=C(C(=O)OCCOCCOC(=O)c1ccc(-c3c4nc(c(-c5cc(S(=O)(=O)[O-])ccc5F)c5ccc([nH]5)c(-c5cc(S(=O)(=O)[O-])ccc5F)c5nc(c(-c6cc(S(=O)(=O)[O-])ccc6F)c6ccc3[nH]6)C=C5)C=C4)cc1)[C@@H](C(F)(F)F)O2
REMARK SMILES IDX 16 1 15 2 14 3 13 4 12 5 10 6 11 7 9 8 1 9 2 10 3 11 7 12
REMARK SMILES IDX 4 13 6 14 5 15 8 16 89 17 84 18 85 19 86 20 87 21 88 22
REMARK SMILES IDX 17 23 18 24 19 25 20 26 21 27 22 28 83 29 23 30 82 31 24 32
REMARK SMILES IDX 25 33 26 34 76 35 27 36 81 37 75 38 77 39 28 40 80 41 74 42
REMARK SMILES IDX 73 43 29 45 61 46 41 47 60 48 42 49 45 50 59 51 78 52 43 53
REMARK SMILES IDX 44 54 58 56 79 57 46 58 30 59 31 60 39 61 32 62 38 63 40 64
REMARK SMILES IDX 37 65 33 66 34 67 35 68 36 69 62 70 63 71 71 72 64 73 70 74
REMARK SMILES IDX 72 75 69 76 65 77 66 78 67 79 68 80 47 81 48 82 56 83 49 84
REMARK SMILES IDX 55 85 57 86 54 87 50 88 51 89 52 90 53 91
REMARK H PARENT 77 44 45 55
REMARK Flexibility Score: inf
ROOT
ATOM      1  C   UNL     1       2.657   6.654   4.035  1.00  0.00     0.202 C 
ENDROOT
BRANCH   1   2
ATOM      2  O   UNL     1       2.173   7.991   3.919  1.00  0.00    -0.374 OA
BRANCH   2   3
ATOM      3  C   UNL     1       1.253   8.470   4.897  1.00  0.00     0.202 C 
BRANCH   3   4
ATOM      4  C   UNL     1      -0.193   7.970   4.829  1.00  0.00     0.261 C 
BRANCH   4   5
ATOM      5  O   UNL     1      -0.275   6.537   4.846  1.00  0.00    -0.460 OA
BRANCH   5   6
ATOM      6  C   UNL     1      -0.652   5.985   3.670  1.00  0.00     0.338 C 
ATOM      7  O   UNL     1      -1.004   6.575   2.660  1.00  0.00    -0.246 OA
BRANCH   6   8
ATOM      8  C   UNL     1      -0.448   4.525   3.716  1.00  0.00     0.087 C 
ATOM      9  C   UNL     1       0.960  -0.132  -0.043  1.00  0.00     0.044 C 
ATOM     10  C   UNL     1       0.540   0.520   1.241  1.00  0.00    -0.050 A 
ATOM     11  C   UNL     1       0.152  -0.243   2.347  1.00  0.00     0.007 A 
ATOM     12  C   UNL     1       0.560   1.915   1.353  1.00  0.00     0.015 A 
ATOM     13  C   UNL     1      -0.215   0.380   3.543  1.00  0.00     0.047 A 
ATOM     14  C   UNL     1       0.155   2.539   2.538  1.00  0.00     0.017 A 
ATOM     15  C   UNL     1      -0.217   1.770   3.639  1.00  0.00     0.128 A 
ATOM     16  C   UNL     1       0.057   3.983   2.601  1.00  0.00     0.027 C 
ATOM     17  O   UNL     1      -0.589   2.299   4.841  1.00  0.00    -0.475 OA
ATOM     18  C   UNL     1      -0.825   3.735   4.940  1.00  0.00     0.316 C 
BRANCH  18  19
ATOM     19  C   UNL     1      -2.287   3.957   5.353  1.00  0.00     0.430 C 
ATOM     20  F   UNL     1      -2.620   3.185   6.415  1.00  0.00    -0.167 F 
ATOM     21  F   UNL     1      -2.518   5.240   5.715  1.00  0.00    -0.167 F 
ATOM     22  F   UNL     1      -3.144   3.659   4.350  1.00  0.00    -0.167 F 
ENDBRANCH  18  19
ENDBRANCH   6   8
ENDBRANCH   5   6
ENDBRANCH   4   5
ENDBRANCH   3   4
ENDBRANCH   2   3
ENDBRANCH   1   2
BRANCH   1  23
ATOM     23  C   UNL     1       3.619   6.309   5.180  1.00  0.00     0.261 C 
BRANCH  23  24
ATOM     24  O   UNL     1       3.038   6.479   6.482  1.00  0.00    -0.460 OA
BRANCH  24  25
ATOM     25  C   UNL     1       3.517   7.540   7.180  1.00  0.00     0.338 C 
ATOM     26  O   UNL     1       4.385   8.322   6.821  1.00  0.00    -0.246 OA
BRANCH  25  27
ATOM     27  C   UNL     1       2.686   7.754   8.380  1.00  0.00     0.060 A 
ATOM     28  C   UNL     1       2.477   6.734   9.308  1.00  0.00     0.016 A 
ATOM     29  C   UNL     1       2.142   9.029   8.587  1.00  0.00     0.016 A 
ATOM     30  C   UNL     1       1.742   7.006  10.466  1.00  0.00     0.010 A 
ATOM     31  C   UNL     1       1.411   9.297   9.744  1.00  0.00     0.010 A 
ATOM     32  C   UNL     1       1.224   8.294  10.704  1.00  0.00    -0.014 A 
BRANCH  32  33
ATOM     33  C   UNL     1       0.623   8.623  12.022  1.00  0.00     0.031 A 
ATOM     34  C   UNL     1      -0.848   8.859  12.185  1.00  0.00     0.074 A 
ATOM     35  C   UNL     1       1.446   8.736  13.083  1.00  0.00     0.049 A 
ATOM     36  N   UNL     1      -1.525   9.067  13.284  1.00  0.00    -0.248 NA
ATOM     37  C   UNL     1      -1.665   8.873  10.963  1.00  0.00     0.031 C 
ATOM     38  C   UNL     1       2.901   8.591  13.024  1.00  0.00     0.029 A 
ATOM     39  N   UNL     1       1.189   8.990  14.407  1.00  0.00    -0.354 N 
ATOM     40  C   UNL     1      -2.850   9.218  12.896  1.00  0.00     0.074 A 
ATOM     41  C   UNL     1      -2.872   9.134  11.450  1.00  0.00     0.031 C 
ATOM     42  C   UNL     1       3.404   8.718  14.259  1.00  0.00     0.029 A 
ATOM     43  C   UNL     1       2.316   8.994  15.196  1.00  0.00     0.049 A 
ATOM     44  H   UNL     1       0.284   9.153  14.759  1.00  0.00     0.167 HD
ATOM     45  C   UNL     1      -3.942   9.386  13.679  1.00  0.00     0.034 A 
ATOM     46  C   UNL     1       2.465   9.191  16.522  1.00  0.00     0.034 A 
ATOM     47  C   UNL     1      -3.892   9.478  15.119  1.00  0.00     0.049 A 
ATOM     48  C   UNL     1       1.234   9.392  17.370  1.00  0.00     0.074 A 
ATOM     49  C   UNL     1      -4.952   9.590  16.003  1.00  0.00     0.029 A 
ATOM     50  N   UNL     1      -2.736   9.484  15.887  1.00  0.00    -0.354 N 
ATOM     51  N   UNL     1      -0.026   9.402  17.003  1.00  0.00    -0.248 NA
ATOM     52  C   UNL     1       1.437   9.588  18.812  1.00  0.00     0.031 C 
ATOM     53  C   UNL     1      -4.437   9.750  17.288  1.00  0.00     0.029 A 
ATOM     54  C   UNL     1      -3.057   9.638  17.228  1.00  0.00     0.049 A 
ATOM     55  H   UNL     1      -1.822   9.393  15.532  1.00  0.00     0.167 HD
ATOM     56  C   UNL     1      -0.765   9.578  18.169  1.00  0.00     0.074 A 
ATOM     57  C   UNL     1       0.188   9.639  19.257  1.00  0.00     0.031 C 
ATOM     58  C   UNL     1      -2.110   9.684  18.319  1.00  0.00     0.034 A 
BRANCH  45  59
ATOM     59  C   UNL     1      -5.305   9.451  13.029  1.00  0.00     0.023 A 
ATOM     60  C   UNL     1      -6.119  10.587  13.206  1.00  0.00     0.031 A 
ATOM     61  C   UNL     1      -5.861   8.331  12.386  1.00  0.00     0.131 A 
ATOM     62  C   UNL     1      -7.457  10.557  12.790  1.00  0.00     0.055 A 
ATOM     63  C   UNL     1      -7.180   8.325  11.928  1.00  0.00     0.041 A 
ATOM     64  F   UNL     1      -5.131   7.218  12.201  1.00  0.00    -0.206 F 
ATOM     65  C   UNL     1      -7.989   9.436  12.144  1.00  0.00     0.022 A 
BRANCH  62  66
ATOM     66  S   UNL     1      -8.582  11.934  13.149  1.00  0.00     0.124 S 
ATOM     67  O   UNL     1      -9.021  12.319  11.809  1.00  0.00    -0.237 OA
ATOM     68  O   UNL     1      -9.598  11.289  13.976  1.00  0.00    -0.237 OA
ATOM     69  O   UNL     1      -7.738  12.909  13.829  1.00  0.00    -0.744 OA
ENDBRANCH  62  66
ENDBRANCH  45  59
BRANCH  46  70
ATOM     70  C   UNL     1       3.833   9.126  17.115  1.00  0.00     0.023 A 
ATOM     71  C   UNL     1       4.840  10.020  16.704  1.00  0.00     0.031 A 
ATOM     72  C   UNL     1       4.186   8.100  18.006  1.00  0.00     0.131 A 
ATOM     73  C   UNL     1       6.162   9.822  17.123  1.00  0.00     0.055 A 
ATOM     74  C   UNL     1       5.490   7.955  18.485  1.00  0.00     0.041 A 
ATOM     75  F   UNL     1       3.267   7.212  18.414  1.00  0.00    -0.206 F 
ATOM     76  C   UNL     1       6.490   8.808  18.027  1.00  0.00     0.022 A 
BRANCH  73  77
ATOM     77  S   UNL     1       7.519  10.778  16.392  1.00  0.00     0.124 S 
ATOM     78  O   UNL     1       8.110  11.415  17.565  1.00  0.00    -0.237 OA
ATOM     79  O   UNL     1       8.322   9.727  15.772  1.00  0.00    -0.237 OA
ATOM     80  O   UNL     1       6.846  11.675  15.459  1.00  0.00    -0.744 OA
ENDBRANCH  73  77
ENDBRANCH  46  70
BRANCH  58  81
ATOM     81  C   UNL     1      -2.678   9.874  19.709  1.00  0.00     0.023 A 
ATOM     82  C   UNL     1      -3.589   8.933  20.230  1.00  0.00     0.031 A 
ATOM     83  C   UNL     1      -2.452  11.051  20.443  1.00  0.00     0.131 A 
ATOM     84  C   UNL     1      -4.280   9.211  21.417  1.00  0.00     0.055 A 
ATOM     85  C   UNL     1      -3.098  11.295  21.657  1.00  0.00     0.041 A 
ATOM     86  F   UNL     1      -1.605  11.988  19.987  1.00  0.00    -0.206 F 
ATOM     87  C   UNL     1      -4.030  10.381  22.139  1.00  0.00     0.022 A 
BRANCH  84  88
ATOM     88  S   UNL     1      -5.602   8.118  22.009  1.00  0.00     0.124 S 
ATOM     89  O   UNL     1      -5.102   7.723  23.323  1.00  0.00    -0.237 OA
ATOM     90  O   UNL     1      -6.756   9.014  22.026  1.00  0.00    -0.237 OA
ATOM     91  O   UNL     1      -5.650   7.051  21.015  1.00  0.00    -0.744 OA
ENDBRANCH  84  88
ENDBRANCH  58  81
ENDBRANCH  32  33
ENDBRANCH  25  27
ENDBRANCH  24  25
ENDBRANCH  23  24
ENDBRANCH   1  23
TORSDOF 18
