REMARK SMILES C[C@@H]1C[N@@H+]([C@@H](C)CC(=O)OCCOCCOC(=O)c2ccc(-c3c4nc(c(-c5cc(S(=O)(=O)[O-])ccc5F)c5ccc([nH]5)c(-c5cc(S(=O)(=O)[O-])ccc5F)c5nc(c(-c6cc(S(=O)(=O)[O-])ccc6F)c6ccc3[nH]6)C=C5)C=C4)cc2)C[C@H](C)O1
REMARK SMILES IDX 14 1 13 2 12 3 11 4 10 5 8 6 9 7 7 8 5 9 6 10 4 11 1 12 2 13
REMARK SMILES IDX 3 14 85 15 83 16 82 17 84 19 15 20 16 21 17 22 18 23 19 24
REMARK SMILES IDX 20 25 81 26 21 27 80 28 22 29 23 30 24 31 74 32 25 33 79 34
REMARK SMILES IDX 73 35 75 36 26 37 78 38 72 39 71 40 27 42 59 43 39 44 58 45
REMARK SMILES IDX 40 46 43 47 57 48 76 49 41 50 42 51 56 53 77 54 44 55 28 56
REMARK SMILES IDX 29 57 37 58 30 59 36 60 38 61 35 62 31 63 32 64 33 65 34 66
REMARK SMILES IDX 60 67 61 68 69 69 62 70 68 71 70 72 67 73 63 74 64 75 65 76
REMARK SMILES IDX 66 77 45 78 46 79 54 80 47 81 53 82 55 83 52 84 48 85 49 86
REMARK SMILES IDX 50 87 51 88
REMARK H PARENT 4 18 75 41 43 52
REMARK Flexibility Score: inf
ROOT
ATOM      1  C   UNL     1       0.708  -2.664   4.657  1.00  0.00     0.202 C 
ENDROOT
BRANCH   1   2
ATOM      2  O   UNL     1       1.953  -2.412   5.305  1.00  0.00    -0.374 OA
BRANCH   2   3
ATOM      3  C   UNL     1       2.996  -1.877   4.489  1.00  0.00     0.202 C 
BRANCH   3   4
ATOM      4  C   UNL     1       3.770  -2.876   3.628  1.00  0.00     0.261 C 
BRANCH   4   5
ATOM      5  O   UNL     1       2.920  -3.479   2.635  1.00  0.00    -0.463 OA
BRANCH   5   6
ATOM      6  C   UNL     1       2.622  -4.784   2.822  1.00  0.00     0.311 C 
ATOM      7  O   UNL     1       3.112  -5.494   3.696  1.00  0.00    -0.252 OA
BRANCH   6   8
ATOM      8  C   UNL     1       1.646  -5.351   1.817  1.00  0.00     0.187 C 
BRANCH   8   9
ATOM      9  C   UNL     1       0.577  -4.445   1.156  1.00  0.00     0.192 C 
ATOM     10  C   UNL     1      -0.433  -5.376   0.454  1.00  0.00     0.076 C 
BRANCH   9  11
ATOM     11  N   UNL     1       1.084  -3.357   0.295  1.00  0.00    -0.328 N 
ATOM     12  C   UNL     1       0.769  -0.174  -0.554  1.00  0.00     0.045 C 
ATOM     13  C   UNL     1       0.557  -1.459  -1.328  1.00  0.00     0.170 C 
ATOM     14  C   UNL     1       0.033  -2.622  -0.447  1.00  0.00     0.294 C 
ATOM     15  O   UNL     1       1.724  -1.804  -2.087  1.00  0.00    -0.364 OA
ATOM     16  C   UNL     1       2.734  -2.516  -1.361  1.00  0.00     0.170 C 
ATOM     17  C   UNL     1       2.134  -3.748  -0.660  1.00  0.00     0.294 C 
ATOM     18  H   UNL     1       1.501  -2.737   0.989  1.00  0.00     0.348 HD
ATOM     19  C   UNL     1       3.542  -1.628  -0.413  1.00  0.00     0.045 C 
ENDBRANCH   9  11
ENDBRANCH   8   9
ENDBRANCH   6   8
ENDBRANCH   5   6
ENDBRANCH   4   5
ENDBRANCH   3   4
ENDBRANCH   2   3
ENDBRANCH   1   2
BRANCH   1  20
ATOM     20  C   UNL     1      -0.213  -1.463   4.402  1.00  0.00     0.261 C 
BRANCH  20  21
ATOM     21  O   UNL     1       0.344  -0.498   3.495  1.00  0.00    -0.460 OA
BRANCH  21  22
ATOM     22  C   UNL     1       0.878   0.606   4.079  1.00  0.00     0.338 C 
ATOM     23  O   UNL     1       0.909   0.866   5.270  1.00  0.00    -0.246 OA
BRANCH  22  24
ATOM     24  C   UNL     1       1.595   1.385   3.051  1.00  0.00     0.060 A 
ATOM     25  C   UNL     1       2.963   1.641   3.212  1.00  0.00     0.016 A 
ATOM     26  C   UNL     1       0.917   1.867   1.936  1.00  0.00     0.016 A 
ATOM     27  C   UNL     1       3.658   2.388   2.254  1.00  0.00     0.010 A 
ATOM     28  C   UNL     1       1.620   2.585   0.967  1.00  0.00     0.010 A 
ATOM     29  C   UNL     1       2.989   2.881   1.127  1.00  0.00    -0.014 A 
BRANCH  29  30
ATOM     30  C   UNL     1       3.612   3.869   0.201  1.00  0.00     0.031 A 
ATOM     31  C   UNL     1       3.015   5.254   0.157  1.00  0.00     0.074 A 
ATOM     32  C   UNL     1       4.640   3.562  -0.615  1.00  0.00     0.049 A 
ATOM     33  N   UNL     1       3.189   6.215  -0.711  1.00  0.00    -0.248 NA
ATOM     34  C   UNL     1       2.050   5.569   1.222  1.00  0.00     0.031 C 
ATOM     35  C   UNL     1       5.350   2.286  -0.648  1.00  0.00     0.029 A 
ATOM     36  N   UNL     1       5.254   4.310  -1.593  1.00  0.00    -0.354 N 
ATOM     37  C   UNL     1       2.316   7.228  -0.325  1.00  0.00     0.074 A 
ATOM     38  C   UNL     1       1.571   6.731   0.812  1.00  0.00     0.031 C 
ATOM     39  C   UNL     1       6.305   2.341  -1.594  1.00  0.00     0.029 A 
ATOM     40  C   UNL     1       6.236   3.631  -2.280  1.00  0.00     0.049 A 
ATOM     41  H   UNL     1       5.013   5.245  -1.786  1.00  0.00     0.167 HD
ATOM     42  C   UNL     1       2.163   8.467  -0.852  1.00  0.00     0.034 A 
ATOM     43  C   UNL     1       6.967   3.996  -3.356  1.00  0.00     0.034 A 
ATOM     44  C   UNL     1       2.936   8.960  -1.962  1.00  0.00     0.049 A 
ATOM     45  C   UNL     1       6.731   5.355  -3.983  1.00  0.00     0.074 A 
ATOM     46  C   UNL     1       2.884  10.205  -2.562  1.00  0.00     0.029 A 
ATOM     47  N   UNL     1       3.908   8.233  -2.636  1.00  0.00    -0.354 N 
ATOM     48  N   UNL     1       5.885   6.295  -3.629  1.00  0.00    -0.248 NA
ATOM     49  C   UNL     1       7.547   5.701  -5.158  1.00  0.00     0.031 C 
ATOM     50  C   UNL     1       3.768  10.205  -3.644  1.00  0.00     0.029 A 
ATOM     51  C   UNL     1       4.444   8.995  -3.660  1.00  0.00     0.049 A 
ATOM     52  H   UNL     1       4.177   7.311  -2.418  1.00  0.00     0.167 HD
ATOM     53  C   UNL     1       6.107   7.359  -4.502  1.00  0.00     0.074 A 
ATOM     54  C   UNL     1       7.157   6.943  -5.407  1.00  0.00     0.031 C 
ATOM     55  C   UNL     1       5.508   8.576  -4.542  1.00  0.00     0.034 A 
BRANCH  42  56
ATOM     56  C   UNL     1       1.092   9.347  -0.251  1.00  0.00     0.023 A 
ATOM     57  C   UNL     1       1.120   9.724   1.103  1.00  0.00     0.031 A 
ATOM     58  C   UNL     1      -0.005   9.763  -1.025  1.00  0.00     0.131 A 
ATOM     59  C   UNL     1       0.025  10.395   1.665  1.00  0.00     0.055 A 
ATOM     60  C   UNL     1      -1.042  10.524  -0.483  1.00  0.00     0.041 A 
ATOM     61  F   UNL     1      -0.102   9.415  -2.318  1.00  0.00    -0.206 F 
ATOM     62  C   UNL     1      -1.043  10.825   0.876  1.00  0.00     0.022 A 
BRANCH  59  63
ATOM     63  S   UNL     1      -0.069  10.521   3.472  1.00  0.00     0.124 S 
ATOM     64  O   UNL     1      -0.032   9.114   3.866  1.00  0.00    -0.237 OA
ATOM     65  O   UNL     1       1.115  11.306   3.796  1.00  0.00    -0.237 OA
ATOM     66  O   UNL     1      -1.347  11.191   3.703  1.00  0.00    -0.744 OA
ENDBRANCH  59  63
ENDBRANCH  42  56
BRANCH  43  67
ATOM     67  C   UNL     1       7.979   3.066  -3.943  1.00  0.00     0.023 A 
ATOM     68  C   UNL     1       9.341   3.410  -3.976  1.00  0.00     0.031 A 
ATOM     69  C   UNL     1       7.596   1.851  -4.540  1.00  0.00     0.131 A 
ATOM     70  C   UNL     1      10.260   2.577  -4.635  1.00  0.00     0.055 A 
ATOM     71  C   UNL     1       8.524   0.997  -5.140  1.00  0.00     0.041 A 
ATOM     72  F   UNL     1       6.308   1.474  -4.546  1.00  0.00    -0.206 F 
ATOM     73  C   UNL     1       9.864   1.365  -5.202  1.00  0.00     0.022 A 
BRANCH  70  74
ATOM     74  S   UNL     1      11.970   3.152  -4.828  1.00  0.00     0.124 S 
ATOM     75  O   UNL     1      11.782   4.396  -5.566  1.00  0.00    -0.237 OA
ATOM     76  O   UNL     1      12.403   3.288  -3.441  1.00  0.00    -0.237 OA
ATOM     77  O   UNL     1      12.610   2.072  -5.575  1.00  0.00    -0.744 OA
ENDBRANCH  70  74
ENDBRANCH  43  67
BRANCH  55  78
ATOM     78  C   UNL     1       6.030   9.595  -5.526  1.00  0.00     0.023 A 
ATOM     79  C   UNL     1       5.848   9.468  -6.913  1.00  0.00     0.031 A 
ATOM     80  C   UNL     1       6.670  10.753  -5.045  1.00  0.00     0.131 A 
ATOM     81  C   UNL     1       6.320  10.474  -7.773  1.00  0.00     0.055 A 
ATOM     82  C   UNL     1       7.086  11.774  -5.899  1.00  0.00     0.041 A 
ATOM     83  F   UNL     1       6.872  10.924  -3.729  1.00  0.00    -0.206 F 
ATOM     84  C   UNL     1       6.917  11.635  -7.272  1.00  0.00     0.022 A 
BRANCH  81  85
ATOM     85  S   UNL     1       6.188  10.230  -9.566  1.00  0.00     0.124 S 
ATOM     86  O   UNL     1       6.983   9.024  -9.768  1.00  0.00    -0.237 OA
ATOM     87  O   UNL     1       4.749  10.085  -9.758  1.00  0.00    -0.237 OA
ATOM     88  O   UNL     1       6.765  11.453 -10.122  1.00  0.00    -0.744 OA
ENDBRANCH  81  85
ENDBRANCH  55  78
ENDBRANCH  29  30
ENDBRANCH  22  24
ENDBRANCH  21  22
ENDBRANCH  20  21
ENDBRANCH   1  20
TORSDOF 19
