REMARK SMILES O=C(OCCOCCOC(=O)c1ccc2c(=O)n3cc(C(=O)c4cc(F)ccc4O)cc(Cl)c3nc2c1)c1ccc(-c2c3nc(c(-c4cc(S(=O)(=O)[O-])ccc4F)c4ccc([nH]4)c(-c4cc(S(=O)(=O)[O-])ccc4F)c4nc(c(-c5cc(S(=O)(=O)[O-])ccc5F)c5ccc2[nH]5)C=C4)C=C3)cc1
REMARK SMILES IDX 6 1 5 2 4 3 3 4 2 5 1 6 38 7 39 8 100 9 40 10 99 11 41 12
REMARK SMILES IDX 42 13 43 14 93 15 44 16 98 17 92 18 94 19 45 20 97 21 91 22
REMARK SMILES IDX 90 23 46 25 78 26 58 27 77 28 59 29 62 30 76 31 95 32 60 33
REMARK SMILES IDX 61 34 75 36 96 37 63 38 47 39 48 40 56 41 49 42 55 43 57 44
REMARK SMILES IDX 54 45 50 46 51 47 52 48 53 49 79 50 80 51 88 52 81 53 87 54
REMARK SMILES IDX 89 55 86 56 82 57 83 58 84 59 85 60 64 61 65 62 73 63 66 64
REMARK SMILES IDX 72 65 74 66 71 67 67 68 68 69 69 70 70 71 7 72 8 73 9 74
REMARK SMILES IDX 10 75 11 76 12 77 13 78 37 79 14 80 36 81 15 82 35 83 16 84
REMARK SMILES IDX 34 85 17 86 18 87 32 88 19 89 31 90 33 91 20 92 21 93 22 94
REMARK SMILES IDX 23 95 24 96 29 97 25 98 28 99 26 100 27 101 30 102
REMARK H PARENT 94 24 62 35 30 103
REMARK Flexibility Score: inf
ROOT
ATOM      1  O   UNL     1       4.091   1.144  -0.820  1.00  0.00    -0.374 OA
ENDROOT
BRANCH   1   2
ATOM      2  C   UNL     1       4.450  -0.045  -1.518  1.00  0.00     0.202 C 
BRANCH   2   3
ATOM      3  C   UNL     1       4.327  -1.317  -0.681  1.00  0.00     0.261 C 
BRANCH   3   4
ATOM      4  O   UNL     1       3.007  -1.491  -0.152  1.00  0.00    -0.460 OA
BRANCH   4   5
ATOM      5  C   UNL     1       2.431  -0.938   0.940  1.00  0.00     0.338 C 
ATOM      6  O   UNL     1       1.245  -1.211   1.137  1.00  0.00    -0.246 OA
BRANCH   5   7
ATOM      7  C   UNL     1       3.096   0.009   1.904  1.00  0.00     0.060 A 
ATOM      8  C   UNL     1       2.262   0.553   2.901  1.00  0.00     0.016 A 
ATOM      9  C   UNL     1       4.433   0.422   1.898  1.00  0.00     0.016 A 
ATOM     10  C   UNL     1       2.738   1.490   3.824  1.00  0.00     0.010 A 
ATOM     11  C   UNL     1       4.914   1.367   2.805  1.00  0.00     0.010 A 
ATOM     12  C   UNL     1       4.070   1.905   3.772  1.00  0.00    -0.014 A 
BRANCH  12  13
ATOM     13  C   UNL     1       4.640   2.774   4.815  1.00  0.00     0.031 A 
ATOM     14  C   UNL     1       4.840   4.237   4.580  1.00  0.00     0.074 A 
ATOM     15  C   UNL     1       5.045   2.178   5.950  1.00  0.00     0.049 A 
ATOM     16  N   UNL     1       5.214   5.154   5.429  1.00  0.00    -0.248 NA
ATOM     17  C   UNL     1       4.604   4.737   3.216  1.00  0.00     0.031 C 
ATOM     18  C   UNL     1       4.970   0.736   6.198  1.00  0.00     0.029 A 
ATOM     19  N   UNL     1       5.601   2.686   7.091  1.00  0.00    -0.354 N 
ATOM     20  C   UNL     1       5.237   6.347   4.717  1.00  0.00     0.074 A 
ATOM     21  C   UNL     1       4.889   6.028   3.349  1.00  0.00     0.031 C 
ATOM     22  C   UNL     1       5.442   0.478   7.425  1.00  0.00     0.029 A 
ATOM     23  C   UNL     1       5.852   1.732   8.048  1.00  0.00     0.049 A 
ATOM     24  H   UNL     1       5.803   3.642   7.215  1.00  0.00     0.167 HD
ATOM     25  C   UNL     1       5.511   7.587   5.187  1.00  0.00     0.034 A 
ATOM     26  C   UNL     1       6.324   1.863   9.303  1.00  0.00     0.034 A 
ATOM     27  C   UNL     1       5.882   7.839   6.559  1.00  0.00     0.049 A 
ATOM     28  C   UNL     1       6.561   3.257   9.818  1.00  0.00     0.074 A 
ATOM     29  C   UNL     1       6.123   9.054   7.174  1.00  0.00     0.029 A 
ATOM     30  N   UNL     1       6.075   6.858   7.525  1.00  0.00    -0.354 N 
ATOM     31  N   UNL     1       6.434   4.400   9.183  1.00  0.00    -0.248 NA
ATOM     32  C   UNL     1       6.960   3.393  11.223  1.00  0.00     0.031 C 
ATOM     33  C   UNL     1       6.527   8.805   8.486  1.00  0.00     0.029 A 
ATOM     34  C   UNL     1       6.453   7.440   8.723  1.00  0.00     0.049 A 
ATOM     35  H   UNL     1       5.959   5.892   7.379  1.00  0.00     0.167 HD
ATOM     36  C   UNL     1       6.695   5.393  10.120  1.00  0.00     0.074 A 
ATOM     37  C   UNL     1       6.971   4.712  11.370  1.00  0.00     0.031 C 
ATOM     38  C   UNL     1       6.705   6.741   9.962  1.00  0.00     0.034 A 
BRANCH  25  39
ATOM     39  C   UNL     1       5.395   8.775   4.260  1.00  0.00     0.023 A 
ATOM     40  C   UNL     1       6.505   9.612   4.034  1.00  0.00     0.031 A 
ATOM     41  C   UNL     1       4.150   9.177   3.743  1.00  0.00     0.131 A 
ATOM     42  C   UNL     1       6.338  10.829   3.358  1.00  0.00     0.055 A 
ATOM     43  C   UNL     1       3.998  10.369   3.031  1.00  0.00     0.041 A 
ATOM     44  F   UNL     1       3.056   8.422   3.933  1.00  0.00    -0.206 F 
ATOM     45  C   UNL     1       5.092  11.209   2.850  1.00  0.00     0.022 A 
BRANCH  42  46
ATOM     46  S   UNL     1       7.712  12.001   3.177  1.00  0.00     0.124 S 
ATOM     47  O   UNL     1       7.752  12.199   1.729  1.00  0.00    -0.237 OA
ATOM     48  O   UNL     1       7.238  13.147   3.949  1.00  0.00    -0.237 OA
ATOM     49  O   UNL     1       8.856  11.291   3.736  1.00  0.00    -0.744 OA
ENDBRANCH  42  46
ENDBRANCH  25  39
BRANCH  26  50
ATOM     50  C   UNL     1       6.428   0.647  10.161  1.00  0.00     0.023 A 
ATOM     51  C   UNL     1       7.287  -0.414   9.818  1.00  0.00     0.031 A 
ATOM     52  C   UNL     1       5.551   0.463  11.243  1.00  0.00     0.131 A 
ATOM     53  C   UNL     1       7.202  -1.631  10.510  1.00  0.00     0.055 A 
ATOM     54  C   UNL     1       5.518  -0.726  11.972  1.00  0.00     0.041 A 
ATOM     55  F   UNL     1       4.691   1.434  11.588  1.00  0.00    -0.206 F 
ATOM     56  C   UNL     1       6.333  -1.788  11.594  1.00  0.00     0.022 A 
BRANCH  53  57
ATOM     57  S   UNL     1       8.096  -3.099   9.926  1.00  0.00     0.124 S 
ATOM     58  O   UNL     1       9.004  -3.363  11.038  1.00  0.00    -0.237 OA
ATOM     59  O   UNL     1       7.013  -4.065   9.754  1.00  0.00    -0.237 OA
ATOM     60  O   UNL     1       8.725  -2.650   8.688  1.00  0.00    -0.744 OA
ENDBRANCH  53  57
ENDBRANCH  26  50
BRANCH  38  61
ATOM     61  C   UNL     1       7.003   7.597  11.168  1.00  0.00     0.023 A 
ATOM     62  C   UNL     1       6.036   8.509  11.631  1.00  0.00     0.031 A 
ATOM     63  C   UNL     1       8.278   7.620  11.759  1.00  0.00     0.131 A 
ATOM     64  C   UNL     1       6.369   9.430  12.630  1.00  0.00     0.055 A 
ATOM     65  C   UNL     1       8.589   8.505  12.791  1.00  0.00     0.041 A 
ATOM     66  F   UNL     1       9.239   6.781  11.341  1.00  0.00    -0.206 F 
ATOM     67  C   UNL     1       7.637   9.426  13.220  1.00  0.00     0.022 A 
BRANCH  64  68
ATOM     68  S   UNL     1       5.206  10.731  13.128  1.00  0.00     0.124 S 
ATOM     69  O   UNL     1       4.946  10.383  14.523  1.00  0.00    -0.237 OA
ATOM     70  O   UNL     1       5.995  11.944  12.925  1.00  0.00    -0.237 OA
ATOM     71  O   UNL     1       4.075  10.560  12.222  1.00  0.00    -0.744 OA
ENDBRANCH  64  68
ENDBRANCH  38  61
ENDBRANCH  12  13
ENDBRANCH   5   7
ENDBRANCH   4   5
ENDBRANCH   3   4
ENDBRANCH   2   3
ENDBRANCH   1   2
BRANCH   1  72
ATOM     72  C   UNL     1       2.827   1.707  -1.185  1.00  0.00     0.202 C 
BRANCH  72  73
ATOM     73  C   UNL     1       2.990   2.853  -2.187  1.00  0.00     0.261 C 
BRANCH  73  74
ATOM     74  O   UNL     1       3.448   2.340  -3.448  1.00  0.00    -0.460 OA
BRANCH  74  75
ATOM     75  C   UNL     1       4.788   2.376  -3.650  1.00  0.00     0.338 C 
ATOM     76  O   UNL     1       5.637   2.938  -2.984  1.00  0.00    -0.246 OA
BRANCH  75  77
ATOM     77  C   UNL     1       5.088   1.400  -4.715  1.00  0.00     0.062 A 
ATOM     78  C   UNL     1       4.286   1.319  -5.857  1.00  0.00     0.016 A 
ATOM     79  C   UNL     1       6.123   0.478  -4.498  1.00  0.00     0.045 A 
ATOM     80  C   UNL     1       4.513   0.301  -6.774  1.00  0.00     0.017 A 
ATOM     81  C   UNL     1       6.318  -0.578  -5.383  1.00  0.00     0.079 A 
ATOM     82  C   UNL     1       5.517  -0.643  -6.520  1.00  0.00     0.066 A 
ATOM     83  N   UNL     1       7.279  -1.551  -5.081  1.00  0.00    -0.228 NA
ATOM     84  C   UNL     1       5.769  -1.730  -7.468  1.00  0.00     0.265 A 
ATOM     85  C   UNL     1       7.489  -2.512  -5.927  1.00  0.00     0.159 A 
ATOM     86  O   UNL     1       5.098  -1.792  -8.498  1.00  0.00    -0.268 OA
ATOM     87  N   UNL     1       6.791  -2.621  -7.134  1.00  0.00    -0.266 N 
ATOM     88  C   UNL     1       8.510  -3.590  -5.670  1.00  0.00     0.085 A 
ATOM     89  C   UNL     1       7.120  -3.588  -8.071  1.00  0.00     0.109 A 
ATOM     90  C   UNL     1       8.810  -4.480  -6.627  1.00  0.00     0.038 A 
ATOM     91  Cl  UNL     1       9.259  -3.664  -4.123  1.00  0.00    -0.080 Cl
ATOM     92  C   UNL     1       8.137  -4.448  -7.907  1.00  0.00     0.041 A 
BRANCH  92  93
ATOM     93  C   UNL     1       8.497  -5.412  -8.997  1.00  0.00     0.198 C 
ATOM     94  O   UNL     1       9.070  -6.473  -8.769  1.00  0.00    -0.288 OA
BRANCH  93  95
ATOM     95  C   UNL     1       8.034  -5.138 -10.378  1.00  0.00     0.067 A 
ATOM     96  C   UNL     1       8.242  -3.890 -10.977  1.00  0.00     0.055 A 
ATOM     97  C   UNL     1       7.273  -6.113 -11.034  1.00  0.00     0.126 A 
ATOM     98  C   UNL     1       7.606  -3.607 -12.181  1.00  0.00     0.124 A 
ATOM     99  C   UNL     1       6.633  -5.812 -12.234  1.00  0.00     0.050 A 
ATOM    100  F   UNL     1       7.756  -2.397 -12.733  1.00  0.00    -0.207 F 
ATOM    101  C   UNL     1       6.789  -4.547 -12.802  1.00  0.00     0.043 A 
BRANCH  97 102
ATOM    102  O   UNL     1       7.093  -7.370 -10.528  1.00  0.00    -0.507 OA
ATOM    103  H   UNL     1       7.505  -7.614  -9.723  1.00  0.00     0.293 HD
ENDBRANCH  97 102
ENDBRANCH  93  95
ENDBRANCH  92  93
ENDBRANCH  75  77
ENDBRANCH  74  75
ENDBRANCH  73  74
ENDBRANCH  72  73
ENDBRANCH   1  72
TORSDOF 20
