REMARK SMILES Cc1cc(C)cc(CSc2cc(C(=O)OCCOCCOC(=O)c3ccc(-c4c5nc(c(-c6cc(S(=O)(=O)[O-])ccc6F)c6ccc([nH]6)c(-c6cc(S(=O)(=O)[O-])ccc6F)c6nc(c(-c7cc(S(=O)(=O)[O-])ccc7F)c7ccc4[nH]7)C=C6)C=C5)cc3)cc(Cl)n2)c1
REMARK SMILES IDX 18 1 17 2 16 3 15 4 13 5 14 6 12 7 10 8 11 9 90 10 88 11
REMARK SMILES IDX 87 12 89 13 9 14 8 15 7 16 1 17 2 18 3 19 91 20 4 21 5 22
REMARK SMILES IDX 6 23 19 24 20 25 21 26 22 27 23 28 24 29 25 30 86 31 26 32
REMARK SMILES IDX 85 33 27 34 28 35 29 36 79 37 30 38 84 39 78 40 80 41 31 42
REMARK SMILES IDX 83 43 77 44 76 45 32 47 64 48 44 49 63 50 45 51 48 52 62 53
REMARK SMILES IDX 81 54 46 55 47 56 61 58 82 59 49 60 33 61 34 62 42 63 35 64
REMARK SMILES IDX 41 65 43 66 40 67 36 68 37 69 38 70 39 71 65 72 66 73 74 74
REMARK SMILES IDX 67 75 73 76 75 77 72 78 68 79 69 80 70 81 71 82 50 83 51 84
REMARK SMILES IDX 59 85 52 86 58 87 60 88 57 89 53 90 54 91 55 92 56 93
REMARK H PARENT 80 46 48 57
REMARK Flexibility Score: inf
ROOT
ATOM      1  O   UNL     1       1.630  -6.778   7.202  1.00  0.00    -0.374 OA
ENDROOT
BRANCH   1   2
ATOM      2  C   UNL     1       2.628  -6.058   7.926  1.00  0.00     0.202 C 
BRANCH   2   3
ATOM      3  C   UNL     1       3.589  -5.189   7.108  1.00  0.00     0.261 C 
BRANCH   3   4
ATOM      4  O   UNL     1       2.890  -4.158   6.389  1.00  0.00    -0.460 OA
BRANCH   4   5
ATOM      5  C   UNL     1       2.880  -4.300   5.044  1.00  0.00     0.338 C 
ATOM      6  O   UNL     1       3.501  -5.111   4.375  1.00  0.00    -0.246 OA
BRANCH   5   7
ATOM      7  C   UNL     1       1.823  -3.447   4.466  1.00  0.00     0.065 A 
ATOM      8  C   UNL     1       0.044  -3.240   2.896  1.00  0.00     0.099 A 
ATOM      9  C   UNL     1       1.077  -3.991   3.420  1.00  0.00     0.051 A 
ATOM     10  N   UNL     1      -0.271  -2.013   3.353  1.00  0.00    -0.230 NA
ATOM     11  C   UNL     1       0.484  -1.513   4.352  1.00  0.00     0.131 A 
ATOM     12  C   UNL     1       1.529  -2.181   4.957  1.00  0.00     0.056 A 
ATOM     13  Cl  UNL     1       0.052   0.073   4.838  1.00  0.00    -0.062 Cl
BRANCH   8  14
ATOM     14  S   UNL     1      -0.962  -3.910   1.594  1.00  0.00    -0.102 SA
BRANCH  14  15
ATOM     15  C   UNL     1      -0.043  -3.260   0.160  1.00  0.00     0.112 C 
BRANCH  15  16
ATOM     16  C   UNL     1      -0.030  -1.754   0.064  1.00  0.00    -0.037 A 
ATOM     17  C   UNL     1       2.507   1.095   0.008  1.00  0.00     0.044 C 
ATOM     18  C   UNL     1       1.209   0.343  -0.007  1.00  0.00    -0.051 A 
ATOM     19  C   UNL     1      -0.001   1.046  -0.050  1.00  0.00     0.006 A 
ATOM     20  C   UNL     1       1.186  -1.056   0.052  1.00  0.00     0.008 A 
ATOM     21  C   UNL     1      -1.226   0.368  -0.046  1.00  0.00    -0.051 A 
ATOM     22  C   UNL     1      -2.512   1.139  -0.051  1.00  0.00     0.044 C 
ATOM     23  C   UNL     1      -1.230  -1.030  -0.004  1.00  0.00     0.008 A 
ENDBRANCH  15  16
ENDBRANCH  14  15
ENDBRANCH   8  14
ENDBRANCH   5   7
ENDBRANCH   4   5
ENDBRANCH   3   4
ENDBRANCH   2   3
ENDBRANCH   1   2
BRANCH   1  24
ATOM     24  C   UNL     1       0.477  -6.061   6.764  1.00  0.00     0.202 C 
BRANCH  24  25
ATOM     25  C   UNL     1      -0.588  -5.688   7.803  1.00  0.00     0.261 C 
BRANCH  25  26
ATOM     26  O   UNL     1      -0.093  -4.809   8.826  1.00  0.00    -0.460 OA
BRANCH  26  27
ATOM     27  C   UNL     1       0.105  -5.420  10.022  1.00  0.00     0.338 C 
ATOM     28  O   UNL     1      -0.132  -6.586  10.292  1.00  0.00    -0.246 OA
BRANCH  27  29
ATOM     29  C   UNL     1       0.843  -4.533  10.941  1.00  0.00     0.060 A 
ATOM     30  C   UNL     1       1.961  -5.077  11.585  1.00  0.00     0.016 A 
ATOM     31  C   UNL     1       0.405  -3.243  11.247  1.00  0.00     0.016 A 
ATOM     32  C   UNL     1       2.594  -4.368  12.599  1.00  0.00     0.010 A 
ATOM     33  C   UNL     1       1.045  -2.529  12.268  1.00  0.00     0.010 A 
ATOM     34  C   UNL     1       2.107  -3.112  12.985  1.00  0.00    -0.014 A 
BRANCH  34  35
ATOM     35  C   UNL     1       2.600  -2.517  14.254  1.00  0.00     0.031 A 
ATOM     36  C   UNL     1       1.732  -2.605  15.483  1.00  0.00     0.074 A 
ATOM     37  C   UNL     1       3.832  -1.983  14.331  1.00  0.00     0.049 A 
ATOM     38  N   UNL     1       1.971  -2.193  16.702  1.00  0.00    -0.248 NA
ATOM     39  C   UNL     1       0.417  -3.240  15.311  1.00  0.00     0.031 C 
ATOM     40  C   UNL     1       4.777  -1.883  13.220  1.00  0.00     0.029 A 
ATOM     41  N   UNL     1       4.505  -1.437  15.395  1.00  0.00    -0.354 N 
ATOM     42  C   UNL     1       0.836  -2.515  17.441  1.00  0.00     0.074 A 
ATOM     43  C   UNL     1      -0.108  -3.109  16.519  1.00  0.00     0.031 C 
ATOM     44  C   UNL     1       5.912  -1.315  13.663  1.00  0.00     0.029 A 
ATOM     45  C   UNL     1       5.762  -0.979  15.077  1.00  0.00     0.049 A 
ATOM     46  H   UNL     1       4.123  -1.378  16.300  1.00  0.00     0.167 HD
ATOM     47  C   UNL     1       0.609  -2.345  18.767  1.00  0.00     0.034 A 
ATOM     48  C   UNL     1       6.680  -0.349  15.838  1.00  0.00     0.034 A 
ATOM     49  C   UNL     1       1.561  -1.745  19.672  1.00  0.00     0.049 A 
ATOM     50  C   UNL     1       6.377  -0.106  17.297  1.00  0.00     0.074 A 
ATOM     51  C   UNL     1       1.441  -1.535  21.035  1.00  0.00     0.029 A 
ATOM     52  N   UNL     1       2.805  -1.247  19.304  1.00  0.00    -0.354 N 
ATOM     53  N   UNL     1       5.306  -0.427  17.986  1.00  0.00    -0.248 NA
ATOM     54  C   UNL     1       7.418   0.567  18.083  1.00  0.00     0.031 C 
ATOM     55  C   UNL     1       2.573  -0.839  21.474  1.00  0.00     0.029 A 
ATOM     56  C   UNL     1       3.446  -0.699  20.406  1.00  0.00     0.049 A 
ATOM     57  H   UNL     1       3.178  -1.278  18.394  1.00  0.00     0.167 HD
ATOM     58  C   UNL     1       5.562  -0.026  19.296  1.00  0.00     0.074 A 
ATOM     59  C   UNL     1       6.895   0.540  19.300  1.00  0.00     0.031 C 
ATOM     60  C   UNL     1       4.772  -0.123  20.397  1.00  0.00     0.034 A 
BRANCH  47  61
ATOM     61  C   UNL     1      -0.742  -2.766  19.301  1.00  0.00     0.023 A 
ATOM     62  C   UNL     1      -1.179  -4.102  19.253  1.00  0.00     0.031 A 
ATOM     63  C   UNL     1      -1.623  -1.808  19.834  1.00  0.00     0.131 A 
ATOM     64  C   UNL     1      -2.484  -4.428  19.656  1.00  0.00     0.055 A 
ATOM     65  C   UNL     1      -2.887  -2.153  20.315  1.00  0.00     0.041 A 
ATOM     66  F   UNL     1      -1.274  -0.512  19.884  1.00  0.00    -0.206 F 
ATOM     67  C   UNL     1      -3.331  -3.468  20.213  1.00  0.00     0.022 A 
BRANCH  64  68
ATOM     68  S   UNL     1      -3.114  -6.091  19.296  1.00  0.00     0.124 S 
ATOM     69  O   UNL     1      -2.958  -6.157  17.845  1.00  0.00    -0.237 OA
ATOM     70  O   UNL     1      -2.222  -6.942  20.075  1.00  0.00    -0.237 OA
ATOM     71  O   UNL     1      -4.498  -6.043  19.764  1.00  0.00    -0.744 OA
ENDBRANCH  64  68
ENDBRANCH  47  61
BRANCH  48  72
ATOM     72  C   UNL     1       7.961   0.124  15.237  1.00  0.00     0.023 A 
ATOM     73  C   UNL     1       9.201  -0.371  15.672  1.00  0.00     0.031 A 
ATOM     74  C   UNL     1       7.964   1.127  14.250  1.00  0.00     0.131 A 
ATOM     75  C   UNL     1      10.390   0.171  15.160  1.00  0.00     0.055 A 
ATOM     76  C   UNL     1       9.148   1.622  13.701  1.00  0.00     0.041 A 
ATOM     77  F   UNL     1       6.807   1.638  13.798  1.00  0.00    -0.206 F 
ATOM     78  C   UNL     1      10.372   1.153  14.167  1.00  0.00     0.022 A 
BRANCH  75  79
ATOM     79  S   UNL     1      11.969  -0.361  15.878  1.00  0.00     0.124 S 
ATOM     80  O   UNL     1      11.791  -0.006  17.281  1.00  0.00    -0.237 OA
ATOM     81  O   UNL     1      11.975  -1.787  15.571  1.00  0.00    -0.237 OA
ATOM     82  O   UNL     1      12.957   0.434  15.152  1.00  0.00    -0.744 OA
ENDBRANCH  75  79
ENDBRANCH  48  72
BRANCH  60  83
ATOM     83  C   UNL     1       5.359   0.348  21.709  1.00  0.00     0.023 A 
ATOM     84  C   UNL     1       5.720   1.690  21.925  1.00  0.00     0.031 A 
ATOM     85  C   UNL     1       5.592  -0.570  22.750  1.00  0.00     0.131 A 
ATOM     86  C   UNL     1       6.366   2.059  23.115  1.00  0.00     0.055 A 
ATOM     87  C   UNL     1       6.164  -0.181  23.962  1.00  0.00     0.041 A 
ATOM     88  F   UNL     1       5.272  -1.866  22.604  1.00  0.00    -0.206 F 
ATOM     89  C   UNL     1       6.573   1.137  24.142  1.00  0.00     0.022 A 
BRANCH  86  90
ATOM     90  S   UNL     1       7.056   3.732  23.246  1.00  0.00     0.124 S 
ATOM     91  O   UNL     1       7.922   3.796  22.073  1.00  0.00    -0.237 OA
ATOM     92  O   UNL     1       5.860   4.567  23.202  1.00  0.00    -0.237 OA
ATOM     93  O   UNL     1       7.754   3.715  24.531  1.00  0.00    -0.744 OA
ENDBRANCH  86  90
ENDBRANCH  60  83
ENDBRANCH  34  35
ENDBRANCH  27  29
ENDBRANCH  26  27
ENDBRANCH  25  26
ENDBRANCH  24  25
ENDBRANCH   1  24
TORSDOF 20
