REMARK SMILES CC1(C)[C@@]2(C(=O)OCCOCCOC(=O)c3ccc(-c4c5nc(c(-c6cc(S(=O)(=O)[O-])ccc6F)c6ccc([nH]6)c(-c6cc(S(=O)(=O)[O-])ccc6F)c6nc(c(-c7cc(S(=O)(=O)[O-])ccc7F)c7ccc4[nH]7)C=C6)C=C5)cc3)CC[C@]1(C)/C(=N/NC(=O)c1ccc(Cl)cc1)C2
REMARK SMILES IDX 11 1 10 2 9 3 8 4 7 5 5 6 6 7 4 8 1 9 2 10 3 11 81 12 79 13
REMARK SMILES IDX 95 14 80 15 82 16 83 17 84 18 85 19 86 20 87 22 88 23 89 24
REMARK SMILES IDX 94 25 90 26 93 27 91 28 92 29 12 30 13 31 14 32 15 33 16 34
REMARK SMILES IDX 17 35 78 36 18 37 77 38 19 39 20 40 21 41 71 42 22 43 76 44
REMARK SMILES IDX 70 45 72 46 23 47 75 48 69 49 68 50 24 52 56 53 36 54 55 55
REMARK SMILES IDX 37 56 40 57 54 58 73 59 38 60 39 61 53 63 74 64 41 65 25 66
REMARK SMILES IDX 26 67 34 68 27 69 33 70 35 71 32 72 28 73 29 74 30 75 31 76
REMARK SMILES IDX 57 77 58 78 66 79 59 80 65 81 67 82 64 83 60 84 61 85 62 86
REMARK SMILES IDX 63 87 42 88 43 89 51 90 44 91 50 92 52 93 49 94 45 95 46 96
REMARK SMILES IDX 47 97 48 98
REMARK H PARENT 85 21 72 51 40 62
REMARK Flexibility Score: inf
ROOT
ATOM      1  C   UNL     1      -3.076   1.906  -1.907  1.00  0.00     0.202 C 
ENDROOT
BRANCH   1   2
ATOM      2  O   UNL     1      -3.137   3.109  -1.144  1.00  0.00    -0.374 OA
BRANCH   2   3
ATOM      3  C   UNL     1      -2.287   4.164  -1.601  1.00  0.00     0.202 C 
BRANCH   3   4
ATOM      4  C   UNL     1      -0.850   4.119  -1.069  1.00  0.00     0.261 C 
BRANCH   4   5
ATOM      5  O   UNL     1      -0.129   2.982  -1.584  1.00  0.00    -0.463 OA
BRANCH   5   6
ATOM      6  C   UNL     1       0.029   1.937  -0.726  1.00  0.00     0.313 C 
ATOM      7  O   UNL     1      -0.342   1.928   0.438  1.00  0.00    -0.252 OA
BRANCH   6   8
ATOM      8  C   UNL     1       0.744   0.783  -1.407  1.00  0.00     0.079 C 
ATOM      9  C   UNL     1       1.367  -0.584   0.732  1.00  0.00     0.013 C 
ATOM     10  C   UNL     1       0.734  -0.588  -0.677  1.00  0.00    -0.008 C 
ATOM     11  C   UNL     1      -0.670  -1.218  -0.536  1.00  0.00     0.013 C 
ATOM     12  C   UNL     1       1.641  -1.246  -1.772  1.00  0.00     0.014 C 
ATOM     13  C   UNL     1       2.265   1.073  -1.577  1.00  0.00     0.021 C 
ATOM     14  C   UNL     1       0.166   0.425  -2.803  1.00  0.00     0.073 C 
ATOM     15  C   UNL     1       2.876  -0.322  -1.835  1.00  0.00     0.014 C 
ATOM     16  C   UNL     1       1.931  -2.719  -1.599  1.00  0.00     0.018 C 
ATOM     17  C   UNL     1       0.886  -0.865  -3.059  1.00  0.00     0.046 C 
ATOM     18  N   UNL     1       0.936  -1.634  -4.099  1.00  0.00    -0.181 NA
BRANCH  18  19
ATOM     19  N   UNL     1       0.257  -1.463  -5.265  1.00  0.00    -0.243 N 
ATOM     20  C   UNL     1      -0.038  -0.398  -6.089  1.00  0.00     0.271 C 
ATOM     21  H   UNL     1      -0.115  -2.308  -5.604  1.00  0.00     0.194 HD
ATOM     22  O   UNL     1      -0.766  -0.571  -7.067  1.00  0.00    -0.267 OA
BRANCH  20  23
ATOM     23  C   UNL     1       0.486   0.952  -5.855  1.00  0.00     0.041 A 
ATOM     24  C   UNL     1      -0.447   1.991  -5.726  1.00  0.00     0.015 A 
ATOM     25  C   UNL     1       1.853   1.197  -5.689  1.00  0.00     0.015 A 
ATOM     26  C   UNL     1      -0.018   3.250  -5.302  1.00  0.00     0.021 A 
ATOM     27  C   UNL     1       2.276   2.472  -5.299  1.00  0.00     0.021 A 
ATOM     28  C   UNL     1       1.336   3.481  -5.073  1.00  0.00     0.041 A 
ATOM     29  Cl  UNL     1       1.834   4.995  -4.428  1.00  0.00    -0.084 Cl
ENDBRANCH  20  23
ENDBRANCH  18  19
ENDBRANCH   6   8
ENDBRANCH   5   6
ENDBRANCH   4   5
ENDBRANCH   3   4
ENDBRANCH   2   3
ENDBRANCH   1   2
BRANCH   1  30
ATOM     30  C   UNL     1      -4.025   1.822  -3.106  1.00  0.00     0.261 C 
BRANCH  30  31
ATOM     31  O   UNL     1      -3.616   2.712  -4.160  1.00  0.00    -0.460 OA
BRANCH  31  32
ATOM     32  C   UNL     1      -4.288   3.890  -4.205  1.00  0.00     0.338 C 
ATOM     33  O   UNL     1      -5.222   4.226  -3.496  1.00  0.00    -0.246 OA
BRANCH  32  34
ATOM     34  C   UNL     1      -3.584   4.816  -5.117  1.00  0.00     0.060 A 
ATOM     35  C   UNL     1      -3.355   6.125  -4.673  1.00  0.00     0.016 A 
ATOM     36  C   UNL     1      -3.156   4.418  -6.386  1.00  0.00     0.016 A 
ATOM     37  C   UNL     1      -2.739   7.055  -5.513  1.00  0.00     0.010 A 
ATOM     38  C   UNL     1      -2.519   5.345  -7.218  1.00  0.00     0.010 A 
ATOM     39  C   UNL     1      -2.350   6.682  -6.806  1.00  0.00    -0.014 A 
BRANCH  39  40
ATOM     40  C   UNL     1      -1.991   7.715  -7.813  1.00  0.00     0.031 A 
ATOM     41  C   UNL     1      -3.010   8.042  -8.875  1.00  0.00     0.074 A 
ATOM     42  C   UNL     1      -0.809   8.359  -7.797  1.00  0.00     0.049 A 
ATOM     43  N   UNL     1      -2.896   8.793  -9.939  1.00  0.00    -0.248 NA
ATOM     44  C   UNL     1      -4.334   7.419  -8.717  1.00  0.00     0.031 C 
ATOM     45  C   UNL     1       0.236   8.190  -6.790  1.00  0.00     0.029 A 
ATOM     46  N   UNL     1      -0.285   9.281  -8.672  1.00  0.00    -0.354 N 
ATOM     47  C   UNL     1      -4.124   8.712 -10.589  1.00  0.00     0.074 A 
ATOM     48  C   UNL     1      -4.949   7.807  -9.822  1.00  0.00     0.031 C 
ATOM     49  C   UNL     1       1.280   8.974  -7.111  1.00  0.00     0.029 A 
ATOM     50  C   UNL     1       1.004   9.660  -8.373  1.00  0.00     0.049 A 
ATOM     51  H   UNL     1      -0.786   9.638  -9.441  1.00  0.00     0.167 HD
ATOM     52  C   UNL     1      -4.529   9.342 -11.718  1.00  0.00     0.034 A 
ATOM     53  C   UNL     1       1.871  10.436  -9.059  1.00  0.00     0.034 A 
ATOM     54  C   UNL     1      -3.699  10.247 -12.471  1.00  0.00     0.049 A 
ATOM     55  C   UNL     1       1.436  11.048 -10.374  1.00  0.00     0.074 A 
ATOM     56  C   UNL     1      -4.017  10.950 -13.620  1.00  0.00     0.029 A 
ATOM     57  N   UNL     1      -2.385  10.568 -12.159  1.00  0.00    -0.354 N 
ATOM     58  N   UNL     1       0.279  10.952 -10.989  1.00  0.00    -0.248 NA
ATOM     59  C   UNL     1       2.422  11.873 -11.089  1.00  0.00     0.031 C 
ATOM     60  C   UNL     1      -2.872  11.626 -14.049  1.00  0.00     0.029 A 
ATOM     61  C   UNL     1      -1.869  11.428 -13.114  1.00  0.00     0.049 A 
ATOM     62  H   UNL     1      -1.893  10.233 -11.375  1.00  0.00     0.167 HD
ATOM     63  C   UNL     1       0.387  11.742 -12.134  1.00  0.00     0.074 A 
ATOM     64  C   UNL     1       1.721  12.301 -12.129  1.00  0.00     0.031 C 
ATOM     65  C   UNL     1      -0.539  11.992 -13.094  1.00  0.00     0.034 A 
BRANCH  52  66
ATOM     66  C   UNL     1      -5.912   9.026 -12.232  1.00  0.00     0.023 A 
ATOM     67  C   UNL     1      -7.069   9.331 -11.493  1.00  0.00     0.031 A 
ATOM     68  C   UNL     1      -6.074   8.382 -13.472  1.00  0.00     0.131 A 
ATOM     69  C   UNL     1      -8.326   8.926 -11.964  1.00  0.00     0.055 A 
ATOM     70  C   UNL     1      -7.335   8.061 -13.976  1.00  0.00     0.041 A 
ATOM     71  F   UNL     1      -5.006   8.041 -14.210  1.00  0.00    -0.206 F 
ATOM     72  C   UNL     1      -8.470   8.319 -13.214  1.00  0.00     0.022 A 
BRANCH  69  73
ATOM     73  S   UNL     1      -9.752   9.063 -10.852  1.00  0.00     0.124 S 
ATOM     74  O   UNL     1      -9.315   8.260  -9.713  1.00  0.00    -0.237 OA
ATOM     75  O   UNL     1      -9.837  10.501 -10.625  1.00  0.00    -0.237 OA
ATOM     76  O   UNL     1     -10.848   8.487 -11.627  1.00  0.00    -0.744 OA
ENDBRANCH  69  73
ENDBRANCH  52  66
BRANCH  53  77
ATOM     77  C   UNL     1       3.262  10.647  -8.557  1.00  0.00     0.023 A 
ATOM     78  C   UNL     1       3.735  11.930  -8.237  1.00  0.00     0.031 A 
ATOM     79  C   UNL     1       4.165   9.572  -8.459  1.00  0.00     0.131 A 
ATOM     80  C   UNL     1       5.083  12.113  -7.885  1.00  0.00     0.055 A 
ATOM     81  C   UNL     1       5.487   9.751  -8.047  1.00  0.00     0.041 A 
ATOM     82  F   UNL     1       3.773   8.324  -8.763  1.00  0.00    -0.206 F 
ATOM     83  C   UNL     1       5.957  11.030  -7.772  1.00  0.00     0.022 A 
BRANCH  80  84
ATOM     84  S   UNL     1       5.707  13.805  -7.681  1.00  0.00     0.124 S 
ATOM     85  O   UNL     1       5.420  14.384  -8.988  1.00  0.00    -0.237 OA
ATOM     86  O   UNL     1       4.899  14.294  -6.569  1.00  0.00    -0.237 OA
ATOM     87  O   UNL     1       7.124  13.610  -7.381  1.00  0.00    -0.744 OA
ENDBRANCH  80  84
ENDBRANCH  53  77
BRANCH  65  88
ATOM     88  C   UNL     1      -0.185  12.978 -14.182  1.00  0.00     0.023 A 
ATOM     89  C   UNL     1       0.775  12.699 -15.169  1.00  0.00     0.031 A 
ATOM     90  C   UNL     1      -0.874  14.204 -14.257  1.00  0.00     0.131 A 
ATOM     91  C   UNL     1       1.038  13.646 -16.173  1.00  0.00     0.055 A 
ATOM     92  C   UNL     1      -0.648  15.116 -15.288  1.00  0.00     0.041 A 
ATOM     93  F   UNL     1      -1.800  14.523 -13.338  1.00  0.00    -0.206 F 
ATOM     94  C   UNL     1       0.318  14.842 -16.250  1.00  0.00     0.022 A 
BRANCH  91  95
ATOM     95  S   UNL     1       2.377  13.324 -17.355  1.00  0.00     0.124 S 
ATOM     96  O   UNL     1       3.538  13.221 -16.477  1.00  0.00    -0.237 OA
ATOM     97  O   UNL     1       1.944  12.082 -17.988  1.00  0.00    -0.237 OA
ATOM     98  O   UNL     1       2.359  14.499 -18.224  1.00  0.00    -0.744 OA
ENDBRANCH  91  95
ENDBRANCH  65  88
ENDBRANCH  39  40
ENDBRANCH  32  34
ENDBRANCH  31  32
ENDBRANCH  30  31
ENDBRANCH   1  30
TORSDOF 19
