REMARK SMILES CCCC[C@@H](C(=O)OCCOCCOC(=O)c1ccc(-c2c3nc(c(-c4cc(S(=O)(=O)[O-])ccc4F)c4ccc([nH]4)c(-c4cc(S(=O)(=O)[O-])ccc4F)c4nc(c(-c5cc(S(=O)(=O)[O-])ccc5F)c5ccc2[nH]5)C=C4)C=C3)cc1)C1(O)Cc2ccccc2C1
REMARK SMILES IDX 11 1 10 2 9 3 8 4 6 5 7 6 5 7 4 8 3 9 2 10 1 11 80 12 82 13
REMARK SMILES IDX 89 14 83 15 88 16 84 17 87 18 85 19 86 20 81 21 12 23 13 24
REMARK SMILES IDX 14 25 15 26 16 27 17 28 18 29 79 30 19 31 78 32 20 33 21 34
REMARK SMILES IDX 22 35 72 36 23 37 77 38 71 39 73 40 24 41 76 42 70 43 69 44
REMARK SMILES IDX 25 46 57 47 37 48 56 49 38 50 41 51 55 52 74 53 39 54 40 55
REMARK SMILES IDX 54 57 75 58 42 59 26 60 27 61 35 62 28 63 34 64 36 65 33 66
REMARK SMILES IDX 29 67 30 68 31 69 32 70 58 71 59 72 67 73 60 74 66 75 68 76
REMARK SMILES IDX 65 77 61 78 62 79 63 80 64 81 43 82 44 83 52 84 45 85 51 86
REMARK SMILES IDX 53 87 50 88 46 89 47 90 48 91 49 92
REMARK H PARENT 81 22 73 45 41 56
REMARK Flexibility Score: inf
ROOT
ATOM      1  O   UNL     1      -1.084   4.464   4.989  1.00  0.00    -0.374 OA
ENDROOT
BRANCH   1   2
ATOM      2  C   UNL     1      -1.243   3.054   5.204  1.00  0.00     0.202 C 
BRANCH   2   3
ATOM      3  C   UNL     1      -1.934   2.193   4.128  1.00  0.00     0.261 C 
BRANCH   3   4
ATOM      4  O   UNL     1      -1.064   2.022   2.990  1.00  0.00    -0.463 OA
BRANCH   4   5
ATOM      5  C   UNL     1      -1.668   1.729   1.802  1.00  0.00     0.311 C 
ATOM      6  O   UNL     1      -2.730   1.127   1.690  1.00  0.00    -0.252 OA
BRANCH   5   7
ATOM      7  C   UNL     1      -1.024   2.503   0.636  1.00  0.00     0.131 C 
BRANCH   7   8
ATOM      8  C   UNL     1       0.535   2.475   0.689  1.00  0.00     0.018 C 
BRANCH   8   9
ATOM      9  C   UNL     1       1.276   1.340   1.422  1.00  0.00     0.001 C 
BRANCH   9  10
ATOM     10  C   UNL     1       0.888  -0.096   1.088  1.00  0.00    -0.003 C 
ATOM     11  C   UNL     1       1.206  -0.471  -0.346  1.00  0.00     0.004 C 
ENDBRANCH   9  10
ENDBRANCH   8   9
ENDBRANCH   7   8
BRANCH   7  12
ATOM     12  C   UNL     1      -1.660   3.946   0.636  1.00  0.00     0.086 C 
ATOM     13  C   UNL     1      -0.681   5.160   0.428  1.00  0.00     0.072 C 
ATOM     14  C   UNL     1      -2.795   4.371  -0.335  1.00  0.00     0.072 C 
ATOM     15  C   UNL     1      -1.678   6.306   0.555  1.00  0.00    -0.042 A 
ATOM     16  C   UNL     1      -2.959   5.801   0.237  1.00  0.00    -0.042 A 
ATOM     17  C   UNL     1      -1.480   7.347   1.461  1.00  0.00     0.004 A 
ATOM     18  C   UNL     1      -4.043   6.214   1.014  1.00  0.00     0.004 A 
ATOM     19  C   UNL     1      -2.559   7.712   2.262  1.00  0.00     0.000 A 
ATOM     20  C   UNL     1      -3.817   7.119   2.067  1.00  0.00     0.000 A 
BRANCH  12  21
ATOM     21  O   UNL     1      -2.308   4.062   1.938  1.00  0.00    -0.388 OA
ATOM     22  H   UNL     1      -1.681   3.816   2.635  1.00  0.00     0.211 HD
ENDBRANCH  12  21
ENDBRANCH   7  12
ENDBRANCH   5   7
ENDBRANCH   4   5
ENDBRANCH   3   4
ENDBRANCH   2   3
ENDBRANCH   1   2
BRANCH   1  23
ATOM     23  C   UNL     1      -0.340   4.877   3.851  1.00  0.00     0.202 C 
BRANCH  23  24
ATOM     24  C   UNL     1       1.175   5.056   3.937  1.00  0.00     0.261 C 
BRANCH  24  25
ATOM     25  O   UNL     1       1.780   3.998   4.660  1.00  0.00    -0.460 OA
BRANCH  25  26
ATOM     26  C   UNL     1       1.848   4.286   5.977  1.00  0.00     0.338 C 
ATOM     27  O   UNL     1       1.648   5.366   6.517  1.00  0.00    -0.246 OA
BRANCH  26  28
ATOM     28  C   UNL     1       2.002   3.031   6.706  1.00  0.00     0.060 A 
ATOM     29  C   UNL     1       1.153   2.844   7.800  1.00  0.00     0.016 A 
ATOM     30  C   UNL     1       2.942   2.069   6.326  1.00  0.00     0.016 A 
ATOM     31  C   UNL     1       1.311   1.723   8.588  1.00  0.00     0.010 A 
ATOM     32  C   UNL     1       3.102   0.941   7.120  1.00  0.00     0.010 A 
ATOM     33  C   UNL     1       2.325   0.807   8.282  1.00  0.00    -0.014 A 
BRANCH  33  34
ATOM     34  C   UNL     1       2.691  -0.165   9.324  1.00  0.00     0.031 A 
ATOM     35  C   UNL     1       3.856   0.163  10.211  1.00  0.00     0.074 A 
ATOM     36  C   UNL     1       1.908  -1.234   9.528  1.00  0.00     0.049 A 
ATOM     37  N   UNL     1       4.306  -0.478  11.255  1.00  0.00    -0.248 NA
ATOM     38  C   UNL     1       4.614   1.381   9.878  1.00  0.00     0.031 C 
ATOM     39  C   UNL     1       0.730  -1.576   8.729  1.00  0.00     0.029 A 
ATOM     40  N   UNL     1       1.968  -2.209  10.482  1.00  0.00    -0.354 N 
ATOM     41  C   UNL     1       5.398   0.258  11.704  1.00  0.00     0.074 A 
ATOM     42  C   UNL     1       5.571   1.365  10.792  1.00  0.00     0.031 C 
ATOM     43  C   UNL     1       0.165  -2.681   9.241  1.00  0.00     0.029 A 
ATOM     44  C   UNL     1       0.963  -3.139  10.375  1.00  0.00     0.049 A 
ATOM     45  H   UNL     1       2.663  -2.243  11.178  1.00  0.00     0.167 HD
ATOM     46  C   UNL     1       6.171   0.027  12.791  1.00  0.00     0.034 A 
ATOM     47  C   UNL     1       0.731  -4.239  11.113  1.00  0.00     0.034 A 
ATOM     48  C   UNL     1       5.969  -1.102  13.666  1.00  0.00     0.049 A 
ATOM     49  C   UNL     1       1.646  -4.508  12.280  1.00  0.00     0.074 A 
ATOM     50  C   UNL     1       6.683  -1.461  14.794  1.00  0.00     0.029 A 
ATOM     51  N   UNL     1       4.978  -2.066  13.498  1.00  0.00    -0.354 N 
ATOM     52  N   UNL     1       2.678  -3.809  12.703  1.00  0.00    -0.248 NA
ATOM     53  C   UNL     1       1.353  -5.699  13.081  1.00  0.00     0.031 C 
ATOM     54  C   UNL     1       6.178  -2.682  15.257  1.00  0.00     0.029 A 
ATOM     55  C   UNL     1       5.085  -3.037  14.481  1.00  0.00     0.049 A 
ATOM     56  H   UNL     1       4.300  -2.058  12.784  1.00  0.00     0.167 HD
ATOM     57  C   UNL     1       3.139  -4.463  13.841  1.00  0.00     0.074 A 
ATOM     58  C   UNL     1       2.251  -5.592  14.048  1.00  0.00     0.031 C 
ATOM     59  C   UNL     1       4.196  -4.166  14.645  1.00  0.00     0.034 A 
BRANCH  46  60
ATOM     60  C   UNL     1       7.330   0.966  13.034  1.00  0.00     0.023 A 
ATOM     61  C   UNL     1       7.145   2.339  13.285  1.00  0.00     0.031 A 
ATOM     62  C   UNL     1       8.651   0.487  12.963  1.00  0.00     0.131 A 
ATOM     63  C   UNL     1       8.257   3.191  13.384  1.00  0.00     0.055 A 
ATOM     64  C   UNL     1       9.752   1.325  13.147  1.00  0.00     0.041 A 
ATOM     65  F   UNL     1       8.895  -0.805  12.691  1.00  0.00    -0.206 F 
ATOM     66  C   UNL     1       9.559   2.688  13.345  1.00  0.00     0.022 A 
BRANCH  63  67
ATOM     67  S   UNL     1       7.983   4.985  13.412  1.00  0.00     0.124 S 
ATOM     68  O   UNL     1       7.267   5.193  12.155  1.00  0.00    -0.237 OA
ATOM     69  O   UNL     1       7.202   5.167  14.630  1.00  0.00    -0.237 OA
ATOM     70  O   UNL     1       9.335   5.538  13.448  1.00  0.00    -0.744 OA
ENDBRANCH  63  67
ENDBRANCH  46  60
BRANCH  47  71
ATOM     71  C   UNL     1      -0.384  -5.162  10.759  1.00  0.00     0.023 A 
ATOM     72  C   UNL     1      -1.443  -5.406  11.646  1.00  0.00     0.031 A 
ATOM     73  C   UNL     1      -0.387  -5.843   9.527  1.00  0.00     0.131 A 
ATOM     74  C   UNL     1      -2.434  -6.342  11.310  1.00  0.00     0.055 A 
ATOM     75  C   UNL     1      -1.406  -6.726   9.172  1.00  0.00     0.041 A 
ATOM     76  F   UNL     1       0.602  -5.645   8.640  1.00  0.00    -0.206 F 
ATOM     77  C   UNL     1      -2.432  -6.991  10.073  1.00  0.00     0.022 A 
BRANCH  74  78
ATOM     78  S   UNL     1      -3.682  -6.771  12.554  1.00  0.00     0.124 S 
ATOM     79  O   UNL     1      -2.852  -7.216  13.667  1.00  0.00    -0.237 OA
ATOM     80  O   UNL     1      -4.375  -5.500  12.738  1.00  0.00    -0.237 OA
ATOM     81  O   UNL     1      -4.467  -7.817  11.902  1.00  0.00    -0.744 OA
ENDBRANCH  74  78
ENDBRANCH  47  71
BRANCH  59  82
ATOM     82  C   UNL     1       4.405  -5.067  15.838  1.00  0.00     0.023 A 
ATOM     83  C   UNL     1       4.695  -6.434  15.688  1.00  0.00     0.031 A 
ATOM     84  C   UNL     1       4.259  -4.562  17.142  1.00  0.00     0.131 A 
ATOM     85  C   UNL     1       4.726  -7.268  16.814  1.00  0.00     0.055 A 
ATOM     86  C   UNL     1       4.382  -5.381  18.265  1.00  0.00     0.041 A 
ATOM     87  F   UNL     1       3.981  -3.265  17.348  1.00  0.00    -0.206 F 
ATOM     88  C   UNL     1       4.593  -6.747  18.103  1.00  0.00     0.022 A 
BRANCH  85  89
ATOM     89  S   UNL     1       4.776  -9.062  16.557  1.00  0.00     0.124 S 
ATOM     90  O   UNL     1       3.619  -9.274  15.692  1.00  0.00    -0.237 OA
ATOM     91  O   UNL     1       6.081  -9.252  15.934  1.00  0.00    -0.237 OA
ATOM     92  O   UNL     1       4.648  -9.604  17.909  1.00  0.00    -0.744 OA
ENDBRANCH  85  89
ENDBRANCH  59  82
ENDBRANCH  33  34
ENDBRANCH  26  28
ENDBRANCH  25  26
ENDBRANCH  24  25
ENDBRANCH  23  24
ENDBRANCH   1  23
TORSDOF 22
