REMARK SMILES O=C(COc1ccc(NC(=O)c2ccc(Br)cc2)cc1-c1nc2ccccc2o1)OCCOCCOC(=O)c1ccc(-c2c3nc(c(-c4cc(S(=O)(=O)[O-])ccc4F)c4ccc([nH]4)c(-c4cc(S(=O)(=O)[O-])ccc4F)c4nc(c(-c5cc(S(=O)(=O)[O-])ccc5F)c5ccc2[nH]5)C=C4)C=C3)cc1
REMARK SMILES IDX 32 1 31 2 30 3 2 4 1 5 3 6 4 7 5 8 6 9 20 10 7 11 19 12 8 13
REMARK SMILES IDX 21 14 22 15 29 16 23 17 28 18 24 19 27 20 25 21 26 22 9 23
REMARK SMILES IDX 10 24 11 26 12 27 13 28 18 29 14 30 17 31 15 32 16 33 33 34
REMARK SMILES IDX 34 35 35 36 36 37 37 38 38 39 39 40 40 41 101 42 41 43
REMARK SMILES IDX 100 44 42 45 43 46 44 47 94 48 45 49 99 50 93 51 95 52 46 53
REMARK SMILES IDX 98 54 92 55 91 56 47 58 79 59 59 60 78 61 60 62 63 63 77 64
REMARK SMILES IDX 96 65 61 66 62 67 76 69 97 70 64 71 48 72 49 73 57 74 50 75
REMARK SMILES IDX 56 76 58 77 55 78 51 79 52 80 53 81 54 82 80 83 81 84 89 85
REMARK SMILES IDX 82 86 88 87 90 88 87 89 83 90 84 91 85 92 86 93 65 94 66 95
REMARK SMILES IDX 74 96 67 97 73 98 75 99 72 100 68 101 69 102 70 103 71 104
REMARK H PARENT 9 25 95 57 63 68
REMARK Flexibility Score: inf
ROOT
ATOM      1  C   UNL     1       5.227   1.014  -1.126  1.00  0.00     0.202 C 
ENDROOT
BRANCH   1   2
ATOM      2  C   UNL     1       4.508   0.202  -0.074  1.00  0.00     0.261 C 
BRANCH   2   3
ATOM      3  O   UNL     1       3.097   0.480  -0.190  1.00  0.00    -0.461 OA
BRANCH   3   4
ATOM      4  C   UNL     1       2.357   1.141   0.725  1.00  0.00     0.344 C 
ATOM      5  O   UNL     1       1.351   1.772   0.402  1.00  0.00    -0.248 OA
BRANCH   4   6
ATOM      6  C   UNL     1       2.792   1.045   2.155  1.00  0.00     0.352 C 
BRANCH   6   7
ATOM      7  O   UNL     1       3.603  -0.085   2.391  1.00  0.00    -0.481 OA
BRANCH   7   8
ATOM      8  C   UNL     1       3.045  -1.207   2.898  1.00  0.00     0.133 A 
ATOM      9  C   UNL     1       3.863  -1.706   3.899  1.00  0.00     0.049 A 
ATOM     10  C   UNL     1       1.906  -1.923   2.486  1.00  0.00     0.081 A 
ATOM     11  C   UNL     1       3.461  -2.796   4.628  1.00  0.00     0.030 A 
ATOM     12  C   UNL     1       1.433  -2.934   3.346  1.00  0.00     0.043 A 
ATOM     13  C   UNL     1       2.173  -3.292   4.486  1.00  0.00     0.042 A 
BRANCH  10  14
ATOM     14  C   UNL     1       1.388  -1.827   1.117  1.00  0.00     0.231 A 
ATOM     15  N   UNL     1       2.047  -2.099   0.005  1.00  0.00    -0.209 NA
ATOM     16  O   UNL     1       0.135  -1.294   0.922  1.00  0.00    -0.436 OA
ATOM     17  C   UNL     1       1.266  -1.561  -0.987  1.00  0.00     0.110 A 
ATOM     18  C   UNL     1       0.081  -1.089  -0.442  1.00  0.00     0.155 A 
ATOM     19  C   UNL     1       1.543  -1.328  -2.343  1.00  0.00     0.032 A 
ATOM     20  C   UNL     1      -0.903  -0.432  -1.178  1.00  0.00     0.049 A 
ATOM     21  C   UNL     1       0.613  -0.597  -3.095  1.00  0.00     0.003 A 
ATOM     22  C   UNL     1      -0.594  -0.173  -2.525  1.00  0.00     0.004 A 
ENDBRANCH  10  14
BRANCH  13  23
ATOM     23  N   UNL     1       1.618  -4.143   5.459  1.00  0.00    -0.322 N 
ATOM     24  C   UNL     1       1.995  -4.322   6.785  1.00  0.00     0.255 C 
ATOM     25  H   UNL     1       0.856  -4.689   5.159  1.00  0.00     0.170 HD
ATOM     26  O   UNL     1       1.511  -5.229   7.457  1.00  0.00    -0.269 OA
BRANCH  24  27
ATOM     27  C   UNL     1       2.954  -3.394   7.449  1.00  0.00     0.040 A 
ATOM     28  C   UNL     1       4.142  -3.919   7.975  1.00  0.00     0.015 A 
ATOM     29  C   UNL     1       2.736  -2.006   7.462  1.00  0.00     0.015 A 
ATOM     30  C   UNL     1       5.141  -3.055   8.440  1.00  0.00     0.016 A 
ATOM     31  C   UNL     1       3.740  -1.146   7.920  1.00  0.00     0.016 A 
ATOM     32  C   UNL     1       4.941  -1.675   8.395  1.00  0.00     0.018 A 
ATOM     33  Br  UNL     1       6.321  -0.508   8.955  1.00  0.00    -0.051 Br
ENDBRANCH  24  27
ENDBRANCH  13  23
ENDBRANCH   7   8
ENDBRANCH   6   7
ENDBRANCH   4   6
ENDBRANCH   3   4
ENDBRANCH   2   3
ENDBRANCH   1   2
BRANCH   1  34
ATOM     34  O   UNL     1       4.919   2.409  -1.052  1.00  0.00    -0.374 OA
BRANCH  34  35
ATOM     35  C   UNL     1       3.721   2.811  -1.730  1.00  0.00     0.202 C 
BRANCH  35  36
ATOM     36  C   UNL     1       3.880   3.075  -3.225  1.00  0.00     0.261 C 
BRANCH  36  37
ATOM     37  O   UNL     1       4.030   1.845  -3.962  1.00  0.00    -0.460 OA
BRANCH  37  38
ATOM     38  C   UNL     1       5.308   1.505  -4.252  1.00  0.00     0.338 C 
ATOM     39  O   UNL     1       6.306   2.187  -4.046  1.00  0.00    -0.246 OA
BRANCH  38  40
ATOM     40  C   UNL     1       5.379   0.081  -4.647  1.00  0.00     0.060 A 
ATOM     41  C   UNL     1       6.423  -0.691  -4.114  1.00  0.00     0.016 A 
ATOM     42  C   UNL     1       4.470  -0.488  -5.541  1.00  0.00     0.016 A 
ATOM     43  C   UNL     1       6.607  -2.008  -4.529  1.00  0.00     0.010 A 
ATOM     44  C   UNL     1       4.665  -1.806  -5.969  1.00  0.00     0.010 A 
ATOM     45  C   UNL     1       5.761  -2.554  -5.500  1.00  0.00    -0.014 A 
BRANCH  45  46
ATOM     46  C   UNL     1       6.134  -3.829  -6.162  1.00  0.00     0.031 A 
ATOM     47  C   UNL     1       6.811  -3.763  -7.506  1.00  0.00     0.074 A 
ATOM     48  C   UNL     1       5.900  -5.016  -5.573  1.00  0.00     0.049 A 
ATOM     49  N   UNL     1       7.155  -4.733  -8.311  1.00  0.00    -0.248 NA
ATOM     50  C   UNL     1       7.145  -2.419  -8.009  1.00  0.00     0.031 C 
ATOM     51  C   UNL     1       5.311  -5.198  -4.247  1.00  0.00     0.029 A 
ATOM     52  N   UNL     1       6.117  -6.295  -6.023  1.00  0.00    -0.354 N 
ATOM     53  C   UNL     1       7.728  -4.121  -9.421  1.00  0.00     0.074 A 
ATOM     54  C   UNL     1       7.672  -2.694  -9.194  1.00  0.00     0.031 C 
ATOM     55  C   UNL     1       5.191  -6.515  -4.002  1.00  0.00     0.029 A 
ATOM     56  C   UNL     1       5.646  -7.267  -5.170  1.00  0.00     0.049 A 
ATOM     57  H   UNL     1       6.568  -6.497  -6.875  1.00  0.00     0.167 HD
ATOM     58  C   UNL     1       8.249  -4.701 -10.528  1.00  0.00     0.034 A 
ATOM     59  C   UNL     1       5.551  -8.603  -5.337  1.00  0.00     0.034 A 
ATOM     60  C   UNL     1       8.303  -6.126 -10.734  1.00  0.00     0.049 A 
ATOM     61  C   UNL     1       6.050  -9.214  -6.629  1.00  0.00     0.074 A 
ATOM     62  C   UNL     1       8.857  -6.818 -11.797  1.00  0.00     0.029 A 
ATOM     63  N   UNL     1       7.769  -7.076  -9.876  1.00  0.00    -0.354 N 
ATOM     64  N   UNL     1       6.621  -8.627  -7.657  1.00  0.00    -0.248 NA
ATOM     65  C   UNL     1       5.892 -10.667  -6.785  1.00  0.00     0.031 C 
ATOM     66  C   UNL     1       8.576  -8.176 -11.626  1.00  0.00     0.029 A 
ATOM     67  C   UNL     1       7.927  -8.343 -10.414  1.00  0.00     0.049 A 
ATOM     68  H   UNL     1       7.340  -6.878  -9.012  1.00  0.00     0.167 HD
ATOM     69  C   UNL     1       6.908  -9.644  -8.565  1.00  0.00     0.074 A 
ATOM     70  C   UNL     1       6.474 -10.882  -7.954  1.00  0.00     0.031 C 
ATOM     71  C   UNL     1       7.477  -9.566  -9.795  1.00  0.00     0.034 A 
BRANCH  58  72
ATOM     72  C   UNL     1       8.746  -3.804 -11.633  1.00  0.00     0.023 A 
ATOM     73  C   UNL     1       9.883  -2.992 -11.486  1.00  0.00     0.031 A 
ATOM     74  C   UNL     1       8.080  -3.793 -12.872  1.00  0.00     0.131 A 
ATOM     75  C   UNL     1      10.303  -2.181 -12.552  1.00  0.00     0.055 A 
ATOM     76  C   UNL     1       8.540  -3.034 -13.948  1.00  0.00     0.041 A 
ATOM     77  F   UNL     1       6.973  -4.529 -13.058  1.00  0.00    -0.206 F 
ATOM     78  C   UNL     1       9.655  -2.217 -13.790  1.00  0.00     0.022 A 
BRANCH  75  79
ATOM     79  S   UNL     1      11.657  -1.007 -12.275  1.00  0.00     0.124 S 
ATOM     80  O   UNL     1      11.111  -0.172 -11.208  1.00  0.00    -0.237 OA
ATOM     81  O   UNL     1      12.762  -1.881 -11.901  1.00  0.00    -0.237 OA
ATOM     82  O   UNL     1      11.801  -0.338 -13.567  1.00  0.00    -0.744 OA
ENDBRANCH  75  79
ENDBRANCH  58  72
BRANCH  59  83
ATOM     83  C   UNL     1       4.888  -9.459  -4.308  1.00  0.00     0.023 A 
ATOM     84  C   UNL     1       5.566 -10.527  -3.699  1.00  0.00     0.031 A 
ATOM     85  C   UNL     1       3.526  -9.286  -3.997  1.00  0.00     0.131 A 
ATOM     86  C   UNL     1       4.868 -11.419  -2.870  1.00  0.00     0.055 A 
ATOM     87  C   UNL     1       2.854 -10.133  -3.114  1.00  0.00     0.041 A 
ATOM     88  F   UNL     1       2.820  -8.291  -4.558  1.00  0.00    -0.206 F 
ATOM     89  C   UNL     1       3.521 -11.220  -2.560  1.00  0.00     0.022 A 
BRANCH  86  90
ATOM     90  S   UNL     1       5.711 -12.927  -2.316  1.00  0.00     0.124 S 
ATOM     91  O   UNL     1       6.137 -13.510  -3.583  1.00  0.00    -0.237 OA
ATOM     92  O   UNL     1       6.769 -12.388  -1.469  1.00  0.00    -0.237 OA
ATOM     93  O   UNL     1       4.664 -13.663  -1.611  1.00  0.00    -0.744 OA
ENDBRANCH  86  90
ENDBRANCH  59  83
BRANCH  71  94
ATOM     94  C   UNL     1       7.687 -10.860 -10.544  1.00  0.00     0.023 A 
ATOM     95  C   UNL     1       6.605 -11.625 -11.010  1.00  0.00     0.031 A 
ATOM     96  C   UNL     1       8.988 -11.328 -10.803  1.00  0.00     0.131 A 
ATOM     97  C   UNL     1       6.841 -12.842 -11.667  1.00  0.00     0.055 A 
ATOM     98  C   UNL     1       9.218 -12.506 -11.513  1.00  0.00     0.041 A 
ATOM     99  F   UNL     1      10.060 -10.638 -10.380  1.00  0.00    -0.206 F 
ATOM    100  C   UNL     1       8.140 -13.277 -11.939  1.00  0.00     0.022 A 
BRANCH  97 101
ATOM    101  S   UNL     1       5.424 -13.892 -12.092  1.00  0.00     0.124 S 
ATOM    102  O   UNL     1       4.836 -14.152 -10.782  1.00  0.00    -0.237 OA
ATOM    103  O   UNL     1       4.650 -13.030 -12.979  1.00  0.00    -0.237 OA
ATOM    104  O   UNL     1       6.038 -15.051 -12.737  1.00  0.00    -0.744 OA
ENDBRANCH  97 101
ENDBRANCH  71  94
ENDBRANCH  45  46
ENDBRANCH  38  40
ENDBRANCH  37  38
ENDBRANCH  36  37
ENDBRANCH  35  36
ENDBRANCH  34  35
ENDBRANCH   1  34
TORSDOF 22
