REMARK SMILES CCOC(=O)c1sc(NC(=O)CCC(=O)OCCOCCOC(=O)c2ccc(-c3c4nc(c(-c5cc(S(=O)(=O)[O-])ccc5F)c5ccc([nH]5)c(-c5cc(S(=O)(=O)[O-])ccc5F)c5nc(c(-c6cc(S(=O)(=O)[O-])ccc6F)c6ccc3[nH]6)C=C5)C=C4)cc2)c(C#N)c1C
REMARK SMILES IDX 17 1 16 2 14 3 15 4 13 5 12 6 10 7 9 8 11 10 8 11 6 12 7 13
REMARK SMILES IDX 91 14 88 15 92 16 4 17 5 18 3 19 2 20 1 21 89 22 90 23 18 24
REMARK SMILES IDX 19 25 20 26 21 27 22 28 23 29 24 30 25 31 26 32 87 33 27 34
REMARK SMILES IDX 86 35 28 36 29 37 30 38 80 39 31 40 85 41 79 42 81 43 32 44
REMARK SMILES IDX 84 45 78 46 77 47 33 49 65 50 45 51 64 52 46 53 49 54 63 55
REMARK SMILES IDX 82 56 47 57 48 58 62 60 83 61 50 62 34 63 35 64 43 65 36 66
REMARK SMILES IDX 42 67 44 68 41 69 37 70 38 71 39 72 40 73 66 74 67 75 75 76
REMARK SMILES IDX 68 77 74 78 76 79 73 80 69 81 70 82 71 83 72 84 51 85 52 86
REMARK SMILES IDX 60 87 53 88 59 89 61 90 58 91 54 92 55 93 56 94 57 95
REMARK H PARENT 9 9 81 48 49 59
REMARK Flexibility Score: inf
ROOT
ATOM      1  C   UNL     1       5.591  -2.410  -4.458  1.00  0.00     0.261 C 
ENDROOT
BRANCH   1   2
ATOM      2  O   UNL     1       6.292  -3.635  -4.260  1.00  0.00    -0.463 OA
BRANCH   2   3
ATOM      3  C   UNL     1       7.231  -3.510  -3.299  1.00  0.00     0.306 C 
ATOM      4  O   UNL     1       7.851  -2.474  -3.077  1.00  0.00    -0.252 OA
BRANCH   3   5
ATOM      5  C   UNL     1       7.387  -4.770  -2.494  1.00  0.00     0.132 C 
BRANCH   5   6
ATOM      6  C   UNL     1       6.215  -5.773  -2.460  1.00  0.00     0.112 C 
BRANCH   6   7
ATOM      7  C   UNL     1       5.815  -6.463  -3.779  1.00  0.00     0.225 C 
ATOM      8  N   UNL     1       4.680  -6.284  -4.557  1.00  0.00    -0.317 N 
ATOM      9  H   UNL     1       4.655  -6.891  -5.331  1.00  0.00     0.170 HD
ATOM     10  O   UNL     1       6.614  -7.319  -4.201  1.00  0.00    -0.275 OA
BRANCH   8  11
ATOM     11  C   UNL     1       3.563  -5.442  -4.500  1.00  0.00     0.114 A 
ATOM     12  C   UNL     1       1.995  -3.603  -3.567  1.00  0.00     0.118 A 
ATOM     13  S   UNL     1       3.361  -4.521  -3.184  1.00  0.00    -0.109 S 
ATOM     14  C   UNL     1       1.571  -4.085  -4.794  1.00  0.00    -0.006 A 
ATOM     15  C   UNL     1       2.493  -5.150  -5.333  1.00  0.00     0.091 A 
ATOM     16  C   UNL     1       0.405  -3.501  -5.504  1.00  0.00     0.048 C 
BRANCH  12  17
ATOM     17  C   UNL     1       1.632  -2.457  -2.664  1.00  0.00     0.348 C 
ATOM     18  O   UNL     1       2.454  -1.758  -2.080  1.00  0.00    -0.245 OA
BRANCH  17  19
ATOM     19  O   UNL     1       0.315  -2.127  -2.531  1.00  0.00    -0.462 OA
BRANCH  19  20
ATOM     20  C   UNL     1       0.098  -0.833  -1.872  1.00  0.00     0.230 C 
ATOM     21  C   UNL     1       0.626  -0.581  -0.441  1.00  0.00     0.049 C 
ENDBRANCH  19  20
ENDBRANCH  17  19
ENDBRANCH  12  17
BRANCH  15  22
ATOM     22  C   UNL     1       2.386  -5.734  -6.625  1.00  0.00     0.103 C 
ATOM     23  N   UNL     1       2.365  -6.172  -7.710  1.00  0.00    -0.192 NA
ENDBRANCH  15  22
ENDBRANCH   8  11
ENDBRANCH   6   7
ENDBRANCH   5   6
ENDBRANCH   3   5
ENDBRANCH   2   3
ENDBRANCH   1   2
BRANCH   1  24
ATOM     24  C   UNL     1       4.848  -1.937  -3.150  1.00  0.00     0.202 C 
BRANCH  24  25
ATOM     25  O   UNL     1       5.031  -2.887  -2.058  1.00  0.00    -0.374 OA
BRANCH  25  26
ATOM     26  C   UNL     1       4.409  -3.013  -0.746  1.00  0.00     0.202 C 
BRANCH  26  27
ATOM     27  C   UNL     1       3.065  -3.877  -0.237  1.00  0.00     0.261 C 
BRANCH  27  28
ATOM     28  O   UNL     1       2.727  -5.233  -0.719  1.00  0.00    -0.460 OA
BRANCH  28  29
ATOM     29  C   UNL     1       1.441  -5.502  -1.183  1.00  0.00     0.338 C 
ATOM     30  O   UNL     1       0.498  -4.728  -1.117  1.00  0.00    -0.246 OA
BRANCH  29  31
ATOM     31  C   UNL     1       1.333  -6.812  -1.929  1.00  0.00     0.060 A 
ATOM     32  C   UNL     1       0.167  -7.173  -2.642  1.00  0.00     0.016 A 
ATOM     33  C   UNL     1       2.388  -7.720  -1.882  1.00  0.00     0.016 A 
ATOM     34  C   UNL     1      -0.067  -8.517  -2.951  1.00  0.00     0.010 A 
ATOM     35  C   UNL     1       2.166  -9.042  -2.212  1.00  0.00     0.010 A 
ATOM     36  C   UNL     1       0.880  -9.455  -2.549  1.00  0.00    -0.014 A 
BRANCH  36  37
ATOM     37  C   UNL     1       0.555 -10.876  -2.388  1.00  0.00     0.031 A 
ATOM     38  C   UNL     1       0.804 -11.669  -3.622  1.00  0.00     0.074 A 
ATOM     39  C   UNL     1       0.231 -11.384  -1.164  1.00  0.00     0.049 A 
ATOM     40  N   UNL     1      -0.080 -12.105  -4.462  1.00  0.00    -0.248 NA
ATOM     41  C   UNL     1       2.186 -11.783  -4.129  1.00  0.00     0.031 C 
ATOM     42  C   UNL     1       0.146 -10.672   0.121  1.00  0.00     0.029 A 
ATOM     43  N   UNL     1      -0.040 -12.675  -0.777  1.00  0.00    -0.354 N 
ATOM     44  C   UNL     1       0.647 -12.826  -5.406  1.00  0.00     0.074 A 
ATOM     45  C   UNL     1       1.981 -12.312  -5.337  1.00  0.00     0.031 C 
ATOM     46  C   UNL     1       0.075 -11.555   1.150  1.00  0.00     0.029 A 
ATOM     47  C   UNL     1      -0.025 -12.904   0.622  1.00  0.00     0.049 A 
ATOM     48  H   UNL     1      -0.231 -13.390  -1.425  1.00  0.00     0.167 HD
ATOM     49  C   UNL     1       0.194 -14.033  -5.853  1.00  0.00     0.034 A 
ATOM     50  C   UNL     1      -0.099 -14.114   1.276  1.00  0.00     0.034 A 
ATOM     51  C   UNL     1      -1.219 -14.170  -5.570  1.00  0.00     0.049 A 
ATOM     52  C   UNL     1      -0.710 -15.057   0.303  1.00  0.00     0.074 A 
ATOM     53  C   UNL     1      -2.352 -13.452  -5.899  1.00  0.00     0.029 A 
ATOM     54  N   UNL     1      -1.566 -14.931  -4.476  1.00  0.00    -0.354 N 
ATOM     55  N   UNL     1      -1.938 -14.922  -0.122  1.00  0.00    -0.248 NA
ATOM     56  C   UNL     1       0.200 -15.736  -0.608  1.00  0.00     0.031 C 
ATOM     57  C   UNL     1      -3.136 -13.438  -4.707  1.00  0.00     0.029 A 
ATOM     58  C   UNL     1      -2.521 -14.257  -3.758  1.00  0.00     0.049 A 
ATOM     59  H   UNL     1      -1.191 -15.812  -4.248  1.00  0.00     0.167 HD
ATOM     60  C   UNL     1      -1.852 -15.070  -1.498  1.00  0.00     0.074 A 
ATOM     61  C   UNL     1      -0.506 -15.604  -1.737  1.00  0.00     0.031 C 
ATOM     62  C   UNL     1      -2.737 -14.447  -2.334  1.00  0.00     0.034 A 
BRANCH  49  63
ATOM     63  C   UNL     1       1.081 -15.248  -6.096  1.00  0.00     0.023 A 
ATOM     64  C   UNL     1       0.433 -16.439  -6.484  1.00  0.00     0.031 A 
ATOM     65  C   UNL     1       2.431 -15.400  -5.697  1.00  0.00     0.131 A 
ATOM     66  C   UNL     1       1.067 -17.688  -6.352  1.00  0.00     0.055 A 
ATOM     67  C   UNL     1       3.075 -16.638  -5.624  1.00  0.00     0.041 A 
ATOM     68  F   UNL     1       3.193 -14.388  -5.273  1.00  0.00    -0.206 F 
ATOM     69  C   UNL     1       2.384 -17.796  -5.920  1.00  0.00     0.022 A 
BRANCH  66  70
ATOM     70  S   UNL     1       0.076 -19.184  -6.585  1.00  0.00     0.124 S 
ATOM     71  O   UNL     1      -0.997 -18.976  -5.620  1.00  0.00    -0.237 OA
ATOM     72  O   UNL     1      -0.293 -19.082  -7.993  1.00  0.00    -0.237 OA
ATOM     73  O   UNL     1       1.010 -20.261  -6.263  1.00  0.00    -0.744 OA
ENDBRANCH  66  70
ENDBRANCH  49  63
BRANCH  50  74
ATOM     74  C   UNL     1       0.718 -14.606   2.456  1.00  0.00     0.023 A 
ATOM     75  C   UNL     1       0.421 -15.754   3.253  1.00  0.00     0.031 A 
ATOM     76  C   UNL     1       2.007 -14.060   2.634  1.00  0.00     0.131 A 
ATOM     77  C   UNL     1       1.389 -16.281   4.164  1.00  0.00     0.055 A 
ATOM     78  C   UNL     1       2.957 -14.596   3.511  1.00  0.00     0.041 A 
ATOM     79  F   UNL     1       2.426 -13.027   1.888  1.00  0.00    -0.206 F 
ATOM     80  C   UNL     1       2.657 -15.710   4.274  1.00  0.00     0.022 A 
BRANCH  77  81
ATOM     81  S   UNL     1       1.061 -17.754   5.218  1.00  0.00     0.124 S 
ATOM     82  O   UNL     1      -0.013 -17.288   6.087  1.00  0.00    -0.237 OA
ATOM     83  O   UNL     1       0.710 -18.778   4.241  1.00  0.00    -0.237 OA
ATOM     84  O   UNL     1       2.337 -17.982   5.901  1.00  0.00    -0.744 OA
ENDBRANCH  77  81
ENDBRANCH  50  74
BRANCH  62  85
ATOM     85  C   UNL     1      -3.976 -13.808  -1.732  1.00  0.00     0.023 A 
ATOM     86  C   UNL     1      -4.005 -12.747  -0.791  1.00  0.00     0.031 A 
ATOM     87  C   UNL     1      -5.207 -14.255  -2.243  1.00  0.00     0.131 A 
ATOM     88  C   UNL     1      -5.244 -12.191  -0.396  1.00  0.00     0.055 A 
ATOM     89  C   UNL     1      -6.421 -13.684  -1.872  1.00  0.00     0.041 A 
ATOM     90  F   UNL     1      -5.244 -15.243  -3.151  1.00  0.00    -0.206 F 
ATOM     91  C   UNL     1      -6.445 -12.654  -0.942  1.00  0.00     0.022 A 
BRANCH  88  92
ATOM     92  S   UNL     1      -5.336 -10.878   0.872  1.00  0.00     0.124 S 
ATOM     93  O   UNL     1      -4.481 -11.378   1.941  1.00  0.00    -0.237 OA
ATOM     94  O   UNL     1      -4.840  -9.707   0.153  1.00  0.00    -0.237 OA
ATOM     95  O   UNL     1      -6.762 -10.825   1.205  1.00  0.00    -0.744 OA
ENDBRANCH  88  92
ENDBRANCH  62  85
ENDBRANCH  36  37
ENDBRANCH  29  31
ENDBRANCH  28  29
ENDBRANCH  27  28
ENDBRANCH  26  27
ENDBRANCH  25  26
ENDBRANCH  24  25
ENDBRANCH   1  24
TORSDOF 24
