REMARK SMILES O=C1C[C@@H]([N@@H+]2CCO[C@@H](CC(=O)OCCOCCOC(=O)c3ccc(-c4c5nc(c(-c6cc(S(=O)(=O)[O-])ccc6F)c6ccc([nH]6)c(-c6cc(S(=O)(=O)[O-])ccc6F)c6nc(c(-c7cc(S(=O)(=O)[O-])ccc7F)c7ccc4[nH]7)C=C6)C=C5)cc3)C2)C(=O)N1
REMARK SMILES IDX 17 1 16 2 15 3 14 4 13 5 11 6 12 7 10 8 9 9 5 10 6 11 85 12
REMARK SMILES IDX 7 14 8 15 4 16 1 17 2 18 3 19 88 20 86 21 87 23 18 24 19 25
REMARK SMILES IDX 20 26 21 27 22 28 23 29 84 30 24 31 83 32 25 33 26 34 27 35
REMARK SMILES IDX 77 36 28 37 82 38 76 39 78 40 29 41 81 42 75 43 74 44 30 46
REMARK SMILES IDX 62 47 42 48 61 49 43 50 46 51 60 52 79 53 44 54 45 55 59 57
REMARK SMILES IDX 80 58 47 59 31 60 32 61 40 62 33 63 39 64 41 65 38 66 34 67
REMARK SMILES IDX 35 68 36 69 37 70 63 71 64 72 72 73 65 74 71 75 73 76 70 77
REMARK SMILES IDX 66 78 67 79 68 80 69 81 48 82 49 83 57 84 50 85 56 86 58 87
REMARK SMILES IDX 55 88 51 89 52 90 53 91 54 92
REMARK H PARENT 5 13 88 22 78 45 46 56
REMARK Flexibility Score: inf
ROOT
ATOM      1  C   UNL     1      -1.282  -5.098   1.944  1.00  0.00     0.202 C 
ENDROOT
BRANCH   1   2
ATOM      2  O   UNL     1      -0.764  -6.345   2.397  1.00  0.00    -0.374 OA
BRANCH   2   3
ATOM      3  C   UNL     1       0.579  -6.670   2.050  1.00  0.00     0.202 C 
BRANCH   3   4
ATOM      4  C   UNL     1       0.828  -7.122   0.610  1.00  0.00     0.261 C 
BRANCH   4   5
ATOM      5  O   UNL     1       0.559  -6.089  -0.358  1.00  0.00    -0.463 OA
BRANCH   5   6
ATOM      6  C   UNL     1      -0.552  -6.269  -1.115  1.00  0.00     0.308 C 
ATOM      7  O   UNL     1      -1.336  -7.204  -1.000  1.00  0.00    -0.252 OA
BRANCH   6   8
ATOM      8  C   UNL     1      -0.702  -5.226  -2.188  1.00  0.00     0.160 C 
BRANCH   8   9
ATOM      9  C   UNL     1      -0.619  -3.743  -1.810  1.00  0.00     0.184 C 
ATOM     10  N   UNL     1       1.001  -1.808  -1.385  1.00  0.00    -0.320 N 
ATOM     11  C   UNL     1       0.491  -1.219  -2.626  1.00  0.00     0.291 C 
ATOM     12  C   UNL     1       0.798  -3.271  -1.390  1.00  0.00     0.295 C 
ATOM     13  H   UNL     1       2.007  -1.639  -1.399  1.00  0.00     0.348 HD
ATOM     14  C   UNL     1      -0.937  -1.648  -2.965  1.00  0.00     0.222 C 
ATOM     15  O   UNL     1      -1.062  -3.067  -3.012  1.00  0.00    -0.366 OA
BRANCH  10  16
ATOM     16  C   UNL     1       0.717  -1.110  -0.120  1.00  0.00     0.284 C 
ATOM     17  O   UNL     1      -2.038   1.141   0.025  1.00  0.00    -0.274 OA
ATOM     18  C   UNL     1      -0.955   0.589   0.046  1.00  0.00     0.233 C 
ATOM     19  C   UNL     1      -0.727  -0.868   0.314  1.00  0.00     0.176 C 
ATOM     20  N   UNL     1       0.248   1.192  -0.110  1.00  0.00    -0.291 N 
ATOM     21  C   UNL     1       1.284   0.312  -0.144  1.00  0.00     0.285 C 
ATOM     22  H   UNL     1       0.360   2.167  -0.191  1.00  0.00     0.173 HD
ATOM     23  O   UNL     1       2.459   0.635  -0.225  1.00  0.00    -0.268 OA
ENDBRANCH  10  16
ENDBRANCH   8   9
ENDBRANCH   6   8
ENDBRANCH   5   6
ENDBRANCH   4   5
ENDBRANCH   3   4
ENDBRANCH   2   3
ENDBRANCH   1   2
BRANCH   1  24
ATOM     24  C   UNL     1      -0.728  -3.834   2.610  1.00  0.00     0.261 C 
BRANCH  24  25
ATOM     25  O   UNL     1       0.664  -3.607   2.304  1.00  0.00    -0.460 OA
BRANCH  25  26
ATOM     26  C   UNL     1       1.483  -3.595   3.390  1.00  0.00     0.338 C 
ATOM     27  O   UNL     1       1.135  -3.649   4.557  1.00  0.00    -0.246 OA
BRANCH  26  28
ATOM     28  C   UNL     1       2.903  -3.697   2.990  1.00  0.00     0.060 A 
ATOM     29  C   UNL     1       3.616  -4.817   3.435  1.00  0.00     0.016 A 
ATOM     30  C   UNL     1       3.563  -2.671   2.313  1.00  0.00     0.016 A 
ATOM     31  C   UNL     1       4.996  -4.894   3.244  1.00  0.00     0.010 A 
ATOM     32  C   UNL     1       4.949  -2.754   2.114  1.00  0.00     0.010 A 
ATOM     33  C   UNL     1       5.681  -3.847   2.613  1.00  0.00    -0.014 A 
BRANCH  33  34
ATOM     34  C   UNL     1       7.170  -3.837   2.609  1.00  0.00     0.031 A 
ATOM     35  C   UNL     1       7.906  -2.910   3.543  1.00  0.00     0.074 A 
ATOM     36  C   UNL     1       7.863  -4.678   1.818  1.00  0.00     0.049 A 
ATOM     37  N   UNL     1       9.193  -2.718   3.682  1.00  0.00    -0.248 NA
ATOM     38  C   UNL     1       7.076  -2.091   4.441  1.00  0.00     0.031 C 
ATOM     39  C   UNL     1       7.271  -5.655   0.905  1.00  0.00     0.029 A 
ATOM     40  N   UNL     1       9.217  -4.846   1.654  1.00  0.00    -0.354 N 
ATOM     41  C   UNL     1       9.330  -1.756   4.678  1.00  0.00     0.074 A 
ATOM     42  C   UNL     1       7.991  -1.374   5.076  1.00  0.00     0.031 C 
ATOM     43  C   UNL     1       8.256  -6.315   0.273  1.00  0.00     0.029 A 
ATOM     44  C   UNL     1       9.548  -5.778   0.698  1.00  0.00     0.049 A 
ATOM     45  H   UNL     1       9.888  -4.345   2.172  1.00  0.00     0.167 HD
ATOM     46  C   UNL     1      10.465  -1.249   5.221  1.00  0.00     0.034 A 
ATOM     47  C   UNL     1      10.749  -6.137   0.200  1.00  0.00     0.034 A 
ATOM     48  C   UNL     1      11.795  -1.630   4.809  1.00  0.00     0.049 A 
ATOM     49  C   UNL     1      11.998  -5.486   0.750  1.00  0.00     0.074 A 
ATOM     50  C   UNL     1      13.010  -1.180   5.298  1.00  0.00     0.029 A 
ATOM     51  N   UNL     1      12.089  -2.540   3.802  1.00  0.00    -0.354 N 
ATOM     52  N   UNL     1      12.111  -4.581   1.696  1.00  0.00    -0.248 NA
ATOM     53  C   UNL     1      13.280  -5.912   0.173  1.00  0.00     0.031 C 
ATOM     54  C   UNL     1      14.032  -1.755   4.535  1.00  0.00     0.029 A 
ATOM     55  C   UNL     1      13.462  -2.638   3.632  1.00  0.00     0.049 A 
ATOM     56  H   UNL     1      11.419  -3.043   3.284  1.00  0.00     0.167 HD
ATOM     57  C   UNL     1      13.479  -4.359   1.849  1.00  0.00     0.074 A 
ATOM     58  C   UNL     1      14.148  -5.236   0.911  1.00  0.00     0.031 C 
ATOM     59  C   UNL     1      14.123  -3.511   2.691  1.00  0.00     0.034 A 
BRANCH  46  60
ATOM     60  C   UNL     1      10.316  -0.193   6.292  1.00  0.00     0.023 A 
ATOM     61  C   UNL     1       9.708  -0.471   7.528  1.00  0.00     0.031 A 
ATOM     62  C   UNL     1      10.784   1.115   6.069  1.00  0.00     0.131 A 
ATOM     63  C   UNL     1       9.527   0.557   8.467  1.00  0.00     0.055 A 
ATOM     64  C   UNL     1      10.675   2.113   7.040  1.00  0.00     0.041 A 
ATOM     65  F   UNL     1      11.353   1.448   4.900  1.00  0.00    -0.206 F 
ATOM     66  C   UNL     1      10.032   1.840   8.243  1.00  0.00     0.022 A 
BRANCH  63  67
ATOM     67  S   UNL     1       8.503   0.227   9.927  1.00  0.00     0.124 S 
ATOM     68  O   UNL     1       7.235  -0.163   9.316  1.00  0.00    -0.237 OA
ATOM     69  O   UNL     1       9.242  -0.835  10.599  1.00  0.00    -0.237 OA
ATOM     70  O   UNL     1       8.479   1.511  10.626  1.00  0.00    -0.744 OA
ENDBRANCH  63  67
ENDBRANCH  46  60
BRANCH  47  71
ATOM     71  C   UNL     1      10.843  -7.122  -0.919  1.00  0.00     0.023 A 
ATOM     72  C   UNL     1      11.543  -8.331  -0.773  1.00  0.00     0.031 A 
ATOM     73  C   UNL     1      10.291  -6.831  -2.181  1.00  0.00     0.131 A 
ATOM     74  C   UNL     1      11.722  -9.174  -1.882  1.00  0.00     0.055 A 
ATOM     75  C   UNL     1      10.416  -7.704  -3.262  1.00  0.00     0.041 A 
ATOM     76  F   UNL     1       9.617  -5.687  -2.381  1.00  0.00    -0.206 F 
ATOM     77  C   UNL     1      11.149  -8.877  -3.120  1.00  0.00     0.022 A 
BRANCH  74  78
ATOM     78  S   UNL     1      12.816 -10.612  -1.711  1.00  0.00     0.124 S 
ATOM     79  O   UNL     1      14.062  -9.986  -1.286  1.00  0.00    -0.237 OA
ATOM     80  O   UNL     1      12.118 -11.404  -0.704  1.00  0.00    -0.237 OA
ATOM     81  O   UNL     1      12.831 -11.188  -3.054  1.00  0.00    -0.744 OA
ENDBRANCH  74  78
ENDBRANCH  47  71
BRANCH  59  82
ATOM     82  C   UNL     1      15.635  -3.533   2.676  1.00  0.00     0.023 A 
ATOM     83  C   UNL     1      16.377  -3.133   1.551  1.00  0.00     0.031 A 
ATOM     84  C   UNL     1      16.345  -3.971   3.810  1.00  0.00     0.131 A 
ATOM     85  C   UNL     1      17.777  -3.235   1.562  1.00  0.00     0.055 A 
ATOM     86  C   UNL     1      17.740  -4.005   3.840  1.00  0.00     0.041 A 
ATOM     87  F   UNL     1      15.692  -4.371   4.913  1.00  0.00    -0.206 F 
ATOM     88  C   UNL     1      18.464  -3.649   2.707  1.00  0.00     0.022 A 
BRANCH  85  89
ATOM     89  S   UNL     1      18.688  -2.918   0.025  1.00  0.00     0.124 S 
ATOM     90  O   UNL     1      18.090  -3.888  -0.886  1.00  0.00    -0.237 OA
ATOM     91  O   UNL     1      18.375  -1.518  -0.240  1.00  0.00    -0.237 OA
ATOM     92  O   UNL     1      20.078  -3.184   0.389  1.00  0.00    -0.744 OA
ENDBRANCH  85  89
ENDBRANCH  59  82
ENDBRANCH  33  34
ENDBRANCH  26  28
ENDBRANCH  25  26
ENDBRANCH  24  25
ENDBRANCH   1  24
TORSDOF 19
