REMARK SMILES C[C@@](NC(=O)NCC(N)=O)(C(=O)OCCOCCOC(=O)c1ccc(-c2c3nc(c(-c4cc(S(=O)(=O)[O-])ccc4F)c4ccc([nH]4)c(-c4cc(S(=O)(=O)[O-])ccc4F)c4nc(c(-c5cc(S(=O)(=O)[O-])ccc5F)c5ccc2[nH]5)C=C4)C=C3)cc1)C(F)(F)F
REMARK SMILES IDX 16 1 15 2 14 3 13 4 11 5 12 6 2 7 1 8 3 9 4 10 5 12 6 13
REMARK SMILES IDX 7 15 8 16 9 17 10 18 85 21 86 22 87 23 88 24 17 25 18 26
REMARK SMILES IDX 19 27 20 28 21 29 22 30 23 31 84 32 24 33 83 34 25 35 26 36
REMARK SMILES IDX 27 37 77 38 28 39 82 40 76 41 78 42 29 43 81 44 75 45 74 46
REMARK SMILES IDX 30 48 62 49 42 50 61 51 43 52 46 53 60 54 79 55 44 56 45 57
REMARK SMILES IDX 59 59 80 60 47 61 31 62 32 63 40 64 33 65 39 66 41 67 38 68
REMARK SMILES IDX 34 69 35 70 36 71 37 72 63 73 64 74 72 75 65 76 71 77 73 78
REMARK SMILES IDX 70 79 66 80 67 81 68 82 69 83 48 84 49 85 57 86 50 87 56 88
REMARK SMILES IDX 58 89 55 90 51 91 52 92 53 93 54 94
REMARK H PARENT 3 11 6 14 9 19 9 20 78 47 46 58
REMARK Flexibility Score: inf
ROOT
ATOM      1  O   UNL     1      -3.284   1.772   0.486  1.00  0.00    -0.374 OA
ENDROOT
BRANCH   1   2
ATOM      2  C   UNL     1      -3.706   0.511   0.014  1.00  0.00     0.202 C 
BRANCH   2   3
ATOM      3  C   UNL     1      -2.744  -0.512  -0.615  1.00  0.00     0.261 C 
BRANCH   3   4
ATOM      4  O   UNL     1      -1.327  -0.385  -0.464  1.00  0.00    -0.461 OA
BRANCH   4   5
ATOM      5  C   UNL     1      -0.710   0.624  -1.139  1.00  0.00     0.341 C 
ATOM      6  O   UNL     1      -1.257   1.678  -1.436  1.00  0.00    -0.249 OA
BRANCH   5   7
ATOM      7  C   UNL     1       0.682   0.226  -1.601  1.00  0.00     0.232 C 
ATOM      8  C   UNL     1       1.384  -0.475  -0.407  1.00  0.00     0.058 C 
BRANCH   7   9
ATOM      9  N   UNL     1       0.660  -0.757  -2.741  1.00  0.00    -0.315 N 
ATOM     10  C   UNL     1       0.162  -0.883  -3.974  1.00  0.00     0.316 C 
ATOM     11  H   UNL     1       1.175  -1.562  -2.502  1.00  0.00     0.166 HD
ATOM     12  O   UNL     1       0.642  -1.790  -4.658  1.00  0.00    -0.249 OA
ATOM     13  N   UNL     1      -0.827  -0.164  -4.504  1.00  0.00    -0.329 N 
ATOM     14  H   UNL     1      -1.037  -0.409  -5.434  1.00  0.00     0.165 HD
BRANCH  13  15
ATOM     15  C   UNL     1      -1.649   0.898  -3.988  1.00  0.00     0.217 C 
BRANCH  15  16
ATOM     16  C   UNL     1      -2.815   1.399  -4.835  1.00  0.00     0.236 C 
ATOM     17  N   UNL     1      -4.028   1.392  -4.195  1.00  0.00    -0.368 N 
ATOM     18  O   UNL     1      -2.707   1.784  -5.994  1.00  0.00    -0.273 OA
ATOM     19  H   UNL     1      -4.091   1.079  -3.264  1.00  0.00     0.159 HD
ATOM     20  H   UNL     1      -4.835   1.701  -4.666  1.00  0.00     0.159 HD
ENDBRANCH  15  16
ENDBRANCH  13  15
ENDBRANCH   7   9
BRANCH   7  21
ATOM     21  C   UNL     1       1.452   1.529  -1.865  1.00  0.00     0.422 C 
ATOM     22  F   UNL     1       1.435   2.346  -0.781  1.00  0.00    -0.168 F 
ATOM     23  F   UNL     1       2.764   1.263  -2.111  1.00  0.00    -0.168 F 
ATOM     24  F   UNL     1       1.001   2.234  -2.920  1.00  0.00    -0.168 F 
ENDBRANCH   7  21
ENDBRANCH   5   7
ENDBRANCH   4   5
ENDBRANCH   3   4
ENDBRANCH   2   3
ENDBRANCH   1   2
BRANCH   1  25
ATOM     25  C   UNL     1      -2.220   1.901   1.414  1.00  0.00     0.202 C 
BRANCH  25  26
ATOM     26  C   UNL     1      -2.126   1.021   2.663  1.00  0.00     0.261 C 
BRANCH  26  27
ATOM     27  O   UNL     1      -2.357  -0.374   2.438  1.00  0.00    -0.460 OA
BRANCH  27  28
ATOM     28  C   UNL     1      -3.522  -0.825   2.957  1.00  0.00     0.338 C 
ATOM     29  O   UNL     1      -4.363  -0.159   3.561  1.00  0.00    -0.246 OA
BRANCH  28  30
ATOM     30  C   UNL     1      -3.772  -2.208   2.533  1.00  0.00     0.060 A 
ATOM     31  C   UNL     1      -4.997  -2.485   1.912  1.00  0.00     0.016 A 
ATOM     32  C   UNL     1      -2.865  -3.231   2.818  1.00  0.00     0.016 A 
ATOM     33  C   UNL     1      -5.350  -3.797   1.626  1.00  0.00     0.010 A 
ATOM     34  C   UNL     1      -3.231  -4.553   2.550  1.00  0.00     0.010 A 
ATOM     35  C   UNL     1      -4.493  -4.840   1.997  1.00  0.00    -0.014 A 
BRANCH  35  36
ATOM     36  C   UNL     1      -5.026  -6.221   2.026  1.00  0.00     0.031 A 
ATOM     37  C   UNL     1      -5.576  -6.740   3.326  1.00  0.00     0.074 A 
ATOM     38  C   UNL     1      -5.072  -6.969   0.912  1.00  0.00     0.049 A 
ATOM     39  N   UNL     1      -6.074  -7.914   3.611  1.00  0.00    -0.248 NA
ATOM     40  C   UNL     1      -5.559  -5.801   4.459  1.00  0.00     0.031 C 
ATOM     41  C   UNL     1      -4.628  -6.538  -0.412  1.00  0.00     0.029 A 
ATOM     42  N   UNL     1      -5.516  -8.251   0.720  1.00  0.00    -0.354 N 
ATOM     43  C   UNL     1      -6.429  -7.857   4.955  1.00  0.00     0.074 A 
ATOM     44  C   UNL     1      -6.050  -6.547   5.436  1.00  0.00     0.031 C 
ATOM     45  C   UNL     1      -4.814  -7.546  -1.282  1.00  0.00     0.029 A 
ATOM     46  C   UNL     1      -5.353  -8.703  -0.568  1.00  0.00     0.049 A 
ATOM     47  H   UNL     1      -5.915  -8.797   1.436  1.00  0.00     0.167 HD
ATOM     48  C   UNL     1      -7.024  -8.810   5.714  1.00  0.00     0.034 A 
ATOM     49  C   UNL     1      -5.587  -9.921  -1.097  1.00  0.00     0.034 A 
ATOM     50  C   UNL     1      -7.372 -10.118   5.217  1.00  0.00     0.049 A 
ATOM     51  C   UNL     1      -6.149 -11.004  -0.207  1.00  0.00     0.074 A 
ATOM     52  C   UNL     1      -7.974 -11.166   5.891  1.00  0.00     0.029 A 
ATOM     53  N   UNL     1      -7.133 -10.565   3.923  1.00  0.00    -0.354 N 
ATOM     54  N   UNL     1      -6.479 -10.943   1.064  1.00  0.00    -0.248 NA
ATOM     55  C   UNL     1      -6.377 -12.316  -0.825  1.00  0.00     0.031 C 
ATOM     56  C   UNL     1      -8.027 -12.267   5.029  1.00  0.00     0.029 A 
ATOM     57  C   UNL     1      -7.539 -11.883   3.789  1.00  0.00     0.049 A 
ATOM     58  H   UNL     1      -6.733 -10.023   3.205  1.00  0.00     0.167 HD
ATOM     59  C   UNL     1      -6.982 -12.202   1.387  1.00  0.00     0.074 A 
ATOM     60  C   UNL     1      -6.922 -12.993   0.175  1.00  0.00     0.031 C 
ATOM     61  C   UNL     1      -7.457 -12.661   2.574  1.00  0.00     0.034 A 
BRANCH  48  62
ATOM     62  C   UNL     1      -7.264  -8.481   7.168  1.00  0.00     0.023 A 
ATOM     63  C   UNL     1      -8.118  -7.435   7.562  1.00  0.00     0.031 A 
ATOM     64  C   UNL     1      -6.583  -9.186   8.176  1.00  0.00     0.131 A 
ATOM     65  C   UNL     1      -8.203  -7.071   8.914  1.00  0.00     0.055 A 
ATOM     66  C   UNL     1      -6.738  -8.875   9.528  1.00  0.00     0.041 A 
ATOM     67  F   UNL     1      -5.733 -10.177   7.862  1.00  0.00    -0.206 F 
ATOM     68  C   UNL     1      -7.538  -7.800   9.903  1.00  0.00     0.022 A 
BRANCH  65  69
ATOM     69  S   UNL     1      -9.057  -5.529   9.345  1.00  0.00     0.124 S 
ATOM     70  O   UNL     1      -8.315  -4.550   8.554  1.00  0.00    -0.237 OA
ATOM     71  O   UNL     1     -10.424  -5.795   8.913  1.00  0.00    -0.237 OA
ATOM     72  O   UNL     1      -8.867  -5.423  10.790  1.00  0.00    -0.744 OA
ENDBRANCH  65  69
ENDBRANCH  48  62
BRANCH  49  73
ATOM     73  C   UNL     1      -5.253 -10.200  -2.522  1.00  0.00     0.023 A 
ATOM     74  C   UNL     1      -6.250 -10.536  -3.451  1.00  0.00     0.031 A 
ATOM     75  C   UNL     1      -3.919 -10.175  -2.967  1.00  0.00     0.131 A 
ATOM     76  C   UNL     1      -5.894 -10.874  -4.767  1.00  0.00     0.055 A 
ATOM     77  C   UNL     1      -3.575 -10.461  -4.289  1.00  0.00     0.041 A 
ATOM     78  F   UNL     1      -2.926  -9.861  -2.119  1.00  0.00    -0.206 F 
ATOM     79  C   UNL     1      -4.566 -10.825  -5.196  1.00  0.00     0.022 A 
BRANCH  76  80
ATOM     80  S   UNL     1      -7.191 -11.452  -5.895  1.00  0.00     0.124 S 
ATOM     81  O   UNL     1      -7.699 -12.623  -5.189  1.00  0.00    -0.237 OA
ATOM     82  O   UNL     1      -8.082 -10.298  -5.949  1.00  0.00    -0.237 OA
ATOM     83  O   UNL     1      -6.465 -11.734  -7.132  1.00  0.00    -0.744 OA
ENDBRANCH  76  80
ENDBRANCH  49  73
BRANCH  61  84
ATOM     84  C   UNL     1      -7.991 -14.074   2.600  1.00  0.00     0.023 A 
ATOM     85  C   UNL     1      -7.153 -15.187   2.416  1.00  0.00     0.031 A 
ATOM     86  C   UNL     1      -9.362 -14.306   2.809  1.00  0.00     0.131 A 
ATOM     87  C   UNL     1      -7.702 -16.478   2.388  1.00  0.00     0.055 A 
ATOM     88  C   UNL     1      -9.893 -15.596   2.845  1.00  0.00     0.041 A 
ATOM     89  F   UNL     1     -10.209 -13.280   2.989  1.00  0.00    -0.206 F 
ATOM     90  C   UNL     1      -9.064 -16.691   2.620  1.00  0.00     0.022 A 
BRANCH  87  91
ATOM     91  S   UNL     1      -6.629 -17.873   1.950  1.00  0.00     0.124 S 
ATOM     92  O   UNL     1      -6.146 -17.481   0.630  1.00  0.00    -0.237 OA
ATOM     93  O   UNL     1      -5.639 -17.853   3.022  1.00  0.00    -0.237 OA
ATOM     94  O   UNL     1      -7.534 -19.021   1.965  1.00  0.00    -0.744 OA
ENDBRANCH  87  91
ENDBRANCH  61  84
ENDBRANCH  35  36
ENDBRANCH  28  30
ENDBRANCH  27  28
ENDBRANCH  26  27
ENDBRANCH  25  26
ENDBRANCH   1  25
TORSDOF 21
