REMARK SMILES O=C(/C=C/c1ccc(O)c(O)c1)OCCOCCOC(=O)c1ccc(-c2c3nc(c(-c4cc(S(=O)(=O)[O-])ccc4F)c4ccc([nH]4)c(-c4cc(S(=O)(=O)[O-])ccc4F)c4nc(c(-c5cc(S(=O)(=O)[O-])ccc5F)c5ccc2[nH]5)C=C4)C=C3)cc1
REMARK SMILES IDX 17 1 16 2 15 3 14 4 13 5 2 6 1 7 3 8 4 9 5 10 6 11 12 12
REMARK SMILES IDX 7 13 10 14 8 15 11 16 9 18 18 20 19 21 20 22 21 23 22 24
REMARK SMILES IDX 23 25 84 26 24 27 83 28 25 29 26 30 27 31 77 32 28 33 82 34
REMARK SMILES IDX 76 35 78 36 29 37 81 38 75 39 74 40 30 42 62 43 42 44 61 45
REMARK SMILES IDX 43 46 46 47 60 48 79 49 44 50 45 51 59 53 80 54 47 55 31 56
REMARK SMILES IDX 32 57 40 58 33 59 39 60 41 61 38 62 34 63 35 64 36 65 37 66
REMARK SMILES IDX 63 67 64 68 72 69 65 70 71 71 73 72 70 73 66 74 67 75 68 76
REMARK SMILES IDX 69 77 48 78 49 79 57 80 50 81 56 82 58 83 55 84 51 85 52 86
REMARK SMILES IDX 53 87 54 88
REMARK H PARENT 11 17 9 19 78 41 46 52
REMARK Flexibility Score: inf
ROOT
ATOM      1  C   UNL     1       2.922  -1.628   1.225  1.00  0.00     0.202 C 
ENDROOT
BRANCH   1   2
ATOM      2  O   UNL     1       4.216  -1.172   0.812  1.00  0.00    -0.374 OA
BRANCH   2   3
ATOM      3  C   UNL     1       4.573   0.122   1.292  1.00  0.00     0.202 C 
BRANCH   3   4
ATOM      4  C   UNL     1       4.321   1.292   0.346  1.00  0.00     0.261 C 
BRANCH   4   5
ATOM      5  O   UNL     1       2.992   1.363  -0.205  1.00  0.00    -0.460 OA
BRANCH   5   6
ATOM      6  C   UNL     1       2.463   0.624  -1.203  1.00  0.00     0.330 C 
ATOM      7  O   UNL     1       1.283   0.768  -1.517  1.00  0.00    -0.247 OA
BRANCH   6   8
ATOM      8  C   UNL     1       3.218  -0.457  -1.857  1.00  0.00     0.094 C 
ATOM      9  C   UNL     1       4.513  -0.468  -2.192  1.00  0.00     0.016 C 
BRANCH   9  10
ATOM     10  C   UNL     1       5.187  -1.637  -2.751  1.00  0.00    -0.021 A 
ATOM     11  C   UNL     1       4.854  -2.116  -4.024  1.00  0.00     0.012 A 
ATOM     12  C   UNL     1       6.246  -2.215  -2.039  1.00  0.00     0.058 A 
ATOM     13  C   UNL     1       5.611  -3.131  -4.613  1.00  0.00     0.051 A 
ATOM     14  C   UNL     1       6.993  -3.221  -2.634  1.00  0.00     0.157 A 
ATOM     15  C   UNL     1       6.692  -3.663  -3.919  1.00  0.00     0.157 A 
BRANCH  14  16
ATOM     16  O   UNL     1       8.055  -3.750  -1.959  1.00  0.00    -0.504 OA
ATOM     17  H   UNL     1       8.567  -4.430  -2.350  1.00  0.00     0.293 HD
ENDBRANCH  14  16
BRANCH  15  18
ATOM     18  O   UNL     1       7.507  -4.609  -4.476  1.00  0.00    -0.504 OA
ATOM     19  H   UNL     1       7.333  -4.928  -5.339  1.00  0.00     0.293 HD
ENDBRANCH  15  18
ENDBRANCH   9  10
ENDBRANCH   6   8
ENDBRANCH   5   6
ENDBRANCH   4   5
ENDBRANCH   3   4
ENDBRANCH   2   3
ENDBRANCH   1   2
BRANCH   1  20
ATOM     20  C   UNL     1       2.885  -2.325   2.591  1.00  0.00     0.261 C 
BRANCH  20  21
ATOM     21  O   UNL     1       3.294  -1.437   3.641  1.00  0.00    -0.460 OA
BRANCH  21  22
ATOM     22  C   UNL     1       4.604  -1.540   3.976  1.00  0.00     0.338 C 
ATOM     23  O   UNL     1       5.388  -2.400   3.606  1.00  0.00    -0.246 OA
BRANCH  22  24
ATOM     24  C   UNL     1       5.025  -0.315   4.688  1.00  0.00     0.060 A 
ATOM     25  C   UNL     1       6.291   0.200   4.382  1.00  0.00     0.016 A 
ATOM     26  C   UNL     1       4.211   0.318   5.632  1.00  0.00     0.016 A 
ATOM     27  C   UNL     1       6.786   1.295   5.080  1.00  0.00     0.010 A 
ATOM     28  C   UNL     1       4.710   1.416   6.338  1.00  0.00     0.010 A 
ATOM     29  C   UNL     1       6.023   1.864   6.106  1.00  0.00    -0.014 A 
BRANCH  29  30
ATOM     30  C   UNL     1       6.709   2.725   7.098  1.00  0.00     0.031 A 
ATOM     31  C   UNL     1       7.139   2.092   8.396  1.00  0.00     0.074 A 
ATOM     32  C   UNL     1       7.013   4.005   6.821  1.00  0.00     0.049 A 
ATOM     33  N   UNL     1       7.770   2.618   9.412  1.00  0.00    -0.248 NA
ATOM     34  C   UNL     1       6.804   0.668   8.569  1.00  0.00     0.031 C 
ATOM     35  C   UNL     1       6.694   4.698   5.574  1.00  0.00     0.029 A 
ATOM     36  N   UNL     1       7.671   4.945   7.571  1.00  0.00    -0.354 N 
ATOM     37  C   UNL     1       7.898   1.594  10.347  1.00  0.00     0.074 A 
ATOM     38  C   UNL     1       7.236   0.433   9.797  1.00  0.00     0.031 C 
ATOM     39  C   UNL     1       7.165   5.955   5.643  1.00  0.00     0.029 A 
ATOM     40  C   UNL     1       7.786   6.166   6.949  1.00  0.00     0.049 A 
ATOM     41  H   UNL     1       8.029   4.763   8.470  1.00  0.00     0.167 HD
ATOM     42  C   UNL     1       8.523   1.619  11.549  1.00  0.00     0.034 A 
ATOM     43  C   UNL     1       8.321   7.320   7.396  1.00  0.00     0.034 A 
ATOM     44  C   UNL     1       9.174   2.791  12.078  1.00  0.00     0.049 A 
ATOM     45  C   UNL     1       8.945   7.344   8.772  1.00  0.00     0.074 A 
ATOM     46  C   UNL     1       9.848   2.935  13.278  1.00  0.00     0.029 A 
ATOM     47  N   UNL     1       9.224   4.027  11.444  1.00  0.00    -0.354 N 
ATOM     48  N   UNL     1       9.065   6.371   9.647  1.00  0.00    -0.248 NA
ATOM     49  C   UNL     1       9.521   8.620   9.212  1.00  0.00     0.031 C 
ATOM     50  C   UNL     1      10.229   4.275  13.406  1.00  0.00     0.029 A 
ATOM     51  C   UNL     1       9.886   4.946  12.242  1.00  0.00     0.049 A 
ATOM     52  H   UNL     1       8.845   4.221  10.556  1.00  0.00     0.167 HD
ATOM     53  C   UNL     1       9.773   6.908  10.720  1.00  0.00     0.074 A 
ATOM     54  C   UNL     1      10.061   8.285  10.374  1.00  0.00     0.031 C 
ATOM     55  C   UNL     1      10.161   6.319  11.882  1.00  0.00     0.034 A 
BRANCH  42  56
ATOM     56  C   UNL     1       8.467   0.363  12.388  1.00  0.00     0.023 A 
ATOM     57  C   UNL     1       9.037  -0.850  11.959  1.00  0.00     0.031 A 
ATOM     58  C   UNL     1       7.793   0.369  13.621  1.00  0.00     0.131 A 
ATOM     59  C   UNL     1       8.854  -2.017  12.717  1.00  0.00     0.055 A 
ATOM     60  C   UNL     1       7.692  -0.775  14.414  1.00  0.00     0.041 A 
ATOM     61  F   UNL     1       7.201   1.488  14.071  1.00  0.00    -0.206 F 
ATOM     62  C   UNL     1       8.211  -1.982  13.956  1.00  0.00     0.022 A 
BRANCH  59  63
ATOM     63  S   UNL     1       9.328  -3.611  11.989  1.00  0.00     0.124 S 
ATOM     64  O   UNL     1       8.521  -3.629  10.771  1.00  0.00    -0.237 OA
ATOM     65  O   UNL     1      10.766  -3.457  11.803  1.00  0.00    -0.237 OA
ATOM     66  O   UNL     1       8.930  -4.583  13.005  1.00  0.00    -0.744 OA
ENDBRANCH  59  63
ENDBRANCH  42  56
BRANCH  43  67
ATOM     67  C   UNL     1       8.280   8.552   6.555  1.00  0.00     0.023 A 
ATOM     68  C   UNL     1       9.461   9.184   6.133  1.00  0.00     0.031 A 
ATOM     69  C   UNL     1       7.055   9.153   6.215  1.00  0.00     0.131 A 
ATOM     70  C   UNL     1       9.393  10.405   5.443  1.00  0.00     0.055 A 
ATOM     71  C   UNL     1       6.992  10.336   5.475  1.00  0.00     0.041 A 
ATOM     72  F   UNL     1       5.895   8.595   6.595  1.00  0.00    -0.206 F 
ATOM     73  C   UNL     1       8.167  10.977   5.098  1.00  0.00     0.022 A 
BRANCH  70  74
ATOM     74  S   UNL     1      10.938  11.290   5.090  1.00  0.00     0.124 S 
ATOM     75  O   UNL     1      11.493  11.460   6.427  1.00  0.00    -0.237 OA
ATOM     76  O   UNL     1      11.633  10.348   4.220  1.00  0.00    -0.237 OA
ATOM     77  O   UNL     1      10.485  12.518   4.439  1.00  0.00    -0.744 OA
ENDBRANCH  70  74
ENDBRANCH  43  67
BRANCH  55  78
ATOM     78  C   UNL     1      11.000   7.147  12.829  1.00  0.00     0.023 A 
ATOM     79  C   UNL     1      10.508   8.315  13.437  1.00  0.00     0.031 A 
ATOM     80  C   UNL     1      12.328   6.771  13.102  1.00  0.00     0.131 A 
ATOM     81  C   UNL     1      11.361   9.107  14.220  1.00  0.00     0.055 A 
ATOM     82  C   UNL     1      13.147   7.520  13.948  1.00  0.00     0.041 A 
ATOM     83  F   UNL     1      12.855   5.667  12.549  1.00  0.00    -0.206 F 
ATOM     84  C   UNL     1      12.671   8.707  14.496  1.00  0.00     0.022 A 
BRANCH  81  85
ATOM     85  S   UNL     1      10.779  10.739  14.759  1.00  0.00     0.124 S 
ATOM     86  O   UNL     1      10.405  11.360  13.492  1.00  0.00    -0.237 OA
ATOM     87  O   UNL     1       9.677  10.397  15.652  1.00  0.00    -0.237 OA
ATOM     88  O   UNL     1      11.950  11.321  15.413  1.00  0.00    -0.744 OA
ENDBRANCH  81  85
ENDBRANCH  55  78
ENDBRANCH  29  30
ENDBRANCH  22  24
ENDBRANCH  21  22
ENDBRANCH  20  21
ENDBRANCH   1  20
TORSDOF 20
