REMARK SMILES CC[NH2+][C@@]1(C(=O)OCCOCCOC(=O)c2ccc(-c3c4nc(c(-c5cc(S(=O)(=O)[O-])ccc5F)c5ccc([nH]5)c(-c5cc(S(=O)(=O)[O-])ccc5F)c5nc(c(-c6cc(S(=O)(=O)[O-])ccc6F)c6ccc3[nH]6)C=C5)C=C4)cc2)CC[C@H](Sc2nccc(=O)[nH]2)C1
REMARK SMILES IDX 11 1 10 2 9 3 8 4 7 5 5 6 6 7 4 8 79 9 90 10 80 11 81 12
REMARK SMILES IDX 3 13 2 16 1 17 82 18 83 19 84 20 89 21 85 22 87 23 86 25
REMARK SMILES IDX 88 26 12 27 13 28 14 29 15 30 16 31 17 32 78 33 18 34 77 35
REMARK SMILES IDX 19 36 20 37 21 38 71 39 22 40 76 41 70 42 72 43 23 44 75 45
REMARK SMILES IDX 69 46 68 47 24 49 56 50 36 51 55 52 37 53 40 54 54 55 73 56
REMARK SMILES IDX 38 57 39 58 53 60 74 61 41 62 25 63 26 64 34 65 27 66 33 67
REMARK SMILES IDX 35 68 32 69 28 70 29 71 30 72 31 73 57 74 58 75 66 76 59 77
REMARK SMILES IDX 65 78 67 79 64 80 60 81 61 82 62 83 63 84 42 85 43 86 51 87
REMARK SMILES IDX 44 88 50 89 52 90 49 91 45 92 46 93 47 94 48 95
REMARK H PARENT 3 14 3 15 89 24 72 48 40 59
REMARK Flexibility Score: inf
ROOT
ATOM      1  C   UNL     1       3.106  -1.214   5.183  1.00  0.00     0.202 C 
ENDROOT
BRANCH   1   2
ATOM      2  O   UNL     1       2.617  -0.607   6.377  1.00  0.00    -0.374 OA
BRANCH   2   3
ATOM      3  C   UNL     1       1.613  -1.317   7.107  1.00  0.00     0.202 C 
BRANCH   3   4
ATOM      4  C   UNL     1       0.205  -1.269   6.516  1.00  0.00     0.261 C 
BRANCH   4   5
ATOM      5  O   UNL     1       0.179  -1.977   5.265  1.00  0.00    -0.459 OA
BRANCH   5   6
ATOM      6  C   UNL     1      -0.396  -1.329   4.223  1.00  0.00     0.368 C 
ATOM      7  O   UNL     1      -1.010  -0.271   4.328  1.00  0.00    -0.245 OA
BRANCH   6   8
ATOM      8  C   UNL     1      -0.182  -2.071   2.855  1.00  0.00     0.195 C 
ATOM      9  C   UNL     1      -1.540  -2.682   2.487  1.00  0.00     0.082 C 
ATOM     10  C   UNL     1       0.722  -3.322   2.876  1.00  0.00     0.096 C 
ATOM     11  C   UNL     1      -1.593  -3.952   3.345  1.00  0.00     0.022 C 
ATOM     12  C   UNL     1      -0.164  -4.506   3.317  1.00  0.00     0.062 C 
BRANCH   8  13
ATOM     13  N   UNL     1       0.396  -1.041   1.967  1.00  0.00    -0.332 N 
ATOM     14  H   UNL     1       0.015  -0.142   2.262  1.00  0.00     0.347 HD
ATOM     15  H   UNL     1       1.403  -1.162   2.071  1.00  0.00     0.347 HD
BRANCH  13  16
ATOM     16  C   UNL     1       0.176  -1.148   0.540  1.00  0.00     0.257 C 
ATOM     17  C   UNL     1       0.898   0.006  -0.147  1.00  0.00     0.071 C 
ENDBRANCH  13  16
ENDBRANCH   8  13
BRANCH  12  18
ATOM     18  S   UNL     1       0.437  -5.140   4.906  1.00  0.00    -0.084 SA
BRANCH  18  19
ATOM     19  C   UNL     1      -0.528  -6.547   5.176  1.00  0.00     0.168 A 
ATOM     20  N   UNL     1      -1.444  -6.977   4.375  1.00  0.00    -0.233 NA
ATOM     21  N   UNL     1      -0.182  -7.147   6.343  1.00  0.00    -0.301 N 
ATOM     22  C   UNL     1      -2.107  -8.109   4.787  1.00  0.00     0.120 A 
ATOM     23  C   UNL     1      -0.744  -8.313   6.752  1.00  0.00     0.251 A 
ATOM     24  H   UNL     1       0.499  -6.721   6.912  1.00  0.00     0.172 HD
ATOM     25  C   UNL     1      -1.838  -8.799   5.901  1.00  0.00     0.091 A 
ATOM     26  O   UNL     1      -0.355  -8.935   7.729  1.00  0.00    -0.269 OA
ENDBRANCH  18  19
ENDBRANCH  12  18
ENDBRANCH   6   8
ENDBRANCH   5   6
ENDBRANCH   4   5
ENDBRANCH   3   4
ENDBRANCH   2   3
ENDBRANCH   1   2
BRANCH   1  27
ATOM     27  C   UNL     1       4.124  -2.351   5.348  1.00  0.00     0.261 C 
BRANCH  27  28
ATOM     28  O   UNL     1       3.602  -3.483   6.066  1.00  0.00    -0.460 OA
BRANCH  28  29
ATOM     29  C   UNL     1       4.064  -3.597   7.335  1.00  0.00     0.338 C 
ATOM     30  O   UNL     1       4.906  -2.885   7.871  1.00  0.00    -0.246 OA
BRANCH  29  31
ATOM     31  C   UNL     1       3.281  -4.593   8.093  1.00  0.00     0.060 A 
ATOM     32  C   UNL     1       2.793  -4.198   9.345  1.00  0.00     0.016 A 
ATOM     33  C   UNL     1       3.105  -5.906   7.650  1.00  0.00     0.016 A 
ATOM     34  C   UNL     1       2.192  -5.129  10.189  1.00  0.00     0.010 A 
ATOM     35  C   UNL     1       2.499  -6.841   8.502  1.00  0.00     0.010 A 
ATOM     36  C   UNL     1       2.083  -6.469   9.796  1.00  0.00    -0.014 A 
BRANCH  36  37
ATOM     37  C   UNL     1       1.743  -7.489  10.826  1.00  0.00     0.031 A 
ATOM     38  C   UNL     1       2.849  -8.363  11.367  1.00  0.00     0.074 A 
ATOM     39  C   UNL     1       0.503  -7.576  11.345  1.00  0.00     0.049 A 
ATOM     40  N   UNL     1       2.811  -9.274  12.305  1.00  0.00    -0.248 NA
ATOM     41  C   UNL     1       4.177  -8.184  10.761  1.00  0.00     0.031 C 
ATOM     42  C   UNL     1      -0.647  -6.773  10.930  1.00  0.00     0.029 A 
ATOM     43  N   UNL     1       0.008  -8.373  12.349  1.00  0.00    -0.354 N 
ATOM     44  C   UNL     1       4.104  -9.781  12.393  1.00  0.00     0.074 A 
ATOM     45  C   UNL     1       4.886  -9.117  11.374  1.00  0.00     0.031 C 
ATOM     46  C   UNL     1      -1.710  -7.110  11.681  1.00  0.00     0.029 A 
ATOM     47  C   UNL     1      -1.327  -8.170  12.612  1.00  0.00     0.049 A 
ATOM     48  H   UNL     1       0.559  -9.028  12.835  1.00  0.00     0.167 HD
ATOM     49  C   UNL     1       4.606 -10.698  13.258  1.00  0.00     0.034 A 
ATOM     50  C   UNL     1      -2.145  -8.775  13.497  1.00  0.00     0.034 A 
ATOM     51  C   UNL     1       3.821 -11.352  14.275  1.00  0.00     0.049 A 
ATOM     52  C   UNL     1      -1.579  -9.833  14.416  1.00  0.00     0.074 A 
ATOM     53  C   UNL     1       4.229 -12.283  15.215  1.00  0.00     0.029 A 
ATOM     54  N   UNL     1       2.462 -11.150  14.483  1.00  0.00    -0.354 N 
ATOM     55  N   UNL     1      -0.348 -10.285  14.502  1.00  0.00    -0.248 NA
ATOM     56  C   UNL     1      -2.512 -10.448  15.368  1.00  0.00     0.031 C 
ATOM     57  C   UNL     1       3.107 -12.691  15.945  1.00  0.00     0.029 A 
ATOM     58  C   UNL     1       2.011 -11.958  15.516  1.00  0.00     0.049 A 
ATOM     59  H   UNL     1       1.901 -10.524  13.971  1.00  0.00     0.167 HD
ATOM     60  C   UNL     1      -0.357 -11.217  15.538  1.00  0.00     0.074 A 
ATOM     61  C   UNL     1      -1.708 -11.242  16.060  1.00  0.00     0.031 C 
ATOM     62  C   UNL     1       0.657 -11.984  16.017  1.00  0.00     0.034 A 
BRANCH  49  63
ATOM     63  C   UNL     1       6.062 -11.069  13.099  1.00  0.00     0.023 A 
ATOM     64  C   UNL     1       7.091 -10.128  13.282  1.00  0.00     0.031 A 
ATOM     65  C   UNL     1       6.423 -12.370  12.705  1.00  0.00     0.131 A 
ATOM     66  C   UNL     1       8.419 -10.475  12.989  1.00  0.00     0.055 A 
ATOM     67  C   UNL     1       7.756 -12.733  12.498  1.00  0.00     0.041 A 
ATOM     68  F   UNL     1       5.485 -13.305  12.492  1.00  0.00    -0.206 F 
ATOM     69  C   UNL     1       8.761 -11.779  12.623  1.00  0.00     0.022 A 
BRANCH  66  70
ATOM     70  S   UNL     1       9.668  -9.161  12.938  1.00  0.00     0.124 S 
ATOM     71  O   UNL     1       9.124  -8.277  11.909  1.00  0.00    -0.237 OA
ATOM     72  O   UNL     1       9.643  -8.647  14.302  1.00  0.00    -0.237 OA
ATOM     73  O   UNL     1      10.892  -9.866  12.559  1.00  0.00    -0.744 OA
ENDBRANCH  66  70
ENDBRANCH  49  63
BRANCH  50  74
ATOM     74  C   UNL     1      -3.595  -8.424  13.556  1.00  0.00     0.023 A 
ATOM     75  C   UNL     1      -4.164  -7.857  14.709  1.00  0.00     0.031 A 
ATOM     76  C   UNL     1      -4.450  -8.721  12.480  1.00  0.00     0.131 A 
ATOM     77  C   UNL     1      -5.552  -7.652  14.778  1.00  0.00     0.055 A 
ATOM     78  C   UNL     1      -5.822  -8.467  12.534  1.00  0.00     0.041 A 
ATOM     79  F   UNL     1      -3.962  -9.265  11.354  1.00  0.00    -0.206 F 
ATOM     80  C   UNL     1      -6.383  -7.943  13.694  1.00  0.00     0.022 A 
BRANCH  77  81
ATOM     81  S   UNL     1      -6.273  -7.081  16.343  1.00  0.00     0.124 S 
ATOM     82  O   UNL     1      -5.856  -8.132  17.264  1.00  0.00    -0.237 OA
ATOM     83  O   UNL     1      -5.630  -5.783  16.516  1.00  0.00    -0.237 OA
ATOM     84  O   UNL     1      -7.705  -7.031  16.059  1.00  0.00    -0.744 OA
ENDBRANCH  77  81
ENDBRANCH  50  74
BRANCH  62  85
ATOM     85  C   UNL     1       0.342 -12.882  17.191  1.00  0.00     0.023 A 
ATOM     86  C   UNL     1      -0.565 -13.952  17.082  1.00  0.00     0.031 A 
ATOM     87  C   UNL     1       0.934 -12.645  18.444  1.00  0.00     0.131 A 
ATOM     88  C   UNL     1      -0.907 -14.698  18.221  1.00  0.00     0.055 A 
ATOM     89  C   UNL     1       0.641 -13.433  19.558  1.00  0.00     0.041 A 
ATOM     90  F   UNL     1       1.806 -11.637  18.609  1.00  0.00    -0.206 F 
ATOM     91  C   UNL     1      -0.297 -14.456  19.454  1.00  0.00     0.022 A 
BRANCH  88  92
ATOM     92  S   UNL     1      -2.249 -15.912  18.095  1.00  0.00     0.124 S 
ATOM     93  O   UNL     1      -3.351 -15.097  17.595  1.00  0.00    -0.237 OA
ATOM     94  O   UNL     1      -1.700 -16.886  17.157  1.00  0.00    -0.237 OA
ATOM     95  O   UNL     1      -2.406 -16.394  19.466  1.00  0.00    -0.744 OA
ENDBRANCH  88  92
ENDBRANCH  62  85
ENDBRANCH  36  37
ENDBRANCH  29  31
ENDBRANCH  28  29
ENDBRANCH  27  28
ENDBRANCH   1  27
TORSDOF 21
