REMARK SMILES O=Cc1ccc2c(c1)C=C(C(=O)OCCOCCOC(=O)c1ccc(-c3c4nc(c(-c5cc(S(=O)(=O)[O-])ccc5F)c5ccc([nH]5)c(-c5cc(S(=O)(=O)[O-])ccc5F)c5nc(c(-c6cc(S(=O)(=O)[O-])ccc6F)c6ccc3[nH]6)C=C5)C=C4)cc1)[C@H](C(F)(F)F)O2
REMARK SMILES IDX 17 1 16 2 15 3 14 4 13 5 11 6 12 7 10 8 3 9 4 10 8 11 5 12
REMARK SMILES IDX 7 13 6 14 9 15 90 16 85 17 2 18 1 19 86 20 87 21 88 22 89 23
REMARK SMILES IDX 18 24 19 25 20 26 21 27 22 28 23 29 84 30 24 31 83 32 25 33
REMARK SMILES IDX 26 34 27 35 77 36 28 37 82 38 76 39 78 40 29 41 81 42 75 43
REMARK SMILES IDX 74 44 30 46 62 47 42 48 61 49 43 50 46 51 60 52 79 53 44 54
REMARK SMILES IDX 45 55 59 57 80 58 47 59 31 60 32 61 40 62 33 63 39 64 41 65
REMARK SMILES IDX 38 66 34 67 35 68 36 69 37 70 63 71 64 72 72 73 65 74 71 75
REMARK SMILES IDX 73 76 70 77 66 78 67 79 68 80 69 81 48 82 49 83 57 84 50 85
REMARK SMILES IDX 56 86 58 87 55 88 51 89 52 90 53 91 54 92
REMARK H PARENT 78 45 46 56
REMARK Flexibility Score: inf
ROOT
ATOM      1  C   UNL     1       6.872  -7.576   0.100  1.00  0.00     0.202 C 
ENDROOT
BRANCH   1   2
ATOM      2  O   UNL     1       8.268  -7.832   0.219  1.00  0.00    -0.374 OA
BRANCH   2   3
ATOM      3  C   UNL     1       9.058  -6.978   1.041  1.00  0.00     0.202 C 
BRANCH   3   4
ATOM      4  C   UNL     1       9.348  -5.558   0.544  1.00  0.00     0.261 C 
BRANCH   4   5
ATOM      5  O   UNL     1       8.149  -4.842   0.214  1.00  0.00    -0.460 OA
BRANCH   5   6
ATOM      6  C   UNL     1       7.987  -4.586  -1.106  1.00  0.00     0.338 C 
ATOM      7  O   UNL     1       8.798  -4.795  -1.993  1.00  0.00    -0.246 OA
BRANCH   6   8
ATOM      8  C   UNL     1       6.617  -4.119  -1.382  1.00  0.00     0.087 C 
ATOM      9  C   UNL     1       2.906  -1.111  -0.819  1.00  0.00     0.015 A 
ATOM     10  C   UNL     1       2.478  -1.403  -2.119  1.00  0.00     0.015 A 
ATOM     11  C   UNL     1       4.053  -1.714  -0.288  1.00  0.00     0.023 A 
ATOM     12  C   UNL     1       3.196  -2.310  -2.896  1.00  0.00     0.048 A 
ATOM     13  C   UNL     1       4.781  -2.615  -1.072  1.00  0.00     0.018 A 
ATOM     14  C   UNL     1       4.332  -2.918  -2.367  1.00  0.00     0.128 A 
ATOM     15  C   UNL     1       6.070  -3.148  -0.631  1.00  0.00     0.027 C 
ATOM     16  O   UNL     1       5.016  -3.760  -3.205  1.00  0.00    -0.475 OA
ATOM     17  C   UNL     1       5.838  -4.743  -2.520  1.00  0.00     0.316 C 
BRANCH   9  18
ATOM     18  C   UNL     1       2.161  -0.124  -0.011  1.00  0.00     0.260 C 
ATOM     19  O   UNL     1       1.119   0.383  -0.410  1.00  0.00    -0.298 OA
ENDBRANCH   9  18
BRANCH  17  20
ATOM     20  C   UNL     1       6.590  -5.569  -3.578  1.00  0.00     0.430 C 
ATOM     21  F   UNL     1       7.192  -6.649  -3.026  1.00  0.00    -0.167 F 
ATOM     22  F   UNL     1       5.707  -6.066  -4.488  1.00  0.00    -0.167 F 
ATOM     23  F   UNL     1       7.501  -4.857  -4.269  1.00  0.00    -0.167 F 
ENDBRANCH  17  20
ENDBRANCH   6   8
ENDBRANCH   5   6
ENDBRANCH   4   5
ENDBRANCH   3   4
ENDBRANCH   2   3
ENDBRANCH   1   2
BRANCH   1  24
ATOM     24  C   UNL     1       5.954  -7.795   1.311  1.00  0.00     0.261 C 
BRANCH  24  25
ATOM     25  O   UNL     1       6.317  -7.021   2.463  1.00  0.00    -0.460 OA
BRANCH  25  26
ATOM     26  C   UNL     1       6.878  -7.759   3.456  1.00  0.00     0.338 C 
ATOM     27  O   UNL     1       7.063  -8.965   3.454  1.00  0.00    -0.246 OA
BRANCH  26  28
ATOM     28  C   UNL     1       7.436  -6.879   4.498  1.00  0.00     0.060 A 
ATOM     29  C   UNL     1       8.786  -7.055   4.824  1.00  0.00     0.016 A 
ATOM     30  C   UNL     1       6.638  -5.986   5.214  1.00  0.00     0.016 A 
ATOM     31  C   UNL     1       9.329  -6.391   5.918  1.00  0.00     0.010 A 
ATOM     32  C   UNL     1       7.186  -5.320   6.316  1.00  0.00     0.010 A 
ATOM     33  C   UNL     1       8.519  -5.560   6.702  1.00  0.00    -0.014 A 
BRANCH  33  34
ATOM     34  C   UNL     1       9.033  -5.099   8.016  1.00  0.00     0.031 A 
ATOM     35  C   UNL     1       8.552  -5.785   9.267  1.00  0.00     0.074 A 
ATOM     36  C   UNL     1       9.966  -4.134   8.085  1.00  0.00     0.049 A 
ATOM     37  N   UNL     1       8.877  -5.565  10.514  1.00  0.00    -0.248 NA
ATOM     38  C   UNL     1       7.563  -6.859   9.084  1.00  0.00     0.031 C 
ATOM     39  C   UNL     1      10.532  -3.427   6.936  1.00  0.00     0.029 A 
ATOM     40  N   UNL     1      10.604  -3.583   9.167  1.00  0.00    -0.354 N 
ATOM     41  C   UNL     1       8.125  -6.462  11.267  1.00  0.00     0.074 A 
ATOM     42  C   UNL     1       7.296  -7.196  10.335  1.00  0.00     0.031 C 
ATOM     43  C   UNL     1      11.433  -2.534   7.377  1.00  0.00     0.029 A 
ATOM     44  C   UNL     1      11.480  -2.577   8.837  1.00  0.00     0.049 A 
ATOM     45  H   UNL     1      10.450  -3.881  10.093  1.00  0.00     0.167 HD
ATOM     46  C   UNL     1       8.136  -6.660  12.609  1.00  0.00     0.034 A 
ATOM     47  C   UNL     1      12.217  -1.768   9.623  1.00  0.00     0.034 A 
ATOM     48  C   UNL     1       8.972  -5.913  13.518  1.00  0.00     0.049 A 
ATOM     49  C   UNL     1      12.171  -1.965  11.118  1.00  0.00     0.074 A 
ATOM     50  C   UNL     1       9.091  -6.052  14.890  1.00  0.00     0.029 A 
ATOM     51  N   UNL     1       9.819  -4.873  13.153  1.00  0.00    -0.354 N 
ATOM     52  N   UNL     1      11.477  -2.834  11.818  1.00  0.00    -0.248 NA
ATOM     53  C   UNL     1      13.022  -1.084  11.927  1.00  0.00     0.031 C 
ATOM     54  C   UNL     1       9.934  -5.041  15.362  1.00  0.00     0.029 A 
ATOM     55  C   UNL     1      10.427  -4.333  14.277  1.00  0.00     0.049 A 
ATOM     56  H   UNL     1       9.966  -4.564  12.230  1.00  0.00     0.167 HD
ATOM     57  C   UNL     1      11.831  -2.622  13.149  1.00  0.00     0.074 A 
ATOM     58  C   UNL     1      12.814  -1.557  13.147  1.00  0.00     0.031 C 
ATOM     59  C   UNL     1      11.391  -3.255  14.268  1.00  0.00     0.034 A 
BRANCH  46  60
ATOM     60  C   UNL     1       7.166  -7.676  13.170  1.00  0.00     0.023 A 
ATOM     61  C   UNL     1       7.218  -9.037  12.817  1.00  0.00     0.031 A 
ATOM     62  C   UNL     1       6.143  -7.266  14.044  1.00  0.00     0.131 A 
ATOM     63  C   UNL     1       6.219  -9.916  13.263  1.00  0.00     0.055 A 
ATOM     64  C   UNL     1       5.207  -8.165  14.559  1.00  0.00     0.041 A 
ATOM     65  F   UNL     1       6.022  -5.977  14.399  1.00  0.00    -0.206 F 
ATOM     66  C   UNL     1       5.230  -9.495  14.155  1.00  0.00     0.022 A 
BRANCH  63  67
ATOM     67  S   UNL     1       6.128 -11.572  12.526  1.00  0.00     0.124 S 
ATOM     68  O   UNL     1       6.017 -11.255  11.104  1.00  0.00    -0.237 OA
ATOM     69  O   UNL     1       7.385 -12.175  12.951  1.00  0.00    -0.237 OA
ATOM     70  O   UNL     1       4.924 -12.147  13.123  1.00  0.00    -0.744 OA
ENDBRANCH  63  67
ENDBRANCH  46  60
BRANCH  47  71
ATOM     71  C   UNL     1      13.027  -0.672   9.016  1.00  0.00     0.023 A 
ATOM     72  C   UNL     1      14.427  -0.648   9.117  1.00  0.00     0.031 A 
ATOM     73  C   UNL     1      12.396   0.391   8.344  1.00  0.00     0.131 A 
ATOM     74  C   UNL     1      15.146   0.437   8.589  1.00  0.00     0.055 A 
ATOM     75  C   UNL     1      13.120   1.438   7.772  1.00  0.00     0.041 A 
ATOM     76  F   UNL     1      11.060   0.418   8.218  1.00  0.00    -0.206 F 
ATOM     77  C   UNL     1      14.504   1.470   7.903  1.00  0.00     0.022 A 
BRANCH  74  78
ATOM     78  S   UNL     1      16.935   0.518   8.877  1.00  0.00     0.124 S 
ATOM     79  O   UNL     1      17.002   0.520  10.334  1.00  0.00    -0.237 OA
ATOM     80  O   UNL     1      17.404  -0.695   8.214  1.00  0.00    -0.237 OA
ATOM     81  O   UNL     1      17.327   1.769   8.231  1.00  0.00    -0.744 OA
ENDBRANCH  74  78
ENDBRANCH  47  71
BRANCH  59  82
ATOM     82  C   UNL     1      12.009  -2.837  15.584  1.00  0.00     0.023 A 
ATOM     83  C   UNL     1      11.852  -1.539  16.102  1.00  0.00     0.031 A 
ATOM     84  C   UNL     1      12.790  -3.748  16.319  1.00  0.00     0.131 A 
ATOM     85  C   UNL     1      12.525  -1.168  17.276  1.00  0.00     0.055 A 
ATOM     86  C   UNL     1      13.393  -3.395  17.528  1.00  0.00     0.041 A 
ATOM     87  F   UNL     1      12.982  -5.000  15.874  1.00  0.00    -0.206 F 
ATOM     88  C   UNL     1      13.277  -2.093  18.003  1.00  0.00     0.022 A 
BRANCH  85  89
ATOM     89  S   UNL     1      12.512   0.578  17.771  1.00  0.00     0.124 S 
ATOM     90  O   UNL     1      13.043   1.233  16.580  1.00  0.00    -0.237 OA
ATOM     91  O   UNL     1      11.099   0.812  18.051  1.00  0.00    -0.237 OA
ATOM     92  O   UNL     1      13.390   0.610  18.939  1.00  0.00    -0.744 OA
ENDBRANCH  85  89
ENDBRANCH  59  82
ENDBRANCH  33  34
ENDBRANCH  26  28
ENDBRANCH  25  26
ENDBRANCH  24  25
ENDBRANCH   1  24
TORSDOF 19
