REMARK SMILES CCC[NH2+][C@]1(C(=O)OCCOCCOC(=O)c2ccc(-c3c4nc(c(-c5cc(S(=O)(=O)[O-])ccc5F)c5ccc([nH]5)c(-c5cc(S(=O)(=O)[O-])ccc5F)c5nc(c(-c6cc(S(=O)(=O)[O-])ccc6F)c6ccc3[nH]6)C=C5)C=C4)cc2)CCC[C@@H]([N@@H+](C)[C@@H](C)C2CC2)C1
REMARK SMILES IDX 11 1 10 2 9 3 8 4 6 5 7 6 5 7 80 8 91 9 81 10 83 11 82 12
REMARK SMILES IDX 4 13 3 16 2 17 1 18 84 19 85 20 86 22 87 23 88 24 89 25
REMARK SMILES IDX 90 26 12 27 13 28 14 29 15 30 16 31 17 32 18 33 79 34 19 35
REMARK SMILES IDX 78 36 20 37 21 38 22 39 72 40 23 41 77 42 71 43 73 44 24 45
REMARK SMILES IDX 76 46 70 47 69 48 25 50 57 51 37 52 56 53 38 54 41 55 55 56
REMARK SMILES IDX 74 57 39 58 40 59 54 61 75 62 42 63 26 64 27 65 35 66 28 67
REMARK SMILES IDX 34 68 36 69 33 70 29 71 30 72 31 73 32 74 58 75 59 76 67 77
REMARK SMILES IDX 60 78 66 79 68 80 65 81 61 82 62 83 63 84 64 85 43 86 44 87
REMARK SMILES IDX 52 88 45 89 51 90 53 91 50 92 46 93 47 94 48 95 49 96
REMARK H PARENT 4 14 4 15 84 21 73 49 41 60
REMARK Flexibility Score: inf
ROOT
ATOM      1  O   UNL     1      -0.727  -0.845  -1.292  1.00  0.00    -0.374 OA
ENDROOT
BRANCH   1   2
ATOM      2  C   UNL     1      -1.139   0.113  -0.324  1.00  0.00     0.202 C 
BRANCH   2   3
ATOM      3  C   UNL     1      -0.444   1.483  -0.292  1.00  0.00     0.261 C 
BRANCH   3   4
ATOM      4  O   UNL     1      -0.462   2.238  -1.518  1.00  0.00    -0.459 OA
BRANCH   4   5
ATOM      5  C   UNL     1       0.644   2.018  -2.275  1.00  0.00     0.368 C 
ATOM      6  O   UNL     1       1.428   1.094  -2.055  1.00  0.00    -0.245 OA
BRANCH   5   7
ATOM      7  C   UNL     1       0.828   2.995  -3.469  1.00  0.00     0.200 C 
ATOM      8  C   UNL     1       0.390   4.445  -3.200  1.00  0.00     0.081 C 
ATOM      9  C   UNL     1       2.367   3.012  -3.605  1.00  0.00     0.146 C 
ATOM     10  C   UNL     1       0.873   5.400  -4.303  1.00  0.00     0.013 C 
ATOM     11  C   UNL     1       2.963   3.959  -4.631  1.00  0.00     0.190 C 
ATOM     12  C   UNL     1       2.400   5.384  -4.464  1.00  0.00     0.065 C 
BRANCH   7  13
ATOM     13  N   UNL     1       0.291   2.416  -4.731  1.00  0.00    -0.332 N 
ATOM     14  H   UNL     1       0.769   2.873  -5.508  1.00  0.00     0.347 HD
ATOM     15  H   UNL     1       0.457   1.413  -4.653  1.00  0.00     0.347 HD
BRANCH  13  16
ATOM     16  C   UNL     1      -1.144   2.542  -4.964  1.00  0.00     0.261 C 
BRANCH  16  17
ATOM     17  C   UNL     1      -1.495   2.100  -6.393  1.00  0.00     0.058 C 
ATOM     18  C   UNL     1      -1.317   0.613  -6.657  1.00  0.00     0.010 C 
ENDBRANCH  16  17
ENDBRANCH  13  16
ENDBRANCH   7  13
BRANCH  11  19
ATOM     19  N   UNL     1       4.436   3.774  -4.697  1.00  0.00    -0.332 N 
ATOM     20  C   UNL     1       4.998   4.409  -5.889  1.00  0.00     0.333 C 
ATOM     21  H   UNL     1       4.466   2.755  -4.740  1.00  0.00     0.348 HD
BRANCH  19  22
ATOM     22  C   UNL     1       5.305   3.966  -3.516  1.00  0.00     0.184 C 
ATOM     23  C   UNL     1       5.209   5.343  -2.844  1.00  0.00     0.075 C 
BRANCH  22  24
ATOM     24  C   UNL     1       5.246   2.878  -2.448  1.00  0.00     0.047 C 
ATOM     25  C   UNL     1       4.892   1.420  -2.675  1.00  0.00     0.010 C 
ATOM     26  C   UNL     1       6.313   1.798  -2.429  1.00  0.00     0.010 C 
ENDBRANCH  22  24
ENDBRANCH  19  22
ENDBRANCH  11  19
ENDBRANCH   5   7
ENDBRANCH   4   5
ENDBRANCH   3   4
ENDBRANCH   2   3
ENDBRANCH   1   2
BRANCH   1  27
ATOM     27  C   UNL     1      -1.138  -0.669  -2.648  1.00  0.00     0.202 C 
BRANCH  27  28
ATOM     28  C   UNL     1      -2.642  -0.641  -2.924  1.00  0.00     0.261 C 
BRANCH  28  29
ATOM     29  O   UNL     1      -3.235   0.577  -2.439  1.00  0.00    -0.460 OA
BRANCH  29  30
ATOM     30  C   UNL     1      -4.319   0.386  -1.645  1.00  0.00     0.338 C 
ATOM     31  O   UNL     1      -4.884  -0.671  -1.423  1.00  0.00    -0.246 OA
BRANCH  30  32
ATOM     32  C   UNL     1      -4.619   1.619  -0.896  1.00  0.00     0.060 A 
ATOM     33  C   UNL     1      -4.645   1.532   0.502  1.00  0.00     0.016 A 
ATOM     34  C   UNL     1      -4.984   2.797  -1.546  1.00  0.00     0.016 A 
ATOM     35  C   UNL     1      -5.109   2.604   1.259  1.00  0.00     0.010 A 
ATOM     36  C   UNL     1      -5.465   3.868  -0.785  1.00  0.00     0.010 A 
ATOM     37  C   UNL     1      -5.575   3.755   0.614  1.00  0.00    -0.014 A 
BRANCH  37  38
ATOM     38  C   UNL     1      -6.383   4.741   1.373  1.00  0.00     0.031 A 
ATOM     39  C   UNL     1      -7.883   4.632   1.302  1.00  0.00     0.074 A 
ATOM     40  C   UNL     1      -5.801   5.687   2.129  1.00  0.00     0.049 A 
ATOM     41  N   UNL     1      -8.800   5.432   1.781  1.00  0.00    -0.248 NA
ATOM     42  C   UNL     1      -8.418   3.459   0.592  1.00  0.00     0.031 C 
ATOM     43  C   UNL     1      -4.362   5.831   2.341  1.00  0.00     0.029 A 
ATOM     44  N   UNL     1      -6.354   6.711   2.855  1.00  0.00    -0.354 N 
ATOM     45  C   UNL     1     -10.019   4.863   1.427  1.00  0.00     0.074 A 
ATOM     46  C   UNL     1      -9.723   3.669   0.665  1.00  0.00     0.031 C 
ATOM     47  C   UNL     1      -4.144   6.897   3.131  1.00  0.00     0.029 A 
ATOM     48  C   UNL     1      -5.422   7.537   3.439  1.00  0.00     0.049 A 
ATOM     49  H   UNL     1      -7.325   6.843   2.949  1.00  0.00     0.167 HD
ATOM     50  C   UNL     1     -11.271   5.296   1.715  1.00  0.00     0.034 A 
ATOM     51  C   UNL     1      -5.586   8.696   4.110  1.00  0.00     0.034 A 
ATOM     52  C   UNL     1     -11.545   6.500   2.459  1.00  0.00     0.049 A 
ATOM     53  C   UNL     1      -6.986   9.227   4.316  1.00  0.00     0.074 A 
ATOM     54  C   UNL     1     -12.770   7.057   2.782  1.00  0.00     0.029 A 
ATOM     55  N   UNL     1     -10.574   7.337   2.993  1.00  0.00    -0.354 N 
ATOM     56  N   UNL     1      -8.132   8.705   3.940  1.00  0.00    -0.248 NA
ATOM     57  C   UNL     1      -7.117  10.501   5.037  1.00  0.00     0.031 C 
ATOM     58  C   UNL     1     -12.538   8.260   3.458  1.00  0.00     0.029 A 
ATOM     59  C   UNL     1     -11.171   8.416   3.623  1.00  0.00     0.049 A 
ATOM     60  H   UNL     1      -9.603   7.185   2.933  1.00  0.00     0.167 HD
ATOM     61  C   UNL     1      -9.117   9.565   4.419  1.00  0.00     0.074 A 
ATOM     62  C   UNL     1      -8.433  10.641   5.105  1.00  0.00     0.031 C 
ATOM     63  C   UNL     1     -10.467   9.470   4.313  1.00  0.00     0.034 A 
BRANCH  50  64
ATOM     64  C   UNL     1     -12.424   4.491   1.169  1.00  0.00     0.023 A 
ATOM     65  C   UNL     1     -12.671   3.173   1.591  1.00  0.00     0.031 A 
ATOM     66  C   UNL     1     -13.265   5.035   0.182  1.00  0.00     0.131 A 
ATOM     67  C   UNL     1     -13.688   2.422   0.982  1.00  0.00     0.055 A 
ATOM     68  C   UNL     1     -14.324   4.309  -0.365  1.00  0.00     0.041 A 
ATOM     69  F   UNL     1     -13.062   6.280  -0.279  1.00  0.00    -0.206 F 
ATOM     70  C   UNL     1     -14.532   2.989   0.024  1.00  0.00     0.022 A 
BRANCH  67  71
ATOM     71  S   UNL     1     -13.804   0.652   1.360  1.00  0.00     0.124 S 
ATOM     72  O   UNL     1     -12.491   0.173   0.934  1.00  0.00    -0.237 OA
ATOM     73  O   UNL     1     -14.050   0.651   2.797  1.00  0.00    -0.237 OA
ATOM     74  O   UNL     1     -14.922   0.198   0.535  1.00  0.00    -0.744 OA
ENDBRANCH  67  71
ENDBRANCH  50  64
BRANCH  51  75
ATOM     75  C   UNL     1      -4.404   9.467   4.592  1.00  0.00     0.023 A 
ATOM     76  C   UNL     1      -4.203   9.706   5.961  1.00  0.00     0.031 A 
ATOM     77  C   UNL     1      -3.490  10.032   3.684  1.00  0.00     0.131 A 
ATOM     78  C   UNL     1      -3.144  10.528   6.379  1.00  0.00     0.055 A 
ATOM     79  C   UNL     1      -2.407  10.803   4.108  1.00  0.00     0.041 A 
ATOM     80  F   UNL     1      -3.637   9.838   2.363  1.00  0.00    -0.206 F 
ATOM     81  C   UNL     1      -2.238  11.067   5.463  1.00  0.00     0.022 A 
BRANCH  78  82
ATOM     82  S   UNL     1      -3.025  10.964   8.136  1.00  0.00     0.124 S 
ATOM     83  O   UNL     1      -4.325  11.579   8.377  1.00  0.00    -0.237 OA
ATOM     84  O   UNL     1      -2.805   9.661   8.755  1.00  0.00    -0.237 OA
ATOM     85  O   UNL     1      -1.884  11.875   8.183  1.00  0.00    -0.744 OA
ENDBRANCH  78  82
ENDBRANCH  51  75
BRANCH  63  86
ATOM     86  C   UNL     1     -11.293  10.511   5.024  1.00  0.00     0.023 A 
ATOM     87  C   UNL     1     -11.362  11.841   4.577  1.00  0.00     0.031 A 
ATOM     88  C   UNL     1     -12.046  10.148   6.155  1.00  0.00     0.131 A 
ATOM     89  C   UNL     1     -12.143  12.771   5.281  1.00  0.00     0.055 A 
ATOM     90  C   UNL     1     -12.858  11.065   6.822  1.00  0.00     0.041 A 
ATOM     91  F   UNL     1     -12.015   8.889   6.620  1.00  0.00    -0.206 F 
ATOM     92  C   UNL     1     -12.904  12.387   6.390  1.00  0.00     0.022 A 
BRANCH  89  93
ATOM     93  S   UNL     1     -12.119  14.507   4.758  1.00  0.00     0.124 S 
ATOM     94  O   UNL     1     -10.717  14.863   4.950  1.00  0.00    -0.237 OA
ATOM     95  O   UNL     1     -12.570  14.424   3.373  1.00  0.00    -0.237 OA
ATOM     96  O   UNL     1     -13.055  15.156   5.674  1.00  0.00    -0.744 OA
ENDBRANCH  89  93
ENDBRANCH  63  86
ENDBRANCH  37  38
ENDBRANCH  30  32
ENDBRANCH  29  30
ENDBRANCH  28  29
ENDBRANCH  27  28
ENDBRANCH   1  27
TORSDOF 23
