REMARK SMILES O=C(OCCOCCOC(=O)c1ccccc1N[C@H]1SC(=O)N(Cc2ccccc2)C1=O)c1ccc(-c2c3nc(c(-c4cc(S(=O)(=O)[O-])ccc4F)c4ccc([nH]4)c(-c4cc(S(=O)(=O)[O-])ccc4F)c4nc(c(-c5cc(S(=O)(=O)[O-])ccc5F)c5ccc2[nH]5)C=C4)C=C3)cc1
REMARK SMILES IDX 7 1 6 2 5 3 4 4 3 5 2 6 1 7 33 8 34 9 95 10 35 11 94 12
REMARK SMILES IDX 36 13 37 14 38 15 88 16 39 17 93 18 87 19 89 20 40 21 92 22
REMARK SMILES IDX 86 23 85 24 41 26 73 27 53 28 72 29 54 30 57 31 71 32 90 33
REMARK SMILES IDX 55 34 56 35 70 37 91 38 58 39 42 40 43 41 51 42 44 43 50 44
REMARK SMILES IDX 52 45 49 46 45 47 46 48 47 49 48 50 74 51 75 52 83 53 76 54
REMARK SMILES IDX 82 55 84 56 81 57 77 58 78 59 79 60 80 61 59 62 60 63 68 64
REMARK SMILES IDX 61 65 67 66 69 67 66 68 62 69 63 70 64 71 65 72 8 73 9 74
REMARK SMILES IDX 10 75 11 76 12 77 13 78 17 79 14 80 16 81 15 82 18 83 19 85
REMARK SMILES IDX 20 86 31 87 21 88 23 89 32 90 22 91 24 92 25 93 26 94 30 95
REMARK SMILES IDX 27 96 29 97 28 98
REMARK H PARENT 89 25 57 36 18 84
REMARK Flexibility Score: inf
ROOT
ATOM      1  C   UNL     1      -0.401  -5.054   6.293  1.00  0.00     0.202 C 
ENDROOT
BRANCH   1   2
ATOM      2  O   UNL     1      -1.314  -4.751   5.234  1.00  0.00    -0.374 OA
BRANCH   2   3
ATOM      3  C   UNL     1      -2.445  -3.947   5.560  1.00  0.00     0.202 C 
BRANCH   3   4
ATOM      4  C   UNL     1      -3.632  -4.720   6.141  1.00  0.00     0.261 C 
BRANCH   4   5
ATOM      5  O   UNL     1      -3.241  -5.417   7.335  1.00  0.00    -0.460 OA
BRANCH   5   6
ATOM      6  C   UNL     1      -3.001  -6.742   7.473  1.00  0.00     0.338 C 
ATOM      7  O   UNL     1      -2.718  -7.177   8.589  1.00  0.00    -0.246 OA
BRANCH   6   8
ATOM      8  C   UNL     1      -3.037  -7.707   6.334  1.00  0.00     0.060 A 
ATOM      9  C   UNL     1      -2.701  -7.384   5.018  1.00  0.00     0.016 A 
ATOM     10  C   UNL     1      -3.301  -9.052   6.634  1.00  0.00     0.016 A 
ATOM     11  C   UNL     1      -2.622  -8.338   4.025  1.00  0.00     0.010 A 
ATOM     12  C   UNL     1      -3.196 -10.034   5.644  1.00  0.00     0.010 A 
ATOM     13  C   UNL     1      -2.834  -9.670   4.342  1.00  0.00    -0.014 A 
BRANCH  13  14
ATOM     14  C   UNL     1      -2.705 -10.640   3.250  1.00  0.00     0.031 A 
ATOM     15  C   UNL     1      -3.954 -11.170   2.632  1.00  0.00     0.074 A 
ATOM     16  C   UNL     1      -1.480 -10.911   2.764  1.00  0.00     0.049 A 
ATOM     17  N   UNL     1      -4.093 -12.098   1.731  1.00  0.00    -0.248 NA
ATOM     18  C   UNL     1      -5.218 -10.559   3.080  1.00  0.00     0.031 C 
ATOM     19  C   UNL     1      -0.234 -10.284   3.226  1.00  0.00     0.029 A 
ATOM     20  N   UNL     1      -1.073 -11.757   1.770  1.00  0.00    -0.354 N 
ATOM     21  C   UNL     1      -5.462 -12.221   1.536  1.00  0.00     0.074 A 
ATOM     22  C   UNL     1      -6.111 -11.257   2.394  1.00  0.00     0.031 C 
ATOM     23  C   UNL     1       0.794 -10.775   2.517  1.00  0.00     0.029 A 
ATOM     24  C   UNL     1       0.295 -11.814   1.627  1.00  0.00     0.049 A 
ATOM     25  H   UNL     1      -1.697 -12.274   1.212  1.00  0.00     0.167 HD
ATOM     26  C   UNL     1      -6.097 -13.095   0.724  1.00  0.00     0.034 A 
ATOM     27  C   UNL     1       1.048 -12.671   0.909  1.00  0.00     0.034 A 
ATOM     28  C   UNL     1      -5.386 -14.033  -0.104  1.00  0.00     0.049 A 
ATOM     29  C   UNL     1       0.308 -13.719   0.111  1.00  0.00     0.074 A 
ATOM     30  C   UNL     1      -5.897 -14.996  -0.952  1.00  0.00     0.029 A 
ATOM     31  N   UNL     1      -4.000 -14.132  -0.170  1.00  0.00    -0.354 N 
ATOM     32  N   UNL     1      -0.990 -13.873  -0.041  1.00  0.00    -0.248 NA
ATOM     33  C   UNL     1       1.119 -14.718  -0.591  1.00  0.00     0.031 C 
ATOM     34  C   UNL     1      -4.823 -15.732  -1.460  1.00  0.00     0.029 A 
ATOM     35  C   UNL     1      -3.638 -15.175  -1.002  1.00  0.00     0.049 A 
ATOM     36  H   UNL     1      -3.369 -13.544   0.306  1.00  0.00     0.167 HD
ATOM     37  C   UNL     1      -1.148 -14.979  -0.867  1.00  0.00     0.074 A 
ATOM     38  C   UNL     1       0.187 -15.431  -1.206  1.00  0.00     0.031 C 
ATOM     39  C   UNL     1      -2.284 -15.581  -1.302  1.00  0.00     0.034 A 
BRANCH  26  40
ATOM     40  C   UNL     1      -7.598 -13.153   0.803  1.00  0.00     0.023 A 
ATOM     41  C   UNL     1      -8.420 -12.096   0.380  1.00  0.00     0.031 A 
ATOM     42  C   UNL     1      -8.213 -14.286   1.367  1.00  0.00     0.131 A 
ATOM     43  C   UNL     1      -9.808 -12.174   0.573  1.00  0.00     0.055 A 
ATOM     44  C   UNL     1      -9.598 -14.387   1.490  1.00  0.00     0.041 A 
ATOM     45  F   UNL     1      -7.472 -15.307   1.827  1.00  0.00    -0.206 F 
ATOM     46  C   UNL     1     -10.405 -13.323   1.100  1.00  0.00     0.022 A 
BRANCH  43  47
ATOM     47  S   UNL     1     -10.820 -10.706   0.239  1.00  0.00     0.124 S 
ATOM     48  O   UNL     1     -10.277  -9.749   1.201  1.00  0.00    -0.237 OA
ATOM     49  O   UNL     1     -10.531 -10.433  -1.164  1.00  0.00    -0.237 OA
ATOM     50  O   UNL     1     -12.182 -11.155   0.519  1.00  0.00    -0.744 OA
ENDBRANCH  43  47
ENDBRANCH  26  40
BRANCH  27  51
ATOM     51  C   UNL     1       2.539 -12.671   1.006  1.00  0.00     0.023 A 
ATOM     52  C   UNL     1       3.346 -12.574  -0.138  1.00  0.00     0.031 A 
ATOM     53  C   UNL     1       3.187 -12.869   2.242  1.00  0.00     0.131 A 
ATOM     54  C   UNL     1       4.737 -12.748  -0.035  1.00  0.00     0.055 A 
ATOM     55  C   UNL     1       4.576 -12.963   2.350  1.00  0.00     0.041 A 
ATOM     56  F   UNL     1       2.476 -12.988   3.375  1.00  0.00    -0.206 F 
ATOM     57  C   UNL     1       5.359 -12.925   1.203  1.00  0.00     0.022 A 
BRANCH  54  58
ATOM     58  S   UNL     1       5.707 -12.895  -1.561  1.00  0.00     0.124 S 
ATOM     59  O   UNL     1       5.000 -13.963  -2.259  1.00  0.00    -0.237 OA
ATOM     60  O   UNL     1       5.577 -11.559  -2.132  1.00  0.00    -0.237 OA
ATOM     61  O   UNL     1       7.044 -13.240  -1.082  1.00  0.00    -0.744 OA
ENDBRANCH  54  58
ENDBRANCH  27  51
BRANCH  39  62
ATOM     62  C   UNL     1      -2.111 -16.768  -2.209  1.00  0.00     0.023 A 
ATOM     63  C   UNL     1      -1.580 -17.978  -1.733  1.00  0.00     0.031 A 
ATOM     64  C   UNL     1      -2.513 -16.694  -3.553  1.00  0.00     0.131 A 
ATOM     65  C   UNL     1      -1.426 -19.058  -2.610  1.00  0.00     0.055 A 
ATOM     66  C   UNL     1      -2.421 -17.794  -4.403  1.00  0.00     0.041 A 
ATOM     67  F   UNL     1      -3.025 -15.557  -4.053  1.00  0.00    -0.206 F 
ATOM     68  C   UNL     1      -1.866 -18.982  -3.935  1.00  0.00     0.022 A 
BRANCH  65  69
ATOM     69  S   UNL     1      -0.577 -20.543  -2.014  1.00  0.00     0.124 S 
ATOM     70  O   UNL     1       0.743 -20.020  -1.677  1.00  0.00    -0.237 OA
ATOM     71  O   UNL     1      -1.409 -20.949  -0.886  1.00  0.00    -0.237 OA
ATOM     72  O   UNL     1      -0.613 -21.442  -3.166  1.00  0.00    -0.744 OA
ENDBRANCH  65  69
ENDBRANCH  39  62
ENDBRANCH  13  14
ENDBRANCH   6   8
ENDBRANCH   5   6
ENDBRANCH   4   5
ENDBRANCH   3   4
ENDBRANCH   2   3
ENDBRANCH   1   2
BRANCH   1  73
ATOM     73  C   UNL     1       1.020  -4.820   5.779  1.00  0.00     0.261 C 
BRANCH  73  74
ATOM     74  O   UNL     1       1.130  -3.422   5.477  1.00  0.00    -0.460 OA
BRANCH  74  75
ATOM     75  C   UNL     1       0.665  -3.058   4.252  1.00  0.00     0.340 C 
ATOM     76  O   UNL     1       0.599  -3.767   3.261  1.00  0.00    -0.246 OA
BRANCH  75  77
ATOM     77  C   UNL     1       0.084  -1.687   4.326  1.00  0.00     0.083 A 
ATOM     78  C   UNL     1      -0.948  -1.408   3.412  1.00  0.00     0.018 A 
ATOM     79  C   UNL     1       0.499  -0.712   5.265  1.00  0.00     0.050 A 
ATOM     80  C   UNL     1      -1.542  -0.151   3.381  1.00  0.00     0.001 A 
ATOM     81  C   UNL     1      -0.050   0.571   5.147  1.00  0.00     0.026 A 
ATOM     82  C   UNL     1      -1.068   0.847   4.224  1.00  0.00     0.002 A 
BRANCH  79  83
ATOM     83  N   UNL     1       1.386  -1.023   6.294  1.00  0.00    -0.364 N 
ATOM     84  H   UNL     1       1.141  -1.752   6.908  1.00  0.00     0.162 HD
BRANCH  83  85
ATOM     85  C   UNL     1       2.649  -0.339   6.518  1.00  0.00     0.238 C 
ATOM     86  S   UNL     1       2.458   1.033   7.664  1.00  0.00    -0.029 SA
ATOM     87  C   UNL     1       3.613  -1.304   7.230  1.00  0.00     0.263 C 
ATOM     88  C   UNL     1       3.227   0.179   8.975  1.00  0.00     0.291 C 
ATOM     89  N   UNL     1       3.750  -1.008   8.565  1.00  0.00    -0.266 N 
ATOM     90  O   UNL     1       4.158  -2.250   6.666  1.00  0.00    -0.271 OA
ATOM     91  O   UNL     1       3.330   0.680  10.089  1.00  0.00    -0.261 OA
BRANCH  89  92
ATOM     92  C   UNL     1       4.583  -1.803   9.449  1.00  0.00     0.165 C 
BRANCH  92  93
ATOM     93  C   UNL     1       3.911  -3.022  10.048  1.00  0.00    -0.028 A 
ATOM     94  C   UNL     1       3.581  -3.058  11.412  1.00  0.00     0.005 A 
ATOM     95  C   UNL     1       3.700  -4.179   9.280  1.00  0.00     0.005 A 
ATOM     96  C   UNL     1       3.088  -4.229  11.997  1.00  0.00     0.000 A 
ATOM     97  C   UNL     1       3.198  -5.345   9.865  1.00  0.00     0.000 A 
ATOM     98  C   UNL     1       2.902  -5.373  11.225  1.00  0.00     0.000 A 
ENDBRANCH  92  93
ENDBRANCH  89  92
ENDBRANCH  83  85
ENDBRANCH  79  83
ENDBRANCH  75  77
ENDBRANCH  74  75
ENDBRANCH  73  74
ENDBRANCH   1  73
TORSDOF 21
