REMARK SMILES O=C(OCCOCCOC(=O)[C@@H]1CCC(=O)N1C(=O)/C=C/c1ccccc1)c1ccc(-c2c3nc(c(-c4cc(S(=O)(=O)[O-])ccc4F)c4ccc([nH]4)c(-c4cc(S(=O)(=O)[O-])ccc4F)c4nc(c(-c5cc(S(=O)(=O)[O-])ccc5F)c5ccc2[nH]5)C=C4)C=C3)cc1
REMARK SMILES IDX 6 1 5 2 4 3 3 4 2 5 1 6 28 7 29 8 90 9 30 10 89 11 31 12
REMARK SMILES IDX 32 13 33 14 83 15 34 16 88 17 82 18 84 19 35 20 87 21 81 22
REMARK SMILES IDX 80 23 36 25 68 26 48 27 67 28 49 29 52 30 66 31 85 32 50 33
REMARK SMILES IDX 51 34 65 36 86 37 53 38 37 39 38 40 46 41 39 42 45 43 47 44
REMARK SMILES IDX 44 45 40 46 41 47 42 48 43 49 69 50 70 51 78 52 71 53 77 54
REMARK SMILES IDX 79 55 76 56 72 57 73 58 74 59 75 60 54 61 55 62 63 63 56 64
REMARK SMILES IDX 62 65 64 66 61 67 57 68 58 69 59 70 60 71 7 72 8 73 9 74
REMARK SMILES IDX 10 75 11 76 12 77 13 78 17 79 14 80 15 81 16 82 18 83 19 84
REMARK SMILES IDX 20 85 21 86 22 87 23 88 27 89 24 90 26 91 25 92
REMARK H PARENT 84 24 52 35
REMARK Flexibility Score: inf
ROOT
ATOM      1  O   UNL     1       3.787   0.483  -1.595  1.00  0.00    -0.374 OA
ENDROOT
BRANCH   1   2
ATOM      2  C   UNL     1       4.125  -0.821  -1.139  1.00  0.00     0.202 C 
BRANCH   2   3
ATOM      3  C   UNL     1       3.759  -1.122   0.313  1.00  0.00     0.261 C 
BRANCH   3   4
ATOM      4  O   UNL     1       2.363  -0.866   0.522  1.00  0.00    -0.460 OA
BRANCH   4   5
ATOM      5  C   UNL     1       1.828   0.289   0.988  1.00  0.00     0.338 C 
ATOM      6  O   UNL     1       0.606   0.410   1.028  1.00  0.00    -0.246 OA
BRANCH   5   7
ATOM      7  C   UNL     1       2.670   1.401   1.510  1.00  0.00     0.060 A 
ATOM      8  C   UNL     1       3.887   1.785   0.951  1.00  0.00     0.016 A 
ATOM      9  C   UNL     1       2.179   2.143   2.591  1.00  0.00     0.016 A 
ATOM     10  C   UNL     1       4.641   2.811   1.461  1.00  0.00     0.010 A 
ATOM     11  C   UNL     1       2.910   3.225   3.091  1.00  0.00     0.010 A 
ATOM     12  C   UNL     1       4.148   3.548   2.522  1.00  0.00    -0.014 A 
BRANCH  12  13
ATOM     13  C   UNL     1       5.073   4.539   3.077  1.00  0.00     0.031 A 
ATOM     14  C   UNL     1       5.762   4.193   4.354  1.00  0.00     0.074 A 
ATOM     15  C   UNL     1       5.427   5.593   2.319  1.00  0.00     0.049 A 
ATOM     16  N   UNL     1       6.575   4.910   5.075  1.00  0.00    -0.248 NA
ATOM     17  C   UNL     1       5.503   2.845   4.888  1.00  0.00     0.031 C 
ATOM     18  C   UNL     1       4.937   5.856   0.959  1.00  0.00     0.029 A 
ATOM     19  N   UNL     1       6.317   6.600   2.549  1.00  0.00    -0.354 N 
ATOM     20  C   UNL     1       6.877   4.125   6.181  1.00  0.00     0.074 A 
ATOM     21  C   UNL     1       6.162   2.878   6.033  1.00  0.00     0.031 C 
ATOM     22  C   UNL     1       5.564   6.936   0.467  1.00  0.00     0.029 A 
ATOM     23  C   UNL     1       6.410   7.496   1.510  1.00  0.00     0.049 A 
ATOM     24  H   UNL     1       6.842   6.678   3.378  1.00  0.00     0.167 HD
ATOM     25  C   UNL     1       7.668   4.452   7.228  1.00  0.00     0.034 A 
ATOM     26  C   UNL     1       7.071   8.666   1.449  1.00  0.00     0.034 A 
ATOM     27  C   UNL     1       8.350   5.721   7.299  1.00  0.00     0.049 A 
ATOM     28  C   UNL     1       7.843   9.066   2.680  1.00  0.00     0.074 A 
ATOM     29  C   UNL     1       9.115   6.242   8.323  1.00  0.00     0.029 A 
ATOM     30  N   UNL     1       8.340   6.674   6.281  1.00  0.00    -0.354 N 
ATOM     31  N   UNL     1       8.023   8.393   3.796  1.00  0.00    -0.248 NA
ATOM     32  C   UNL     1       8.487  10.380   2.653  1.00  0.00     0.031 C 
ATOM     33  C   UNL     1       9.499   7.537   7.957  1.00  0.00     0.029 A 
ATOM     34  C   UNL     1       9.060   7.791   6.664  1.00  0.00     0.049 A 
ATOM     35  H   UNL     1       7.885   6.568   5.415  1.00  0.00     0.167 HD
ATOM     36  C   UNL     1       8.834   9.189   4.595  1.00  0.00     0.074 A 
ATOM     37  C   UNL     1       9.113  10.386   3.821  1.00  0.00     0.031 C 
ATOM     38  C   UNL     1       9.309   8.960   5.848  1.00  0.00     0.034 A 
BRANCH  25  39
ATOM     39  C   UNL     1       7.688   3.490   8.390  1.00  0.00     0.023 A 
ATOM     40  C   UNL     1       8.148   2.166   8.266  1.00  0.00     0.031 A 
ATOM     41  C   UNL     1       7.101   3.867   9.611  1.00  0.00     0.131 A 
ATOM     42  C   UNL     1       7.912   1.244   9.300  1.00  0.00     0.055 A 
ATOM     43  C   UNL     1       6.959   2.971  10.672  1.00  0.00     0.041 A 
ATOM     44  F   UNL     1       6.606   5.104   9.778  1.00  0.00    -0.206 F 
ATOM     45  C   UNL     1       7.345   1.644  10.512  1.00  0.00     0.022 A 
BRANCH  42  46
ATOM     46  S   UNL     1       8.164  -0.523   8.963  1.00  0.00     0.124 S 
ATOM     47  O   UNL     1       7.247  -0.744   7.846  1.00  0.00    -0.237 OA
ATOM     48  O   UNL     1       9.585  -0.585   8.644  1.00  0.00    -0.237 OA
ATOM     49  O   UNL     1       7.775  -1.171  10.214  1.00  0.00    -0.744 OA
ENDBRANCH  42  46
ENDBRANCH  25  39
BRANCH  26  50
ATOM     50  C   UNL     1       6.969   9.550   0.252  1.00  0.00     0.023 A 
ATOM     51  C   UNL     1       8.111   9.941  -0.464  1.00  0.00     0.031 A 
ATOM     52  C   UNL     1       5.726  10.060  -0.172  1.00  0.00     0.131 A 
ATOM     53  C   UNL     1       7.994  10.848  -1.532  1.00  0.00     0.055 A 
ATOM     54  C   UNL     1       5.608  10.912  -1.272  1.00  0.00     0.041 A 
ATOM     55  F   UNL     1       4.597   9.730   0.475  1.00  0.00    -0.206 F 
ATOM     56  C   UNL     1       6.749  11.323  -1.950  1.00  0.00     0.022 A 
BRANCH  53  57
ATOM     57  S   UNL     1       9.508  11.477  -2.307  1.00  0.00     0.124 S 
ATOM     58  O   UNL     1      10.206  12.058  -1.166  1.00  0.00    -0.237 OA
ATOM     59  O   UNL     1      10.091  10.262  -2.866  1.00  0.00    -0.237 OA
ATOM     60  O   UNL     1       9.012  12.438  -3.291  1.00  0.00    -0.744 OA
ENDBRANCH  53  57
ENDBRANCH  26  50
BRANCH  38  61
ATOM     61  C   UNL     1      10.239  10.004   6.407  1.00  0.00     0.023 A 
ATOM     62  C   UNL     1       9.803  11.306   6.700  1.00  0.00     0.031 A 
ATOM     63  C   UNL     1      11.589   9.684   6.634  1.00  0.00     0.131 A 
ATOM     64  C   UNL     1      10.728  12.264   7.136  1.00  0.00     0.055 A 
ATOM     65  C   UNL     1      12.486  10.619   7.145  1.00  0.00     0.041 A 
ATOM     66  F   UNL     1      12.055   8.453   6.366  1.00  0.00    -0.206 F 
ATOM     67  C   UNL     1      12.061  11.923   7.382  1.00  0.00     0.022 A 
BRANCH  64  68
ATOM     68  S   UNL     1      10.193  13.991   7.255  1.00  0.00     0.124 S 
ATOM     69  O   UNL     1       9.717  14.254   5.901  1.00  0.00    -0.237 OA
ATOM     70  O   UNL     1       9.166  13.928   8.290  1.00  0.00    -0.237 OA
ATOM     71  O   UNL     1      11.413  14.701   7.633  1.00  0.00    -0.744 OA
ENDBRANCH  64  68
ENDBRANCH  38  61
ENDBRANCH  12  13
ENDBRANCH   5   7
ENDBRANCH   4   5
ENDBRANCH   3   4
ENDBRANCH   2   3
ENDBRANCH   1   2
BRANCH   1  72
ATOM     72  C   UNL     1       2.569   0.626  -2.306  1.00  0.00     0.202 C 
BRANCH  72  73
ATOM     73  C   UNL     1       2.890   0.798  -3.787  1.00  0.00     0.261 C 
BRANCH  73  74
ATOM     74  O   UNL     1       3.474  -0.421  -4.287  1.00  0.00    -0.462 OA
BRANCH  74  75
ATOM     75  C   UNL     1       4.830  -0.578  -4.180  1.00  0.00     0.329 C 
ATOM     76  O   UNL     1       5.606   0.314  -3.871  1.00  0.00    -0.250 OA
BRANCH  75  77
ATOM     77  C   UNL     1       5.238  -2.055  -4.401  1.00  0.00     0.204 C 
ATOM     78  C   UNL     1       4.157  -2.801  -5.192  1.00  0.00     0.047 C 
ATOM     79  N   UNL     1       5.413  -2.872  -3.185  1.00  0.00    -0.265 N 
ATOM     80  C   UNL     1       4.323  -4.230  -4.750  1.00  0.00     0.103 C 
ATOM     81  C   UNL     1       4.648  -4.042  -3.297  1.00  0.00     0.230 C 
ATOM     82  O   UNL     1       4.259  -4.796  -2.419  1.00  0.00    -0.274 OA
BRANCH  79  83
ATOM     83  C   UNL     1       6.505  -2.690  -2.340  1.00  0.00     0.253 C 
ATOM     84  O   UNL     1       7.409  -1.899  -2.594  1.00  0.00    -0.269 OA
BRANCH  83  85
ATOM     85  C   UNL     1       6.558  -3.435  -1.039  1.00  0.00     0.072 C 
ATOM     86  C   UNL     1       6.670  -4.770  -0.971  1.00  0.00     0.014 C 
BRANCH  86  87
ATOM     87  C   UNL     1       6.683  -5.629   0.233  1.00  0.00    -0.025 A 
ATOM     88  C   UNL     1       6.955  -6.995   0.042  1.00  0.00     0.008 A 
ATOM     89  C   UNL     1       6.370  -5.199   1.529  1.00  0.00     0.008 A 
ATOM     90  C   UNL     1       6.920  -7.903   1.105  1.00  0.00     0.001 A 
ATOM     91  C   UNL     1       6.336  -6.109   2.597  1.00  0.00     0.001 A 
ATOM     92  C   UNL     1       6.609  -7.459   2.385  1.00  0.00     0.000 A 
ENDBRANCH  86  87
ENDBRANCH  83  85
ENDBRANCH  79  83
ENDBRANCH  75  77
ENDBRANCH  74  75
ENDBRANCH  73  74
ENDBRANCH  72  73
ENDBRANCH   1  72
TORSDOF 20
