REMARK SMILES Cc1cccc(C)c1Nc1ccccc1CC(=O)OCCOCCOC(=O)c1ccc(-c2c3nc(c(-c4cc(S(=O)(=O)[O-])ccc4F)c4ccc([nH]4)c(-c4cc(S(=O)(=O)[O-])ccc4F)c4nc(c(-c5cc(S(=O)(=O)[O-])ccc5F)c5ccc2[nH]5)C=C4)C=C3)cc1
REMARK SMILES IDX 22 1 21 2 20 3 19 4 17 5 18 6 16 7 15 8 10 9 11 10 12 11
REMARK SMILES IDX 14 12 13 13 9 14 8 16 1 17 2 18 3 19 4 20 6 21 5 22 7 23
REMARK SMILES IDX 23 24 24 25 25 26 26 27 27 28 28 29 29 30 90 31 30 32 89 33
REMARK SMILES IDX 31 34 32 35 33 36 83 37 34 38 88 39 82 40 84 41 35 42 87 43
REMARK SMILES IDX 81 44 80 45 36 47 68 48 48 49 67 50 49 51 52 52 66 53 85 54
REMARK SMILES IDX 50 55 51 56 65 58 86 59 53 60 37 61 38 62 46 63 39 64 45 65
REMARK SMILES IDX 47 66 44 67 40 68 41 69 42 70 43 71 69 72 70 73 78 74 71 75
REMARK SMILES IDX 77 76 79 77 76 78 72 79 73 80 74 81 75 82 54 83 55 84 63 85
REMARK SMILES IDX 56 86 62 87 64 88 61 89 57 90 58 91 59 92 60 93
REMARK H PARENT 9 15 84 46 52 57
REMARK Flexibility Score: inf
ROOT
ATOM      1  O   UNL     1      -2.901   4.101   5.763  1.00  0.00    -0.374 OA
ENDROOT
BRANCH   1   2
ATOM      2  C   UNL     1      -1.530   4.493   5.727  1.00  0.00     0.202 C 
BRANCH   2   3
ATOM      3  C   UNL     1      -0.536   3.549   5.039  1.00  0.00     0.261 C 
BRANCH   3   4
ATOM      4  O   UNL     1      -0.877   3.252   3.672  1.00  0.00    -0.463 OA
BRANCH   4   5
ATOM      5  C   UNL     1      -1.307   1.982   3.454  1.00  0.00     0.310 C 
ATOM      6  O   UNL     1      -1.362   1.113   4.323  1.00  0.00    -0.252 OA
BRANCH   5   7
ATOM      7  C   UNL     1      -1.730   1.671   2.042  1.00  0.00     0.160 C 
BRANCH   7   8
ATOM      8  C   UNL     1      -1.933   2.780   1.024  1.00  0.00    -0.013 A 
ATOM      9  C   UNL     1      -1.038   3.032  -0.035  1.00  0.00     0.042 A 
ATOM     10  C   UNL     1      -1.275   4.132  -0.886  1.00  0.00     0.026 A 
ATOM     11  C   UNL     1      -2.418   4.918  -0.761  1.00  0.00     0.002 A 
ATOM     12  C   UNL     1      -3.114   3.547   1.089  1.00  0.00     0.006 A 
ATOM     13  C   UNL     1      -3.355   4.606   0.211  1.00  0.00     0.000 A 
BRANCH   9  14
ATOM     14  N   UNL     1       0.002   2.161  -0.417  1.00  0.00    -0.355 N 
ATOM     15  H   UNL     1       0.832   2.620  -0.683  1.00  0.00     0.167 HD
BRANCH  14  16
ATOM     16  C   UNL     1       0.076   0.750  -0.491  1.00  0.00     0.044 A 
ATOM     17  C   UNL     1       2.575   0.956  -0.004  1.00  0.00     0.046 C 
ATOM     18  C   UNL     1       1.325   0.139  -0.205  1.00  0.00    -0.027 A 
ATOM     19  C   UNL     1       1.407  -1.254  -0.047  1.00  0.00     0.005 A 
ATOM     20  C   UNL     1       0.276  -2.051  -0.176  1.00  0.00     0.001 A 
ATOM     21  C   UNL     1      -1.053  -0.082  -0.708  1.00  0.00    -0.027 A 
ATOM     22  C   UNL     1      -0.941  -1.470  -0.512  1.00  0.00     0.005 A 
ATOM     23  C   UNL     1      -2.409   0.428  -1.123  1.00  0.00     0.046 C 
ENDBRANCH  14  16
ENDBRANCH   9  14
ENDBRANCH   7   8
ENDBRANCH   5   7
ENDBRANCH   4   5
ENDBRANCH   3   4
ENDBRANCH   2   3
ENDBRANCH   1   2
BRANCH   1  24
ATOM     24  C   UNL     1      -3.637   4.205   4.547  1.00  0.00     0.202 C 
BRANCH  24  25
ATOM     25  C   UNL     1      -3.978   5.612   4.042  1.00  0.00     0.261 C 
BRANCH  25  26
ATOM     26  O   UNL     1      -2.807   6.346   3.642  1.00  0.00    -0.460 OA
BRANCH  26  27
ATOM     27  C   UNL     1      -2.597   7.487   4.342  1.00  0.00     0.338 C 
ATOM     28  O   UNL     1      -3.352   7.988   5.166  1.00  0.00    -0.246 OA
BRANCH  27  29
ATOM     29  C   UNL     1      -1.219   7.970   4.146  1.00  0.00     0.060 A 
ATOM     30  C   UNL     1      -0.445   8.165   5.298  1.00  0.00     0.016 A 
ATOM     31  C   UNL     1      -0.720   8.318   2.889  1.00  0.00     0.016 A 
ATOM     32  C   UNL     1       0.804   8.770   5.206  1.00  0.00     0.010 A 
ATOM     33  C   UNL     1       0.533   8.938   2.800  1.00  0.00     0.010 A 
ATOM     34  C   UNL     1       1.280   9.206   3.962  1.00  0.00    -0.014 A 
BRANCH  34  35
ATOM     35  C   UNL     1       2.467  10.098   3.927  1.00  0.00     0.031 A 
ATOM     36  C   UNL     1       2.251  11.585   3.834  1.00  0.00     0.074 A 
ATOM     37  C   UNL     1       3.709   9.598   4.054  1.00  0.00     0.049 A 
ATOM     38  N   UNL     1       3.129  12.554   3.810  1.00  0.00    -0.248 NA
ATOM     39  C   UNL     1       0.853  12.038   3.759  1.00  0.00     0.031 C 
ATOM     40  C   UNL     1       4.034   8.180   4.206  1.00  0.00     0.029 A 
ATOM     41  N   UNL     1       4.928  10.227   4.082  1.00  0.00    -0.354 N 
ATOM     42  C   UNL     1       2.392  13.731   3.719  1.00  0.00     0.074 A 
ATOM     43  C   UNL     1       0.998  13.349   3.649  1.00  0.00     0.031 C 
ATOM     44  C   UNL     1       5.368   8.048   4.309  1.00  0.00     0.029 A 
ATOM     45  C   UNL     1       5.992   9.365   4.195  1.00  0.00     0.049 A 
ATOM     46  H   UNL     1       5.030  11.205   4.026  1.00  0.00     0.167 HD
ATOM     47  C   UNL     1       2.838  15.012   3.705  1.00  0.00     0.034 A 
ATOM     48  C   UNL     1       7.319   9.610   4.187  1.00  0.00     0.034 A 
ATOM     49  C   UNL     1       4.234  15.374   3.763  1.00  0.00     0.049 A 
ATOM     50  C   UNL     1       7.796  11.039   4.082  1.00  0.00     0.074 A 
ATOM     51  C   UNL     1       4.798  16.638   3.765  1.00  0.00     0.029 A 
ATOM     52  N   UNL     1       5.288  14.470   3.817  1.00  0.00    -0.354 N 
ATOM     53  N   UNL     1       7.089  12.143   4.002  1.00  0.00    -0.248 NA
ATOM     54  C   UNL     1       9.249  11.253   4.074  1.00  0.00     0.031 C 
ATOM     55  C   UNL     1       6.190  16.496   3.745  1.00  0.00     0.029 A 
ATOM     56  C   UNL     1       6.498  15.147   3.813  1.00  0.00     0.049 A 
ATOM     57  H   UNL     1       5.189  13.491   3.852  1.00  0.00     0.167 HD
ATOM     58  C   UNL     1       8.014  13.185   3.965  1.00  0.00     0.074 A 
ATOM     59  C   UNL     1       9.325  12.576   4.045  1.00  0.00     0.031 C 
ATOM     60  C   UNL     1       7.799  14.523   3.878  1.00  0.00     0.034 A 
BRANCH  47  61
ATOM     61  C   UNL     1       1.804  16.104   3.563  1.00  0.00     0.023 A 
ATOM     62  C   UNL     1       0.828  16.336   4.548  1.00  0.00     0.031 A 
ATOM     63  C   UNL     1       1.776  16.905   2.408  1.00  0.00     0.131 A 
ATOM     64  C   UNL     1      -0.176  17.293   4.328  1.00  0.00     0.055 A 
ATOM     65  C   UNL     1       0.822  17.909   2.230  1.00  0.00     0.041 A 
ATOM     66  F   UNL     1       2.667  16.715   1.422  1.00  0.00    -0.206 F 
ATOM     67  C   UNL     1      -0.171  18.098   3.187  1.00  0.00     0.022 A 
BRANCH  64  68
ATOM     68  S   UNL     1      -1.569  17.375   5.487  1.00  0.00     0.124 S 
ATOM     69  O   UNL     1      -2.103  16.018   5.403  1.00  0.00    -0.237 OA
ATOM     70  O   UNL     1      -0.916  17.729   6.742  1.00  0.00    -0.237 OA
ATOM     71  O   UNL     1      -2.429  18.411   4.918  1.00  0.00    -0.744 OA
ENDBRANCH  64  68
ENDBRANCH  47  61
BRANCH  48  72
ATOM     72  C   UNL     1       8.295   8.483   4.237  1.00  0.00     0.023 A 
ATOM     73  C   UNL     1       9.193   8.339   5.307  1.00  0.00     0.031 A 
ATOM     74  C   UNL     1       8.377   7.559   3.179  1.00  0.00     0.131 A 
ATOM     75  C   UNL     1      10.161   7.322   5.275  1.00  0.00     0.055 A 
ATOM     76  C   UNL     1       9.307   6.518   3.177  1.00  0.00     0.041 A 
ATOM     77  F   UNL     1       7.545   7.651   2.130  1.00  0.00    -0.206 F 
ATOM     78  C   UNL     1      10.215   6.403   4.224  1.00  0.00     0.022 A 
BRANCH  75  79
ATOM     79  S   UNL     1      11.409   7.267   6.590  1.00  0.00     0.124 S 
ATOM     80  O   UNL     1      12.023   8.584   6.473  1.00  0.00    -0.237 OA
ATOM     81  O   UNL     1      10.588   7.044   7.776  1.00  0.00    -0.237 OA
ATOM     82  O   UNL     1      12.261   6.144   6.204  1.00  0.00    -0.744 OA
ENDBRANCH  75  79
ENDBRANCH  48  72
BRANCH  60  83
ATOM     83  C   UNL     1       9.017  15.416   3.907  1.00  0.00     0.023 A 
ATOM     84  C   UNL     1       9.956  15.423   2.861  1.00  0.00     0.031 A 
ATOM     85  C   UNL     1       9.243  16.267   5.004  1.00  0.00     0.131 A 
ATOM     86  C   UNL     1      11.106  16.221   2.959  1.00  0.00     0.055 A 
ATOM     87  C   UNL     1      10.358  17.103   5.068  1.00  0.00     0.041 A 
ATOM     88  F   UNL     1       8.380  16.300   6.032  1.00  0.00    -0.206 F 
ATOM     89  C   UNL     1      11.304  17.073   4.048  1.00  0.00     0.022 A 
BRANCH  86  90
ATOM     90  S   UNL     1      12.389  16.061   1.686  1.00  0.00     0.124 S 
ATOM     91  O   UNL     1      12.730  14.645   1.775  1.00  0.00    -0.237 OA
ATOM     92  O   UNL     1      11.682  16.473   0.477  1.00  0.00    -0.237 OA
ATOM     93  O   UNL     1      13.434  16.980   2.135  1.00  0.00    -0.744 OA
ENDBRANCH  86  90
ENDBRANCH  60  83
ENDBRANCH  34  35
ENDBRANCH  27  29
ENDBRANCH  26  27
ENDBRANCH  25  26
ENDBRANCH  24  25
ENDBRANCH   1  24
TORSDOF 20
