REMARK SMILES O=C(OCCOCCOC(=O)[C@@H]1[C@@H](C(=O)Nc2cccc([N+](=O)[O-])c2)[C@@H]2C=C[C@H]1O2)c1ccc(-c2c3nc(c(-c4cc(S(=O)(=O)[O-])ccc4F)c4ccc([nH]4)c(-c4cc(S(=O)(=O)[O-])ccc4F)c4nc(c(-c5cc(S(=O)(=O)[O-])ccc5F)c5ccc2[nH]5)C=C4)C=C3)cc1
REMARK SMILES IDX 6 1 5 2 4 3 3 4 2 5 1 6 31 7 32 8 93 9 33 10 92 11 34 12
REMARK SMILES IDX 35 13 36 14 86 15 37 16 91 17 85 18 87 19 38 20 90 21 84 22
REMARK SMILES IDX 83 23 39 25 71 26 51 27 70 28 52 29 55 30 69 31 88 32 53 33
REMARK SMILES IDX 54 34 68 36 89 37 56 38 40 39 41 40 49 41 42 42 48 43 50 44
REMARK SMILES IDX 47 45 43 46 44 47 45 48 46 49 72 50 73 51 81 52 74 53 80 54
REMARK SMILES IDX 82 55 79 56 75 57 76 58 77 59 78 60 57 61 58 62 66 63 59 64
REMARK SMILES IDX 65 65 67 66 64 67 60 68 61 69 62 70 63 71 7 72 8 73 9 74
REMARK SMILES IDX 10 75 11 76 12 77 13 78 29 79 26 80 28 81 30 82 27 83 14 84
REMARK SMILES IDX 15 85 16 86 17 88 18 89 25 90 19 91 21 92 20 93 22 94 23 95
REMARK SMILES IDX 24 96
REMARK H PARENT 87 24 55 35 16 87
REMARK Flexibility Score: inf
ROOT
ATOM      1  O   UNL     1       3.494  -0.103   1.435  1.00  0.00    -0.374 OA
ENDROOT
BRANCH   1   2
ATOM      2  C   UNL     1       3.916   0.962   0.585  1.00  0.00     0.202 C 
BRANCH   2   3
ATOM      3  C   UNL     1       3.566   0.850  -0.894  1.00  0.00     0.261 C 
BRANCH   3   4
ATOM      4  O   UNL     1       2.184   0.520  -1.061  1.00  0.00    -0.460 OA
BRANCH   4   5
ATOM      5  C   UNL     1       1.707  -0.730  -1.284  1.00  0.00     0.338 C 
ATOM      6  O   UNL     1       0.496  -0.916  -1.364  1.00  0.00    -0.246 OA
BRANCH   5   7
ATOM      7  C   UNL     1       2.628  -1.876  -1.504  1.00  0.00     0.060 A 
ATOM      8  C   UNL     1       3.740  -2.123  -0.702  1.00  0.00     0.016 A 
ATOM      9  C   UNL     1       2.320  -2.788  -2.516  1.00  0.00     0.016 A 
ATOM     10  C   UNL     1       4.591  -3.176  -0.937  1.00  0.00     0.010 A 
ATOM     11  C   UNL     1       3.117  -3.921  -2.698  1.00  0.00     0.010 A 
ATOM     12  C   UNL     1       4.250  -4.114  -1.895  1.00  0.00    -0.014 A 
BRANCH  12  13
ATOM     13  C   UNL     1       5.143  -5.271  -2.023  1.00  0.00     0.031 A 
ATOM     14  C   UNL     1       5.997  -5.370  -3.239  1.00  0.00     0.074 A 
ATOM     15  C   UNL     1       5.259  -6.115  -0.978  1.00  0.00     0.049 A 
ATOM     16  N   UNL     1       6.752  -6.354  -3.632  1.00  0.00    -0.248 NA
ATOM     17  C   UNL     1       6.007  -4.199  -4.132  1.00  0.00     0.031 C 
ATOM     18  C   UNL     1       4.568  -5.964   0.311  1.00  0.00     0.029 A 
ATOM     19  N   UNL     1       6.019  -7.238  -0.809  1.00  0.00    -0.354 N 
ATOM     20  C   UNL     1       7.282  -5.949  -4.849  1.00  0.00     0.074 A 
ATOM     21  C   UNL     1       6.778  -4.622  -5.121  1.00  0.00     0.031 C 
ATOM     22  C   UNL     1       4.961  -6.941   1.141  1.00  0.00     0.029 A 
ATOM     23  C   UNL     1       5.826  -7.851   0.408  1.00  0.00     0.049 A 
ATOM     24  H   UNL     1       6.643  -7.575  -1.492  1.00  0.00     0.167 HD
ATOM     25  C   UNL     1       8.098  -6.658  -5.662  1.00  0.00     0.034 A 
ATOM     26  C   UNL     1       6.248  -9.054   0.840  1.00  0.00     0.034 A 
ATOM     27  C   UNL     1       8.561  -7.979  -5.321  1.00  0.00     0.049 A 
ATOM     28  C   UNL     1       7.064  -9.867  -0.132  1.00  0.00     0.074 A 
ATOM     29  C   UNL     1       9.327  -8.851  -6.069  1.00  0.00     0.029 A 
ATOM     30  N   UNL     1       8.291  -8.617  -4.112  1.00  0.00    -0.354 N 
ATOM     31  N   UNL     1       7.480  -9.535  -1.336  1.00  0.00    -0.248 NA
ATOM     32  C   UNL     1       7.452 -11.214   0.292  1.00  0.00     0.031 C 
ATOM     33  C   UNL     1       9.463 -10.037  -5.340  1.00  0.00     0.029 A 
ATOM     34  C   UNL     1       8.853  -9.880  -4.103  1.00  0.00     0.049 A 
ATOM     35  H   UNL     1       7.775  -8.224  -3.371  1.00  0.00     0.167 HD
ATOM     36  C   UNL     1       8.195 -10.629  -1.806  1.00  0.00     0.074 A 
ATOM     37  C   UNL     1       8.178 -11.614  -0.741  1.00  0.00     0.031 C 
ATOM     38  C   UNL     1       8.803 -10.819  -3.006  1.00  0.00     0.034 A 
BRANCH  25  39
ATOM     39  C   UNL     1       8.410  -6.065  -7.010  1.00  0.00     0.023 A 
ATOM     40  C   UNL     1       9.164  -4.888  -7.158  1.00  0.00     0.031 A 
ATOM     41  C   UNL     1       7.868  -6.651  -8.168  1.00  0.00     0.131 A 
ATOM     42  C   UNL     1       9.300  -4.301  -8.427  1.00  0.00     0.055 A 
ATOM     43  C   UNL     1       8.071  -6.104  -9.436  1.00  0.00     0.041 A 
ATOM     44  F   UNL     1       7.106  -7.753  -8.083  1.00  0.00    -0.206 F 
ATOM     45  C   UNL     1       8.780  -4.915  -9.569  1.00  0.00     0.022 A 
BRANCH  42  46
ATOM     46  S   UNL     1      10.048  -2.653  -8.549  1.00  0.00     0.124 S 
ATOM     47  O   UNL     1       9.103  -1.843  -7.784  1.00  0.00    -0.237 OA
ATOM     48  O   UNL     1      11.357  -2.852  -7.939  1.00  0.00    -0.237 OA
ATOM     49  O   UNL     1      10.063  -2.389  -9.987  1.00  0.00    -0.744 OA
ENDBRANCH  42  46
ENDBRANCH  25  39
BRANCH  26  50
ATOM     50  C   UNL     1       5.824  -9.601   2.165  1.00  0.00     0.023 A 
ATOM     51  C   UNL     1       6.767 -10.026   3.113  1.00  0.00     0.031 A 
ATOM     52  C   UNL     1       4.462  -9.782   2.478  1.00  0.00     0.131 A 
ATOM     53  C   UNL     1       6.343 -10.663   4.291  1.00  0.00     0.055 A 
ATOM     54  C   UNL     1       4.042 -10.349   3.683  1.00  0.00     0.041 A 
ATOM     55  F   UNL     1       3.506  -9.410   1.610  1.00  0.00    -0.206 F 
ATOM     56  C   UNL     1       4.987 -10.813   4.590  1.00  0.00     0.022 A 
BRANCH  53  57
ATOM     57  S   UNL     1       7.592 -11.419   5.367  1.00  0.00     0.124 S 
ATOM     58  O   UNL     1       8.314 -12.272   4.429  1.00  0.00    -0.237 OA
ATOM     59  O   UNL     1       8.314 -10.251   5.859  1.00  0.00    -0.237 OA
ATOM     60  O   UNL     1       6.796 -12.126   6.368  1.00  0.00    -0.744 OA
ENDBRANCH  53  57
ENDBRANCH  26  50
BRANCH  38  61
ATOM     61  C   UNL     1       9.530 -12.123  -3.180  1.00  0.00     0.023 A 
ATOM     62  C   UNL     1       8.840 -13.344  -3.247  1.00  0.00     0.031 A 
ATOM     63  C   UNL     1      10.932 -12.138  -3.272  1.00  0.00     0.131 A 
ATOM     64  C   UNL     1       9.561 -14.540  -3.340  1.00  0.00     0.055 A 
ATOM     65  C   UNL     1      11.639 -13.327  -3.437  1.00  0.00     0.041 A 
ATOM     66  F   UNL     1      11.634 -10.995  -3.211  1.00  0.00    -0.206 F 
ATOM     67  C   UNL     1      10.954 -14.539  -3.457  1.00  0.00     0.022 A 
BRANCH  64  68
ATOM     68  S   UNL     1       8.657 -16.105  -3.207  1.00  0.00     0.124 S 
ATOM     69  O   UNL     1       8.039 -15.986  -1.890  1.00  0.00    -0.237 OA
ATOM     70  O   UNL     1       7.747 -16.039  -4.345  1.00  0.00    -0.237 OA
ATOM     71  O   UNL     1       9.707 -17.116  -3.311  1.00  0.00    -0.744 OA
ENDBRANCH  64  68
ENDBRANCH  38  61
ENDBRANCH  12  13
ENDBRANCH   5   7
ENDBRANCH   4   5
ENDBRANCH   3   4
ENDBRANCH   2   3
ENDBRANCH   1   2
BRANCH   1  72
ATOM     72  C   UNL     1       2.201   0.044   2.014  1.00  0.00     0.202 C 
BRANCH  72  73
ATOM     73  C   UNL     1       2.350   0.308   3.511  1.00  0.00     0.261 C 
BRANCH  73  74
ATOM     74  O   UNL     1       3.327   1.352   3.720  1.00  0.00    -0.463 OA
BRANCH  74  75
ATOM     75  C   UNL     1       4.556   0.916   4.121  1.00  0.00     0.312 C 
ATOM     76  O   UNL     1       4.801  -0.221   4.511  1.00  0.00    -0.252 OA
BRANCH  75  77
ATOM     77  C   UNL     1       5.552   2.049   4.143  1.00  0.00     0.147 C 
ATOM     78  C   UNL     1       5.827   2.747   2.786  1.00  0.00     0.129 C 
ATOM     79  C   UNL     1       6.960   1.520   4.464  1.00  0.00     0.157 C 
ATOM     80  C   UNL     1       7.354   2.706   2.682  1.00  0.00     0.155 C 
ATOM     81  C   UNL     1       7.495   0.569   3.426  1.00  0.00     0.004 C 
ATOM     82  O   UNL     1       7.728   2.699   4.087  1.00  0.00    -0.365 OA
ATOM     83  C   UNL     1       7.759   1.302   2.337  1.00  0.00     0.004 C 
BRANCH  78  84
ATOM     84  C   UNL     1       5.107   4.061   2.516  1.00  0.00     0.231 C 
ATOM     85  O   UNL     1       4.445   4.191   1.480  1.00  0.00    -0.274 OA
ATOM     86  N   UNL     1       5.037   5.068   3.426  1.00  0.00    -0.325 N 
ATOM     87  H   UNL     1       4.235   5.637   3.372  1.00  0.00     0.169 HD
BRANCH  86  88
ATOM     88  C   UNL     1       5.945   5.403   4.424  1.00  0.00     0.048 A 
ATOM     89  C   UNL     1       5.462   5.673   5.702  1.00  0.00     0.026 A 
ATOM     90  C   UNL     1       7.302   5.527   4.139  1.00  0.00     0.111 A 
ATOM     91  C   UNL     1       6.358   5.939   6.738  1.00  0.00     0.009 A 
ATOM     92  C   UNL     1       8.197   5.796   5.176  1.00  0.00     0.271 A 
ATOM     93  C   UNL     1       7.731   5.986   6.483  1.00  0.00     0.086 A 
BRANCH  92  94
ATOM     94  N   UNL     1       9.631   5.885   4.884  1.00  0.00     0.062 N 
ATOM     95  O   UNL     1      10.395   6.124   5.830  1.00  0.00    -0.258 OA
ATOM     96  O   UNL     1       9.991   5.755   3.705  1.00  0.00    -0.258 OA
ENDBRANCH  92  94
ENDBRANCH  86  88
ENDBRANCH  78  84
ENDBRANCH  75  77
ENDBRANCH  74  75
ENDBRANCH  73  74
ENDBRANCH  72  73
ENDBRANCH   1  72
TORSDOF 20
