REMARK SMILES CC(=O)OCC1=C(C(=O)OCCOCCOC(=O)c2ccc(-c3c4nc(c(-c5cc(S(=O)(=O)[O-])ccc5F)c5ccc([nH]5)c(-c5cc(S(=O)(=O)[O-])ccc5F)c5nc(c(-c6cc(S(=O)(=O)[O-])ccc6F)c6ccc3[nH]6)C=C5)C=C4)cc2)N2C(=O)[C@H](NC(=O)C3CCCCC3)[C@@H]2SC1
REMARK SMILES IDX 13 1 12 2 11 3 10 4 8 5 9 6 7 7 6 8 97 9 82 10 96 11 83 12
REMARK SMILES IDX 95 13 84 14 85 15 5 16 4 17 2 18 1 19 3 20 86 21 87 22 88 24
REMARK SMILES IDX 89 25 90 26 94 27 91 28 93 29 92 30 14 31 15 32 16 33 17 34
REMARK SMILES IDX 18 35 19 36 20 37 81 38 21 39 80 40 22 41 23 42 24 43 74 44
REMARK SMILES IDX 25 45 79 46 73 47 75 48 26 49 78 50 72 51 71 52 27 54 59 55
REMARK SMILES IDX 39 56 58 57 40 58 43 59 57 60 76 61 41 62 42 63 56 65 77 66
REMARK SMILES IDX 44 67 28 68 29 69 37 70 30 71 36 72 38 73 35 74 31 75 32 76
REMARK SMILES IDX 33 77 34 78 60 79 61 80 69 81 62 82 68 83 70 84 67 85 63 86
REMARK SMILES IDX 64 87 65 88 66 89 45 90 46 91 54 92 47 93 53 94 55 95 52 96
REMARK SMILES IDX 48 97 49 98 50 99 51 100
REMARK H PARENT 86 23 75 53 43 64
REMARK Flexibility Score: inf
ROOT
ATOM      1  O   UNL     1       3.782  -0.961   0.744  1.00  0.00    -0.374 OA
ENDROOT
BRANCH   1   2
ATOM      2  C   UNL     1       3.681  -0.111  -0.399  1.00  0.00     0.202 C 
BRANCH   2   3
ATOM      3  C   UNL     1       3.862  -0.831  -1.734  1.00  0.00     0.261 C 
BRANCH   3   4
ATOM      4  O   UNL     1       2.828  -1.818  -1.893  1.00  0.00    -0.459 OA
BRANCH   4   5
ATOM      5  C   UNL     1       3.235  -3.069  -2.197  1.00  0.00     0.355 C 
ATOM      6  O   UNL     1       4.375  -3.413  -2.474  1.00  0.00    -0.244 OA
BRANCH   5   7
ATOM      7  C   UNL     1       2.100  -4.047  -2.091  1.00  0.00     0.134 C 
ATOM      8  C   UNL     1       0.962  -3.962  -2.827  1.00  0.00     0.008 C 
ATOM      9  C   UNL     1      -0.079  -5.071  -2.900  1.00  0.00     0.108 C 
ATOM     10  N   UNL     1       2.318  -5.133  -1.299  1.00  0.00    -0.289 N 
ATOM     11  S   UNL     1       0.607  -6.717  -2.564  1.00  0.00    -0.129 SA
ATOM     12  C   UNL     1       3.267  -5.605  -0.469  1.00  0.00     0.253 C 
ATOM     13  C   UNL     1       1.339  -6.159  -1.016  1.00  0.00     0.181 C 
ATOM     14  O   UNL     1       4.280  -5.143   0.004  1.00  0.00    -0.272 OA
ATOM     15  C   UNL     1       2.517  -6.990  -0.436  1.00  0.00     0.205 C 
BRANCH   8  16
ATOM     16  C   UNL     1       0.564  -2.784  -3.689  1.00  0.00     0.267 C 
BRANCH  16  17
ATOM     17  O   UNL     1       0.414  -1.567  -2.957  1.00  0.00    -0.461 OA
BRANCH  17  18
ATOM     18  C   UNL     1      -0.470  -1.551  -1.928  1.00  0.00     0.302 C 
ATOM     19  C   UNL     1      -0.503  -0.186  -1.343  1.00  0.00     0.139 C 
ATOM     20  O   UNL     1      -1.138  -2.492  -1.526  1.00  0.00    -0.253 OA
ENDBRANCH  17  18
ENDBRANCH  16  17
ENDBRANCH   8  16
BRANCH  15  21
ATOM     21  N   UNL     1       3.115  -8.021  -1.327  1.00  0.00    -0.342 N 
ATOM     22  C   UNL     1       3.439  -9.317  -1.050  1.00  0.00     0.223 C 
ATOM     23  H   UNL     1       3.303  -7.727  -2.248  1.00  0.00     0.164 HD
ATOM     24  O   UNL     1       3.873 -10.029  -1.954  1.00  0.00    -0.275 OA
BRANCH  22  25
ATOM     25  C   UNL     1       3.239  -9.819   0.372  1.00  0.00     0.078 C 
ATOM     26  C   UNL     1       3.312 -11.352   0.433  1.00  0.00     0.013 C 
ATOM     27  C   UNL     1       4.286  -9.204   1.312  1.00  0.00     0.013 C 
ATOM     28  C   UNL     1       3.150 -11.865   1.861  1.00  0.00     0.001 C 
ATOM     29  C   UNL     1       4.086  -9.693   2.742  1.00  0.00     0.001 C 
ATOM     30  C   UNL     1       4.148 -11.214   2.815  1.00  0.00     0.000 C 
ENDBRANCH  22  25
ENDBRANCH  15  21
ENDBRANCH   5   7
ENDBRANCH   4   5
ENDBRANCH   3   4
ENDBRANCH   2   3
ENDBRANCH   1   2
BRANCH   1  31
ATOM     31  C   UNL     1       2.572  -1.611   1.141  1.00  0.00     0.202 C 
BRANCH  31  32
ATOM     32  C   UNL     1       1.666  -0.774   2.059  1.00  0.00     0.261 C 
BRANCH  32  33
ATOM     33  O   UNL     1       1.025   0.308   1.352  1.00  0.00    -0.460 OA
BRANCH  33  34
ATOM     34  C   UNL     1       1.541   1.553   1.540  1.00  0.00     0.338 C 
ATOM     35  O   UNL     1       2.433   1.863   2.310  1.00  0.00    -0.246 OA
BRANCH  34  36
ATOM     36  C   UNL     1       1.010   2.449   0.480  1.00  0.00     0.060 A 
ATOM     37  C   UNL     1       1.923   3.150  -0.318  1.00  0.00     0.016 A 
ATOM     38  C   UNL     1      -0.356   2.543   0.208  1.00  0.00     0.016 A 
ATOM     39  C   UNL     1       1.474   3.928  -1.395  1.00  0.00     0.010 A 
ATOM     40  C   UNL     1      -0.799   3.294  -0.893  1.00  0.00     0.010 A 
ATOM     41  C   UNL     1       0.107   4.011  -1.699  1.00  0.00    -0.014 A 
BRANCH  41  42
ATOM     42  C   UNL     1      -0.391   4.941  -2.762  1.00  0.00     0.031 A 
ATOM     43  C   UNL     1      -1.214   6.141  -2.362  1.00  0.00     0.074 A 
ATOM     44  C   UNL     1      -0.118   4.754  -4.071  1.00  0.00     0.049 A 
ATOM     45  N   UNL     1      -1.785   7.052  -3.111  1.00  0.00    -0.248 NA
ATOM     46  C   UNL     1      -1.435   6.322  -0.921  1.00  0.00     0.031 C 
ATOM     47  C   UNL     1       0.687   3.667  -4.625  1.00  0.00     0.029 A 
ATOM     48  N   UNL     1      -0.491   5.485  -5.178  1.00  0.00    -0.354 N 
ATOM     49  C   UNL     1      -2.440   7.909  -2.231  1.00  0.00     0.074 A 
ATOM     50  C   UNL     1      -2.257   7.357  -0.905  1.00  0.00     0.031 C 
ATOM     51  C   UNL     1       0.768   3.818  -5.959  1.00  0.00     0.029 A 
ATOM     52  C   UNL     1      -0.018   4.982  -6.369  1.00  0.00     0.049 A 
ATOM     53  H   UNL     1      -1.046   6.296  -5.122  1.00  0.00     0.167 HD
ATOM     54  C   UNL     1      -3.107   9.063  -2.489  1.00  0.00     0.034 A 
ATOM     55  C   UNL     1      -0.205   5.394  -7.643  1.00  0.00     0.034 A 
ATOM     56  C   UNL     1      -3.294   9.617  -3.807  1.00  0.00     0.049 A 
ATOM     57  C   UNL     1      -1.064   6.607  -7.924  1.00  0.00     0.074 A 
ATOM     58  C   UNL     1      -3.922  10.799  -4.162  1.00  0.00     0.029 A 
ATOM     59  N   UNL     1      -2.878   9.022  -4.990  1.00  0.00    -0.354 N 
ATOM     60  N   UNL     1      -1.649   7.423  -7.078  1.00  0.00    -0.248 NA
ATOM     61  C   UNL     1      -1.292   6.950  -9.337  1.00  0.00     0.031 C 
ATOM     62  C   UNL     1      -3.971  10.870  -5.558  1.00  0.00     0.029 A 
ATOM     63  C   UNL     1      -3.291   9.781  -6.076  1.00  0.00     0.049 A 
ATOM     64  H   UNL     1      -2.364   8.185  -5.050  1.00  0.00     0.167 HD
ATOM     65  C   UNL     1      -2.291   8.386  -7.857  1.00  0.00     0.074 A 
ATOM     66  C   UNL     1      -2.011   8.060  -9.239  1.00  0.00     0.031 C 
ATOM     67  C   UNL     1      -3.038   9.447  -7.459  1.00  0.00     0.034 A 
BRANCH  54  68
ATOM     68  C   UNL     1      -3.723   9.775  -1.306  1.00  0.00     0.023 A 
ATOM     69  C   UNL     1      -2.938  10.236  -0.235  1.00  0.00     0.031 A 
ATOM     70  C   UNL     1      -5.117   9.932  -1.213  1.00  0.00     0.131 A 
ATOM     71  C   UNL     1      -3.555  10.713   0.929  1.00  0.00     0.055 A 
ATOM     72  C   UNL     1      -5.719  10.513  -0.095  1.00  0.00     0.041 A 
ATOM     73  F   UNL     1      -5.923   9.496  -2.194  1.00  0.00    -0.206 F 
ATOM     74  C   UNL     1      -4.939  10.884   0.996  1.00  0.00     0.022 A 
BRANCH  71  75
ATOM     75  S   UNL     1      -2.542  10.893   2.424  1.00  0.00     0.124 S 
ATOM     76  O   UNL     1      -1.966   9.555   2.550  1.00  0.00    -0.237 OA
ATOM     77  O   UNL     1      -1.616  11.955   2.050  1.00  0.00    -0.237 OA
ATOM     78  O   UNL     1      -3.515  11.242   3.457  1.00  0.00    -0.744 OA
ENDBRANCH  71  75
ENDBRANCH  54  68
BRANCH  55  79
ATOM     79  C   UNL     1       0.406   4.639  -8.780  1.00  0.00     0.023 A 
ATOM     80  C   UNL     1       1.358   5.240  -9.619  1.00  0.00     0.031 A 
ATOM     81  C   UNL     1       0.004   3.324  -9.077  1.00  0.00     0.131 A 
ATOM     82  C   UNL     1       1.854   4.540 -10.731  1.00  0.00     0.055 A 
ATOM     83  C   UNL     1       0.540   2.613 -10.153  1.00  0.00     0.041 A 
ATOM     84  F   UNL     1      -0.913   2.706  -8.317  1.00  0.00    -0.206 F 
ATOM     85  C   UNL     1       1.465   3.225 -10.993  1.00  0.00     0.022 A 
BRANCH  82  86
ATOM     86  S   UNL     1       2.966   5.401 -11.879  1.00  0.00     0.124 S 
ATOM     87  O   UNL     1       2.114   6.482 -12.360  1.00  0.00    -0.237 OA
ATOM     88  O   UNL     1       4.066   5.789 -11.003  1.00  0.00    -0.237 OA
ATOM     89  O   UNL     1       3.292   4.375 -12.868  1.00  0.00    -0.744 OA
ENDBRANCH  82  86
ENDBRANCH  55  79
BRANCH  67  90
ATOM     90  C   UNL     1      -3.602  10.356  -8.529  1.00  0.00     0.023 A 
ATOM     91  C   UNL     1      -4.586   9.914  -9.432  1.00  0.00     0.031 A 
ATOM     92  C   UNL     1      -3.171  11.692  -8.630  1.00  0.00     0.131 A 
ATOM     93  C   UNL     1      -5.079  10.787 -10.416  1.00  0.00     0.055 A 
ATOM     94  C   UNL     1      -3.709  12.573  -9.570  1.00  0.00     0.041 A 
ATOM     95  F   UNL     1      -2.231  12.171  -7.800  1.00  0.00    -0.206 F 
ATOM     96  C   UNL     1      -4.663  12.120 -10.476  1.00  0.00     0.022 A 
BRANCH  93  97
ATOM     97  S   UNL     1      -6.224  10.139 -11.665  1.00  0.00     0.124 S 
ATOM     98  O   UNL     1      -5.422   9.097 -12.299  1.00  0.00    -0.237 OA
ATOM     99  O   UNL     1      -7.345   9.676 -10.854  1.00  0.00    -0.237 OA
ATOM    100  O   UNL     1      -6.507  11.300 -12.507  1.00  0.00    -0.744 OA
ENDBRANCH  93  97
ENDBRANCH  67  90
ENDBRANCH  41  42
ENDBRANCH  34  36
ENDBRANCH  33  34
ENDBRANCH  32  33
ENDBRANCH  31  32
ENDBRANCH   1  31
TORSDOF 22
