REMARK SMILES C[C@@H](CC(=O)OCCOCCOC(=O)c1ccc(-c2c3nc(c(-c4cc(S(=O)(=O)[O-])ccc4F)c4ccc([nH]4)c(-c4cc(S(=O)(=O)[O-])ccc4F)c4nc(c(-c5cc(S(=O)(=O)[O-])ccc5F)c5ccc2[nH]5)C=C4)C=C3)cc1)NC(=O)CCCN1C(=O)CN(C)C1=O
REMARK SMILES IDX 7 1 6 2 4 3 5 4 3 5 2 6 1 7 78 8 79 9 80 11 81 12 82 13
REMARK SMILES IDX 83 14 84 15 85 16 90 17 86 18 87 19 88 20 91 21 89 22 8 23
REMARK SMILES IDX 9 24 10 25 11 26 12 27 13 28 14 29 15 30 16 31 77 32 17 33
REMARK SMILES IDX 76 34 18 35 19 36 20 37 70 38 21 39 75 40 69 41 71 42 22 43
REMARK SMILES IDX 74 44 68 45 67 46 23 48 55 49 35 50 54 51 36 52 39 53 53 54
REMARK SMILES IDX 72 55 37 56 38 57 52 59 73 60 40 61 24 62 25 63 33 64 26 65
REMARK SMILES IDX 32 66 34 67 31 68 27 69 28 70 29 71 30 72 56 73 57 74 65 75
REMARK SMILES IDX 58 76 64 77 66 78 63 79 59 80 60 81 61 82 62 83 41 84 42 85
REMARK SMILES IDX 50 86 43 87 49 88 51 89 48 90 44 91 45 92 46 93 47 94
REMARK H PARENT 78 10 71 47 39 58
REMARK Flexibility Score: inf
ROOT
ATOM      1  C   UNL     1       0.494  -0.180  -4.455  1.00  0.00     0.261 C 
ENDROOT
BRANCH   1   2
ATOM      2  O   UNL     1       0.677   0.243  -3.096  1.00  0.00    -0.463 OA
BRANCH   2   3
ATOM      3  C   UNL     1       0.976   1.543  -2.913  1.00  0.00     0.307 C 
ATOM      4  O   UNL     1       1.246   2.343  -3.804  1.00  0.00    -0.252 OA
BRANCH   3   5
ATOM      5  C   UNL     1       0.904   1.979  -1.476  1.00  0.00     0.147 C 
BRANCH   5   6
ATOM      6  C   UNL     1       0.537   1.032  -0.327  1.00  0.00     0.090 C 
ATOM      7  C   UNL     1       1.033  -0.404  -0.376  1.00  0.00     0.031 C 
BRANCH   6   8
ATOM      8  N   UNL     1      -0.862   1.072   0.079  1.00  0.00    -0.353 N 
ATOM      9  C   UNL     1      -1.426   1.737   1.130  1.00  0.00     0.220 C 
ATOM     10  H   UNL     1      -1.483   0.550  -0.479  1.00  0.00     0.163 HD
ATOM     11  O   UNL     1      -2.618   1.549   1.378  1.00  0.00    -0.275 OA
BRANCH   9  12
ATOM     12  C   UNL     1      -0.608   2.734   1.935  1.00  0.00     0.102 C 
BRANCH  12  13
ATOM     13  C   UNL     1       0.248   2.150   3.072  1.00  0.00     0.032 C 
BRANCH  13  14
ATOM     14  C   UNL     1       1.774   2.025   2.850  1.00  0.00     0.131 C 
BRANCH  14  15
ATOM     15  N   UNL     1       2.365   3.079   2.038  1.00  0.00    -0.263 N 
ATOM     16  C   UNL     1       2.164   4.420   2.204  1.00  0.00     0.250 C 
ATOM     17  C   UNL     1       3.166   2.850   0.947  1.00  0.00     0.326 C 
ATOM     18  O   UNL     1       1.579   4.964   3.131  1.00  0.00    -0.272 OA
ATOM     19  C   UNL     1       2.695   5.143   0.978  1.00  0.00     0.221 C 
ATOM     20  N   UNL     1       3.335   4.057   0.285  1.00  0.00    -0.318 N 
ATOM     21  O   UNL     1       3.582   1.774   0.568  1.00  0.00    -0.248 OA
ATOM     22  C   UNL     1       3.881   4.204  -1.046  1.00  0.00     0.149 C 
ENDBRANCH  14  15
ENDBRANCH  13  14
ENDBRANCH  12  13
ENDBRANCH   9  12
ENDBRANCH   6   8
ENDBRANCH   5   6
ENDBRANCH   3   5
ENDBRANCH   2   3
ENDBRANCH   1   2
BRANCH   1  23
ATOM     23  C   UNL     1      -0.973  -0.540  -4.684  1.00  0.00     0.202 C 
BRANCH  23  24
ATOM     24  O   UNL     1      -1.899   0.544  -4.607  1.00  0.00    -0.374 OA
BRANCH  24  25
ATOM     25  C   UNL     1      -2.280   1.020  -3.315  1.00  0.00     0.202 C 
BRANCH  25  26
ATOM     26  C   UNL     1      -3.111   0.072  -2.442  1.00  0.00     0.261 C 
BRANCH  26  27
ATOM     27  O   UNL     1      -2.316  -1.030  -1.948  1.00  0.00    -0.460 OA
BRANCH  27  28
ATOM     28  C   UNL     1      -2.841  -2.252  -2.232  1.00  0.00     0.338 C 
ATOM     29  O   UNL     1      -3.935  -2.473  -2.727  1.00  0.00    -0.246 OA
BRANCH  28  30
ATOM     30  C   UNL     1      -1.837  -3.323  -2.079  1.00  0.00     0.060 A 
ATOM     31  C   UNL     1      -1.466  -4.011  -3.241  1.00  0.00     0.016 A 
ATOM     32  C   UNL     1      -1.399  -3.764  -0.830  1.00  0.00     0.016 A 
ATOM     33  C   UNL     1      -0.709  -5.177  -3.157  1.00  0.00     0.010 A 
ATOM     34  C   UNL     1      -0.638  -4.943  -0.748  1.00  0.00     0.010 A 
ATOM     35  C   UNL     1      -0.328  -5.681  -1.907  1.00  0.00    -0.014 A 
BRANCH  35  36
ATOM     36  C   UNL     1       0.247  -7.053  -1.832  1.00  0.00     0.031 A 
ATOM     37  C   UNL     1      -0.629  -8.198  -1.389  1.00  0.00     0.074 A 
ATOM     38  C   UNL     1       1.507  -7.299  -2.238  1.00  0.00     0.049 A 
ATOM     39  N   UNL     1      -0.338  -9.469  -1.262  1.00  0.00    -0.248 NA
ATOM     40  C   UNL     1      -2.020  -7.865  -1.050  1.00  0.00     0.031 C 
ATOM     41  C   UNL     1       2.436  -6.294  -2.752  1.00  0.00     0.029 A 
ATOM     42  N   UNL     1       2.220  -8.472  -2.289  1.00  0.00    -0.354 N 
ATOM     43  C   UNL     1      -1.505 -10.086  -0.822  1.00  0.00     0.074 A 
ATOM     44  C   UNL     1      -2.496  -9.041  -0.669  1.00  0.00     0.031 C 
ATOM     45  C   UNL     1       3.597  -6.893  -3.066  1.00  0.00     0.029 A 
ATOM     46  C   UNL     1       3.513  -8.315  -2.734  1.00  0.00     0.049 A 
ATOM     47  H   UNL     1       1.842  -9.344  -2.031  1.00  0.00     0.167 HD
ATOM     48  C   UNL     1      -1.732 -11.402  -0.577  1.00  0.00     0.034 A 
ATOM     49  C   UNL     1       4.522  -9.205  -2.836  1.00  0.00     0.034 A 
ATOM     50  C   UNL     1      -0.736 -12.436  -0.730  1.00  0.00     0.049 A 
ATOM     51  C   UNL     1       4.276 -10.647  -2.459  1.00  0.00     0.074 A 
ATOM     52  C   UNL     1      -0.871 -13.799  -0.522  1.00  0.00     0.029 A 
ATOM     53  N   UNL     1       0.583 -12.226  -1.111  1.00  0.00    -0.354 N 
ATOM     54  N   UNL     1       3.168 -11.216  -2.043  1.00  0.00    -0.248 NA
ATOM     55  C   UNL     1       5.415 -11.568  -2.575  1.00  0.00     0.031 C 
ATOM     56  C   UNL     1       0.381 -14.398  -0.694  1.00  0.00     0.029 A 
ATOM     57  C   UNL     1       1.280 -13.426  -1.103  1.00  0.00     0.049 A 
ATOM     58  H   UNL     1       0.968 -11.352  -1.353  1.00  0.00     0.167 HD
ATOM     59  C   UNL     1       3.471 -12.567  -1.880  1.00  0.00     0.074 A 
ATOM     60  C   UNL     1       4.860 -12.728  -2.255  1.00  0.00     0.031 C 
ATOM     61  C   UNL     1       2.670 -13.582  -1.466  1.00  0.00     0.034 A 
BRANCH  48  62
ATOM     62  C   UNL     1      -3.099 -11.788  -0.059  1.00  0.00     0.023 A 
ATOM     63  C   UNL     1      -4.265 -11.612  -0.823  1.00  0.00     0.031 A 
ATOM     64  C   UNL     1      -3.236 -12.329   1.233  1.00  0.00     0.131 A 
ATOM     65  C   UNL     1      -5.519 -11.906  -0.266  1.00  0.00     0.055 A 
ATOM     66  C   UNL     1      -4.479 -12.697   1.751  1.00  0.00     0.041 A 
ATOM     67  F   UNL     1      -2.162 -12.500   2.020  1.00  0.00    -0.206 F 
ATOM     68  C   UNL     1      -5.632 -12.472   1.006  1.00  0.00     0.022 A 
BRANCH  65  69
ATOM     69  S   UNL     1      -7.011 -11.401  -1.167  1.00  0.00     0.124 S 
ATOM     70  O   UNL     1      -6.792  -9.964  -1.317  1.00  0.00    -0.237 OA
ATOM     71  O   UNL     1      -6.923 -12.193  -2.388  1.00  0.00    -0.237 OA
ATOM     72  O   UNL     1      -8.098 -11.766  -0.262  1.00  0.00    -0.744 OA
ENDBRANCH  65  69
ENDBRANCH  48  62
BRANCH  49  73
ATOM     73  C   UNL     1       5.880  -8.757  -3.265  1.00  0.00     0.023 A 
ATOM     74  C   UNL     1       6.483  -9.258  -4.429  1.00  0.00     0.031 A 
ATOM     75  C   UNL     1       6.621  -7.861  -2.473  1.00  0.00     0.131 A 
ATOM     76  C   UNL     1       7.802  -8.894  -4.745  1.00  0.00     0.055 A 
ATOM     77  C   UNL     1       7.910  -7.456  -2.822  1.00  0.00     0.041 A 
ATOM     78  F   UNL     1       6.096  -7.357  -1.344  1.00  0.00    -0.206 F 
ATOM     79  C   UNL     1       8.513  -7.984  -3.958  1.00  0.00     0.022 A 
BRANCH  76  80
ATOM     80  S   UNL     1       8.614  -9.701  -6.152  1.00  0.00     0.124 S 
ATOM     81  O   UNL     1       8.538 -11.106  -5.772  1.00  0.00    -0.237 OA
ATOM     82  O   UNL     1       7.767  -9.289  -7.267  1.00  0.00    -0.237 OA
ATOM     83  O   UNL     1       9.957  -9.123  -6.146  1.00  0.00    -0.744 OA
ENDBRANCH  76  80
ENDBRANCH  49  73
BRANCH  61  84
ATOM     84  C   UNL     1       3.264 -14.973  -1.446  1.00  0.00     0.023 A 
ATOM     85  C   UNL     1       4.310 -15.326  -0.575  1.00  0.00     0.031 A 
ATOM     86  C   UNL     1       2.776 -15.961  -2.322  1.00  0.00     0.131 A 
ATOM     87  C   UNL     1       4.870 -16.613  -0.637  1.00  0.00     0.055 A 
ATOM     88  C   UNL     1       3.292 -17.258  -2.333  1.00  0.00     0.041 A 
ATOM     89  F   UNL     1       1.782 -15.682  -3.180  1.00  0.00    -0.206 F 
ATOM     90  C   UNL     1       4.354 -17.586  -1.497  1.00  0.00     0.022 A 
BRANCH  87  91
ATOM     91  S   UNL     1       6.347 -16.973   0.353  1.00  0.00     0.124 S 
ATOM     92  O   UNL     1       7.287 -15.965  -0.128  1.00  0.00    -0.237 OA
ATOM     93  O   UNL     1       5.861 -16.792   1.717  1.00  0.00    -0.237 OA
ATOM     94  O   UNL     1       6.676 -18.350  -0.009  1.00  0.00    -0.744 OA
ENDBRANCH  87  91
ENDBRANCH  61  84
ENDBRANCH  35  36
ENDBRANCH  28  30
ENDBRANCH  27  28
ENDBRANCH  26  27
ENDBRANCH  25  26
ENDBRANCH  24  25
ENDBRANCH  23  24
ENDBRANCH   1  23
TORSDOF 23
