REMARK SMILES O=C(CC1(CC(=O)OCCOCCOC(=O)c2ccc(-c3c4nc(c(-c5cc(S(=O)(=O)[O-])ccc5F)c5ccc([nH]5)c(-c5cc(S(=O)(=O)[O-])ccc5F)c5nc(c(-c6cc(S(=O)(=O)[O-])ccc6F)c6ccc3[nH]6)C=C5)C=C4)cc2)CCCCC1)Nc1ccc2ccccc2n1
REMARK SMILES IDX 10 1 9 2 8 3 6 4 7 5 5 6 4 7 80 8 84 9 81 10 83 11 82 12
REMARK SMILES IDX 3 13 2 14 1 15 85 16 86 18 87 19 95 20 88 21 94 22 89 23
REMARK SMILES IDX 93 24 90 25 92 26 91 27 11 28 12 29 13 30 14 31 15 32 16 33
REMARK SMILES IDX 17 34 18 35 79 36 19 37 78 38 20 39 21 40 22 41 72 42 23 43
REMARK SMILES IDX 77 44 71 45 73 46 24 47 76 48 70 49 69 50 25 52 57 53 37 54
REMARK SMILES IDX 56 55 38 56 41 57 55 58 74 59 39 60 40 61 54 63 75 64 42 65
REMARK SMILES IDX 26 66 27 67 35 68 28 69 34 70 36 71 33 72 29 73 30 74 31 75
REMARK SMILES IDX 32 76 58 77 59 78 67 79 60 80 66 81 68 82 65 83 61 84 62 85
REMARK SMILES IDX 63 86 64 87 43 88 44 89 52 90 45 91 51 92 53 93 50 94 46 95
REMARK SMILES IDX 47 96 48 97 49 98
REMARK H PARENT 85 17 73 51 41 62
REMARK Flexibility Score: inf
ROOT
ATOM      1  C   UNL     1      -0.231  -3.404  -1.293  1.00  0.00     0.202 C 
ENDROOT
BRANCH   1   2
ATOM      2  C   UNL     1       0.849  -3.599  -2.369  1.00  0.00     0.261 C 
BRANCH   2   3
ATOM      3  O   UNL     1       2.182  -3.349  -1.869  1.00  0.00    -0.463 OA
BRANCH   3   4
ATOM      4  C   UNL     1       2.785  -2.214  -2.289  1.00  0.00     0.306 C 
ATOM      5  O   UNL     1       2.300  -1.395  -3.060  1.00  0.00    -0.252 OA
BRANCH   4   6
ATOM      6  C   UNL     1       4.168  -2.014  -1.716  1.00  0.00     0.130 C 
BRANCH   6   7
ATOM      7  C   UNL     1       4.318  -1.779  -0.197  1.00  0.00    -0.010 C 
ATOM      8  C   UNL     1       5.849  -1.726   0.153  1.00  0.00     0.008 C 
ATOM      9  C   UNL     1       3.786  -2.990   0.652  1.00  0.00     0.008 C 
ATOM     10  C   UNL     1       6.614  -3.033  -0.088  1.00  0.00     0.001 C 
ATOM     11  C   UNL     1       4.479  -4.320   0.348  1.00  0.00     0.001 C 
ATOM     12  C   UNL     1       5.975  -4.234   0.602  1.00  0.00     0.000 C 
BRANCH   7  13
ATOM     13  C   UNL     1       3.681  -0.439   0.333  1.00  0.00     0.108 C 
BRANCH  13  14
ATOM     14  C   UNL     1       3.271   0.888  -0.386  1.00  0.00     0.226 C 
ATOM     15  O   UNL     1       3.520   1.933   0.230  1.00  0.00    -0.275 OA
ATOM     16  N   UNL     1       2.463   0.876  -1.507  1.00  0.00    -0.311 N 
ATOM     17  H   UNL     1       2.680   0.240  -2.226  1.00  0.00     0.171 HD
BRANCH  16  18
ATOM     18  C   UNL     1       1.328   1.732  -1.686  1.00  0.00     0.133 A 
ATOM     19  C   UNL     1       1.077   2.747  -0.787  1.00  0.00     0.048 A 
ATOM     20  N   UNL     1       0.322   1.162  -2.391  1.00  0.00    -0.231 NA
ATOM     21  C   UNL     1      -0.172   2.753  -0.187  1.00  0.00     0.014 A 
ATOM     22  C   UNL     1      -0.929   1.228  -1.871  1.00  0.00     0.073 A 
ATOM     23  C   UNL     1      -1.173   1.903  -0.661  1.00  0.00     0.000 A 
ATOM     24  C   UNL     1      -1.995   0.527  -2.433  1.00  0.00     0.029 A 
ATOM     25  C   UNL     1      -2.361   1.689   0.058  1.00  0.00     0.010 A 
ATOM     26  C   UNL     1      -3.208   0.359  -1.751  1.00  0.00     0.002 A 
ATOM     27  C   UNL     1      -3.366   0.890  -0.476  1.00  0.00     0.001 A 
ENDBRANCH  16  18
ENDBRANCH  13  14
ENDBRANCH   7  13
ENDBRANCH   6   7
ENDBRANCH   4   6
ENDBRANCH   3   4
ENDBRANCH   2   3
ENDBRANCH   1   2
BRANCH   1  28
ATOM     28  O   UNL     1      -0.533  -2.050  -0.949  1.00  0.00    -0.374 OA
BRANCH  28  29
ATOM     29  C   UNL     1       0.436  -1.404  -0.139  1.00  0.00     0.202 C 
BRANCH  29  30
ATOM     30  C   UNL     1       0.018  -1.045   1.281  1.00  0.00     0.261 C 
BRANCH  30  31
ATOM     31  O   UNL     1      -0.182  -2.253   1.999  1.00  0.00    -0.460 OA
BRANCH  31  32
ATOM     32  C   UNL     1      -1.450  -2.697   1.877  1.00  0.00     0.338 C 
ATOM     33  O   UNL     1      -2.436  -2.057   1.539  1.00  0.00    -0.246 OA
BRANCH  32  34
ATOM     34  C   UNL     1      -1.429  -4.153   2.014  1.00  0.00     0.060 A 
ATOM     35  C   UNL     1      -2.343  -4.864   1.233  1.00  0.00     0.016 A 
ATOM     36  C   UNL     1      -0.546  -4.802   2.887  1.00  0.00     0.016 A 
ATOM     37  C   UNL     1      -2.478  -6.223   1.426  1.00  0.00     0.010 A 
ATOM     38  C   UNL     1      -0.668  -6.171   3.068  1.00  0.00     0.010 A 
ATOM     39  C   UNL     1      -1.693  -6.856   2.398  1.00  0.00    -0.014 A 
BRANCH  39  40
ATOM     40  C   UNL     1      -2.143  -8.165   2.893  1.00  0.00     0.031 A 
ATOM     41  C   UNL     1      -2.927  -8.196   4.173  1.00  0.00     0.074 A 
ATOM     42  C   UNL     1      -1.937  -9.259   2.149  1.00  0.00     0.049 A 
ATOM     43  N   UNL     1      -3.482  -9.207   4.783  1.00  0.00    -0.248 NA
ATOM     44  C   UNL     1      -3.101  -6.907   4.864  1.00  0.00     0.031 C 
ATOM     45  C   UNL     1      -1.237  -9.281   0.865  1.00  0.00     0.029 A 
ATOM     46  N   UNL     1      -2.322 -10.552   2.353  1.00  0.00    -0.354 N 
ATOM     47  C   UNL     1      -4.067  -8.677   5.928  1.00  0.00     0.074 A 
ATOM     48  C   UNL     1      -3.740  -7.270   5.962  1.00  0.00     0.031 C 
ATOM     49  C   UNL     1      -1.266 -10.532   0.380  1.00  0.00     0.029 A 
ATOM     50  C   UNL     1      -1.948 -11.396   1.339  1.00  0.00     0.049 A 
ATOM     51  H   UNL     1      -2.819 -10.849   3.149  1.00  0.00     0.167 HD
ATOM     52  C   UNL     1      -4.827  -9.312   6.853  1.00  0.00     0.034 A 
ATOM     53  C   UNL     1      -2.138 -12.721   1.217  1.00  0.00     0.034 A 
ATOM     54  C   UNL     1      -5.109 -10.724   6.786  1.00  0.00     0.049 A 
ATOM     55  C   UNL     1      -2.905 -13.428   2.304  1.00  0.00     0.074 A 
ATOM     56  C   UNL     1      -5.845 -11.504   7.658  1.00  0.00     0.029 A 
ATOM     57  N   UNL     1      -4.648 -11.574   5.784  1.00  0.00    -0.354 N 
ATOM     58  N   UNL     1      -3.448 -12.929   3.393  1.00  0.00    -0.248 NA
ATOM     59  C   UNL     1      -3.096 -14.870   2.138  1.00  0.00     0.031 C 
ATOM     60  C   UNL     1      -5.756 -12.834   7.230  1.00  0.00     0.029 A 
ATOM     61  C   UNL     1      -5.052 -12.874   6.035  1.00  0.00     0.049 A 
ATOM     62  H   UNL     1      -4.111 -11.291   5.008  1.00  0.00     0.167 HD
ATOM     63  C   UNL     1      -4.082 -13.995   4.025  1.00  0.00     0.074 A 
ATOM     64  C   UNL     1      -3.856 -15.157   3.184  1.00  0.00     0.031 C 
ATOM     65  C   UNL     1      -4.794 -14.016   5.183  1.00  0.00     0.034 A 
BRANCH  52  66
ATOM     66  C   UNL     1      -5.319  -8.488   8.023  1.00  0.00     0.023 A 
ATOM     67  C   UNL     1      -6.128  -7.349   7.844  1.00  0.00     0.031 A 
ATOM     68  C   UNL     1      -4.893  -8.784   9.329  1.00  0.00     0.131 A 
ATOM     69  C   UNL     1      -6.387  -6.493   8.927  1.00  0.00     0.055 A 
ATOM     70  C   UNL     1      -5.242  -7.985  10.421  1.00  0.00     0.041 A 
ATOM     71  F   UNL     1      -4.094  -9.837   9.566  1.00  0.00    -0.206 F 
ATOM     72  C   UNL     1      -5.974  -6.818  10.220  1.00  0.00     0.022 A 
BRANCH  69  73
ATOM     73  S   UNL     1      -7.082  -4.851   8.585  1.00  0.00     0.124 S 
ATOM     74  O   UNL     1      -6.104  -4.307   7.646  1.00  0.00    -0.237 OA
ATOM     75  O   UNL     1      -8.392  -5.171   8.031  1.00  0.00    -0.237 OA
ATOM     76  O   UNL     1      -7.098  -4.206   9.897  1.00  0.00    -0.744 OA
ENDBRANCH  69  73
ENDBRANCH  52  66
BRANCH  53  77
ATOM     77  C   UNL     1      -1.605 -13.442   0.031  1.00  0.00     0.023 A 
ATOM     78  C   UNL     1      -2.466 -14.053  -0.891  1.00  0.00     0.031 A 
ATOM     79  C   UNL     1      -0.220 -13.524  -0.203  1.00  0.00     0.131 A 
ATOM     80  C   UNL     1      -1.935 -14.747  -1.988  1.00  0.00     0.055 A 
ATOM     81  C   UNL     1       0.302 -14.172  -1.323  1.00  0.00     0.041 A 
ATOM     82  F   UNL     1       0.648 -12.948   0.645  1.00  0.00    -0.206 F 
ATOM     83  C   UNL     1      -0.558 -14.798  -2.218  1.00  0.00     0.022 A 
BRANCH  80  84
ATOM     84  S   UNL     1      -3.072 -15.642  -3.080  1.00  0.00     0.124 S 
ATOM     85  O   UNL     1      -3.713 -16.563  -2.149  1.00  0.00    -0.237 OA
ATOM     86  O   UNL     1      -3.908 -14.562  -3.595  1.00  0.00    -0.237 OA
ATOM     87  O   UNL     1      -2.184 -16.261  -4.061  1.00  0.00    -0.744 OA
ENDBRANCH  80  84
ENDBRANCH  53  77
BRANCH  65  88
ATOM     88  C   UNL     1      -5.421 -15.334   5.568  1.00  0.00     0.023 A 
ATOM     89  C   UNL     1      -4.645 -16.463   5.878  1.00  0.00     0.031 A 
ATOM     90  C   UNL     1      -6.821 -15.464   5.601  1.00  0.00     0.131 A 
ATOM     91  C   UNL     1      -5.272 -17.692   6.128  1.00  0.00     0.055 A 
ATOM     92  C   UNL     1      -7.440 -16.669   5.932  1.00  0.00     0.041 A 
ATOM     93  F   UNL     1      -7.612 -14.418   5.309  1.00  0.00    -0.206 F 
ATOM     94  C   UNL     1      -6.665 -17.797   6.179  1.00  0.00     0.022 A 
BRANCH  91  95
ATOM     95  S   UNL     1      -4.244 -19.180   6.250  1.00  0.00     0.124 S 
ATOM     96  O   UNL     1      -3.529 -19.158   4.978  1.00  0.00    -0.237 OA
ATOM     97  O   UNL     1      -3.440 -18.907   7.438  1.00  0.00    -0.237 OA
ATOM     98  O   UNL     1      -5.219 -20.259   6.395  1.00  0.00    -0.744 OA
ENDBRANCH  91  95
ENDBRANCH  65  88
ENDBRANCH  39  40
ENDBRANCH  32  34
ENDBRANCH  31  32
ENDBRANCH  30  31
ENDBRANCH  29  30
ENDBRANCH  28  29
ENDBRANCH   1  28
TORSDOF 21
