REMARK SMILES O=C(OCCOCCOC(=O)C(F)(F)[C@H](O)c1ccccc1C1CC1)c1ccc(-c2c3nc(c(-c4cc(S(=O)(=O)[O-])ccc4F)c4ccc([nH]4)c(-c4cc(S(=O)(=O)[O-])ccc4F)c4nc(c(-c5cc(S(=O)(=O)[O-])ccc5F)c5ccc2[nH]5)C=C4)C=C3)cc1
REMARK SMILES IDX 6 1 5 2 4 3 3 4 2 5 1 6 26 7 27 8 88 9 28 10 87 11 29 12
REMARK SMILES IDX 30 13 31 14 81 15 32 16 86 17 80 18 82 19 33 20 85 21 79 22
REMARK SMILES IDX 78 23 34 25 66 26 46 27 65 28 47 29 50 30 64 31 83 32 48 33
REMARK SMILES IDX 49 34 63 36 84 37 51 38 35 39 36 40 44 41 37 42 43 43 45 44
REMARK SMILES IDX 42 45 38 46 39 47 40 48 41 49 67 50 68 51 76 52 69 53 75 54
REMARK SMILES IDX 77 55 74 56 70 57 71 58 72 59 73 60 52 61 53 62 61 63 54 64
REMARK SMILES IDX 60 65 62 66 59 67 55 68 56 69 57 70 58 71 7 72 8 73 9 74
REMARK SMILES IDX 10 75 11 76 12 77 13 78 14 79 15 80 17 81 18 82 22 83 19 84
REMARK SMILES IDX 21 85 20 86 23 87 24 88 25 89 16 90
REMARK H PARENT 82 24 50 35 16 91
REMARK Flexibility Score: inf
ROOT
ATOM      1  O   UNL     1       7.261   5.875   3.580  1.00  0.00    -0.374 OA
ENDROOT
BRANCH   1   2
ATOM      2  C   UNL     1       8.387   5.472   2.804  1.00  0.00     0.202 C 
BRANCH   2   3
ATOM      3  C   UNL     1       9.674   6.303   2.918  1.00  0.00     0.261 C 
BRANCH   3   4
ATOM      4  O   UNL     1      10.026   6.543   4.289  1.00  0.00    -0.460 OA
BRANCH   4   5
ATOM      5  C   UNL     1       9.893   7.711   4.966  1.00  0.00     0.338 C 
ATOM      6  O   UNL     1      10.367   7.804   6.096  1.00  0.00    -0.246 OA
BRANCH   5   7
ATOM      7  C   UNL     1       9.168   8.885   4.398  1.00  0.00     0.060 A 
ATOM      8  C   UNL     1       8.128   8.776   3.479  1.00  0.00     0.016 A 
ATOM      9  C   UNL     1       9.490  10.163   4.878  1.00  0.00     0.016 A 
ATOM     10  C   UNL     1       7.473   9.877   2.977  1.00  0.00     0.010 A 
ATOM     11  C   UNL     1       8.777  11.285   4.437  1.00  0.00     0.010 A 
ATOM     12  C   UNL     1       7.764  11.135   3.482  1.00  0.00    -0.014 A 
BRANCH  12  13
ATOM     13  C   UNL     1       6.997  12.252   2.914  1.00  0.00     0.031 A 
ATOM     14  C   UNL     1       7.681  13.161   1.947  1.00  0.00     0.074 A 
ATOM     15  C   UNL     1       5.668  12.294   3.129  1.00  0.00     0.049 A 
ATOM     16  N   UNL     1       7.215  14.213   1.337  1.00  0.00    -0.248 NA
ATOM     17  C   UNL     1       9.076  12.829   1.608  1.00  0.00     0.031 C 
ATOM     18  C   UNL     1       4.914  11.326   3.939  1.00  0.00     0.029 A 
ATOM     19  N   UNL     1       4.705  13.139   2.652  1.00  0.00    -0.354 N 
ATOM     20  C   UNL     1       8.262  14.686   0.558  1.00  0.00     0.074 A 
ATOM     21  C   UNL     1       9.394  13.814   0.783  1.00  0.00     0.031 C 
ATOM     22  C   UNL     1       3.607  11.617   3.873  1.00  0.00     0.029 A 
ATOM     23  C   UNL     1       3.439  12.843   3.106  1.00  0.00     0.049 A 
ATOM     24  H   UNL     1       4.898  13.888   2.043  1.00  0.00     0.167 HD
ATOM     25  C   UNL     1       8.262  15.760  -0.264  1.00  0.00     0.034 A 
ATOM     26  C   UNL     1       2.289  13.527   2.955  1.00  0.00     0.034 A 
ATOM     27  C   UNL     1       7.105  16.601  -0.438  1.00  0.00     0.049 A 
ATOM     28  C   UNL     1       2.356  14.798   2.146  1.00  0.00     0.074 A 
ATOM     29  C   UNL     1       6.987  17.776  -1.154  1.00  0.00     0.029 A 
ATOM     30  N   UNL     1       5.856  16.343   0.119  1.00  0.00    -0.354 N 
ATOM     31  N   UNL     1       3.380  15.307   1.494  1.00  0.00    -0.248 NA
ATOM     32  C   UNL     1       1.127  15.590   2.057  1.00  0.00     0.031 C 
ATOM     33  C   UNL     1       5.686  18.261  -0.976  1.00  0.00     0.029 A 
ATOM     34  C   UNL     1       4.966  17.348  -0.218  1.00  0.00     0.049 A 
ATOM     35  H   UNL     1       5.636  15.559   0.672  1.00  0.00     0.167 HD
ATOM     36  C   UNL     1       2.910  16.473   0.902  1.00  0.00     0.074 A 
ATOM     37  C   UNL     1       1.503  16.565   1.244  1.00  0.00     0.031 C 
ATOM     38  C   UNL     1       3.571  17.396   0.154  1.00  0.00     0.034 A 
BRANCH  25  39
ATOM     39  C   UNL     1       9.567  16.115  -0.927  1.00  0.00     0.023 A 
ATOM     40  C   UNL     1      10.171  15.274  -1.879  1.00  0.00     0.031 A 
ATOM     41  C   UNL     1      10.258  17.276  -0.539  1.00  0.00     0.131 A 
ATOM     42  C   UNL     1      11.457  15.572  -2.357  1.00  0.00     0.055 A 
ATOM     43  C   UNL     1      11.503  17.606  -1.077  1.00  0.00     0.041 A 
ATOM     44  F   UNL     1       9.748  18.094   0.395  1.00  0.00    -0.206 F 
ATOM     45  C   UNL     1      12.116  16.745  -1.982  1.00  0.00     0.022 A 
BRANCH  42  46
ATOM     46  S   UNL     1      12.319  14.332  -3.364  1.00  0.00     0.124 S 
ATOM     47  O   UNL     1      12.421  13.214  -2.429  1.00  0.00    -0.237 OA
ATOM     48  O   UNL     1      11.407  14.144  -4.486  1.00  0.00    -0.237 OA
ATOM     49  O   UNL     1      13.588  14.979  -3.693  1.00  0.00    -0.744 OA
ENDBRANCH  42  46
ENDBRANCH  25  39
BRANCH  26  50
ATOM     50  C   UNL     1       1.034  13.105   3.649  1.00  0.00     0.023 A 
ATOM     51  C   UNL     1      -0.160  12.893   2.940  1.00  0.00     0.031 A 
ATOM     52  C   UNL     1       0.983  12.998   5.053  1.00  0.00     0.131 A 
ATOM     53  C   UNL     1      -1.358  12.657   3.636  1.00  0.00     0.055 A 
ATOM     54  C   UNL     1      -0.195  12.688   5.735  1.00  0.00     0.041 A 
ATOM     55  F   UNL     1       2.085  13.200   5.793  1.00  0.00    -0.206 F 
ATOM     56  C   UNL     1      -1.380  12.537   5.027  1.00  0.00     0.022 A 
BRANCH  53  57
ATOM     57  S   UNL     1      -2.916  12.652   2.705  1.00  0.00     0.124 S 
ATOM     58  O   UNL     1      -2.851  13.934   2.013  1.00  0.00    -0.237 OA
ATOM     59  O   UNL     1      -2.765  11.464   1.872  1.00  0.00    -0.237 OA
ATOM     60  O   UNL     1      -3.934  12.557   3.749  1.00  0.00    -0.744 OA
ENDBRANCH  53  57
ENDBRANCH  26  50
BRANCH  38  61
ATOM     61  C   UNL     1       2.748  18.547  -0.361  1.00  0.00     0.023 A 
ATOM     62  C   UNL     1       2.178  19.489   0.511  1.00  0.00     0.031 A 
ATOM     63  C   UNL     1       2.510  18.683  -1.740  1.00  0.00     0.131 A 
ATOM     64  C   UNL     1       1.333  20.483   0.002  1.00  0.00     0.055 A 
ATOM     65  C   UNL     1       1.732  19.722  -2.247  1.00  0.00     0.041 A 
ATOM     66  F   UNL     1       3.031  17.807  -2.614  1.00  0.00    -0.206 F 
ATOM     67  C   UNL     1       1.123  20.618  -1.373  1.00  0.00     0.022 A 
BRANCH  64  68
ATOM     68  S   UNL     1       0.415  21.517   1.173  1.00  0.00     0.124 S 
ATOM     69  O   UNL     1      -0.325  20.520   1.940  1.00  0.00    -0.237 OA
ATOM     70  O   UNL     1       1.486  22.204   1.888  1.00  0.00    -0.237 OA
ATOM     71  O   UNL     1      -0.400  22.369   0.310  1.00  0.00    -0.744 OA
ENDBRANCH  64  68
ENDBRANCH  38  61
ENDBRANCH  12  13
ENDBRANCH   5   7
ENDBRANCH   4   5
ENDBRANCH   3   4
ENDBRANCH   2   3
ENDBRANCH   1   2
BRANCH   1  72
ATOM     72  C   UNL     1       7.324   5.589   4.979  1.00  0.00     0.202 C 
BRANCH  72  73
ATOM     73  C   UNL     1       6.059   4.832   5.375  1.00  0.00     0.261 C 
BRANCH  73  74
ATOM     74  O   UNL     1       6.068   3.595   4.645  1.00  0.00    -0.459 OA
BRANCH  74  75
ATOM     75  C   UNL     1       5.495   3.647   3.404  1.00  0.00     0.380 C 
ATOM     76  O   UNL     1       4.591   4.415   3.075  1.00  0.00    -0.245 OA
BRANCH  75  77
ATOM     77  C   UNL     1       6.116   2.600   2.489  1.00  0.00     0.372 C 
ATOM     78  F   UNL     1       7.431   2.376   2.814  1.00  0.00    -0.190 F 
ATOM     79  F   UNL     1       5.486   1.406   2.683  1.00  0.00    -0.190 F 
BRANCH  77  80
ATOM     80  C   UNL     1       6.043   3.068   0.992  1.00  0.00     0.227 C 
BRANCH  80  81
ATOM     81  C   UNL     1       6.735   2.109   0.021  1.00  0.00    -0.009 A 
ATOM     82  C   UNL     1       6.290   0.761   0.104  1.00  0.00     0.007 A 
ATOM     83  C   UNL     1       7.742   2.432  -0.931  1.00  0.00    -0.039 A 
ATOM     84  C   UNL     1       6.879  -0.277  -0.605  1.00  0.00     0.000 A 
ATOM     85  C   UNL     1       8.335   1.328  -1.610  1.00  0.00     0.004 A 
ATOM     86  C   UNL     1       7.930   0.004  -1.449  1.00  0.00     0.000 A 
BRANCH  83  87
ATOM     87  C   UNL     1       8.279   3.780  -1.419  1.00  0.00     0.019 C 
ATOM     88  C   UNL     1       7.868   5.169  -1.042  1.00  0.00     0.009 C 
ATOM     89  C   UNL     1       9.155   4.600  -0.510  1.00  0.00     0.009 C 
ENDBRANCH  83  87
ENDBRANCH  80  81
BRANCH  80  90
ATOM     90  O   UNL     1       4.692   3.221   0.522  1.00  0.00    -0.381 OA
ATOM     91  H   UNL     1       4.251   2.358   0.521  1.00  0.00     0.211 HD
ENDBRANCH  80  90
ENDBRANCH  77  80
ENDBRANCH  75  77
ENDBRANCH  74  75
ENDBRANCH  73  74
ENDBRANCH  72  73
ENDBRANCH   1  72
TORSDOF 21
