REMARK SMILES C/C(=N\Nc1nc(-c2ccc(Cl)cc2)cs1)c1nnn(-c2ccc(C(=O)OCCOCCOC(=O)c3ccc(-c4c5nc(c(-c6cc(S(=O)(=O)[O-])ccc6F)c6ccc([nH]6)c(-c6cc(S(=O)(=O)[O-])ccc6F)c6nc(c(-c7cc(S(=O)(=O)[O-])ccc7F)c7ccc4[nH]7)C=C6)C=C5)cc3)cc2)c1C
REMARK SMILES IDX 29 1 28 2 27 3 25 4 26 5 24 6 21 7 22 8 100 9 23 10 99 11
REMARK SMILES IDX 20 12 17 13 18 14 101 15 19 16 102 17 2 18 1 19 3 20 4 21
REMARK SMILES IDX 5 23 6 24 16 25 7 26 15 27 8 28 9 29 14 30 10 31 13 32 11 33
REMARK SMILES IDX 12 34 30 35 31 36 32 37 33 38 34 39 35 40 36 41 37 42 98 43
REMARK SMILES IDX 38 44 97 45 39 46 40 47 41 48 91 49 42 50 96 51 90 52 92 53
REMARK SMILES IDX 43 54 95 55 89 56 88 57 44 59 76 60 56 61 75 62 57 63 60 64
REMARK SMILES IDX 74 65 93 66 58 67 59 68 73 70 94 71 61 72 45 73 46 74 54 75
REMARK SMILES IDX 47 76 53 77 55 78 52 79 48 80 49 81 50 82 51 83 77 84 78 85
REMARK SMILES IDX 86 86 79 87 85 88 87 89 84 90 80 91 81 92 82 93 83 94 62 95
REMARK SMILES IDX 63 96 71 97 64 98 70 99 72 100 69 101 65 102 66 103 67 104
REMARK SMILES IDX 68 105
REMARK H PARENT 4 22 92 58 60 69
REMARK Flexibility Score: inf
ROOT
ATOM      1  C   UNL     1       9.693  -8.207  -1.735  1.00  0.00     0.202 C 
ENDROOT
BRANCH   1   2
ATOM      2  C   UNL     1       9.496  -6.693  -1.698  1.00  0.00     0.261 C 
BRANCH   2   3
ATOM      3  O   UNL     1       8.265  -6.323  -1.062  1.00  0.00    -0.460 OA
BRANCH   3   4
ATOM      4  C   UNL     1       7.315  -5.858  -1.901  1.00  0.00     0.338 C 
ATOM      5  O   UNL     1       7.426  -5.653  -3.104  1.00  0.00    -0.246 OA
BRANCH   4   6
ATOM      6  C   UNL     1       6.026  -5.725  -1.195  1.00  0.00     0.060 A 
ATOM      7  C   UNL     1       3.577  -5.019  -0.127  1.00  0.00     0.067 A 
ATOM      8  C   UNL     1       3.607  -5.635  -1.380  1.00  0.00     0.029 A 
ATOM      9  C   UNL     1       4.734  -4.922   0.661  1.00  0.00     0.029 A 
ATOM     10  C   UNL     1       4.848  -5.966  -1.922  1.00  0.00     0.018 A 
ATOM     11  C   UNL     1       5.967  -5.278   0.126  1.00  0.00     0.018 A 
BRANCH   7  12
ATOM     12  N   UNL     1       2.457  -4.227   0.207  1.00  0.00    -0.217 N 
ATOM     13  C   UNL     1       1.156  -2.493   0.452  1.00  0.00     0.132 A 
ATOM     14  N   UNL     1       0.378  -3.601   0.262  1.00  0.00    -0.128 NA
ATOM     15  C   UNL     1       2.492  -2.856   0.412  1.00  0.00     0.071 A 
ATOM     16  N   UNL     1       1.182  -4.630   0.013  1.00  0.00    -0.061 NA
ATOM     17  C   UNL     1       3.722  -2.019   0.363  1.00  0.00     0.069 C 
BRANCH  13  18
ATOM     18  C   UNL     1       0.657  -1.126   0.505  1.00  0.00     0.087 C 
ATOM     19  C   UNL     1       1.205  -0.206  -0.559  1.00  0.00     0.071 C 
ATOM     20  N   UNL     1      -0.123  -0.843   1.509  1.00  0.00    -0.176 NA
BRANCH  20  21
ATOM     21  N   UNL     1      -0.533   0.424   1.849  1.00  0.00    -0.252 N 
ATOM     22  H   UNL     1      -0.970   0.486   2.729  1.00  0.00     0.193 HD
BRANCH  21  23
ATOM     23  C   UNL     1      -0.444   1.605   1.187  1.00  0.00     0.203 A 
ATOM     24  N   UNL     1      -0.617   1.792  -0.101  1.00  0.00    -0.219 NA
ATOM     25  S   UNL     1       0.001   3.044   2.040  1.00  0.00    -0.103 S 
ATOM     26  C   UNL     1      -0.099   3.009  -0.492  1.00  0.00     0.084 A 
ATOM     27  C   UNL     1       0.292   3.833   0.541  1.00  0.00     0.097 A 
BRANCH  26  28
ATOM     28  C   UNL     1       0.059   3.304  -1.905  1.00  0.00     0.001 A 
ATOM     29  C   UNL     1      -1.001   3.043  -2.782  1.00  0.00     0.012 A 
ATOM     30  C   UNL     1       1.286   3.745  -2.421  1.00  0.00     0.012 A 
ATOM     31  C   UNL     1      -0.852   3.250  -4.156  1.00  0.00     0.021 A 
ATOM     32  C   UNL     1       1.439   3.941  -3.798  1.00  0.00     0.021 A 
ATOM     33  C   UNL     1       0.368   3.700  -4.657  1.00  0.00     0.041 A 
ATOM     34  Cl  UNL     1       0.557   3.947  -6.349  1.00  0.00    -0.084 Cl
ENDBRANCH  26  28
ENDBRANCH  21  23
ENDBRANCH  20  21
ENDBRANCH  13  18
ENDBRANCH   7  12
ENDBRANCH   4   6
ENDBRANCH   3   4
ENDBRANCH   2   3
ENDBRANCH   1   2
BRANCH   1  35
ATOM     35  O   UNL     1       8.768  -8.995  -2.483  1.00  0.00    -0.374 OA
BRANCH  35  36
ATOM     36  C   UNL     1       7.419  -9.138  -2.049  1.00  0.00     0.202 C 
BRANCH  36  37
ATOM     37  C   UNL     1       7.120  -9.910  -0.772  1.00  0.00     0.261 C 
BRANCH  37  38
ATOM     38  O   UNL     1       7.808  -9.381   0.348  1.00  0.00    -0.460 OA
BRANCH  38  39
ATOM     39  C   UNL     1       8.918 -10.074   0.676  1.00  0.00     0.338 C 
ATOM     40  O   UNL     1       9.526 -10.874  -0.034  1.00  0.00    -0.246 OA
BRANCH  39  41
ATOM     41  C   UNL     1       9.221  -9.834   2.084  1.00  0.00     0.060 A 
ATOM     42  C   UNL     1      10.194 -10.663   2.643  1.00  0.00     0.016 A 
ATOM     43  C   UNL     1       8.301  -9.117   2.864  1.00  0.00     0.016 A 
ATOM     44  C   UNL     1      10.053 -11.012   3.963  1.00  0.00     0.010 A 
ATOM     45  C   UNL     1       8.144  -9.489   4.172  1.00  0.00     0.010 A 
ATOM     46  C   UNL     1       8.956 -10.506   4.667  1.00  0.00    -0.014 A 
BRANCH  46  47
ATOM     47  C   UNL     1       8.727 -10.988   6.007  1.00  0.00     0.031 A 
ATOM     48  C   UNL     1       9.650 -10.355   6.968  1.00  0.00     0.074 A 
ATOM     49  C   UNL     1       7.712 -11.814   6.317  1.00  0.00     0.049 A 
ATOM     50  N   UNL     1      10.695 -10.880   7.514  1.00  0.00    -0.248 NA
ATOM     51  C   UNL     1       9.563  -8.892   7.122  1.00  0.00     0.031 C 
ATOM     52  C   UNL     1       6.610 -12.272   5.469  1.00  0.00     0.029 A 
ATOM     53  N   UNL     1       7.408 -12.355   7.522  1.00  0.00    -0.354 N 
ATOM     54  C   UNL     1      11.234  -9.869   8.297  1.00  0.00     0.074 A 
ATOM     55  C   UNL     1      10.694  -8.646   7.780  1.00  0.00     0.031 C 
ATOM     56  C   UNL     1       5.649 -12.825   6.248  1.00  0.00     0.029 A 
ATOM     57  C   UNL     1       6.122 -12.873   7.624  1.00  0.00     0.049 A 
ATOM     58  H   UNL     1       8.050 -12.379   8.269  1.00  0.00     0.167 HD
ATOM     59  C   UNL     1      11.806 -10.151   9.498  1.00  0.00     0.034 A 
ATOM     60  C   UNL     1       5.488 -13.235   8.775  1.00  0.00     0.034 A 
ATOM     61  C   UNL     1      12.143 -11.560   9.580  1.00  0.00     0.049 A 
ATOM     62  C   UNL     1       6.556 -13.456   9.790  1.00  0.00     0.074 A 
ATOM     63  C   UNL     1      12.952 -12.400   8.838  1.00  0.00     0.029 A 
ATOM     64  N   UNL     1      11.293 -12.391  10.280  1.00  0.00    -0.354 N 
ATOM     65  N   UNL     1       7.440 -14.413   9.692  1.00  0.00    -0.248 NA
ATOM     66  C   UNL     1       6.971 -12.321  10.605  1.00  0.00     0.031 C 
ATOM     67  C   UNL     1      12.231 -13.628   8.752  1.00  0.00     0.029 A 
ATOM     68  C   UNL     1      11.066 -13.511   9.514  1.00  0.00     0.049 A 
ATOM     69  H   UNL     1      10.915 -12.214  11.172  1.00  0.00     0.167 HD
ATOM     70  C   UNL     1       8.649 -13.834  10.053  1.00  0.00     0.074 A 
ATOM     71  C   UNL     1       8.284 -12.569  10.691  1.00  0.00     0.031 C 
ATOM     72  C   UNL     1       9.834 -14.282   9.536  1.00  0.00     0.034 A 
BRANCH  59  73
ATOM     73  C   UNL     1      11.661  -9.270  10.726  1.00  0.00     0.023 A 
ATOM     74  C   UNL     1      12.198  -9.779  11.921  1.00  0.00     0.031 A 
ATOM     75  C   UNL     1      10.820  -8.141  10.874  1.00  0.00     0.131 A 
ATOM     76  C   UNL     1      11.789  -9.282  13.168  1.00  0.00     0.055 A 
ATOM     77  C   UNL     1      10.462  -7.611  12.117  1.00  0.00     0.041 A 
ATOM     78  F   UNL     1      10.229  -7.515   9.852  1.00  0.00    -0.206 F 
ATOM     79  C   UNL     1      10.915  -8.207  13.277  1.00  0.00     0.022 A 
BRANCH  76  80
ATOM     80  S   UNL     1      12.280 -10.199  14.646  1.00  0.00     0.124 S 
ATOM     81  O   UNL     1      11.834 -11.547  14.312  1.00  0.00    -0.237 OA
ATOM     82  O   UNL     1      13.722  -9.980  14.664  1.00  0.00    -0.237 OA
ATOM     83  O   UNL     1      11.533  -9.538  15.714  1.00  0.00    -0.744 OA
ENDBRANCH  76  80
ENDBRANCH  59  73
BRANCH  60  84
ATOM     84  C   UNL     1       4.052 -13.005   9.119  1.00  0.00     0.023 A 
ATOM     85  C   UNL     1       3.375 -13.694  10.151  1.00  0.00     0.031 A 
ATOM     86  C   UNL     1       3.377 -11.894   8.560  1.00  0.00     0.131 A 
ATOM     87  C   UNL     1       2.086 -13.271  10.571  1.00  0.00     0.055 A 
ATOM     88  C   UNL     1       2.108 -11.483   8.977  1.00  0.00     0.041 A 
ATOM     89  F   UNL     1       3.966 -11.113   7.642  1.00  0.00    -0.206 F 
ATOM     90  C   UNL     1       1.460 -12.166   9.991  1.00  0.00     0.022 A 
BRANCH  87  91
ATOM     91  S   UNL     1       1.221 -14.112  11.942  1.00  0.00     0.124 S 
ATOM     92  O   UNL     1       0.959 -15.433  11.383  1.00  0.00    -0.237 OA
ATOM     93  O   UNL     1       2.200 -14.045  13.020  1.00  0.00    -0.237 OA
ATOM     94  O   UNL     1       0.028 -13.289  12.150  1.00  0.00    -0.744 OA
ENDBRANCH  87  91
ENDBRANCH  60  84
BRANCH  72  95
ATOM     95  C   UNL     1       9.827 -15.587   8.756  1.00  0.00     0.023 A 
ATOM     96  C   UNL     1       9.073 -15.829   7.582  1.00  0.00     0.031 A 
ATOM     97  C   UNL     1      10.729 -16.584   9.163  1.00  0.00     0.131 A 
ATOM     98  C   UNL     1       9.236 -17.038   6.873  1.00  0.00     0.055 A 
ATOM     99  C   UNL     1      10.904 -17.768   8.446  1.00  0.00     0.041 A 
ATOM    100  F   UNL     1      11.494 -16.405  10.252  1.00  0.00    -0.206 F 
ATOM    101  C   UNL     1      10.154 -18.002   7.300  1.00  0.00     0.022 A 
BRANCH  98 102
ATOM    102  S   UNL     1       8.246 -17.388   5.380  1.00  0.00     0.124 S 
ATOM    103  O   UNL     1       6.880 -17.109   5.806  1.00  0.00    -0.237 OA
ATOM    104  O   UNL     1       8.813 -16.464   4.401  1.00  0.00    -0.237 OA
ATOM    105  O   UNL     1       8.523 -18.800   5.111  1.00  0.00    -0.744 OA
ENDBRANCH  98 102
ENDBRANCH  72  95
ENDBRANCH  46  47
ENDBRANCH  39  41
ENDBRANCH  38  39
ENDBRANCH  37  38
ENDBRANCH  36  37
ENDBRANCH  35  36
ENDBRANCH   1  35
TORSDOF 22
