REMARK SMILES C[C@H]1CCCC/C1=C\C(=O)OCCOCCOC(=O)c1ccc(-c2c3nc(c(-c4cc(S(=O)(=O)[O-])ccc4F)c4ccc([nH]4)c(-c4cc(S(=O)(=O)[O-])ccc4F)c4nc(c(-c5cc(S(=O)(=O)[O-])ccc5F)c5ccc2[nH]5)C=C4)C=C3)cc1
REMARK SMILES IDX 15 1 14 2 13 3 12 4 11 5 9 6 10 7 8 8 1 9 2 10 3 11 7 12
REMARK SMILES IDX 4 13 6 14 5 15 16 16 17 17 18 18 19 19 20 20 21 21 82 22
REMARK SMILES IDX 22 23 81 24 23 25 24 26 25 27 75 28 26 29 80 30 74 31 76 32
REMARK SMILES IDX 27 33 79 34 73 35 72 36 28 38 60 39 40 40 59 41 41 42 44 43
REMARK SMILES IDX 58 44 77 45 42 46 43 47 57 49 78 50 45 51 29 52 30 53 38 54
REMARK SMILES IDX 31 55 37 56 39 57 36 58 32 59 33 60 34 61 35 62 61 63 62 64
REMARK SMILES IDX 70 65 63 66 69 67 71 68 68 69 64 70 65 71 66 72 67 73 46 74
REMARK SMILES IDX 47 75 55 76 48 77 54 78 56 79 53 80 49 81 50 82 51 83 52 84
REMARK H PARENT 76 37 44 48
REMARK Flexibility Score: inf
ROOT
ATOM      1  C   UNL     1      -4.477   3.084   0.296  1.00  0.00     0.202 C 
ENDROOT
BRANCH   1   2
ATOM      2  O   UNL     1      -5.420   2.673   1.285  1.00  0.00    -0.374 OA
BRANCH   2   3
ATOM      3  C   UNL     1      -4.909   2.401   2.593  1.00  0.00     0.202 C 
BRANCH   3   4
ATOM      4  C   UNL     1      -4.232   1.038   2.747  1.00  0.00     0.261 C 
BRANCH   4   5
ATOM      5  O   UNL     1      -2.966   1.046   2.064  1.00  0.00    -0.460 OA
BRANCH   5   6
ATOM      6  C   UNL     1      -2.797   0.113   1.107  1.00  0.00     0.330 C 
ATOM      7  O   UNL     1      -3.560  -0.808   0.847  1.00  0.00    -0.247 OA
BRANCH   6   8
ATOM      8  C   UNL     1      -1.635   0.402   0.230  1.00  0.00     0.093 C 
ATOM      9  C   UNL     1       0.194   0.721  -2.070  1.00  0.00     0.012 C 
ATOM     10  C   UNL     1       0.615   1.147  -0.654  1.00  0.00     0.012 C 
ATOM     11  C   UNL     1       1.208   2.568  -0.746  1.00  0.00     0.008 C 
ATOM     12  C   UNL     1      -0.465   1.046   0.437  1.00  0.00    -0.060 C 
ATOM     13  C   UNL     1       1.669   3.094   0.608  1.00  0.00     0.001 C 
ATOM     14  C   UNL     1      -0.031   1.644   1.764  1.00  0.00     0.031 C 
ATOM     15  C   UNL     1       0.524   3.061   1.611  1.00  0.00     0.004 C 
ENDBRANCH   6   8
ENDBRANCH   5   6
ENDBRANCH   4   5
ENDBRANCH   3   4
ENDBRANCH   2   3
ENDBRANCH   1   2
BRANCH   1  16
ATOM     16  C   UNL     1      -4.099   4.570   0.303  1.00  0.00     0.261 C 
BRANCH  16  17
ATOM     17  O   UNL     1      -3.379   4.947   1.490  1.00  0.00    -0.460 OA
BRANCH  17  18
ATOM     18  C   UNL     1      -4.111   5.653   2.385  1.00  0.00     0.338 C 
ATOM     19  O   UNL     1      -5.268   6.030   2.246  1.00  0.00    -0.246 OA
BRANCH  18  20
ATOM     20  C   UNL     1      -3.385   5.784   3.663  1.00  0.00     0.060 A 
ATOM     21  C   UNL     1      -4.104   5.527   4.836  1.00  0.00     0.016 A 
ATOM     22  C   UNL     1      -2.062   6.231   3.729  1.00  0.00     0.016 A 
ATOM     23  C   UNL     1      -3.529   5.780   6.079  1.00  0.00     0.010 A 
ATOM     24  C   UNL     1      -1.486   6.487   4.980  1.00  0.00     0.010 A 
ATOM     25  C   UNL     1      -2.232   6.305   6.159  1.00  0.00    -0.014 A 
BRANCH  25  26
ATOM     26  C   UNL     1      -1.747   6.821   7.466  1.00  0.00     0.031 A 
ATOM     27  C   UNL     1      -1.816   8.303   7.732  1.00  0.00     0.074 A 
ATOM     28  C   UNL     1      -1.328   5.980   8.428  1.00  0.00     0.049 A 
ATOM     29  N   UNL     1      -1.477   8.973   8.804  1.00  0.00    -0.248 NA
ATOM     30  C   UNL     1      -2.339   9.138   6.640  1.00  0.00     0.031 C 
ATOM     31  C   UNL     1      -1.260   4.524   8.306  1.00  0.00     0.029 A 
ATOM     32  N   UNL     1      -0.888   6.230   9.704  1.00  0.00    -0.354 N 
ATOM     33  C   UNL     1      -1.759  10.306   8.522  1.00  0.00     0.074 A 
ATOM     34  C   UNL     1      -2.241  10.353   7.158  1.00  0.00     0.031 C 
ATOM     35  C   UNL     1      -0.804   4.010   9.461  1.00  0.00     0.029 A 
ATOM     36  C   UNL     1      -0.521   5.099  10.395  1.00  0.00     0.049 A 
ATOM     37  H   UNL     1      -0.839   7.135  10.089  1.00  0.00     0.167 HD
ATOM     38  C   UNL     1      -1.646  11.390   9.331  1.00  0.00     0.034 A 
ATOM     39  C   UNL     1      -0.004   4.961  11.633  1.00  0.00     0.034 A 
ATOM     40  C   UNL     1      -1.143  11.336  10.682  1.00  0.00     0.049 A 
ATOM     41  C   UNL     1       0.193   6.194  12.486  1.00  0.00     0.074 A 
ATOM     42  C   UNL     1      -0.955  12.375  11.578  1.00  0.00     0.029 A 
ATOM     43  N   UNL     1      -0.744  10.176  11.335  1.00  0.00    -0.354 N 
ATOM     44  N   UNL     1      -0.073   7.449  12.203  1.00  0.00    -0.248 NA
ATOM     45  C   UNL     1       0.742   5.985  13.832  1.00  0.00     0.031 C 
ATOM     46  C   UNL     1      -0.390  11.853  12.748  1.00  0.00     0.029 A 
ATOM     47  C   UNL     1      -0.295  10.477  12.613  1.00  0.00     0.049 A 
ATOM     48  H   UNL     1      -0.775   9.272  10.947  1.00  0.00     0.167 HD
ATOM     49  C   UNL     1       0.239   8.171  13.354  1.00  0.00     0.074 A 
ATOM     50  C   UNL     1       0.693   7.208  14.336  1.00  0.00     0.031 C 
ATOM     51  C   UNL     1       0.156   9.507  13.583  1.00  0.00     0.034 A 
BRANCH  38  52
ATOM     52  C   UNL     1      -2.039  12.727   8.749  1.00  0.00     0.023 A 
ATOM     53  C   UNL     1      -3.364  13.000   8.362  1.00  0.00     0.031 A 
ATOM     54  C   UNL     1      -1.076  13.730   8.546  1.00  0.00     0.131 A 
ATOM     55  C   UNL     1      -3.674  14.213   7.730  1.00  0.00     0.055 A 
ATOM     56  C   UNL     1      -1.406  14.967   7.989  1.00  0.00     0.041 A 
ATOM     57  F   UNL     1       0.209  13.520   8.873  1.00  0.00    -0.206 F 
ATOM     58  C   UNL     1      -2.709  15.209   7.564  1.00  0.00     0.022 A 
BRANCH  55  59
ATOM     59  S   UNL     1      -5.323  14.417   7.002  1.00  0.00     0.124 S 
ATOM     60  O   UNL     1      -5.355  13.322   6.036  1.00  0.00    -0.237 OA
ATOM     61  O   UNL     1      -6.199  14.275   8.159  1.00  0.00    -0.237 OA
ATOM     62  O   UNL     1      -5.276  15.755   6.415  1.00  0.00    -0.744 OA
ENDBRANCH  55  59
ENDBRANCH  38  52
BRANCH  39  63
ATOM     63  C   UNL     1       0.396   3.618  12.148  1.00  0.00     0.023 A 
ATOM     64  C   UNL     1      -0.203   3.067  13.292  1.00  0.00     0.031 A 
ATOM     65  C   UNL     1       1.451   2.905  11.550  1.00  0.00     0.131 A 
ATOM     66  C   UNL     1       0.299   1.877  13.841  1.00  0.00     0.055 A 
ATOM     67  C   UNL     1       1.907   1.690  12.064  1.00  0.00     0.041 A 
ATOM     68  F   UNL     1       2.061   3.385  10.454  1.00  0.00    -0.206 F 
ATOM     69  C   UNL     1       1.342   1.178  13.228  1.00  0.00     0.022 A 
BRANCH  66  70
ATOM     70  S   UNL     1      -0.353   1.314  15.438  1.00  0.00     0.124 S 
ATOM     71  O   UNL     1      -0.116   2.479  16.282  1.00  0.00    -0.237 OA
ATOM     72  O   UNL     1      -1.747   1.031  15.110  1.00  0.00    -0.237 OA
ATOM     73  O   UNL     1       0.464   0.142  15.745  1.00  0.00    -0.744 OA
ENDBRANCH  66  70
ENDBRANCH  39  63
BRANCH  51  74
ATOM     74  C   UNL     1       0.508   9.988  14.972  1.00  0.00     0.023 A 
ATOM     75  C   UNL     1       1.809   9.868  15.493  1.00  0.00     0.031 A 
ATOM     76  C   UNL     1      -0.486  10.538  15.801  1.00  0.00     0.131 A 
ATOM     77  C   UNL     1       2.064  10.221  16.827  1.00  0.00     0.055 A 
ATOM     78  C   UNL     1      -0.211  10.950  17.106  1.00  0.00     0.041 A 
ATOM     79  F   UNL     1      -1.746  10.678  15.358  1.00  0.00    -0.206 F 
ATOM     80  C   UNL     1       1.066  10.775  17.632  1.00  0.00     0.022 A 
BRANCH  77  81
ATOM     81  S   UNL     1       3.689   9.832  17.535  1.00  0.00     0.124 S 
ATOM     82  O   UNL     1       3.796   8.399  17.282  1.00  0.00    -0.237 OA
ATOM     83  O   UNL     1       4.580  10.685  16.754  1.00  0.00    -0.237 OA
ATOM     84  O   UNL     1       3.549  10.206  18.941  1.00  0.00    -0.744 OA
ENDBRANCH  77  81
ENDBRANCH  51  74
ENDBRANCH  25  26
ENDBRANCH  18  20
ENDBRANCH  17  18
ENDBRANCH  16  17
ENDBRANCH   1  16
TORSDOF 17
