REMARK SMILES O=C(OCCOCCOC(=O)[C@@]1([NH2+]C2CC2)CC[C@H](OC2CCC2)C1)c1ccc(-c2c3nc(c(-c4cc(S(=O)(=O)[O-])ccc4F)c4ccc([nH]4)c(-c4cc(S(=O)(=O)[O-])ccc4F)c4nc(c(-c5cc(S(=O)(=O)[O-])ccc5F)c5ccc2[nH]5)C=C4)C=C3)cc1
REMARK SMILES IDX 5 1 4 2 3 3 2 4 1 5 26 6 27 7 88 8 28 9 87 10 29 11 30 12
REMARK SMILES IDX 31 13 81 14 32 15 86 16 80 17 82 18 33 19 85 20 79 21 78 22
REMARK SMILES IDX 34 24 66 25 46 26 65 27 47 28 50 29 64 30 83 31 48 32 49 33
REMARK SMILES IDX 63 35 84 36 51 37 35 38 36 39 44 40 37 41 43 42 45 43 42 44
REMARK SMILES IDX 38 45 39 46 40 47 41 48 67 49 68 50 76 51 69 52 75 53 77 54
REMARK SMILES IDX 74 55 70 56 71 57 72 58 73 59 52 60 53 61 61 62 54 63 60 64
REMARK SMILES IDX 62 65 59 66 55 67 56 68 57 69 58 70 6 71 7 72 8 73 9 74
REMARK SMILES IDX 10 75 11 76 12 77 17 78 25 79 18 80 19 81 13 82 14 85 15 86
REMARK SMILES IDX 16 87 20 88 21 89 22 90 24 91 23 92
REMARK H PARENT 82 23 50 34 13 83 13 84
REMARK Flexibility Score: inf
ROOT
ATOM      1  C   UNL     1       3.648   1.087  -0.601  1.00  0.00     0.202 C 
ENDROOT
BRANCH   1   2
ATOM      2  C   UNL     1       3.582  -0.401  -0.934  1.00  0.00     0.261 C 
BRANCH   2   3
ATOM      3  O   UNL     1       2.242  -0.861  -0.698  1.00  0.00    -0.460 OA
BRANCH   3   4
ATOM      4  C   UNL     1       1.762  -1.241   0.515  1.00  0.00     0.338 C 
ATOM      5  O   UNL     1       0.551  -1.348   0.685  1.00  0.00    -0.246 OA
BRANCH   4   6
ATOM      6  C   UNL     1       2.690  -1.664   1.600  1.00  0.00     0.060 A 
ATOM      7  C   UNL     1       3.870  -0.992   1.907  1.00  0.00     0.016 A 
ATOM      8  C   UNL     1       2.348  -2.778   2.373  1.00  0.00     0.016 A 
ATOM      9  C   UNL     1       4.736  -1.425   2.866  1.00  0.00     0.010 A 
ATOM     10  C   UNL     1       3.172  -3.169   3.434  1.00  0.00     0.010 A 
ATOM     11  C   UNL     1       4.359  -2.469   3.683  1.00  0.00    -0.014 A 
BRANCH  11  12
ATOM     12  C   UNL     1       5.343  -2.803   4.712  1.00  0.00     0.031 A 
ATOM     13  C   UNL     1       6.129  -4.051   4.527  1.00  0.00     0.074 A 
ATOM     14  C   UNL     1       5.660  -1.860   5.622  1.00  0.00     0.049 A 
ATOM     15  N   UNL     1       6.983  -4.605   5.333  1.00  0.00    -0.248 NA
ATOM     16  C   UNL     1       5.928  -4.771   3.257  1.00  0.00     0.031 C 
ATOM     17  C   UNL     1       5.062  -0.515   5.697  1.00  0.00     0.029 A 
ATOM     18  N   UNL     1       6.599  -1.849   6.612  1.00  0.00    -0.354 N 
ATOM     19  C   UNL     1       7.390  -5.766   4.693  1.00  0.00     0.074 A 
ATOM     20  C   UNL     1       6.679  -5.844   3.438  1.00  0.00     0.031 C 
ATOM     21  C   UNL     1       5.675   0.190   6.658  1.00  0.00     0.029 A 
ATOM     22  C   UNL     1       6.605  -0.686   7.348  1.00  0.00     0.049 A 
ATOM     23  H   UNL     1       7.213  -2.600   6.783  1.00  0.00     0.167 HD
ATOM     24  C   UNL     1       8.280  -6.676   5.146  1.00  0.00     0.034 A 
ATOM     25  C   UNL     1       7.242  -0.406   8.498  1.00  0.00     0.034 A 
ATOM     26  C   UNL     1       8.943  -6.524   6.414  1.00  0.00     0.049 A 
ATOM     27  C   UNL     1       8.107  -1.505   9.059  1.00  0.00     0.074 A 
ATOM     28  C   UNL     1       9.763  -7.410   7.080  1.00  0.00     0.029 A 
ATOM     29  N   UNL     1       8.854  -5.381   7.209  1.00  0.00    -0.354 N 
ATOM     30  N   UNL     1       8.377  -2.685   8.541  1.00  0.00    -0.248 NA
ATOM     31  C   UNL     1       8.741  -1.252  10.353  1.00  0.00     0.031 C 
ATOM     32  C   UNL     1      10.121  -6.829   8.302  1.00  0.00     0.029 A 
ATOM     33  C   UNL     1       9.594  -5.545   8.365  1.00  0.00     0.049 A 
ATOM     34  H   UNL     1       8.338  -4.575   6.980  1.00  0.00     0.167 HD
ATOM     35  C   UNL     1       9.231  -3.309   9.440  1.00  0.00     0.074 A 
ATOM     36  C   UNL     1       9.455  -2.355  10.512  1.00  0.00     0.031 C 
ATOM     37  C   UNL     1       9.778  -4.553   9.400  1.00  0.00     0.034 A 
BRANCH  24  38
ATOM     38  C   UNL     1       8.457  -7.916   4.313  1.00  0.00     0.023 A 
ATOM     39  C   UNL     1       8.984  -7.865   3.010  1.00  0.00     0.031 A 
ATOM     40  C   UNL     1       7.971  -9.149   4.781  1.00  0.00     0.131 A 
ATOM     41  C   UNL     1       8.932  -9.004   2.192  1.00  0.00     0.055 A 
ATOM     42  C   UNL     1       8.003 -10.300   3.992  1.00  0.00     0.041 A 
ATOM     43  F   UNL     1       7.414  -9.247   5.999  1.00  0.00    -0.206 F 
ATOM     44  C   UNL     1       8.470 -10.228   2.683  1.00  0.00     0.022 A 
BRANCH  41  45
ATOM     45  S   UNL     1       9.313  -8.823   0.427  1.00  0.00     0.124 S 
ATOM     46  O   UNL     1       8.266  -7.900  -0.006  1.00  0.00    -0.237 OA
ATOM     47  O   UNL     1      10.668  -8.285   0.449  1.00  0.00    -0.237 OA
ATOM     48  O   UNL     1       9.191 -10.183  -0.092  1.00  0.00    -0.744 OA
ENDBRANCH  41  45
ENDBRANCH  24  38
BRANCH  25  49
ATOM     49  C   UNL     1       6.995   0.869   9.238  1.00  0.00     0.023 A 
ATOM     50  C   UNL     1       8.049   1.715   9.612  1.00  0.00     0.031 A 
ATOM     51  C   UNL     1       5.697   1.222   9.661  1.00  0.00     0.131 A 
ATOM     52  C   UNL     1       7.800   2.827  10.435  1.00  0.00     0.055 A 
ATOM     53  C   UNL     1       5.444   2.369  10.416  1.00  0.00     0.041 A 
ATOM     54  F   UNL     1       4.642   0.451   9.349  1.00  0.00    -0.206 F 
ATOM     55  C   UNL     1       6.504   3.168  10.827  1.00  0.00     0.022 A 
BRANCH  52  56
ATOM     56  S   UNL     1       9.214   3.743  11.108  1.00  0.00     0.124 S 
ATOM     57  O   UNL     1       9.984   2.677  11.739  1.00  0.00    -0.237 OA
ATOM     58  O   UNL     1       9.795   4.329   9.905  1.00  0.00    -0.237 OA
ATOM     59  O   UNL     1       8.596   4.695  12.028  1.00  0.00    -0.744 OA
ENDBRANCH  52  56
ENDBRANCH  25  49
BRANCH  37  60
ATOM     60  C   UNL     1      10.705  -4.901  10.532  1.00  0.00     0.023 A 
ATOM     61  C   UNL     1      10.241  -5.024  11.851  1.00  0.00     0.031 A 
ATOM     62  C   UNL     1      12.075  -5.090  10.282  1.00  0.00     0.131 A 
ATOM     63  C   UNL     1      11.154  -5.255  12.886  1.00  0.00     0.055 A 
ATOM     64  C   UNL     1      12.966  -5.400  11.306  1.00  0.00     0.041 A 
ATOM     65  F   UNL     1      12.566  -4.979   9.037  1.00  0.00    -0.206 F 
ATOM     66  C   UNL     1      12.510  -5.467  12.620  1.00  0.00     0.022 A 
BRANCH  63  67
ATOM     67  S   UNL     1      10.563  -5.153  14.595  1.00  0.00     0.124 S 
ATOM     68  O   UNL     1      10.018  -3.800  14.646  1.00  0.00    -0.237 OA
ATOM     69  O   UNL     1       9.587  -6.236  14.653  1.00  0.00    -0.237 OA
ATOM     70  O   UNL     1      11.773  -5.366  15.387  1.00  0.00    -0.744 OA
ENDBRANCH  63  67
ENDBRANCH  37  60
ENDBRANCH  11  12
ENDBRANCH   4   6
ENDBRANCH   3   4
ENDBRANCH   2   3
ENDBRANCH   1   2
BRANCH   1  71
ATOM     71  O   UNL     1       3.218   1.420   0.714  1.00  0.00    -0.374 OA
BRANCH  71  72
ATOM     72  C   UNL     1       2.114   2.298   0.818  1.00  0.00     0.202 C 
BRANCH  72  73
ATOM     73  C   UNL     1       2.593   3.740   0.945  1.00  0.00     0.261 C 
BRANCH  73  74
ATOM     74  O   UNL     1       3.299   4.101  -0.254  1.00  0.00    -0.459 OA
BRANCH  74  75
ATOM     75  C   UNL     1       4.662   3.911  -0.281  1.00  0.00     0.368 C 
ATOM     76  O   UNL     1       5.354   3.743   0.720  1.00  0.00    -0.245 OA
BRANCH  75  77
ATOM     77  C   UNL     1       5.157   3.970  -1.752  1.00  0.00     0.197 C 
ATOM     78  C   UNL     1       4.184   3.326  -2.753  1.00  0.00     0.084 C 
ATOM     79  C   UNL     1       4.984   5.471  -2.140  1.00  0.00     0.113 C 
ATOM     80  C   UNL     1       4.389   4.060  -4.047  1.00  0.00     0.039 C 
ATOM     81  C   UNL     1       4.680   5.495  -3.639  1.00  0.00     0.125 C 
BRANCH  77  82
ATOM     82  N   UNL     1       6.599   3.670  -1.912  1.00  0.00    -0.330 N 
ATOM     83  H   UNL     1       6.997   3.940  -1.013  1.00  0.00     0.347 HD
ATOM     84  H   UNL     1       6.698   4.110  -2.827  1.00  0.00     0.347 HD
BRANCH  82  85
ATOM     85  C   UNL     1       7.334   2.450  -2.252  1.00  0.00     0.183 C 
ATOM     86  C   UNL     1       7.230   1.064  -1.704  1.00  0.00     0.071 C 
ATOM     87  C   UNL     1       6.878   1.335  -3.141  1.00  0.00     0.071 C 
ENDBRANCH  82  85
ENDBRANCH  77  82
BRANCH  81  88
ATOM     88  O   UNL     1       5.810   5.994  -4.337  1.00  0.00    -0.375 OA
BRANCH  88  89
ATOM     89  C   UNL     1       5.678   6.425  -5.708  1.00  0.00     0.118 C 
ATOM     90  C   UNL     1       5.361   5.380  -6.806  1.00  0.00     0.032 C 
ATOM     91  C   UNL     1       4.407   7.182  -6.160  1.00  0.00     0.032 C 
ATOM     92  C   UNL     1       4.539   6.468  -7.518  1.00  0.00     0.005 C 
ENDBRANCH  88  89
ENDBRANCH  81  88
ENDBRANCH  75  77
ENDBRANCH  74  75
ENDBRANCH  73  74
ENDBRANCH  72  73
ENDBRANCH  71  72
ENDBRANCH   1  71
TORSDOF 21
