REMARK SMILES Cc1c(CC(=O)N[C@H](CO)C(=O)OCCOCCOC(=O)c2ccc(-c3c4nc(c(-c5cc(S(=O)(=O)[O-])ccc5F)c5ccc([nH]5)c(-c5cc(S(=O)(=O)[O-])ccc5F)c5nc(c(-c6cc(S(=O)(=O)[O-])ccc6F)c6ccc3[nH]6)C=C5)C=C4)cc2)cc(-c2ccc(S(C)(=O)=O)cc2)n1-c1ccc(F)cc1
REMARK SMILES IDX 15 1 14 2 13 3 11 4 12 5 8 6 7 7 5 8 6 9 4 11 3 12 1 13 2 14
REMARK SMILES IDX 97 15 85 16 86 17 98 18 99 19 104 20 100 21 103 22 101 23
REMARK SMILES IDX 102 24 87 25 88 26 96 27 89 28 95 29 90 30 91 31 92 32 93 33
REMARK SMILES IDX 94 34 9 35 10 36 16 38 17 39 18 40 19 41 20 42 21 43 22 44
REMARK SMILES IDX 23 45 84 46 24 47 83 48 25 49 26 50 27 51 77 52 28 53 82 54
REMARK SMILES IDX 76 55 78 56 29 57 81 58 75 59 74 60 30 62 62 63 42 64 61 65
REMARK SMILES IDX 43 66 46 67 60 68 79 69 44 70 45 71 59 73 80 74 47 75 31 76
REMARK SMILES IDX 32 77 40 78 33 79 39 80 41 81 38 82 34 83 35 84 36 85 37 86
REMARK SMILES IDX 63 87 64 88 72 89 65 90 71 91 73 92 70 93 66 94 67 95 68 96
REMARK SMILES IDX 69 97 48 98 49 99 57 100 50 101 56 102 58 103 55 104 51 105
REMARK SMILES IDX 52 106 53 107 54 108
REMARK H PARENT 7 10 10 37 78 61 46 72
REMARK Flexibility Score: inf
ROOT
ATOM      1  C   UNL     1       6.429  -5.293  -4.072  1.00  0.00     0.202 C 
ENDROOT
BRANCH   1   2
ATOM      2  C   UNL     1       5.042  -5.184  -4.730  1.00  0.00     0.261 C 
BRANCH   2   3
ATOM      3  O   UNL     1       4.269  -4.103  -4.178  1.00  0.00    -0.462 OA
BRANCH   3   4
ATOM      4  C   UNL     1       3.080  -4.445  -3.621  1.00  0.00     0.331 C 
ATOM      5  O   UNL     1       2.536  -5.534  -3.789  1.00  0.00    -0.250 OA
BRANCH   4   6
ATOM      6  C   UNL     1       2.419  -3.302  -2.824  1.00  0.00     0.218 C 
BRANCH   6   7
ATOM      7  N   UNL     1       1.185  -2.925  -3.520  1.00  0.00    -0.341 N 
ATOM      8  C   UNL     1      -0.108  -3.100  -3.134  1.00  0.00     0.225 C 
ATOM      9  O   UNL     1      -0.995  -2.726  -3.905  1.00  0.00    -0.275 OA
ATOM     10  H   UNL     1       1.310  -2.482  -4.390  1.00  0.00     0.164 HD
BRANCH   8  11
ATOM     11  C   UNL     1      -0.441  -3.657  -1.757  1.00  0.00     0.137 C 
BRANCH  11  12
ATOM     12  C   UNL     1      -0.009  -5.078  -1.538  1.00  0.00    -0.017 A 
ATOM     13  C   UNL     1      -1.055  -6.283  -3.593  1.00  0.00     0.065 C 
ATOM     14  C   UNL     1      -0.233  -6.184  -2.348  1.00  0.00     0.024 A 
ATOM     15  N   UNL     1       0.410  -7.282  -1.779  1.00  0.00    -0.314 N 
ATOM     16  C   UNL     1       0.714  -5.546  -0.406  1.00  0.00     0.033 A 
ATOM     17  C   UNL     1       0.990  -6.891  -0.572  1.00  0.00     0.053 A 
BRANCH  15  18
ATOM     18  C   UNL     1       0.422  -8.601  -2.307  1.00  0.00     0.046 A 
ATOM     19  C   UNL     1       0.000  -9.671  -1.505  1.00  0.00     0.029 A 
ATOM     20  C   UNL     1       0.913  -8.829  -3.599  1.00  0.00     0.029 A 
ATOM     21  C   UNL     1       0.056 -10.970  -2.007  1.00  0.00     0.041 A 
ATOM     22  C   UNL     1       0.976 -10.134  -4.088  1.00  0.00     0.041 A 
ATOM     23  C   UNL     1       0.545 -11.189  -3.291  1.00  0.00     0.123 A 
ATOM     24  F   UNL     1       0.609 -12.442  -3.762  1.00  0.00    -0.207 F 
ENDBRANCH  15  18
BRANCH  17  25
ATOM     25  C   UNL     1       1.810  -7.752   0.291  1.00  0.00    -0.001 A 
ATOM     26  C   UNL     1       2.930  -8.432  -0.212  1.00  0.00     0.011 A 
ATOM     27  C   UNL     1       1.477  -7.900   1.644  1.00  0.00     0.011 A 
ATOM     28  C   UNL     1       3.678  -9.285   0.607  1.00  0.00     0.021 A 
ATOM     29  C   UNL     1       2.218  -8.750   2.470  1.00  0.00     0.021 A 
ATOM     30  C   UNL     1       3.304  -9.451   1.943  1.00  0.00     0.067 A 
BRANCH  30  31
ATOM     31  S   UNL     1       4.255 -10.536   2.983  1.00  0.00     0.175 S 
ATOM     32  C   UNL     1       4.002 -12.148   2.289  1.00  0.00     0.163 C 
ATOM     33  O   UNL     1       5.639 -10.182   2.831  1.00  0.00    -0.224 OA
ATOM     34  O   UNL     1       3.619 -10.541   4.302  1.00  0.00    -0.224 OA
ENDBRANCH  30  31
ENDBRANCH  17  25
ENDBRANCH  11  12
ENDBRANCH   8  11
ENDBRANCH   6   7
BRANCH   6  35
ATOM     35  C   UNL     1       3.252  -2.051  -2.513  1.00  0.00     0.193 C 
BRANCH  35  36
ATOM     36  O   UNL     1       3.977  -2.174  -1.286  1.00  0.00    -0.394 OA
ATOM     37  H   UNL     1       3.354  -2.290  -0.552  1.00  0.00     0.210 HD
ENDBRANCH  35  36
ENDBRANCH   6  35
ENDBRANCH   4   6
ENDBRANCH   3   4
ENDBRANCH   2   3
ENDBRANCH   1   2
BRANCH   1  38
ATOM     38  O   UNL     1       6.425  -5.277  -2.644  1.00  0.00    -0.374 OA
BRANCH  38  39
ATOM     39  C   UNL     1       6.339  -3.970  -2.041  1.00  0.00     0.202 C 
BRANCH  39  40
ATOM     40  C   UNL     1       7.605  -3.058  -2.081  1.00  0.00     0.261 C 
BRANCH  40  41
ATOM     41  O   UNL     1       7.489  -1.682  -2.660  1.00  0.00    -0.460 OA
BRANCH  41  42
ATOM     42  C   UNL     1       8.388  -1.327  -3.651  1.00  0.00     0.338 C 
ATOM     43  O   UNL     1       8.986  -2.184  -4.294  1.00  0.00    -0.246 OA
BRANCH  42  44
ATOM     44  C   UNL     1       8.562   0.185  -4.020  1.00  0.00     0.060 A 
ATOM     45  C   UNL     1       8.457   0.559  -5.361  1.00  0.00     0.016 A 
ATOM     46  C   UNL     1       9.086   1.218  -3.209  1.00  0.00     0.016 A 
ATOM     47  C   UNL     1       8.793   1.895  -5.841  1.00  0.00     0.010 A 
ATOM     48  C   UNL     1       9.499   2.571  -3.723  1.00  0.00     0.010 A 
ATOM     49  C   UNL     1       9.362   2.981  -5.070  1.00  0.00    -0.014 A 
BRANCH  49  50
ATOM     50  C   UNL     1      10.183   4.190  -5.931  1.00  0.00     0.031 A 
ATOM     51  C   UNL     1      10.948   3.346  -6.898  1.00  0.00     0.074 A 
ATOM     52  C   UNL     1      10.516   5.570  -6.021  1.00  0.00     0.049 A 
ATOM     53  N   UNL     1      11.715   2.397  -6.436  1.00  0.00    -0.248 NA
ATOM     54  C   UNL     1      10.611   3.219  -8.316  1.00  0.00     0.031 C 
ATOM     55  C   UNL     1      10.194   6.650  -5.064  1.00  0.00     0.029 A 
ATOM     56  N   UNL     1      11.249   6.381  -6.997  1.00  0.00    -0.354 N 
ATOM     57  C   UNL     1      12.226   1.746  -7.529  1.00  0.00     0.074 A 
ATOM     58  C   UNL     1      11.334   2.133  -8.617  1.00  0.00     0.031 C 
ATOM     59  C   UNL     1      10.537   7.896  -5.525  1.00  0.00     0.029 A 
ATOM     60  C   UNL     1      11.196   7.846  -6.836  1.00  0.00     0.049 A 
ATOM     61  H   UNL     1      11.756   5.965  -7.731  1.00  0.00     0.167 HD
ATOM     62  C   UNL     1      13.588   1.658  -7.555  1.00  0.00     0.034 A 
ATOM     63  C   UNL     1      11.697   8.926  -7.610  1.00  0.00     0.034 A 
ATOM     64  C   UNL     1      14.163   2.698  -8.366  1.00  0.00     0.049 A 
ATOM     65  C   UNL     1      12.893   8.413  -8.276  1.00  0.00     0.074 A 
ATOM     66  C   UNL     1      13.875   3.145  -9.639  1.00  0.00     0.029 A 
ATOM     67  N   UNL     1      14.820   3.724  -7.719  1.00  0.00    -0.354 N 
ATOM     68  N   UNL     1      14.007   8.236  -7.640  1.00  0.00    -0.248 NA
ATOM     69  C   UNL     1      12.919   8.115  -9.701  1.00  0.00     0.031 C 
ATOM     70  C   UNL     1      13.931   4.550  -9.547  1.00  0.00     0.029 A 
ATOM     71  C   UNL     1      14.644   4.907  -8.409  1.00  0.00     0.049 A 
ATOM     72  H   UNL     1      15.339   3.627  -6.888  1.00  0.00     0.167 HD
ATOM     73  C   UNL     1      14.631   7.299  -8.403  1.00  0.00     0.074 A 
ATOM     74  C   UNL     1      14.086   7.470  -9.739  1.00  0.00     0.031 C 
ATOM     75  C   UNL     1      15.009   6.159  -7.770  1.00  0.00     0.034 A 
BRANCH  62  76
ATOM     76  C   UNL     1      14.173   1.139  -6.270  1.00  0.00     0.023 A 
ATOM     77  C   UNL     1      14.606  -0.191  -6.223  1.00  0.00     0.031 A 
ATOM     78  C   UNL     1      14.150   1.867  -5.060  1.00  0.00     0.131 A 
ATOM     79  C   UNL     1      14.935  -0.776  -4.990  1.00  0.00     0.055 A 
ATOM     80  C   UNL     1      14.431   1.270  -3.832  1.00  0.00     0.041 A 
ATOM     81  F   UNL     1      13.832   3.172  -5.051  1.00  0.00    -0.206 F 
ATOM     82  C   UNL     1      14.817  -0.065  -3.791  1.00  0.00     0.022 A 
BRANCH  79  83
ATOM     83  S   UNL     1      15.521  -2.490  -4.978  1.00  0.00     0.124 S 
ATOM     84  O   UNL     1      14.356  -3.223  -5.465  1.00  0.00    -0.237 OA
ATOM     85  O   UNL     1      16.657  -2.436  -5.893  1.00  0.00    -0.237 OA
ATOM     86  O   UNL     1      15.866  -2.730  -3.578  1.00  0.00    -0.744 OA
ENDBRANCH  79  83
ENDBRANCH  62  76
BRANCH  63  87
ATOM     87  C   UNL     1      11.624  10.499  -7.895  1.00  0.00     0.023 A 
ATOM     88  C   UNL     1      12.671  11.244  -8.609  1.00  0.00     0.031 A 
ATOM     89  C   UNL     1      10.417  11.203  -7.804  1.00  0.00     0.131 A 
ATOM     90  C   UNL     1      12.463  12.536  -9.204  1.00  0.00     0.055 A 
ATOM     91  C   UNL     1      10.219  12.486  -8.391  1.00  0.00     0.041 A 
ATOM     92  F   UNL     1       9.351  10.636  -7.224  1.00  0.00    -0.206 F 
ATOM     93  C   UNL     1      11.221  13.144  -9.105  1.00  0.00     0.022 A 
BRANCH  90  94
ATOM     94  S   UNL     1      13.712  13.386 -10.291  1.00  0.00     0.124 S 
ATOM     95  O   UNL     1      14.584  14.053  -9.333  1.00  0.00    -0.237 OA
ATOM     96  O   UNL     1      14.297  12.284 -11.048  1.00  0.00    -0.237 OA
ATOM     97  O   UNL     1      12.897  14.297 -11.101  1.00  0.00    -0.744 OA
ENDBRANCH  90  94
ENDBRANCH  63  87
BRANCH  75  98
ATOM     98  C   UNL     1      15.653   6.297  -6.389  1.00  0.00     0.023 A 
ATOM     99  C   UNL     1      15.235   7.154  -5.334  1.00  0.00     0.031 A 
ATOM    100  C   UNL     1      16.826   5.560  -6.156  1.00  0.00     0.131 A 
ATOM    101  C   UNL     1      15.985   7.263  -4.143  1.00  0.00     0.055 A 
ATOM    102  C   UNL     1      17.543   5.632  -4.960  1.00  0.00     0.041 A 
ATOM    103  F   UNL     1      17.316   4.750  -7.109  1.00  0.00    -0.206 F 
ATOM    104  C   UNL     1      17.132   6.494  -3.953  1.00  0.00     0.022 A 
BRANCH 101 105
ATOM    105  S   UNL     1      15.523   8.473  -2.854  1.00  0.00     0.124 S 
ATOM    106  O   UNL     1      15.325   9.707  -3.605  1.00  0.00    -0.237 OA
ATOM    107  O   UNL     1      14.322   7.879  -2.274  1.00  0.00    -0.237 OA
ATOM    108  O   UNL     1      16.687   8.485  -1.966  1.00  0.00    -0.744 OA
ENDBRANCH 101 105
ENDBRANCH  75  98
ENDBRANCH  49  50
ENDBRANCH  42  44
ENDBRANCH  41  42
ENDBRANCH  40  41
ENDBRANCH  39  40
ENDBRANCH  38  39
ENDBRANCH   1  38
TORSDOF 25
