REMARK SMILES COc1ccc2cc([C@H](C)C(=O)OCCOCCOC(=O)c3ccc(-c4c5nc(c(-c6cc(S(=O)(=O)[O-])ccc6F)c6ccc([nH]6)c(-c6cc(S(=O)(=O)[O-])ccc6F)c6nc(c(-c7cc(S(=O)(=O)[O-])ccc7F)c7ccc4[nH]7)C=C6)C=C5)cc3)ccc2c1
REMARK SMILES IDX 17 1 16 2 15 3 14 4 13 5 11 6 12 7 9 8 10 9 8 10 3 11 4 12
REMARK SMILES IDX 88 13 5 14 87 15 6 16 86 17 7 18 85 19 2 20 1 21 18 22 19 23
REMARK SMILES IDX 20 24 21 25 22 26 23 27 84 28 24 29 83 30 25 31 26 32 27 33
REMARK SMILES IDX 77 34 28 35 82 36 76 37 78 38 29 39 81 40 75 41 74 42 30 44
REMARK SMILES IDX 62 45 42 46 61 47 43 48 46 49 60 50 79 51 44 52 45 53 59 55
REMARK SMILES IDX 80 56 47 57 31 58 32 59 40 60 33 61 39 62 41 63 38 64 34 65
REMARK SMILES IDX 35 66 36 67 37 68 63 69 64 70 72 71 65 72 71 73 73 74 70 75
REMARK SMILES IDX 66 76 67 77 68 78 69 79 48 80 49 81 57 82 50 83 56 84 58 85
REMARK SMILES IDX 55 86 51 87 52 88 53 89 54 90
REMARK H PARENT 78 43 46 54
REMARK Flexibility Score: inf
ROOT
ATOM      1  C   UNL     1       2.327  -9.229  -2.433  1.00  0.00     0.202 C 
ENDROOT
BRANCH   1   2
ATOM      2  O   UNL     1       3.504 -10.008  -2.630  1.00  0.00    -0.374 OA
BRANCH   2   3
ATOM      3  C   UNL     1       4.716  -9.325  -2.949  1.00  0.00     0.202 C 
BRANCH   3   4
ATOM      4  C   UNL     1       4.862  -8.804  -4.382  1.00  0.00     0.261 C 
BRANCH   4   5
ATOM      5  O   UNL     1       3.906  -7.774  -4.679  1.00  0.00    -0.463 OA
BRANCH   5   6
ATOM      6  C   UNL     1       2.881  -8.135  -5.498  1.00  0.00     0.313 C 
ATOM      7  O   UNL     1       2.745  -9.239  -6.015  1.00  0.00    -0.252 OA
BRANCH   6   8
ATOM      8  C   UNL     1       1.901  -6.988  -5.738  1.00  0.00     0.126 C 
ATOM      9  C   UNL     1       1.630  -6.117  -4.507  1.00  0.00     0.025 C 
BRANCH   8  10
ATOM     10  C   UNL     1       2.328  -6.237  -6.981  1.00  0.00    -0.033 A 
ATOM     11  C   UNL     1       3.500  -5.148 -11.790  1.00  0.00     0.119 A 
ATOM     12  C   UNL     1       2.747  -6.321 -11.830  1.00  0.00     0.047 A 
ATOM     13  C   UNL     1       3.775  -4.540 -10.562  1.00  0.00     0.055 A 
ATOM     14  C   UNL     1       2.248  -6.868 -10.648  1.00  0.00     0.012 A 
ATOM     15  C   UNL     1       3.280  -5.077  -9.366  1.00  0.00    -0.015 A 
ATOM     16  C   UNL     1       2.506  -6.255  -9.416  1.00  0.00    -0.018 A 
ATOM     17  C   UNL     1       3.554  -4.488  -8.121  1.00  0.00     0.009 A 
ATOM     18  C   UNL     1       2.033  -6.814  -8.227  1.00  0.00     0.013 A 
ATOM     19  C   UNL     1       3.091  -5.067  -6.938  1.00  0.00     0.005 A 
BRANCH  11  20
ATOM     20  O   UNL     1       4.051  -4.537 -12.883  1.00  0.00    -0.497 OA
ATOM     21  C   UNL     1       3.333  -4.711 -14.097  1.00  0.00     0.278 C 
ENDBRANCH  11  20
ENDBRANCH   8  10
ENDBRANCH   6   8
ENDBRANCH   5   6
ENDBRANCH   4   5
ENDBRANCH   3   4
ENDBRANCH   2   3
ENDBRANCH   1   2
BRANCH   1  22
ATOM     22  C   UNL     1       2.219  -8.414  -1.140  1.00  0.00     0.261 C 
BRANCH  22  23
ATOM     23  O   UNL     1       3.203  -7.367  -1.057  1.00  0.00    -0.460 OA
BRANCH  23  24
ATOM     24  C   UNL     1       4.135  -7.555  -0.093  1.00  0.00     0.338 C 
ATOM     25  O   UNL     1       4.174  -8.476   0.716  1.00  0.00    -0.246 OA
BRANCH  24  26
ATOM     26  C   UNL     1       5.243  -6.594  -0.237  1.00  0.00     0.060 A 
ATOM     27  C   UNL     1       6.542  -7.116  -0.285  1.00  0.00     0.016 A 
ATOM     28  C   UNL     1       5.034  -5.213  -0.217  1.00  0.00     0.016 A 
ATOM     29  C   UNL     1       7.641  -6.262  -0.250  1.00  0.00     0.010 A 
ATOM     30  C   UNL     1       6.142  -4.356  -0.174  1.00  0.00     0.010 A 
ATOM     31  C   UNL     1       7.448  -4.879  -0.146  1.00  0.00    -0.014 A 
BRANCH  31  32
ATOM     32  C   UNL     1       8.610  -4.009   0.173  1.00  0.00     0.031 A 
ATOM     33  C   UNL     1       8.822  -3.580   1.601  1.00  0.00     0.074 A 
ATOM     34  C   UNL     1       9.492  -3.655  -0.778  1.00  0.00     0.049 A 
ATOM     35  N   UNL     1       9.752  -2.813   2.110  1.00  0.00    -0.248 NA
ATOM     36  C   UNL     1       7.852  -4.085   2.584  1.00  0.00     0.031 C 
ATOM     37  C   UNL     1       9.422  -4.055  -2.183  1.00  0.00     0.029 A 
ATOM     38  N   UNL     1      10.620  -2.877  -0.705  1.00  0.00    -0.354 N 
ATOM     39  C   UNL     1       9.479  -2.740   3.473  1.00  0.00     0.074 A 
ATOM     40  C   UNL     1       8.273  -3.508   3.700  1.00  0.00     0.031 C 
ATOM     41  C   UNL     1      10.461  -3.512  -2.842  1.00  0.00     0.029 A 
ATOM     42  C   UNL     1      11.247  -2.699  -1.916  1.00  0.00     0.049 A 
ATOM     43  H   UNL     1      10.950  -2.484   0.135  1.00  0.00     0.167 HD
ATOM     44  C   UNL     1      10.174  -2.100   4.445  1.00  0.00     0.034 A 
ATOM     45  C   UNL     1      12.318  -1.946  -2.242  1.00  0.00     0.034 A 
ATOM     46  C   UNL     1      11.370  -1.330   4.202  1.00  0.00     0.049 A 
ATOM     47  C   UNL     1      13.027  -1.170  -1.157  1.00  0.00     0.074 A 
ATOM     48  C   UNL     1      12.156  -0.646   5.114  1.00  0.00     0.029 A 
ATOM     49  N   UNL     1      11.947  -1.130   2.954  1.00  0.00    -0.354 N 
ATOM     50  N   UNL     1      12.758  -1.108   0.127  1.00  0.00    -0.248 NA
ATOM     51  C   UNL     1      14.188  -0.369  -1.567  1.00  0.00     0.031 C 
ATOM     52  C   UNL     1      13.165   0.023   4.410  1.00  0.00     0.029 A 
ATOM     53  C   UNL     1      13.058  -0.308   3.068  1.00  0.00     0.049 A 
ATOM     54  H   UNL     1      11.616  -1.516   2.111  1.00  0.00     0.167 HD
ATOM     55  C   UNL     1      13.740  -0.290   0.682  1.00  0.00     0.074 A 
ATOM     56  C   UNL     1      14.610   0.109  -0.405  1.00  0.00     0.031 C 
ATOM     57  C   UNL     1      13.913   0.090   1.974  1.00  0.00     0.034 A 
BRANCH  44  58
ATOM     58  C   UNL     1       9.621  -2.165   5.849  1.00  0.00     0.023 A 
ATOM     59  C   UNL     1       9.526  -3.377   6.555  1.00  0.00     0.031 A 
ATOM     60  C   UNL     1       9.148  -0.999   6.478  1.00  0.00     0.131 A 
ATOM     61  C   UNL     1       8.908  -3.408   7.814  1.00  0.00     0.055 A 
ATOM     62  C   UNL     1       8.606  -1.024   7.764  1.00  0.00     0.041 A 
ATOM     63  F   UNL     1       9.190   0.184   5.844  1.00  0.00    -0.206 F 
ATOM     64  C   UNL     1       8.470  -2.235   8.434  1.00  0.00     0.022 A 
BRANCH  61  65
ATOM     65  S   UNL     1       8.552  -5.019   8.569  1.00  0.00     0.124 S 
ATOM     66  O   UNL     1       7.714  -5.644   7.549  1.00  0.00    -0.237 OA
ATOM     67  O   UNL     1       9.884  -5.588   8.739  1.00  0.00    -0.237 OA
ATOM     68  O   UNL     1       7.858  -4.672   9.808  1.00  0.00    -0.744 OA
ENDBRANCH  61  65
ENDBRANCH  44  58
BRANCH  45  69
ATOM     69  C   UNL     1      12.768  -1.849  -3.660  1.00  0.00     0.023 A 
ATOM     70  C   UNL     1      14.035  -2.307  -4.057  1.00  0.00     0.031 A 
ATOM     71  C   UNL     1      11.954  -1.239  -4.632  1.00  0.00     0.131 A 
ATOM     72  C   UNL     1      14.469  -2.107  -5.377  1.00  0.00     0.055 A 
ATOM     73  C   UNL     1      12.369  -1.090  -5.956  1.00  0.00     0.041 A 
ATOM     74  F   UNL     1      10.735  -0.781  -4.306  1.00  0.00    -0.206 F 
ATOM     75  C   UNL     1      13.640  -1.514  -6.332  1.00  0.00     0.022 A 
BRANCH  72  76
ATOM     76  S   UNL     1      16.172  -2.556  -5.809  1.00  0.00     0.124 S 
ATOM     77  O   UNL     1      16.940  -1.740  -4.876  1.00  0.00    -0.237 OA
ATOM     78  O   UNL     1      16.178  -3.994  -5.561  1.00  0.00    -0.237 OA
ATOM     79  O   UNL     1      16.280  -2.167  -7.214  1.00  0.00    -0.744 OA
ENDBRANCH  72  76
ENDBRANCH  45  69
BRANCH  57  80
ATOM     80  C   UNL     1      15.122   0.941   2.287  1.00  0.00     0.023 A 
ATOM     81  C   UNL     1      15.248   2.257   1.811  1.00  0.00     0.031 A 
ATOM     82  C   UNL     1      16.167   0.417   3.069  1.00  0.00     0.131 A 
ATOM     83  C   UNL     1      16.418   2.987   2.076  1.00  0.00     0.055 A 
ATOM     84  C   UNL     1      17.302   1.168   3.379  1.00  0.00     0.041 A 
ATOM     85  F   UNL     1      16.101  -0.835   3.549  1.00  0.00    -0.206 F 
ATOM     86  C   UNL     1      17.438   2.456   2.871  1.00  0.00     0.022 A 
BRANCH  83  87
ATOM     87  S   UNL     1      16.631   4.609   1.293  1.00  0.00     0.124 S 
ATOM     88  O   UNL     1      16.528   4.279  -0.125  1.00  0.00    -0.237 OA
ATOM     89  O   UNL     1      15.521   5.374   1.852  1.00  0.00    -0.237 OA
ATOM     90  O   UNL     1      17.959   5.033   1.735  1.00  0.00    -0.744 OA
ENDBRANCH  83  87
ENDBRANCH  57  80
ENDBRANCH  31  32
ENDBRANCH  24  26
ENDBRANCH  23  24
ENDBRANCH  22  23
ENDBRANCH   1  22
TORSDOF 19
