REMARK SMILES [NH3+]CCC1=c2cc([N+](=O)[O-])ccc2=N[C@H]1C(=O)OCCOCCOC(=O)c1ccc(-c2c3nc(c(-c4cc(S(=O)(=O)[O-])ccc4F)c4ccc([nH]4)c(-c4cc(S(=O)(=O)[O-])ccc4F)c4nc(c(-c5cc(S(=O)(=O)[O-])ccc5F)c5ccc2[nH]5)C=C4)C=C3)cc1
REMARK SMILES IDX 21 1 20 2 19 3 18 4 16 5 17 6 15 7 4 8 5 9 6 10 13 11 14 12
REMARK SMILES IDX 7 13 12 14 11 15 3 16 2 17 1 18 8 22 9 23 10 24 22 25 23 26
REMARK SMILES IDX 24 27 25 28 26 29 27 30 28 31 89 32 29 33 88 34 30 35 31 36
REMARK SMILES IDX 32 37 82 38 33 39 87 40 81 41 83 42 34 43 86 44 80 45 79 46
REMARK SMILES IDX 35 48 67 49 47 50 66 51 48 52 51 53 65 54 84 55 49 56 50 57
REMARK SMILES IDX 64 59 85 60 52 61 36 62 37 63 45 64 38 65 44 66 46 67 43 68
REMARK SMILES IDX 39 69 40 70 41 71 42 72 68 73 69 74 77 75 70 76 76 77 78 78
REMARK SMILES IDX 75 79 71 80 72 81 73 82 74 83 53 84 54 85 62 86 55 87 61 88
REMARK SMILES IDX 63 89 60 90 56 91 57 92 58 93 59 94
REMARK H PARENT 1 19 1 20 1 21 83 47 51 58
REMARK Flexibility Score: inf
ROOT
ATOM      1  O   UNL     1       1.713   0.267   4.452  1.00  0.00    -0.374 OA
ENDROOT
BRANCH   1   2
ATOM      2  C   UNL     1       2.212   1.074   3.387  1.00  0.00     0.202 C 
BRANCH   2   3
ATOM      3  C   UNL     1       2.712   0.345   2.139  1.00  0.00     0.261 C 
BRANCH   3   4
ATOM      4  O   UNL     1       1.640  -0.363   1.502  1.00  0.00    -0.461 OA
BRANCH   4   5
ATOM      5  C   UNL     1       1.811  -1.712   1.394  1.00  0.00     0.335 C 
ATOM      6  O   UNL     1       2.847  -2.318   1.645  1.00  0.00    -0.249 OA
BRANCH   5   7
ATOM      7  C   UNL     1       0.503  -2.372   0.920  1.00  0.00     0.242 C 
ATOM      8  C   UNL     1       0.783  -3.066  -0.381  1.00  0.00    -0.019 C 
ATOM      9  C   UNL     1       0.833  -4.384  -0.185  1.00  0.00     0.009 A 
ATOM     10  C   UNL     1       1.220  -5.505  -0.983  1.00  0.00     0.096 A 
ATOM     11  C   UNL     1       0.449  -4.533   1.231  1.00  0.00     0.067 A 
ATOM     12  N   UNL     1       0.166  -3.459   1.898  1.00  0.00    -0.265 NA
ATOM     13  C   UNL     1       1.239  -6.721  -0.402  1.00  0.00     0.270 A 
ATOM     14  C   UNL     1       0.420  -5.909   1.771  1.00  0.00     0.035 A 
ATOM     15  C   UNL     1       0.813  -6.924   0.982  1.00  0.00     0.088 A 
BRANCH   8  16
ATOM     16  C   UNL     1       1.097  -2.299  -1.634  1.00  0.00     0.096 C 
BRANCH  16  17
ATOM     17  C   UNL     1       0.215  -1.065  -1.915  1.00  0.00     0.263 C 
BRANCH  17  18
ATOM     18  N   UNL     1       0.647   0.152  -1.238  1.00  0.00    -0.357 N 
ATOM     19  H   UNL     1       0.015   0.916  -1.475  1.00  0.00     0.344 HD
ATOM     20  H   UNL     1       1.594   0.389  -1.535  1.00  0.00     0.344 HD
ATOM     21  H   UNL     1       0.635   0.002  -0.229  1.00  0.00     0.344 HD
ENDBRANCH  17  18
ENDBRANCH  16  17
ENDBRANCH   8  16
BRANCH  13  22
ATOM     22  N   UNL     1       1.738  -7.851  -1.198  1.00  0.00     0.062 N 
ATOM     23  O   UNL     1       2.112  -7.636  -2.359  1.00  0.00    -0.258 OA
ATOM     24  O   UNL     1       1.760  -8.962  -0.650  1.00  0.00    -0.258 OA
ENDBRANCH  13  22
ENDBRANCH   5   7
ENDBRANCH   4   5
ENDBRANCH   3   4
ENDBRANCH   2   3
ENDBRANCH   1   2
BRANCH   1  25
ATOM     25  C   UNL     1       0.488  -0.438   4.261  1.00  0.00     0.202 C 
BRANCH  25  26
ATOM     26  C   UNL     1      -0.816   0.370   4.192  1.00  0.00     0.261 C 
BRANCH  26  27
ATOM     27  O   UNL     1      -0.878   1.298   3.096  1.00  0.00    -0.460 OA
BRANCH  27  28
ATOM     28  C   UNL     1      -0.792   2.605   3.452  1.00  0.00     0.338 C 
ATOM     29  O   UNL     1      -0.620   3.051   4.580  1.00  0.00    -0.246 OA
BRANCH  28  30
ATOM     30  C   UNL     1      -0.782   3.449   2.248  1.00  0.00     0.060 A 
ATOM     31  C   UNL     1      -1.904   3.521   1.421  1.00  0.00     0.016 A 
ATOM     32  C   UNL     1       0.347   4.236   1.988  1.00  0.00     0.016 A 
ATOM     33  C   UNL     1      -1.894   4.392   0.327  1.00  0.00     0.010 A 
ATOM     34  C   UNL     1       0.354   5.102   0.895  1.00  0.00     0.010 A 
ATOM     35  C   UNL     1      -0.769   5.192   0.059  1.00  0.00    -0.014 A 
BRANCH  35  36
ATOM     36  C   UNL     1      -0.787   6.176  -1.054  1.00  0.00     0.031 A 
ATOM     37  C   UNL     1       0.006   5.930  -2.304  1.00  0.00     0.074 A 
ATOM     38  C   UNL     1      -1.498   7.312  -0.914  1.00  0.00     0.049 A 
ATOM     39  N   UNL     1       0.104   6.678  -3.372  1.00  0.00    -0.248 NA
ATOM     40  C   UNL     1       0.796   4.691  -2.361  1.00  0.00     0.031 C 
ATOM     41  C   UNL     1      -2.281   7.662   0.270  1.00  0.00     0.029 A 
ATOM     42  N   UNL     1      -1.676   8.379  -1.761  1.00  0.00    -0.354 N 
ATOM     43  C   UNL     1       0.957   6.000  -4.234  1.00  0.00     0.074 A 
ATOM     44  C   UNL     1       1.389   4.804  -3.543  1.00  0.00     0.031 C 
ATOM     45  C   UNL     1      -2.870   8.850   0.069  1.00  0.00     0.029 A 
ATOM     46  C   UNL     1      -2.476   9.371  -1.239  1.00  0.00     0.049 A 
ATOM     47  H   UNL     1      -1.270   8.429  -2.656  1.00  0.00     0.167 HD
ATOM     48  C   UNL     1       1.323   6.339  -5.493  1.00  0.00     0.034 A 
ATOM     49  C   UNL     1      -2.845  10.566  -1.749  1.00  0.00     0.034 A 
ATOM     50  C   UNL     1       0.873   7.532  -6.164  1.00  0.00     0.049 A 
ATOM     51  C   UNL     1      -2.394  10.936  -3.141  1.00  0.00     0.074 A 
ATOM     52  C   UNL     1       1.150   7.934  -7.459  1.00  0.00     0.029 A 
ATOM     53  N   UNL     1       0.064   8.513  -5.607  1.00  0.00    -0.354 N 
ATOM     54  N   UNL     1      -1.667  10.239  -3.982  1.00  0.00    -0.248 NA
ATOM     55  C   UNL     1      -2.819  12.243  -3.666  1.00  0.00     0.031 C 
ATOM     56  C   UNL     1       0.581   9.190  -7.657  1.00  0.00     0.029 A 
ATOM     57  C   UNL     1      -0.137   9.533  -6.522  1.00  0.00     0.049 A 
ATOM     58  H   UNL     1      -0.312   8.487  -4.697  1.00  0.00     0.167 HD
ATOM     59  C   UNL     1      -1.580  11.002  -5.143  1.00  0.00     0.074 A 
ATOM     60  C   UNL     1      -2.338  12.211  -4.903  1.00  0.00     0.031 C 
ATOM     61  C   UNL     1      -0.929  10.720  -6.299  1.00  0.00     0.034 A 
BRANCH  48  62
ATOM     62  C   UNL     1       2.232   5.415  -6.267  1.00  0.00     0.023 A 
ATOM     63  C   UNL     1       3.479   5.880  -6.727  1.00  0.00     0.031 A 
ATOM     64  C   UNL     1       1.793   4.151  -6.696  1.00  0.00     0.131 A 
ATOM     65  C   UNL     1       4.220   5.106  -7.629  1.00  0.00     0.055 A 
ATOM     66  C   UNL     1       2.559   3.363  -7.557  1.00  0.00     0.041 A 
ATOM     67  F   UNL     1       0.608   3.665  -6.292  1.00  0.00    -0.206 F 
ATOM     68  C   UNL     1       3.770   3.848  -8.041  1.00  0.00     0.022 A 
BRANCH  65  69
ATOM     69  S   UNL     1       5.750   5.738  -8.370  1.00  0.00     0.124 S 
ATOM     70  O   UNL     1       6.721   4.726  -7.959  1.00  0.00    -0.237 OA
ATOM     71  O   UNL     1       5.420   5.744  -9.793  1.00  0.00    -0.237 OA
ATOM     72  O   UNL     1       5.923   7.050  -7.755  1.00  0.00    -0.744 OA
ENDBRANCH  65  69
ENDBRANCH  48  62
BRANCH  49  73
ATOM     73  C   UNL     1      -3.736  11.456  -0.946  1.00  0.00     0.023 A 
ATOM     74  C   UNL     1      -3.331  11.939   0.313  1.00  0.00     0.031 A 
ATOM     75  C   UNL     1      -5.040  11.751  -1.375  1.00  0.00     0.131 A 
ATOM     76  C   UNL     1      -4.243  12.627   1.124  1.00  0.00     0.055 A 
ATOM     77  C   UNL     1      -5.921  12.504  -0.596  1.00  0.00     0.041 A 
ATOM     78  F   UNL     1      -5.480  11.303  -2.561  1.00  0.00    -0.206 F 
ATOM     79  C   UNL     1      -5.530  12.929   0.670  1.00  0.00     0.022 A 
BRANCH  76  80
ATOM     80  S   UNL     1      -3.836  13.030   2.846  1.00  0.00     0.124 S 
ATOM     81  O   UNL     1      -3.967  14.483   2.858  1.00  0.00    -0.237 OA
ATOM     82  O   UNL     1      -4.868  12.297   3.575  1.00  0.00    -0.237 OA
ATOM     83  O   UNL     1      -2.480  12.517   3.008  1.00  0.00    -0.744 OA
ENDBRANCH  76  80
ENDBRANCH  49  73
BRANCH  61  84
ATOM     84  C   UNL     1      -1.004  11.695  -7.452  1.00  0.00     0.023 A 
ATOM     85  C   UNL     1      -1.555  11.274  -8.679  1.00  0.00     0.031 A 
ATOM     86  C   UNL     1      -0.340  12.932  -7.411  1.00  0.00     0.131 A 
ATOM     87  C   UNL     1      -1.362  12.045  -9.832  1.00  0.00     0.055 A 
ATOM     88  C   UNL     1      -0.203  13.726  -8.552  1.00  0.00     0.041 A 
ATOM     89  F   UNL     1       0.211  13.374  -6.269  1.00  0.00    -0.206 F 
ATOM     90  C   UNL     1      -0.695  13.272  -9.774  1.00  0.00     0.022 A 
BRANCH  87  91
ATOM     91  S   UNL     1      -1.859  11.425 -11.464  1.00  0.00     0.124 S 
ATOM     92  O   UNL     1      -2.751  12.484 -11.932  1.00  0.00    -0.237 OA
ATOM     93  O   UNL     1      -0.579  11.335 -12.160  1.00  0.00    -0.237 OA
ATOM     94  O   UNL     1      -2.510  10.151 -11.174  1.00  0.00    -0.744 OA
ENDBRANCH  87  91
ENDBRANCH  61  84
ENDBRANCH  35  36
ENDBRANCH  28  30
ENDBRANCH  27  28
ENDBRANCH  26  27
ENDBRANCH  25  26
ENDBRANCH   1  25
TORSDOF 21
