REMARK SMILES CCCCc1nc(C[N@H+]2CC[NH2+][C@H](C(=O)OCCOCCOC(=O)c3ccc(-c4c5nc(c(-c6cc(S(=O)(=O)[O-])ccc6F)c6ccc([nH]6)c(-c6cc(S(=O)(=O)[O-])ccc6F)c6nc(c(-c7cc(S(=O)(=O)[O-])ccc7F)c7ccc4[nH]7)C=C6)C=C5)cc3)C2)c(Cl)[nH]1
REMARK SMILES IDX 18 1 17 2 16 3 14 4 15 5 13 6 9 7 10 8 88 9 11 11 12 12 8 15
REMARK SMILES IDX 7 16 5 17 6 18 91 19 89 20 90 22 4 23 3 24 2 25 1 26 19 27
REMARK SMILES IDX 20 28 21 29 22 30 23 31 24 32 25 33 26 34 87 35 27 36 86 37
REMARK SMILES IDX 28 38 29 39 30 40 80 41 31 42 85 43 79 44 81 45 32 46 84 47
REMARK SMILES IDX 78 48 77 49 33 51 65 52 45 53 64 54 46 55 49 56 63 57 82 58
REMARK SMILES IDX 47 59 48 60 62 62 83 63 50 64 34 65 35 66 43 67 36 68 42 69
REMARK SMILES IDX 44 70 41 71 37 72 38 73 39 74 40 75 66 76 67 77 75 78 68 79
REMARK SMILES IDX 74 80 76 81 73 82 69 83 70 84 71 85 72 86 51 87 52 88 60 89
REMARK SMILES IDX 53 90 59 91 61 92 58 93 54 94 55 95 56 96 57 97
REMARK H PARENT 9 10 12 13 12 14 91 21 81 50 49 61
REMARK Flexibility Score: inf
ROOT
ATOM      1  C   UNL     1       2.355  -1.516  -3.231  1.00  0.00     0.202 C 
ENDROOT
BRANCH   1   2
ATOM      2  C   UNL     1       1.197  -1.795  -4.199  1.00  0.00     0.261 C 
BRANCH   2   3
ATOM      3  O   UNL     1       0.197  -0.761  -4.133  1.00  0.00    -0.459 OA
BRANCH   3   4
ATOM      4  C   UNL     1      -1.093  -1.161  -3.930  1.00  0.00     0.371 C 
ATOM      5  O   UNL     1      -1.486  -2.320  -4.018  1.00  0.00    -0.245 OA
BRANCH   4   6
ATOM      6  C   UNL     1      -1.965   0.029  -3.490  1.00  0.00     0.348 C 
ATOM      7  N   UNL     1      -4.237   0.499  -2.410  1.00  0.00    -0.320 N 
ATOM      8  C   UNL     1      -4.473   1.433  -3.514  1.00  0.00     0.324 C 
ATOM      9  C   UNL     1      -3.213  -0.502  -2.738  1.00  0.00     0.341 C 
ATOM     10  H   UNL     1      -5.111  -0.020  -2.328  1.00  0.00     0.348 HD
ATOM     11  C   UNL     1      -3.196   1.959  -4.207  1.00  0.00     0.323 C 
ATOM     12  N   UNL     1      -2.305   0.877  -4.662  1.00  0.00    -0.325 N 
ATOM     13  H   UNL     1      -1.453   1.274  -5.058  1.00  0.00     0.347 HD
ATOM     14  H   UNL     1      -2.768   0.317  -5.378  1.00  0.00     0.347 HD
BRANCH   7  15
ATOM     15  C   UNL     1      -4.181   1.065  -1.056  1.00  0.00     0.323 C 
BRANCH  15  16
ATOM     16  C   UNL     1      -3.236   2.203  -0.814  1.00  0.00     0.132 A 
ATOM     17  C   UNL     1      -1.421   3.221  -0.161  1.00  0.00     0.107 A 
ATOM     18  N   UNL     1      -1.928   2.014  -0.383  1.00  0.00    -0.231 NA
ATOM     19  N   UNL     1      -2.361   4.187  -0.443  1.00  0.00    -0.333 N 
ATOM     20  C   UNL     1      -3.492   3.551  -0.841  1.00  0.00     0.135 A 
ATOM     21  H   UNL     1      -2.236   5.161  -0.369  1.00  0.00     0.169 HD
ATOM     22  Cl  UNL     1      -4.848   4.488  -1.227  1.00  0.00    -0.062 Cl
BRANCH  17  23
ATOM     23  C   UNL     1      -0.003   3.601   0.146  1.00  0.00     0.075 C 
BRANCH  23  24
ATOM     24  C   UNL     1       0.660   3.042   1.410  1.00  0.00     0.008 C 
BRANCH  24  25
ATOM     25  C   UNL     1       0.471   1.555   1.730  1.00  0.00    -0.003 C 
ATOM     26  C   UNL     1       1.785   0.821   1.992  1.00  0.00     0.004 C 
ENDBRANCH  24  25
ENDBRANCH  23  24
ENDBRANCH  17  23
ENDBRANCH  15  16
ENDBRANCH   7  15
ENDBRANCH   4   6
ENDBRANCH   3   4
ENDBRANCH   2   3
ENDBRANCH   1   2
BRANCH   1  27
ATOM     27  O   UNL     1       2.047  -1.543  -1.838  1.00  0.00    -0.374 OA
BRANCH  27  28
ATOM     28  C   UNL     1       1.023  -0.678  -1.381  1.00  0.00     0.202 C 
BRANCH  28  29
ATOM     29  C   UNL     1       1.200   0.829  -1.552  1.00  0.00     0.261 C 
BRANCH  29  30
ATOM     30  O   UNL     1       1.648   1.344  -2.801  1.00  0.00    -0.460 OA
BRANCH  30  31
ATOM     31  C   UNL     1       2.883   1.879  -2.686  1.00  0.00     0.338 C 
ATOM     32  O   UNL     1       3.874   1.274  -2.257  1.00  0.00    -0.246 OA
BRANCH  31  33
ATOM     33  C   UNL     1       2.881   3.328  -2.948  1.00  0.00     0.060 A 
ATOM     34  C   UNL     1       4.116   3.984  -2.928  1.00  0.00     0.016 A 
ATOM     35  C   UNL     1       1.690   4.061  -3.082  1.00  0.00     0.016 A 
ATOM     36  C   UNL     1       4.159   5.365  -3.023  1.00  0.00     0.010 A 
ATOM     37  C   UNL     1       1.732   5.450  -3.144  1.00  0.00     0.010 A 
ATOM     38  C   UNL     1       2.969   6.098  -3.119  1.00  0.00    -0.014 A 
BRANCH  38  39
ATOM     39  C   UNL     1       3.088   7.508  -3.477  1.00  0.00     0.031 A 
ATOM     40  C   UNL     1       3.527   7.726  -4.880  1.00  0.00     0.074 A 
ATOM     41  C   UNL     1       2.744   8.560  -2.712  1.00  0.00     0.049 A 
ATOM     42  N   UNL     1       4.630   8.262  -5.284  1.00  0.00    -0.248 NA
ATOM     43  C   UNL     1       2.704   7.159  -5.958  1.00  0.00     0.031 C 
ATOM     44  C   UNL     1       2.058   8.543  -1.424  1.00  0.00     0.029 A 
ATOM     45  N   UNL     1       2.858   9.893  -2.995  1.00  0.00    -0.354 N 
ATOM     46  C   UNL     1       4.547   8.300  -6.671  1.00  0.00     0.074 A 
ATOM     47  C   UNL     1       3.442   7.452  -7.028  1.00  0.00     0.031 C 
ATOM     48  C   UNL     1       1.632   9.795  -1.139  1.00  0.00     0.029 A 
ATOM     49  C   UNL     1       2.097  10.713  -2.171  1.00  0.00     0.049 A 
ATOM     50  H   UNL     1       3.429  10.241  -3.719  1.00  0.00     0.167 HD
ATOM     51  C   UNL     1       5.254   9.208  -7.398  1.00  0.00     0.034 A 
ATOM     52  C   UNL     1       1.805  12.028  -2.359  1.00  0.00     0.034 A 
ATOM     53  C   UNL     1       6.363   9.743  -6.636  1.00  0.00     0.049 A 
ATOM     54  C   UNL     1       2.855  12.602  -3.238  1.00  0.00     0.074 A 
ATOM     55  C   UNL     1       7.418   9.174  -5.944  1.00  0.00     0.029 A 
ATOM     56  N   UNL     1       6.309  11.049  -6.201  1.00  0.00    -0.354 N 
ATOM     57  N   UNL     1       4.096  12.763  -2.867  1.00  0.00    -0.248 NA
ATOM     58  C   UNL     1       2.640  12.604  -4.678  1.00  0.00     0.031 C 
ATOM     59  C   UNL     1       7.584   9.989  -4.787  1.00  0.00     0.029 A 
ATOM     60  C   UNL     1       6.675  11.043  -4.878  1.00  0.00     0.049 A 
ATOM     61  H   UNL     1       6.057  11.836  -6.736  1.00  0.00     0.167 HD
ATOM     62  C   UNL     1       4.850  12.449  -3.986  1.00  0.00     0.074 A 
ATOM     63  C   UNL     1       3.902  12.471  -5.097  1.00  0.00     0.031 C 
ATOM     64  C   UNL     1       6.107  11.923  -3.875  1.00  0.00     0.034 A 
BRANCH  51  65
ATOM     65  C   UNL     1       4.731   9.883  -8.649  1.00  0.00     0.023 A 
ATOM     66  C   UNL     1       5.570  10.839  -9.251  1.00  0.00     0.031 A 
ATOM     67  C   UNL     1       3.387   9.888  -9.088  1.00  0.00     0.131 A 
ATOM     68  C   UNL     1       5.045  11.827 -10.100  1.00  0.00     0.055 A 
ATOM     69  C   UNL     1       2.889  10.820 -10.003  1.00  0.00     0.041 A 
ATOM     70  F   UNL     1       2.455   9.065  -8.595  1.00  0.00    -0.206 F 
ATOM     71  C   UNL     1       3.708  11.826 -10.482  1.00  0.00     0.022 A 
BRANCH  68  72
ATOM     72  S   UNL     1       6.099  13.244 -10.497  1.00  0.00     0.124 S 
ATOM     73  O   UNL     1       6.498  13.683  -9.164  1.00  0.00    -0.237 OA
ATOM     74  O   UNL     1       7.139  12.624 -11.311  1.00  0.00    -0.237 OA
ATOM     75  O   UNL     1       5.198  14.145 -11.211  1.00  0.00    -0.744 OA
ENDBRANCH  68  72
ENDBRANCH  51  65
BRANCH  52  76
ATOM     76  C   UNL     1       0.546  12.740  -1.996  1.00  0.00     0.023 A 
ATOM     77  C   UNL     1       0.446  14.147  -1.958  1.00  0.00     0.031 A 
ATOM     78  C   UNL     1      -0.668  12.022  -1.891  1.00  0.00     0.131 A 
ATOM     79  C   UNL     1      -0.817  14.770  -1.808  1.00  0.00     0.055 A 
ATOM     80  C   UNL     1      -1.908  12.640  -1.721  1.00  0.00     0.041 A 
ATOM     81  F   UNL     1      -0.708  10.688  -2.036  1.00  0.00    -0.206 F 
ATOM     82  C   UNL     1      -1.989  14.020  -1.687  1.00  0.00     0.022 A 
BRANCH  79  83
ATOM     83  S   UNL     1      -0.974  16.584  -1.889  1.00  0.00     0.124 S 
ATOM     84  O   UNL     1      -0.421  17.001  -0.607  1.00  0.00    -0.237 OA
ATOM     85  O   UNL     1      -0.194  16.915  -3.076  1.00  0.00    -0.237 OA
ATOM     86  O   UNL     1      -2.417  16.792  -2.033  1.00  0.00    -0.744 OA
ENDBRANCH  79  83
ENDBRANCH  52  76
BRANCH  64  87
ATOM     87  C   UNL     1       6.845  12.027  -2.557  1.00  0.00     0.023 A 
ATOM     88  C   UNL     1       6.326  11.623  -1.308  1.00  0.00     0.031 A 
ATOM     89  C   UNL     1       8.188  12.450  -2.596  1.00  0.00     0.131 A 
ATOM     90  C   UNL     1       7.137  11.666  -0.159  1.00  0.00     0.055 A 
ATOM     91  C   UNL     1       8.996  12.468  -1.460  1.00  0.00     0.041 A 
ATOM     92  F   UNL     1       8.753  12.823  -3.756  1.00  0.00    -0.206 F 
ATOM     93  C   UNL     1       8.470  12.083  -0.233  1.00  0.00     0.022 A 
BRANCH  90  94
ATOM     94  S   UNL     1       6.462  11.196   1.464  1.00  0.00     0.124 S 
ATOM     95  O   UNL     1       5.166  11.862   1.505  1.00  0.00    -0.237 OA
ATOM     96  O   UNL     1       6.428   9.738   1.379  1.00  0.00    -0.237 OA
ATOM     97  O   UNL     1       7.449  11.726   2.408  1.00  0.00    -0.744 OA
ENDBRANCH  90  94
ENDBRANCH  64  87
ENDBRANCH  38  39
ENDBRANCH  31  33
ENDBRANCH  30  31
ENDBRANCH  29  30
ENDBRANCH  28  29
ENDBRANCH  27  28
ENDBRANCH   1  27
TORSDOF 22
