REMARK SMILES O=C(OCCOCCOC(=O)[C@H]1Cc2c([nH]c3ccccc23)[C@H](c2c[nH]c3ccccc23)[NH2+]1)c1ccc(-c2c3nc(c(-c4cc(S(=O)(=O)[O-])ccc4F)c4ccc([nH]4)c(-c4cc(S(=O)(=O)[O-])ccc4F)c4nc(c(-c5cc(S(=O)(=O)[O-])ccc5F)c5ccc2[nH]5)C=C4)C=C3)cc1
REMARK SMILES IDX 5 1 4 2 3 3 2 4 1 5 34 6 35 7 96 8 36 9 95 10 37 11 38 12
REMARK SMILES IDX 39 13 89 14 40 15 94 16 88 17 90 18 41 19 93 20 87 21 86 22
REMARK SMILES IDX 42 24 74 25 54 26 73 27 55 28 58 29 72 30 91 31 56 32 57 33
REMARK SMILES IDX 71 35 92 36 59 37 43 38 44 39 52 40 45 41 51 42 53 43 50 44
REMARK SMILES IDX 46 45 47 46 48 47 49 48 75 49 76 50 84 51 77 52 83 53 85 54
REMARK SMILES IDX 82 55 78 56 79 57 80 58 81 59 60 60 61 61 69 62 62 63 68 64
REMARK SMILES IDX 70 65 67 66 63 67 64 68 65 69 66 70 6 71 7 72 8 73 9 74
REMARK SMILES IDX 10 75 11 76 12 77 13 78 33 79 14 80 23 81 15 84 22 85 16 86
REMARK SMILES IDX 17 87 21 88 18 90 20 91 19 92 24 93 25 94 32 95 26 96 27 97
REMARK SMILES IDX 31 98 28 100 30 101 29 102
REMARK H PARENT 90 23 58 34 33 82 33 83 16 89 26 99
REMARK Flexibility Score: inf
ROOT
ATOM      1  C   UNL     1       4.596   0.909  -0.661  1.00  0.00     0.202 C 
ENDROOT
BRANCH   1   2
ATOM      2  C   UNL     1       4.240  -0.509  -1.151  1.00  0.00     0.261 C 
BRANCH   2   3
ATOM      3  O   UNL     1       2.847  -0.822  -0.989  1.00  0.00    -0.460 OA
BRANCH   3   4
ATOM      4  C   UNL     1       2.263  -1.426   0.079  1.00  0.00     0.338 C 
ATOM      5  O   UNL     1       1.054  -1.653   0.041  1.00  0.00    -0.246 OA
BRANCH   4   6
ATOM      6  C   UNL     1       3.018  -1.800   1.313  1.00  0.00     0.060 A 
ATOM      7  C   UNL     1       4.229  -1.228   1.682  1.00  0.00     0.016 A 
ATOM      8  C   UNL     1       2.452  -2.735   2.194  1.00  0.00     0.016 A 
ATOM      9  C   UNL     1       4.899  -1.572   2.825  1.00  0.00     0.010 A 
ATOM     10  C   UNL     1       3.106  -3.078   3.387  1.00  0.00     0.010 A 
ATOM     11  C   UNL     1       4.337  -2.489   3.692  1.00  0.00    -0.014 A 
BRANCH  11  12
ATOM     12  C   UNL     1       5.224  -2.873   4.793  1.00  0.00     0.031 A 
ATOM     13  C   UNL     1       6.005  -4.135   4.627  1.00  0.00     0.074 A 
ATOM     14  C   UNL     1       5.541  -1.938   5.708  1.00  0.00     0.049 A 
ATOM     15  N   UNL     1       6.890  -4.667   5.420  1.00  0.00    -0.248 NA
ATOM     16  C   UNL     1       5.783  -4.884   3.376  1.00  0.00     0.031 C 
ATOM     17  C   UNL     1       4.974  -0.581   5.756  1.00  0.00     0.029 A 
ATOM     18  N   UNL     1       6.465  -1.941   6.713  1.00  0.00    -0.354 N 
ATOM     19  C   UNL     1       7.311  -5.825   4.781  1.00  0.00     0.074 A 
ATOM     20  C   UNL     1       6.583  -5.924   3.537  1.00  0.00     0.031 C 
ATOM     21  C   UNL     1       5.587   0.118   6.722  1.00  0.00     0.029 A 
ATOM     22  C   UNL     1       6.508  -0.764   7.424  1.00  0.00     0.049 A 
ATOM     23  H   UNL     1       7.045  -2.712   6.910  1.00  0.00     0.167 HD
ATOM     24  C   UNL     1       8.224  -6.722   5.219  1.00  0.00     0.034 A 
ATOM     25  C   UNL     1       7.180  -0.469   8.553  1.00  0.00     0.034 A 
ATOM     26  C   UNL     1       8.900  -6.568   6.481  1.00  0.00     0.049 A 
ATOM     27  C   UNL     1       8.063  -1.558   9.110  1.00  0.00     0.074 A 
ATOM     28  C   UNL     1       9.723  -7.456   7.144  1.00  0.00     0.029 A 
ATOM     29  N   UNL     1       8.822  -5.424   7.272  1.00  0.00    -0.354 N 
ATOM     30  N   UNL     1       8.338  -2.738   8.595  1.00  0.00    -0.248 NA
ATOM     31  C   UNL     1       8.713  -1.290  10.393  1.00  0.00     0.031 C 
ATOM     32  C   UNL     1      10.094  -6.872   8.361  1.00  0.00     0.029 A 
ATOM     33  C   UNL     1       9.569  -5.588   8.425  1.00  0.00     0.049 A 
ATOM     34  H   UNL     1       8.309  -4.615   7.044  1.00  0.00     0.167 HD
ATOM     35  C   UNL     1       9.205  -3.351   9.491  1.00  0.00     0.074 A 
ATOM     36  C   UNL     1       9.434  -2.389  10.554  1.00  0.00     0.031 C 
ATOM     37  C   UNL     1       9.756  -4.593   9.456  1.00  0.00     0.034 A 
BRANCH  24  38
ATOM     38  C   UNL     1       8.408  -7.962   4.384  1.00  0.00     0.023 A 
ATOM     39  C   UNL     1       8.941  -7.912   3.083  1.00  0.00     0.031 A 
ATOM     40  C   UNL     1       7.926  -9.197   4.851  1.00  0.00     0.131 A 
ATOM     41  C   UNL     1       8.903  -9.056   2.268  1.00  0.00     0.055 A 
ATOM     42  C   UNL     1       7.967 -10.350   4.065  1.00  0.00     0.041 A 
ATOM     43  F   UNL     1       7.368  -9.296   6.068  1.00  0.00    -0.206 F 
ATOM     44  C   UNL     1       8.443 -10.280   2.759  1.00  0.00     0.022 A 
BRANCH  41  45
ATOM     45  S   UNL     1       9.311  -8.885   0.508  1.00  0.00     0.124 S 
ATOM     46  O   UNL     1       8.276  -7.957   0.055  1.00  0.00    -0.237 OA
ATOM     47  O   UNL     1      10.669  -8.357   0.545  1.00  0.00    -0.237 OA
ATOM     48  O   UNL     1       9.185 -10.247  -0.008  1.00  0.00    -0.744 OA
ENDBRANCH  41  45
ENDBRANCH  24  38
BRANCH  25  49
ATOM     49  C   UNL     1       6.951   0.818   9.278  1.00  0.00     0.023 A 
ATOM     50  C   UNL     1       8.009   1.673   9.623  1.00  0.00     0.031 A 
ATOM     51  C   UNL     1       5.659   1.175   9.715  1.00  0.00     0.131 A 
ATOM     52  C   UNL     1       7.766   2.802  10.425  1.00  0.00     0.055 A 
ATOM     53  C   UNL     1       5.413   2.334  10.451  1.00  0.00     0.041 A 
ATOM     54  F   UNL     1       4.603   0.393   9.436  1.00  0.00    -0.206 F 
ATOM     55  C   UNL     1       6.474   3.147  10.828  1.00  0.00     0.022 A 
BRANCH  52  56
ATOM     56  S   UNL     1       9.184   3.748  11.052  1.00  0.00     0.124 S 
ATOM     57  O   UNL     1       9.981   2.704  11.685  1.00  0.00    -0.237 OA
ATOM     58  O   UNL     1       9.731   4.319   9.826  1.00  0.00    -0.237 OA
ATOM     59  O   UNL     1       8.573   4.708  11.969  1.00  0.00    -0.744 OA
ENDBRANCH  52  56
ENDBRANCH  25  49
BRANCH  37  60
ATOM     60  C   UNL     1      10.683  -4.936  10.590  1.00  0.00     0.023 A 
ATOM     61  C   UNL     1      10.213  -5.068  11.906  1.00  0.00     0.031 A 
ATOM     62  C   UNL     1      12.056  -5.111  10.348  1.00  0.00     0.131 A 
ATOM     63  C   UNL     1      11.122  -5.295  12.947  1.00  0.00     0.055 A 
ATOM     64  C   UNL     1      12.945  -5.410  11.378  1.00  0.00     0.041 A 
ATOM     65  F   UNL     1      12.553  -4.994   9.106  1.00  0.00    -0.206 F 
ATOM     66  C   UNL     1      12.482  -5.486  12.689  1.00  0.00     0.022 A 
BRANCH  63  67
ATOM     67  S   UNL     1      10.516  -5.219  14.653  1.00  0.00     0.124 S 
ATOM     68  O   UNL     1       9.954  -3.874  14.715  1.00  0.00    -0.237 OA
ATOM     69  O   UNL     1       9.553  -6.314  14.691  1.00  0.00    -0.237 OA
ATOM     70  O   UNL     1      11.722  -5.426  15.452  1.00  0.00    -0.744 OA
ENDBRANCH  63  67
ENDBRANCH  37  60
ENDBRANCH  11  12
ENDBRANCH   4   6
ENDBRANCH   3   4
ENDBRANCH   2   3
ENDBRANCH   1   2
BRANCH   1  71
ATOM     71  O   UNL     1       3.995   1.387   0.545  1.00  0.00    -0.374 OA
BRANCH  71  72
ATOM     72  C   UNL     1       2.600   1.699   0.497  1.00  0.00     0.202 C 
BRANCH  72  73
ATOM     73  C   UNL     1       2.363   3.187   0.733  1.00  0.00     0.261 C 
BRANCH  73  74
ATOM     74  O   UNL     1       2.728   3.869  -0.474  1.00  0.00    -0.459 OA
BRANCH  74  75
ATOM     75  C   UNL     1       4.054   4.142  -0.572  1.00  0.00     0.365 C 
ATOM     76  O   UNL     1       4.835   4.179   0.376  1.00  0.00    -0.245 OA
BRANCH  75  77
ATOM     77  C   UNL     1       4.470   4.463  -2.001  1.00  0.00     0.298 C 
ATOM     78  C   UNL     1       3.946   3.448  -3.042  1.00  0.00     0.115 C 
ATOM     79  N   UNL     1       4.093   5.873  -2.282  1.00  0.00    -0.323 N 
ATOM     80  C   UNL     1       4.179   3.966  -4.405  1.00  0.00    -0.006 A 
ATOM     81  C   UNL     1       4.635   6.355  -3.554  1.00  0.00     0.264 C 
ATOM     82  H   UNL     1       4.449   6.463  -1.530  1.00  0.00     0.347 HD
ATOM     83  H   UNL     1       3.075   5.916  -2.342  1.00  0.00     0.347 HD
ATOM     84  C   UNL     1       4.483   5.294  -4.614  1.00  0.00     0.083 A 
ATOM     85  C   UNL     1       4.212   3.282  -5.645  1.00  0.00     0.003 A 
ATOM     86  N   UNL     1       4.569   5.468  -5.970  1.00  0.00    -0.353 N 
ATOM     87  C   UNL     1       4.423   4.256  -6.620  1.00  0.00     0.046 A 
ATOM     88  C   UNL     1       4.086   1.932  -6.034  1.00  0.00     0.010 A 
ATOM     89  H   UNL     1       4.713   6.333  -6.418  1.00  0.00     0.166 HD
ATOM     90  C   UNL     1       4.469   3.942  -7.984  1.00  0.00     0.026 A 
ATOM     91  C   UNL     1       4.164   1.602  -7.391  1.00  0.00     0.001 A 
ATOM     92  C   UNL     1       4.339   2.596  -8.350  1.00  0.00     0.002 A 
BRANCH  81  93
ATOM     93  C   UNL     1       6.044   6.918  -3.413  1.00  0.00     0.041 A 
ATOM     94  C   UNL     1       6.595   7.753  -4.378  1.00  0.00     0.093 A 
ATOM     95  C   UNL     1       7.052   6.835  -2.359  1.00  0.00     0.009 A 
ATOM     96  N   UNL     1       7.848   8.126  -3.994  1.00  0.00    -0.361 N 
ATOM     97  C   UNL     1       8.160   7.579  -2.778  1.00  0.00     0.046 A 
ATOM     98  C   UNL     1       7.168   6.233  -1.081  1.00  0.00     0.011 A 
ATOM     99  H   UNL     1       8.445   8.708  -4.518  1.00  0.00     0.166 HD
ATOM    100  C   UNL     1       9.338   7.711  -2.025  1.00  0.00     0.026 A 
ATOM    101  C   UNL     1       8.344   6.326  -0.325  1.00  0.00     0.001 A 
ATOM    102  C   UNL     1       9.419   7.058  -0.796  1.00  0.00     0.002 A 
ENDBRANCH  81  93
ENDBRANCH  75  77
ENDBRANCH  74  75
ENDBRANCH  73  74
ENDBRANCH  72  73
ENDBRANCH  71  72
ENDBRANCH   1  71
TORSDOF 18
