REMARK SMILES Cc1c(C(=O)OCCOCCOC(=O)c2ccc(-c3c4nc(c(-c5cc(S(=O)(=O)[O-])ccc5F)c5ccc([nH]5)c(-c5cc(S(=O)(=O)[O-])ccc5F)c5nc(c(-c6cc(S(=O)(=O)[O-])ccc6F)c6ccc3[nH]6)C=C5)C=C4)cc2)cccc1-n1c(C)cc(/C=C2/C(=O)NC(=S)N=C2O)c1C
REMARK SMILES IDX 9 1 8 2 7 3 6 4 4 5 5 6 3 7 1 8 2 9 81 10 78 11 80 12 79 13
REMARK SMILES IDX 82 14 83 15 97 16 84 17 85 18 86 19 98 20 87 21 88 22 89 23
REMARK SMILES IDX 95 24 90 25 91 26 94 27 92 28 93 30 96 31 10 33 11 34 12 35
REMARK SMILES IDX 13 36 14 37 15 38 16 39 77 40 17 41 76 42 18 43 19 44 20 45
REMARK SMILES IDX 70 46 21 47 75 48 69 49 71 50 22 51 74 52 68 53 67 54 23 56
REMARK SMILES IDX 55 57 35 58 54 59 36 60 39 61 53 62 72 63 37 64 38 65 52 67
REMARK SMILES IDX 73 68 40 69 24 70 25 71 33 72 26 73 32 74 34 75 31 76 27 77
REMARK SMILES IDX 28 78 29 79 30 80 56 81 57 82 65 83 58 84 64 85 66 86 63 87
REMARK SMILES IDX 59 88 60 89 61 90 62 91 41 92 42 93 50 94 43 95 49 96 51 97
REMARK SMILES IDX 48 98 44 99 45 100 46 101 47 102
REMARK H PARENT 91 29 96 32 71 55 39 66
REMARK Flexibility Score: inf
ROOT
ATOM      1  O   UNL     1       0.828  -3.283   2.377  1.00  0.00    -0.374 OA
ENDROOT
BRANCH   1   2
ATOM      2  C   UNL     1       1.979  -2.458   2.320  1.00  0.00     0.202 C 
BRANCH   2   3
ATOM      3  C   UNL     1       2.398  -2.501   0.897  1.00  0.00     0.261 C 
BRANCH   3   4
ATOM      4  O   UNL     1       1.500  -1.796   0.029  1.00  0.00    -0.460 OA
BRANCH   4   5
ATOM      5  C   UNL     1       0.196  -2.035  -0.200  1.00  0.00     0.338 C 
ATOM      6  O   UNL     1      -0.392  -3.083  -0.164  1.00  0.00    -0.246 OA
BRANCH   5   7
ATOM      7  C   UNL     1      -0.421  -0.679  -0.432  1.00  0.00     0.065 A 
ATOM      8  C   UNL     1       1.782   0.599  -0.053  1.00  0.00     0.047 C 
ATOM      9  C   UNL     1       0.308   0.538  -0.385  1.00  0.00    -0.012 A 
ATOM     10  C   UNL     1      -0.403   1.742  -0.482  1.00  0.00     0.049 A 
ATOM     11  C   UNL     1      -1.823  -0.645  -0.546  1.00  0.00     0.016 A 
ATOM     12  C   UNL     1      -1.800   1.773  -0.524  1.00  0.00     0.027 A 
ATOM     13  C   UNL     1      -2.508   0.574  -0.565  1.00  0.00     0.003 A 
BRANCH  10  14
ATOM     14  N   UNL     1       0.294   2.957  -0.302  1.00  0.00    -0.318 N 
ATOM     15  C   UNL     1       1.205   3.514  -1.191  1.00  0.00     0.020 A 
ATOM     16  C   UNL     1       0.517   3.519   0.955  1.00  0.00     0.027 A 
ATOM     17  C   UNL     1       1.594   2.895  -2.494  1.00  0.00     0.065 C 
ATOM     18  C   UNL     1       1.699   4.652  -0.586  1.00  0.00     0.031 A 
ATOM     19  C   UNL     1       1.192   4.707   0.742  1.00  0.00    -0.003 A 
ATOM     20  C   UNL     1       0.158   2.774   2.205  1.00  0.00     0.065 C 
BRANCH  19  21
ATOM     21  C   UNL     1       1.559   5.721   1.675  1.00  0.00     0.029 C 
ATOM     22  C   UNL     1       0.922   6.207   2.756  1.00  0.00     0.102 C 
ATOM     23  C   UNL     1       1.637   7.271   3.503  1.00  0.00     0.262 C 
ATOM     24  C   UNL     1      -0.358   5.833   3.363  1.00  0.00     0.226 C 
ATOM     25  O   UNL     1       2.559   7.943   3.055  1.00  0.00    -0.269 OA
ATOM     26  N   UNL     1       1.162   7.473   4.771  1.00  0.00    -0.297 N 
ATOM     27  N   UNL     1      -0.758   6.117   4.550  1.00  0.00    -0.184 NA
ATOM     28  C   UNL     1       0.056   6.888   5.333  1.00  0.00     0.203 C 
ATOM     29  H   UNL     1       1.665   8.102   5.337  1.00  0.00     0.172 HD
ATOM     30  S   UNL     1      -0.277   7.237   6.939  1.00  0.00    -0.038 S 
BRANCH  24  31
ATOM     31  O   UNL     1      -1.234   5.196   2.588  1.00  0.00    -0.493 OA
ATOM     32  H   UNL     1      -1.001   4.962   1.711  1.00  0.00     0.295 HD
ENDBRANCH  24  31
ENDBRANCH  19  21
ENDBRANCH  10  14
ENDBRANCH   5   7
ENDBRANCH   4   5
ENDBRANCH   3   4
ENDBRANCH   2   3
ENDBRANCH   1   2
BRANCH   1  33
ATOM     33  C   UNL     1       0.294  -3.459   3.666  1.00  0.00     0.202 C 
BRANCH  33  34
ATOM     34  C   UNL     1       1.288  -4.155   4.604  1.00  0.00     0.261 C 
BRANCH  34  35
ATOM     35  O   UNL     1       1.656  -5.442   4.052  1.00  0.00    -0.460 OA
BRANCH  35  36
ATOM     36  C   UNL     1       2.917  -5.549   3.538  1.00  0.00     0.338 C 
ATOM     37  O   UNL     1       3.942  -5.270   4.137  1.00  0.00    -0.246 OA
BRANCH  36  38
ATOM     38  C   UNL     1       2.853  -5.894   2.084  1.00  0.00     0.060 A 
ATOM     39  C   UNL     1       3.989  -5.760   1.254  1.00  0.00     0.016 A 
ATOM     40  C   UNL     1       1.597  -6.047   1.507  1.00  0.00     0.016 A 
ATOM     41  C   UNL     1       3.842  -5.636  -0.143  1.00  0.00     0.010 A 
ATOM     42  C   UNL     1       1.452  -5.802   0.159  1.00  0.00     0.010 A 
ATOM     43  C   UNL     1       2.558  -5.577  -0.682  1.00  0.00    -0.014 A 
BRANCH  43  44
ATOM     44  C   UNL     1       2.190  -5.140  -2.036  1.00  0.00     0.031 A 
ATOM     45  C   UNL     1       1.412  -6.065  -2.884  1.00  0.00     0.074 A 
ATOM     46  C   UNL     1       2.230  -3.831  -2.391  1.00  0.00     0.049 A 
ATOM     47  N   UNL     1       1.288  -5.931  -4.158  1.00  0.00    -0.248 NA
ATOM     48  C   UNL     1       0.704  -7.234  -2.365  1.00  0.00     0.031 C 
ATOM     49  C   UNL     1       1.378  -3.124  -3.351  1.00  0.00     0.029 A 
ATOM     50  N   UNL     1       3.053  -2.814  -1.910  1.00  0.00    -0.354 N 
ATOM     51  C   UNL     1       0.209  -6.697  -4.528  1.00  0.00     0.074 A 
ATOM     52  C   UNL     1      -0.037  -7.581  -3.416  1.00  0.00     0.031 C 
ATOM     53  C   UNL     1       1.857  -1.882  -3.555  1.00  0.00     0.029 A 
ATOM     54  C   UNL     1       3.128  -1.784  -2.857  1.00  0.00     0.049 A 
ATOM     55  H   UNL     1       3.510  -2.819  -1.038  1.00  0.00     0.167 HD
ATOM     56  C   UNL     1      -0.504  -6.371  -5.639  1.00  0.00     0.034 A 
ATOM     57  C   UNL     1       4.334  -1.353  -3.315  1.00  0.00     0.034 A 
ATOM     58  C   UNL     1      -0.044  -5.101  -6.224  1.00  0.00     0.049 A 
ATOM     59  C   UNL     1       4.420  -1.738  -4.782  1.00  0.00     0.074 A 
ATOM     60  C   UNL     1      -0.589  -3.828  -6.307  1.00  0.00     0.029 A 
ATOM     61  N   UNL     1       1.295  -4.947  -6.567  1.00  0.00    -0.354 N 
ATOM     62  N   UNL     1       3.483  -2.424  -5.382  1.00  0.00    -0.248 NA
ATOM     63  C   UNL     1       5.510  -1.422  -5.693  1.00  0.00     0.031 C 
ATOM     64  C   UNL     1       0.430  -2.929  -6.746  1.00  0.00     0.029 A 
ATOM     65  C   UNL     1       1.591  -3.653  -6.952  1.00  0.00     0.049 A 
ATOM     66  H   UNL     1       1.956  -5.676  -6.540  1.00  0.00     0.167 HD
ATOM     67  C   UNL     1       3.787  -2.657  -6.684  1.00  0.00     0.074 A 
ATOM     68  C   UNL     1       5.104  -2.043  -6.820  1.00  0.00     0.031 C 
ATOM     69  C   UNL     1       2.915  -3.344  -7.493  1.00  0.00     0.034 A 
BRANCH  56  70
ATOM     70  C   UNL     1      -1.808  -7.051  -5.997  1.00  0.00     0.023 A 
ATOM     71  C   UNL     1      -2.760  -6.363  -6.769  1.00  0.00     0.031 A 
ATOM     72  C   UNL     1      -2.169  -8.368  -5.635  1.00  0.00     0.131 A 
ATOM     73  C   UNL     1      -4.019  -6.921  -7.053  1.00  0.00     0.055 A 
ATOM     74  C   UNL     1      -3.450  -8.896  -5.847  1.00  0.00     0.041 A 
ATOM     75  F   UNL     1      -1.278  -9.226  -5.117  1.00  0.00    -0.206 F 
ATOM     76  C   UNL     1      -4.389  -8.166  -6.555  1.00  0.00     0.022 A 
BRANCH  73  77
ATOM     77  S   UNL     1      -5.142  -6.015  -8.148  1.00  0.00     0.124 S 
ATOM     78  O   UNL     1      -5.421  -4.810  -7.373  1.00  0.00    -0.237 OA
ATOM     79  O   UNL     1      -4.329  -5.838  -9.346  1.00  0.00    -0.237 OA
ATOM     80  O   UNL     1      -6.274  -6.928  -8.303  1.00  0.00    -0.744 OA
ENDBRANCH  73  77
ENDBRANCH  56  70
BRANCH  57  81
ATOM     81  C   UNL     1       5.383  -1.437  -2.228  1.00  0.00     0.023 A 
ATOM     82  C   UNL     1       5.313  -0.532  -1.122  1.00  0.00     0.031 A 
ATOM     83  C   UNL     1       6.061  -2.648  -2.012  1.00  0.00     0.131 A 
ATOM     84  C   UNL     1       5.796  -0.908   0.155  1.00  0.00     0.055 A 
ATOM     85  C   UNL     1       6.510  -3.023  -0.737  1.00  0.00     0.041 A 
ATOM     86  F   UNL     1       6.154  -3.557  -2.994  1.00  0.00    -0.206 F 
ATOM     87  C   UNL     1       6.345  -2.175   0.355  1.00  0.00     0.022 A 
BRANCH  84  88
ATOM     88  S   UNL     1       5.509   0.133   1.637  1.00  0.00     0.124 S 
ATOM     89  O   UNL     1       6.656   1.031   1.614  1.00  0.00    -0.237 OA
ATOM     90  O   UNL     1       4.219   0.752   1.373  1.00  0.00    -0.237 OA
ATOM     91  O   UNL     1       5.483  -0.837   2.732  1.00  0.00    -0.744 OA
ENDBRANCH  84  88
ENDBRANCH  57  81
BRANCH  69  92
ATOM     92  C   UNL     1       3.233  -3.813  -8.889  1.00  0.00     0.023 A 
ATOM     93  C   UNL     1       4.188  -3.180  -9.681  1.00  0.00     0.031 A 
ATOM     94  C   UNL     1       2.598  -4.938  -9.475  1.00  0.00     0.131 A 
ATOM     95  C   UNL     1       4.618  -3.753 -10.884  1.00  0.00     0.055 A 
ATOM     96  C   UNL     1       2.960  -5.456 -10.718  1.00  0.00     0.041 A 
ATOM     97  F   UNL     1       1.620  -5.619  -8.866  1.00  0.00    -0.206 F 
ATOM     98  C   UNL     1       4.009  -4.887 -11.415  1.00  0.00     0.022 A 
BRANCH  95  99
ATOM     99  S   UNL     1       6.074  -3.035 -11.672  1.00  0.00     0.124 S 
ATOM    100  O   UNL     1       5.695  -1.633 -11.813  1.00  0.00    -0.237 OA
ATOM    101  O   UNL     1       7.111  -3.311 -10.681  1.00  0.00    -0.237 OA
ATOM    102  O   UNL     1       6.191  -3.781 -12.922  1.00  0.00    -0.744 OA
ENDBRANCH  95  99
ENDBRANCH  69  92
ENDBRANCH  43  44
ENDBRANCH  36  38
ENDBRANCH  35  36
ENDBRANCH  34  35
ENDBRANCH  33  34
ENDBRANCH   1  33
TORSDOF 20
