REMARK SMILES C[C@@H](C(=O)OCCOCCOC(=O)c1ccc(-c2c3nc(c(-c4cc(S(=O)(=O)[O-])ccc4F)c4ccc([nH]4)c(-c4cc(S(=O)(=O)[O-])ccc4F)c4nc(c(-c5cc(S(=O)(=O)[O-])ccc5F)c5ccc2[nH]5)C=C4)C=C3)cc1)[C@@H](C)C(=O)c1cccc(Cl)c1
REMARK SMILES IDX 8 1 7 2 6 3 5 4 3 5 4 6 2 7 1 8 77 9 78 10 79 11 80 12 81 13
REMARK SMILES IDX 82 14 87 15 83 16 85 17 84 18 86 19 9 20 10 21 11 22 12 23
REMARK SMILES IDX 13 24 14 25 15 26 76 27 16 28 75 29 17 30 18 31 19 32 69 33
REMARK SMILES IDX 20 34 74 35 68 36 70 37 21 38 73 39 67 40 66 41 22 43 54 44
REMARK SMILES IDX 34 45 53 46 35 47 38 48 52 49 71 50 36 51 37 52 51 54 72 55
REMARK SMILES IDX 39 56 23 57 24 58 32 59 25 60 31 61 33 62 30 63 26 64 27 65
REMARK SMILES IDX 28 66 29 67 55 68 56 69 64 70 57 71 63 72 65 73 62 74 58 75
REMARK SMILES IDX 59 76 60 77 61 78 40 79 41 80 49 81 42 82 48 83 50 84 47 85
REMARK SMILES IDX 43 86 44 87 45 88 46 89
REMARK H PARENT 70 42 38 53
REMARK Flexibility Score: inf
ROOT
ATOM      1  O   UNL     1       0.763   3.905   2.682  1.00  0.00    -0.374 OA
ENDROOT
BRANCH   1   2
ATOM      2  C   UNL     1       2.103   3.670   3.101  1.00  0.00     0.202 C 
BRANCH   2   3
ATOM      3  C   UNL     1       2.546   2.225   3.363  1.00  0.00     0.261 C 
BRANCH   3   4
ATOM      4  O   UNL     1       2.173   1.309   2.323  1.00  0.00    -0.463 OA
BRANCH   4   5
ATOM      5  C   UNL     1       1.113   0.515   2.625  1.00  0.00     0.309 C 
ATOM      6  O   UNL     1       0.559   0.506   3.716  1.00  0.00    -0.252 OA
BRANCH   5   7
ATOM      7  C   UNL     1       0.694  -0.405   1.473  1.00  0.00     0.106 C 
ATOM      8  C   UNL     1       1.199   0.059   0.095  1.00  0.00     0.021 C 
BRANCH   7   9
ATOM      9  C   UNL     1      -0.846  -0.592   1.471  1.00  0.00     0.072 C 
ATOM     10  C   UNL     1      -1.341  -1.630   0.460  1.00  0.00     0.017 C 
BRANCH   9  11
ATOM     11  C   UNL     1      -1.627  -0.826   2.781  1.00  0.00     0.166 C 
ATOM     12  O   UNL     1      -2.704  -0.231   2.922  1.00  0.00    -0.294 OA
BRANCH  11  13
ATOM     13  C   UNL     1      -1.259  -1.838   3.836  1.00  0.00     0.019 A 
ATOM     14  C   UNL     1      -2.234  -2.128   4.809  1.00  0.00     0.012 A 
ATOM     15  C   UNL     1      -0.016  -2.463   3.951  1.00  0.00     0.032 A 
ATOM     16  C   UNL     1      -1.968  -3.001   5.869  1.00  0.00     0.002 A 
ATOM     17  C   UNL     1       0.256  -3.315   5.026  1.00  0.00     0.041 A 
ATOM     18  C   UNL     1      -0.714  -3.590   5.983  1.00  0.00     0.020 A 
ATOM     19  Cl  UNL     1       1.822  -4.016   5.174  1.00  0.00    -0.084 Cl
ENDBRANCH  11  13
ENDBRANCH   9  11
ENDBRANCH   7   9
ENDBRANCH   5   7
ENDBRANCH   4   5
ENDBRANCH   3   4
ENDBRANCH   2   3
ENDBRANCH   1   2
BRANCH   1  20
ATOM     20  C   UNL     1       0.378   3.513   1.366  1.00  0.00     0.202 C 
BRANCH  20  21
ATOM     21  C   UNL     1       1.116   4.120   0.165  1.00  0.00     0.261 C 
BRANCH  21  22
ATOM     22  O   UNL     1       2.510   3.760   0.118  1.00  0.00    -0.460 OA
BRANCH  22  23
ATOM     23  C   UNL     1       3.359   4.816   0.121  1.00  0.00     0.338 C 
ATOM     24  O   UNL     1       3.053   6.004   0.089  1.00  0.00    -0.246 OA
BRANCH  23  25
ATOM     25  C   UNL     1       4.740   4.374   0.371  1.00  0.00     0.060 A 
ATOM     26  C   UNL     1       5.388   4.884   1.505  1.00  0.00     0.016 A 
ATOM     27  C   UNL     1       5.430   3.575  -0.542  1.00  0.00     0.016 A 
ATOM     28  C   UNL     1       6.744   4.635   1.706  1.00  0.00     0.010 A 
ATOM     29  C   UNL     1       6.796   3.337  -0.344  1.00  0.00     0.010 A 
ATOM     30  C   UNL     1       7.466   3.897   0.760  1.00  0.00    -0.014 A 
BRANCH  30  31
ATOM     31  C   UNL     1       8.948   3.864   0.847  1.00  0.00     0.031 A 
ATOM     32  C   UNL     1       9.747   4.814  -0.005  1.00  0.00     0.074 A 
ATOM     33  C   UNL     1       9.569   3.037   1.707  1.00  0.00     0.049 A 
ATOM     34  N   UNL     1      11.044   4.950  -0.106  1.00  0.00    -0.248 NA
ATOM     35  C   UNL     1       8.976   5.733  -0.856  1.00  0.00     0.031 C 
ATOM     36  C   UNL     1       8.898   2.115   2.622  1.00  0.00     0.029 A 
ATOM     37  N   UNL     1      10.905   2.841   1.952  1.00  0.00    -0.354 N 
ATOM     38  C   UNL     1      11.246   5.966  -1.035  1.00  0.00     0.074 A 
ATOM     39  C   UNL     1       9.938   6.385  -1.491  1.00  0.00     0.031 C 
ATOM     40  C   UNL     1       9.828   1.446   3.325  1.00  0.00     0.029 A 
ATOM     41  C   UNL     1      11.157   1.863   2.885  1.00  0.00     0.049 A 
ATOM     42  H   UNL     1      11.615   3.352   1.501  1.00  0.00     0.167 HD
ATOM     43  C   UNL     1      12.416   6.504  -1.462  1.00  0.00     0.034 A 
ATOM     44  C   UNL     1      12.328   1.350   3.315  1.00  0.00     0.034 A 
ATOM     45  C   UNL     1      13.713   6.069  -1.003  1.00  0.00     0.049 A 
ATOM     46  C   UNL     1      13.618   1.901   2.756  1.00  0.00     0.074 A 
ATOM     47  C   UNL     1      14.960   6.556  -1.355  1.00  0.00     0.029 A 
ATOM     48  N   UNL     1      13.932   5.036  -0.101  1.00  0.00    -0.354 N 
ATOM     49  N   UNL     1      13.797   2.866   1.883  1.00  0.00    -0.248 NA
ATOM     50  C   UNL     1      14.864   1.297   3.247  1.00  0.00     0.031 C 
ATOM     51  C   UNL     1      15.932   5.770  -0.725  1.00  0.00     0.029 A 
ATOM     52  C   UNL     1      15.293   4.844   0.084  1.00  0.00     0.049 A 
ATOM     53  H   UNL     1      13.224   4.514   0.342  1.00  0.00     0.167 HD
ATOM     54  C   UNL     1      15.176   3.005   1.747  1.00  0.00     0.074 A 
ATOM     55  C   UNL     1      15.780   2.034   2.636  1.00  0.00     0.031 C 
ATOM     56  C   UNL     1      15.882   3.863   0.966  1.00  0.00     0.034 A 
BRANCH  43  57
ATOM     57  C   UNL     1      12.341   7.578  -2.520  1.00  0.00     0.023 A 
ATOM     58  C   UNL     1      11.739   8.825  -2.273  1.00  0.00     0.031 A 
ATOM     59  C   UNL     1      12.856   7.339  -3.807  1.00  0.00     0.131 A 
ATOM     60  C   UNL     1      11.607   9.757  -3.315  1.00  0.00     0.055 A 
ATOM     61  C   UNL     1      12.790   8.300  -4.817  1.00  0.00     0.041 A 
ATOM     62  F   UNL     1      13.420   6.159  -4.108  1.00  0.00    -0.206 F 
ATOM     63  C   UNL     1      12.151   9.512  -4.579  1.00  0.00     0.022 A 
BRANCH  60  64
ATOM     64  S   UNL     1      10.595  11.236  -3.035  1.00  0.00     0.124 S 
ATOM     65  O   UNL     1       9.305  10.649  -2.683  1.00  0.00    -0.237 OA
ATOM     66  O   UNL     1      11.309  11.907  -1.955  1.00  0.00    -0.237 OA
ATOM     67  O   UNL     1      10.627  11.922  -4.325  1.00  0.00    -0.744 OA
ENDBRANCH  60  64
ENDBRANCH  43  57
BRANCH  44  68
ATOM     68  C   UNL     1      12.347   0.225   4.295  1.00  0.00     0.023 A 
ATOM     69  C   UNL     1      12.927   0.375   5.564  1.00  0.00     0.031 A 
ATOM     70  C   UNL     1      11.837  -1.040   3.948  1.00  0.00     0.131 A 
ATOM     71  C   UNL     1      13.025  -0.731   6.423  1.00  0.00     0.055 A 
ATOM     72  C   UNL     1      11.889  -2.123   4.827  1.00  0.00     0.041 A 
ATOM     73  F   UNL     1      11.274  -1.239   2.746  1.00  0.00    -0.206 F 
ATOM     74  C   UNL     1      12.498  -1.975   6.068  1.00  0.00     0.022 A 
BRANCH  71  75
ATOM     75  S   UNL     1      13.933  -0.542   7.982  1.00  0.00     0.124 S 
ATOM     76  O   UNL     1      15.248  -0.122   7.511  1.00  0.00    -0.237 OA
ATOM     77  O   UNL     1      13.143   0.472   8.671  1.00  0.00    -0.237 OA
ATOM     78  O   UNL     1      13.878  -1.879   8.571  1.00  0.00    -0.744 OA
ENDBRANCH  71  75
ENDBRANCH  44  68
BRANCH  56  79
ATOM     79  C   UNL     1      17.387   3.816   1.078  1.00  0.00     0.023 A 
ATOM     80  C   UNL     1      18.129   2.703   0.645  1.00  0.00     0.031 A 
ATOM     81  C   UNL     1      18.087   4.901   1.636  1.00  0.00     0.131 A 
ATOM     82  C   UNL     1      19.520   2.677   0.829  1.00  0.00     0.055 A 
ATOM     83  C   UNL     1      19.476   4.894   1.760  1.00  0.00     0.041 A 
ATOM     84  F   UNL     1      17.429   5.989   2.067  1.00  0.00    -0.206 F 
ATOM     85  C   UNL     1      20.200   3.772   1.368  1.00  0.00     0.022 A 
BRANCH  82  86
ATOM     86  S   UNL     1      20.423   1.154   0.434  1.00  0.00     0.124 S 
ATOM     87  O   UNL     1      19.768   0.179   1.302  1.00  0.00    -0.237 OA
ATOM     88  O   UNL     1      20.174   1.003  -0.995  1.00  0.00    -0.237 OA
ATOM     89  O   UNL     1      21.805   1.471   0.791  1.00  0.00    -0.744 OA
ENDBRANCH  82  86
ENDBRANCH  56  79
ENDBRANCH  30  31
ENDBRANCH  23  25
ENDBRANCH  22  23
ENDBRANCH  21  22
ENDBRANCH  20  21
ENDBRANCH   1  20
TORSDOF 20
