REMARK SMILES N#Cc1ccn2cc(C(=O)OCCOCCOC(=O)c3ccc(-c4c5nc(c(-c6cc(S(=O)(=O)[O-])ccc6F)c6ccc([nH]6)c(-c6cc(S(=O)(=O)[O-])ccc6F)c6nc(c(-c7cc(S(=O)(=O)[O-])ccc7F)c7ccc4[nH]7)C=C6)C=C5)cc3)nc2c1
REMARK SMILES IDX 15 1 14 2 13 3 12 4 11 5 9 6 10 7 8 8 3 9 4 10 85 11 5 12
REMARK SMILES IDX 84 13 6 14 83 15 7 16 2 17 1 18 16 19 17 20 18 21 19 22
REMARK SMILES IDX 20 23 21 24 82 25 22 26 81 27 23 28 24 29 25 30 75 31 26 32
REMARK SMILES IDX 80 33 74 34 76 35 27 36 79 37 73 38 72 39 28 41 60 42 40 43
REMARK SMILES IDX 59 44 41 45 44 46 58 47 77 48 42 49 43 50 57 52 78 53 45 54
REMARK SMILES IDX 29 55 30 56 38 57 31 58 37 59 39 60 36 61 32 62 33 63 34 64
REMARK SMILES IDX 35 65 61 66 62 67 70 68 63 69 69 70 71 71 68 72 64 73 65 74
REMARK SMILES IDX 66 75 67 76 46 77 47 78 55 79 48 80 54 81 56 82 53 83 49 84
REMARK SMILES IDX 50 85 51 86 52 87
REMARK H PARENT 76 40 44 51
REMARK Flexibility Score: inf
ROOT
ATOM      1  C   UNL     1      10.436   2.087   1.925  1.00  0.00     0.202 C 
ENDROOT
BRANCH   1   2
ATOM      2  O   UNL     1      11.567   2.263   1.067  1.00  0.00    -0.374 OA
BRANCH   2   3
ATOM      3  C   UNL     1      11.710   3.492   0.357  1.00  0.00     0.202 C 
BRANCH   3   4
ATOM      4  C   UNL     1      10.790   3.801  -0.836  1.00  0.00     0.261 C 
BRANCH   4   5
ATOM      5  O   UNL     1       9.453   3.329  -0.676  1.00  0.00    -0.458 OA
BRANCH   5   6
ATOM      6  C   UNL     1       9.271   2.071  -1.166  1.00  0.00     0.358 C 
ATOM      7  O   UNL     1      10.115   1.426  -1.785  1.00  0.00    -0.244 OA
BRANCH   6   8
ATOM      8  C   UNL     1       8.012   1.468  -0.746  1.00  0.00     0.167 A 
ATOM      9  C   UNL     1       3.849   0.054   0.050  1.00  0.00     0.057 A 
ATOM     10  C   UNL     1       4.529  -1.237   0.113  1.00  0.00     0.038 A 
ATOM     11  C   UNL     1       4.527   1.213  -0.088  1.00  0.00     0.067 A 
ATOM     12  C   UNL     1       5.863  -1.270  -0.035  1.00  0.00     0.094 A 
ATOM     13  C   UNL     1       5.941   1.176  -0.251  1.00  0.00     0.139 A 
ATOM     14  N   UNL     1       6.545  -0.077  -0.243  1.00  0.00    -0.306 N 
ATOM     15  N   UNL     1       6.821   2.128  -0.486  1.00  0.00    -0.221 NA
ATOM     16  C   UNL     1       7.861   0.112  -0.525  1.00  0.00     0.128 A 
BRANCH   9  17
ATOM     17  C   UNL     1       2.329   0.054   0.050  1.00  0.00     0.099 C 
ATOM     18  N   UNL     1       1.068   0.054   0.050  1.00  0.00    -0.192 NA
ENDBRANCH   9  17
ENDBRANCH   6   8
ENDBRANCH   5   6
ENDBRANCH   4   5
ENDBRANCH   3   4
ENDBRANCH   2   3
ENDBRANCH   1   2
BRANCH   1  19
ATOM     19  C   UNL     1      10.215   3.040   3.110  1.00  0.00     0.261 C 
BRANCH  19  20
ATOM     20  O   UNL     1      10.010   4.385   2.667  1.00  0.00    -0.460 OA
BRANCH  20  21
ATOM     21  C   UNL     1      10.683   5.330   3.378  1.00  0.00     0.338 C 
ATOM     22  O   UNL     1      11.082   5.239   4.526  1.00  0.00    -0.246 OA
BRANCH  21  23
ATOM     23  C   UNL     1      11.170   6.310   2.385  1.00  0.00     0.060 A 
ATOM     24  C   UNL     1      10.319   6.806   1.394  1.00  0.00     0.016 A 
ATOM     25  C   UNL     1      12.562   6.470   2.290  1.00  0.00     0.016 A 
ATOM     26  C   UNL     1      10.879   7.404   0.270  1.00  0.00     0.010 A 
ATOM     27  C   UNL     1      13.117   7.048   1.151  1.00  0.00     0.010 A 
ATOM     28  C   UNL     1      12.278   7.487   0.126  1.00  0.00    -0.014 A 
BRANCH  28  29
ATOM     29  C   UNL     1      12.799   8.219  -1.033  1.00  0.00     0.031 A 
ATOM     30  C   UNL     1      12.414   9.662  -1.033  1.00  0.00     0.074 A 
ATOM     31  C   UNL     1      13.660   7.758  -1.965  1.00  0.00     0.049 A 
ATOM     32  N   UNL     1      11.680  10.301  -1.884  1.00  0.00    -0.248 NA
ATOM     33  C   UNL     1      12.791  10.453   0.148  1.00  0.00     0.031 C 
ATOM     34  C   UNL     1      14.423   6.507  -1.981  1.00  0.00     0.029 A 
ATOM     35  N   UNL     1      14.102   8.395  -3.091  1.00  0.00    -0.354 N 
ATOM     36  C   UNL     1      11.613  11.619  -1.427  1.00  0.00     0.074 A 
ATOM     37  C   UNL     1      12.210  11.622  -0.115  1.00  0.00     0.031 C 
ATOM     38  C   UNL     1      15.386   6.582  -2.934  1.00  0.00     0.029 A 
ATOM     39  C   UNL     1      15.208   7.810  -3.693  1.00  0.00     0.049 A 
ATOM     40  H   UNL     1      13.670   9.204  -3.446  1.00  0.00     0.167 HD
ATOM     41  C   UNL     1      11.192  12.650  -2.213  1.00  0.00     0.034 A 
ATOM     42  C   UNL     1      15.955   8.328  -4.704  1.00  0.00     0.034 A 
ATOM     43  C   UNL     1      10.524  12.176  -3.390  1.00  0.00     0.049 A 
ATOM     44  C   UNL     1      15.158   9.380  -5.375  1.00  0.00     0.074 A 
ATOM     45  C   UNL     1       9.340  11.513  -3.636  1.00  0.00     0.029 A 
ATOM     46  N   UNL     1      11.259  12.079  -4.545  1.00  0.00    -0.354 N 
ATOM     47  N   UNL     1      14.098   9.152  -6.095  1.00  0.00    -0.248 NA
ATOM     48  C   UNL     1      15.316  10.745  -4.898  1.00  0.00     0.031 C 
ATOM     49  C   UNL     1       9.623  10.654  -4.733  1.00  0.00     0.029 A 
ATOM     50  C   UNL     1      10.946  10.877  -5.123  1.00  0.00     0.049 A 
ATOM     51  H   UNL     1      11.892  12.748  -4.892  1.00  0.00     0.167 HD
ATOM     52  C   UNL     1      13.243  10.198  -5.787  1.00  0.00     0.074 A 
ATOM     53  C   UNL     1      14.080  11.194  -5.122  1.00  0.00     0.031 C 
ATOM     54  C   UNL     1      11.889  10.050  -5.849  1.00  0.00     0.034 A 
BRANCH  41  55
ATOM     55  C   UNL     1      11.615  14.088  -2.050  1.00  0.00     0.023 A 
ATOM     56  C   UNL     1      12.701  14.475  -1.245  1.00  0.00     0.031 A 
ATOM     57  C   UNL     1      11.074  15.094  -2.879  1.00  0.00     0.131 A 
ATOM     58  C   UNL     1      13.194  15.787  -1.259  1.00  0.00     0.055 A 
ATOM     59  C   UNL     1      11.609  16.386  -2.944  1.00  0.00     0.041 A 
ATOM     60  F   UNL     1      10.040  14.837  -3.696  1.00  0.00    -0.206 F 
ATOM     61  C   UNL     1      12.677  16.740  -2.129  1.00  0.00     0.022 A 
BRANCH  58  62
ATOM     62  S   UNL     1      14.537  16.273  -0.141  1.00  0.00     0.124 S 
ATOM     63  O   UNL     1      15.582  16.667  -1.081  1.00  0.00    -0.237 OA
ATOM     64  O   UNL     1      13.918  17.362   0.610  1.00  0.00    -0.237 OA
ATOM     65  O   UNL     1      14.795  15.061   0.629  1.00  0.00    -0.744 OA
ENDBRANCH  58  62
ENDBRANCH  41  55
BRANCH  42  66
ATOM     66  C   UNL     1      17.436   8.339  -4.806  1.00  0.00     0.023 A 
ATOM     67  C   UNL     1      18.201   8.407  -3.628  1.00  0.00     0.031 A 
ATOM     68  C   UNL     1      18.084   8.650  -6.017  1.00  0.00     0.131 A 
ATOM     69  C   UNL     1      19.537   8.830  -3.671  1.00  0.00     0.055 A 
ATOM     70  C   UNL     1      19.427   9.048  -6.060  1.00  0.00     0.041 A 
ATOM     71  F   UNL     1      17.401   8.651  -7.173  1.00  0.00    -0.206 F 
ATOM     72  C   UNL     1      20.155   9.156  -4.880  1.00  0.00     0.022 A 
BRANCH  69  73
ATOM     73  S   UNL     1      20.469   9.075  -2.135  1.00  0.00     0.124 S 
ATOM     74  O   UNL     1      21.706   8.347  -2.407  1.00  0.00    -0.237 OA
ATOM     75  O   UNL     1      20.590  10.528  -2.091  1.00  0.00    -0.237 OA
ATOM     76  O   UNL     1      19.610   8.476  -1.117  1.00  0.00    -0.744 OA
ENDBRANCH  69  73
ENDBRANCH  42  66
BRANCH  54  77
ATOM     77  C   UNL     1      11.310   8.809  -6.487  1.00  0.00     0.023 A 
ATOM     78  C   UNL     1      10.284   9.007  -7.427  1.00  0.00     0.031 A 
ATOM     79  C   UNL     1      11.524   7.498  -6.020  1.00  0.00     0.131 A 
ATOM     80  C   UNL     1       9.460   7.944  -7.808  1.00  0.00     0.055 A 
ATOM     81  C   UNL     1      10.751   6.421  -6.468  1.00  0.00     0.041 A 
ATOM     82  F   UNL     1      12.412   7.233  -5.052  1.00  0.00    -0.206 F 
ATOM     83  C   UNL     1       9.696   6.646  -7.347  1.00  0.00     0.022 A 
BRANCH  80  84
ATOM     84  S   UNL     1       7.951   8.264  -8.755  1.00  0.00     0.124 S 
ATOM     85  O   UNL     1       8.178   7.488  -9.971  1.00  0.00    -0.237 OA
ATOM     86  O   UNL     1       6.914   7.745  -7.865  1.00  0.00    -0.237 OA
ATOM     87  O   UNL     1       7.943   9.713  -8.932  1.00  0.00    -0.744 OA
ENDBRANCH  80  84
ENDBRANCH  54  77
ENDBRANCH  28  29
ENDBRANCH  21  23
ENDBRANCH  20  21
ENDBRANCH  19  20
ENDBRANCH   1  19
TORSDOF 18
