REMARK SMILES CC[NH2+][C@]1(C(=O)OCCOCCOC(=O)c2ccc(-c3c4nc(c(-c5cc(S(=O)(=O)[O-])ccc5F)c5ccc([nH]5)c(-c5cc(S(=O)(=O)[O-])ccc5F)c5nc(c(-c6cc(S(=O)(=O)[O-])ccc6F)c6ccc3[nH]6)C=C5)C=C4)cc2)CCC[C@H]1CC[N@H+]1CCC[C@@H](CC)C1
REMARK SMILES IDX 9 1 8 2 7 3 5 4 6 5 4 6 79 7 82 8 80 9 81 10 3 11 2 14 1 15
REMARK SMILES IDX 83 16 84 17 85 18 86 19 92 20 87 22 89 23 88 24 90 25 91 26
REMARK SMILES IDX 10 27 11 28 12 29 13 30 14 31 15 32 16 33 17 34 78 35 18 36
REMARK SMILES IDX 77 37 19 38 20 39 21 40 71 41 22 42 76 43 70 44 72 45 23 46
REMARK SMILES IDX 75 47 69 48 68 49 24 51 56 52 36 53 55 54 37 55 40 56 54 57
REMARK SMILES IDX 73 58 38 59 39 60 53 62 74 63 41 64 25 65 26 66 34 67 27 68
REMARK SMILES IDX 33 69 35 70 32 71 28 72 29 73 30 74 31 75 57 76 58 77 66 78
REMARK SMILES IDX 59 79 65 80 67 81 64 82 60 83 61 84 62 85 63 86 42 87 43 88
REMARK SMILES IDX 51 89 44 90 50 91 52 92 49 93 45 94 46 95 47 96 48 97
REMARK H PARENT 3 12 3 13 85 21 72 50 40 61
REMARK Flexibility Score: inf
ROOT
ATOM      1  C   UNL     1       1.033   0.518   0.809  1.00  0.00     0.202 C 
ENDROOT
BRANCH   1   2
ATOM      2  C   UNL     1       2.001  -0.240  -0.110  1.00  0.00     0.261 C 
BRANCH   2   3
ATOM      3  O   UNL     1       1.393  -1.321  -0.830  1.00  0.00    -0.459 OA
BRANCH   3   4
ATOM      4  C   UNL     1       1.671  -2.541  -0.275  1.00  0.00     0.368 C 
ATOM      5  O   UNL     1       2.455  -2.674   0.653  1.00  0.00    -0.245 OA
BRANCH   4   6
ATOM      6  C   UNL     1       0.957  -3.712  -1.000  1.00  0.00     0.197 C 
ATOM      7  C   UNL     1       1.855  -4.124  -2.175  1.00  0.00     0.081 C 
ATOM      8  C   UNL     1       0.878  -5.009  -0.118  1.00  0.00     0.068 C 
ATOM      9  C   UNL     1       1.565  -5.591  -2.444  1.00  0.00     0.008 C 
ATOM     10  C   UNL     1       0.963  -6.160  -1.163  1.00  0.00     0.011 C 
BRANCH   6  11
ATOM     11  N   UNL     1      -0.411  -3.256  -1.440  1.00  0.00    -0.332 N 
ATOM     12  H   UNL     1      -0.985  -3.193  -0.600  1.00  0.00     0.347 HD
ATOM     13  H   UNL     1      -0.219  -2.389  -1.943  1.00  0.00     0.347 HD
BRANCH  11  14
ATOM     14  C   UNL     1      -1.166  -4.045  -2.408  1.00  0.00     0.257 C 
ATOM     15  C   UNL     1      -2.593  -3.518  -2.529  1.00  0.00     0.071 C 
ENDBRANCH  11  14
ENDBRANCH   6  11
BRANCH   8  16
ATOM     16  C   UNL     1       1.962  -5.334   0.968  1.00  0.00     0.072 C 
BRANCH  16  17
ATOM     17  C   UNL     1       1.947  -4.771   2.421  1.00  0.00     0.262 C 
BRANCH  17  18
ATOM     18  N   UNL     1       0.714  -4.662   3.207  1.00  0.00    -0.335 N 
ATOM     19  C   UNL     1       0.062  -3.367   3.025  1.00  0.00     0.262 C 
ATOM     20  C   UNL     1      -0.175  -5.807   3.075  1.00  0.00     0.265 C 
ATOM     21  H   UNL     1       0.996  -4.695   4.187  1.00  0.00     0.348 HD
ATOM     22  C   UNL     1      -1.112  -3.206   3.989  1.00  0.00     0.062 C 
ATOM     23  C   UNL     1      -1.474  -5.693   3.897  1.00  0.00     0.044 C 
ATOM     24  C   UNL     1      -2.131  -4.312   3.758  1.00  0.00     0.015 C 
BRANCH  23  25
ATOM     25  C   UNL     1      -2.427  -6.848   3.524  1.00  0.00     0.006 C 
ATOM     26  C   UNL     1      -3.202  -6.650   2.224  1.00  0.00     0.004 C 
ENDBRANCH  23  25
ENDBRANCH  17  18
ENDBRANCH  16  17
ENDBRANCH   8  16
ENDBRANCH   4   6
ENDBRANCH   3   4
ENDBRANCH   2   3
ENDBRANCH   1   2
BRANCH   1  27
ATOM     27  O   UNL     1       0.049  -0.186   1.555  1.00  0.00    -0.374 OA
BRANCH  27  28
ATOM     28  C   UNL     1      -1.028  -0.816   0.866  1.00  0.00     0.202 C 
BRANCH  28  29
ATOM     29  C   UNL     1      -1.988  -0.004  -0.010  1.00  0.00     0.261 C 
BRANCH  29  30
ATOM     30  O   UNL     1      -1.336   0.614  -1.127  1.00  0.00    -0.460 OA
BRANCH  30  31
ATOM     31  C   UNL     1      -1.267   1.966  -1.053  1.00  0.00     0.338 C 
ATOM     32  O   UNL     1      -1.749   2.685  -0.193  1.00  0.00    -0.246 OA
BRANCH  31  33
ATOM     33  C   UNL     1      -0.281   2.439  -2.038  1.00  0.00     0.060 A 
ATOM     34  C   UNL     1       0.784   3.226  -1.573  1.00  0.00     0.016 A 
ATOM     35  C   UNL     1      -0.420   2.142  -3.393  1.00  0.00     0.016 A 
ATOM     36  C   UNL     1       1.696   3.764  -2.471  1.00  0.00     0.010 A 
ATOM     37  C   UNL     1       0.477   2.706  -4.297  1.00  0.00     0.010 A 
ATOM     38  C   UNL     1       1.505   3.552  -3.840  1.00  0.00    -0.014 A 
BRANCH  38  39
ATOM     39  C   UNL     1       2.192   4.426  -4.812  1.00  0.00     0.031 A 
ATOM     40  C   UNL     1       1.430   5.613  -5.327  1.00  0.00     0.074 A 
ATOM     41  C   UNL     1       3.440   4.161  -5.228  1.00  0.00     0.049 A 
ATOM     42  N   UNL     1       1.717   6.426  -6.307  1.00  0.00    -0.248 NA
ATOM     43  C   UNL     1       0.156   5.907  -4.650  1.00  0.00     0.031 C 
ATOM     44  C   UNL     1       4.287   3.080  -4.726  1.00  0.00     0.029 A 
ATOM     45  N   UNL     1       4.201   4.772  -6.189  1.00  0.00    -0.354 N 
ATOM     46  C   UNL     1       0.647   7.311  -6.383  1.00  0.00     0.074 A 
ATOM     47  C   UNL     1      -0.305   6.917  -5.369  1.00  0.00     0.031 C 
ATOM     48  C   UNL     1       5.444   3.086  -5.409  1.00  0.00     0.029 A 
ATOM     49  C   UNL     1       5.393   4.133  -6.428  1.00  0.00     0.049 A 
ATOM     50  H   UNL     1       3.921   5.590  -6.661  1.00  0.00     0.167 HD
ATOM     51  C   UNL     1       0.481   8.357  -7.228  1.00  0.00     0.034 A 
ATOM     52  C   UNL     1       6.309   4.345  -7.395  1.00  0.00     0.034 A 
ATOM     53  C   UNL     1       1.448   8.711  -8.235  1.00  0.00     0.049 A 
ATOM     54  C   UNL     1       6.065   5.457  -8.389  1.00  0.00     0.074 A 
ATOM     55  C   UNL     1       1.401   9.745  -9.152  1.00  0.00     0.029 A 
ATOM     56  N   UNL     1       2.638   8.029  -8.464  1.00  0.00    -0.354 N 
ATOM     57  N   UNL     1       5.041   6.277  -8.477  1.00  0.00    -0.248 NA
ATOM     58  C   UNL     1       7.098   5.675  -9.409  1.00  0.00     0.031 C 
ATOM     59  C   UNL     1       2.520   9.640  -9.984  1.00  0.00     0.029 A 
ATOM     60  C   UNL     1       3.317   8.601  -9.526  1.00  0.00     0.049 A 
ATOM     61  H   UNL     1       2.952   7.253  -7.946  1.00  0.00     0.167 HD
ATOM     62  C   UNL     1       5.331   7.137  -9.534  1.00  0.00     0.074 A 
ATOM     63  C   UNL     1       6.620   6.730 -10.055  1.00  0.00     0.031 C 
ATOM     64  C   UNL     1       4.607   8.178 -10.021  1.00  0.00     0.034 A 
BRANCH  51  65
ATOM     65  C   UNL     1      -0.816   9.124  -7.136  1.00  0.00     0.023 A 
ATOM     66  C   UNL     1      -1.192   9.815  -5.970  1.00  0.00     0.031 A 
ATOM     67  C   UNL     1      -1.718   9.118  -8.214  1.00  0.00     0.131 A 
ATOM     68  C   UNL     1      -2.466  10.397  -5.881  1.00  0.00     0.055 A 
ATOM     69  C   UNL     1      -2.947   9.776  -8.152  1.00  0.00     0.041 A 
ATOM     70  F   UNL     1      -1.430   8.450  -9.343  1.00  0.00    -0.206 F 
ATOM     71  C   UNL     1      -3.335  10.407  -6.974  1.00  0.00     0.022 A 
BRANCH  68  72
ATOM     72  S   UNL     1      -3.034  10.995  -4.265  1.00  0.00     0.124 S 
ATOM     73  O   UNL     1      -2.932   9.785  -3.452  1.00  0.00    -0.237 OA
ATOM     74  O   UNL     1      -2.075  12.050  -3.964  1.00  0.00    -0.237 OA
ATOM     75  O   UNL     1      -4.399  11.446  -4.527  1.00  0.00    -0.744 OA
ENDBRANCH  68  72
ENDBRANCH  51  65
BRANCH  52  76
ATOM     76  C   UNL     1       7.507   3.466  -7.500  1.00  0.00     0.023 A 
ATOM     77  C   UNL     1       8.800   3.980  -7.322  1.00  0.00     0.031 A 
ATOM     78  C   UNL     1       7.378   2.099  -7.809  1.00  0.00     0.131 A 
ATOM     79  C   UNL     1       9.915   3.144  -7.493  1.00  0.00     0.055 A 
ATOM     80  C   UNL     1       8.487   1.260  -7.924  1.00  0.00     0.041 A 
ATOM     81  F   UNL     1       6.163   1.555  -7.989  1.00  0.00    -0.206 F 
ATOM     82  C   UNL     1       9.767   1.784  -7.778  1.00  0.00     0.022 A 
BRANCH  79  83
ATOM     83  S   UNL     1      11.570   3.880  -7.416  1.00  0.00     0.124 S 
ATOM     84  O   UNL     1      11.500   4.877  -8.477  1.00  0.00    -0.237 OA
ATOM     85  O   UNL     1      11.609   4.394  -6.052  1.00  0.00    -0.237 OA
ATOM     86  O   UNL     1      12.457   2.748  -7.680  1.00  0.00    -0.744 OA
ENDBRANCH  79  83
ENDBRANCH  52  76
BRANCH  64  87
ATOM     87  C   UNL     1       5.230   9.003 -11.120  1.00  0.00     0.023 A 
ATOM     88  C   UNL     1       5.428   8.500 -12.416  1.00  0.00     0.031 A 
ATOM     89  C   UNL     1       5.599  10.337 -10.861  1.00  0.00     0.131 A 
ATOM     90  C   UNL     1       6.014   9.316 -13.396  1.00  0.00     0.055 A 
ATOM     91  C   UNL     1       6.125  11.160 -11.855  1.00  0.00     0.041 A 
ATOM     92  F   UNL     1       5.433  10.866  -9.638  1.00  0.00    -0.206 F 
ATOM     93  C   UNL     1       6.344  10.648 -13.130  1.00  0.00     0.022 A 
BRANCH  90  94
ATOM     94  S   UNL     1       6.406   8.593 -15.013  1.00  0.00     0.124 S 
ATOM     95  O   UNL     1       7.322   7.516 -14.649  1.00  0.00    -0.237 OA
ATOM     96  O   UNL     1       5.094   8.178 -15.497  1.00  0.00    -0.237 OA
ATOM     97  O   UNL     1       7.014   9.702 -15.746  1.00  0.00    -0.744 OA
ENDBRANCH  90  94
ENDBRANCH  64  87
ENDBRANCH  38  39
ENDBRANCH  31  33
ENDBRANCH  30  31
ENDBRANCH  29  30
ENDBRANCH  28  29
ENDBRANCH  27  28
ENDBRANCH   1  27
TORSDOF 23
