REMARK SMILES CC(C)(C)OC(=O)N1CC(Cc2ccc(C(=O)OCCOCCOC(=O)c3ccc(-c4c5nc(c(-c6cc(S(=O)(=O)[O-])ccc6F)c6ccc([nH]6)c(-c6cc(S(=O)(=O)[O-])ccc6F)c6nc(c(-c7cc(S(=O)(=O)[O-])ccc7F)c7ccc4[nH]7)C=C6)C=C5)cc3)cc2)C1
REMARK SMILES IDX 20 1 19 2 18 3 16 4 17 5 15 6 12 7 13 8 91 9 14 10 90 11
REMARK SMILES IDX 11 12 10 13 6 14 7 15 8 16 9 17 92 18 5 19 2 20 1 21 3 22
REMARK SMILES IDX 4 23 21 24 22 25 23 26 24 27 25 28 26 29 27 30 28 31 89 32
REMARK SMILES IDX 29 33 88 34 30 35 31 36 32 37 82 38 33 39 87 40 81 41 83 42
REMARK SMILES IDX 34 43 86 44 80 45 79 46 35 48 67 49 47 50 66 51 48 52 51 53
REMARK SMILES IDX 65 54 84 55 49 56 50 57 64 59 85 60 52 61 36 62 37 63 45 64
REMARK SMILES IDX 38 65 44 66 46 67 43 68 39 69 40 70 41 71 42 72 68 73 69 74
REMARK SMILES IDX 77 75 70 76 76 77 78 78 75 79 71 80 72 81 73 82 74 83 53 84
REMARK SMILES IDX 54 85 62 86 55 87 61 88 63 89 60 90 56 91 57 92 58 93 59 94
REMARK H PARENT 83 47 51 58
REMARK Flexibility Score: inf
ROOT
ATOM      1  C   UNL     1      10.604  -9.012  -2.915  1.00  0.00     0.202 C 
ENDROOT
BRANCH   1   2
ATOM      2  C   UNL     1      10.245  -7.640  -2.342  1.00  0.00     0.261 C 
BRANCH   2   3
ATOM      3  O   UNL     1       8.816  -7.506  -2.253  1.00  0.00    -0.460 OA
BRANCH   3   4
ATOM      4  C   UNL     1       8.254  -6.626  -3.113  1.00  0.00     0.338 C 
ATOM      5  O   UNL     1       8.836  -5.831  -3.833  1.00  0.00    -0.246 OA
BRANCH   4   6
ATOM      6  C   UNL     1       6.781  -6.815  -3.156  1.00  0.00     0.060 A 
ATOM      7  C   UNL     1       3.986  -7.030  -3.325  1.00  0.00    -0.048 A 
ATOM      8  C   UNL     1       4.709  -6.409  -4.350  1.00  0.00     0.004 A 
ATOM      9  C   UNL     1       4.680  -7.592  -2.242  1.00  0.00     0.004 A 
ATOM     10  C   UNL     1       6.096  -6.303  -4.265  1.00  0.00     0.016 A 
ATOM     11  C   UNL     1       6.070  -7.481  -2.152  1.00  0.00     0.016 A 
BRANCH   7  12
ATOM     12  C   UNL     1       2.477  -7.035  -3.359  1.00  0.00     0.042 C 
BRANCH  12  13
ATOM     13  C   UNL     1       1.950  -6.129  -2.256  1.00  0.00     0.033 C 
ATOM     14  C   UNL     1       0.232  -3.684  -0.938  1.00  0.00     0.410 C 
ATOM     15  O   UNL     1      -0.803  -3.976  -0.341  1.00  0.00    -0.224 OA
ATOM     16  N   UNL     1       0.805  -4.500  -1.860  1.00  0.00    -0.307 N 
ATOM     17  C   UNL     1       0.436  -5.836  -2.283  1.00  0.00     0.128 C 
ATOM     18  C   UNL     1       2.155  -4.595  -2.379  1.00  0.00     0.128 C 
BRANCH  14  19
ATOM     19  O   UNL     1       0.931  -2.535  -0.778  1.00  0.00    -0.444 OA
BRANCH  19  20
ATOM     20  C   UNL     1       0.543  -1.550   0.217  1.00  0.00     0.106 C 
ATOM     21  C   UNL     1       1.323  -0.279  -0.152  1.00  0.00     0.056 C 
ATOM     22  C   UNL     1       0.990  -2.028   1.602  1.00  0.00     0.056 C 
ATOM     23  C   UNL     1      -0.954  -1.209   0.195  1.00  0.00     0.056 C 
ENDBRANCH  19  20
ENDBRANCH  14  19
ENDBRANCH  12  13
ENDBRANCH   7  12
ENDBRANCH   4   6
ENDBRANCH   3   4
ENDBRANCH   2   3
ENDBRANCH   1   2
BRANCH   1  24
ATOM     24  O   UNL     1      10.220  -9.178  -4.283  1.00  0.00    -0.374 OA
BRANCH  24  25
ATOM     25  C   UNL     1       8.905  -9.698  -4.495  1.00  0.00     0.202 C 
BRANCH  25  26
ATOM     26  C   UNL     1       8.831 -11.228  -4.502  1.00  0.00     0.261 C 
BRANCH  26  27
ATOM     27  O   UNL     1       9.022 -11.752  -3.175  1.00  0.00    -0.460 OA
BRANCH  27  28
ATOM     28  C   UNL     1      10.213 -12.367  -2.974  1.00  0.00     0.338 C 
ATOM     29  O   UNL     1      11.053 -12.622  -3.821  1.00  0.00    -0.246 OA
BRANCH  28  30
ATOM     30  C   UNL     1      10.455 -12.549  -1.525  1.00  0.00     0.060 A 
ATOM     31  C   UNL     1      11.759 -12.328  -1.067  1.00  0.00     0.016 A 
ATOM     32  C   UNL     1       9.457 -12.962  -0.635  1.00  0.00     0.016 A 
ATOM     33  C   UNL     1      12.084 -12.576   0.265  1.00  0.00     0.010 A 
ATOM     34  C   UNL     1       9.786 -13.213   0.704  1.00  0.00     0.010 A 
ATOM     35  C   UNL     1      11.110 -13.057   1.149  1.00  0.00    -0.014 A 
BRANCH  35  36
ATOM     36  C   UNL     1      11.542 -13.538   2.485  1.00  0.00     0.031 A 
ATOM     37  C   UNL     1      11.818 -15.006   2.676  1.00  0.00     0.074 A 
ATOM     38  C   UNL     1      11.765 -12.672   3.490  1.00  0.00     0.049 A 
ATOM     39  N   UNL     1      12.300 -15.633   3.718  1.00  0.00    -0.248 NA
ATOM     40  C   UNL     1      11.507 -15.881   1.535  1.00  0.00     0.031 C 
ATOM     41  C   UNL     1      11.550 -11.227   3.421  1.00  0.00     0.029 A 
ATOM     42  N   UNL     1      12.234 -12.882   4.761  1.00  0.00    -0.354 N 
ATOM     43  C   UNL     1      12.371 -16.973   3.353  1.00  0.00     0.074 A 
ATOM     44  C   UNL     1      11.829 -17.072   2.014  1.00  0.00     0.031 C 
ATOM     45  C   UNL     1      11.889 -10.680   4.601  1.00  0.00     0.029 A 
ATOM     46  C   UNL     1      12.333 -11.734   5.511  1.00  0.00     0.049 A 
ATOM     47  H   UNL     1      12.476 -13.772   5.105  1.00  0.00     0.167 HD
ATOM     48  C   UNL     1      12.859 -18.023   4.061  1.00  0.00     0.034 A 
ATOM     49  C   UNL     1      12.736 -11.556   6.785  1.00  0.00     0.034 A 
ATOM     50  C   UNL     1      13.372 -17.918   5.405  1.00  0.00     0.049 A 
ATOM     51  C   UNL     1      13.222 -12.746   7.575  1.00  0.00     0.074 A 
ATOM     52  C   UNL     1      13.889 -18.916   6.214  1.00  0.00     0.029 A 
ATOM     53  N   UNL     1      13.421 -16.744   6.146  1.00  0.00    -0.354 N 
ATOM     54  N   UNL     1      13.310 -14.004   7.207  1.00  0.00    -0.248 NA
ATOM     55  C   UNL     1      13.683 -12.486   8.944  1.00  0.00     0.031 C 
ATOM     56  C   UNL     1      14.195 -18.357   7.461  1.00  0.00     0.029 A 
ATOM     57  C   UNL     1      13.932 -16.998   7.411  1.00  0.00     0.049 A 
ATOM     58  H   UNL     1      13.134 -15.860   5.822  1.00  0.00     0.167 HD
ATOM     59  C   UNL     1      13.859 -14.679   8.295  1.00  0.00     0.074 A 
ATOM     60  C   UNL     1      14.098 -13.686   9.322  1.00  0.00     0.031 C 
ATOM     61  C   UNL     1      14.144 -16.000   8.433  1.00  0.00     0.034 A 
BRANCH  48  62
ATOM     62  C   UNL     1      12.812 -19.376   3.396  1.00  0.00     0.023 A 
ATOM     63  C   UNL     1      13.571 -19.657   2.245  1.00  0.00     0.031 A 
ATOM     64  C   UNL     1      11.965 -20.384   3.890  1.00  0.00     0.131 A 
ATOM     65  C   UNL     1      13.414 -20.886   1.587  1.00  0.00     0.055 A 
ATOM     66  C   UNL     1      11.869 -21.632   3.271  1.00  0.00     0.041 A 
ATOM     67  F   UNL     1      11.201 -20.164   4.971  1.00  0.00    -0.206 F 
ATOM     68  C   UNL     1      12.585 -21.884   2.104  1.00  0.00     0.022 A 
BRANCH  65  69
ATOM     69  S   UNL     1      14.202 -21.111  -0.032  1.00  0.00     0.124 S 
ATOM     70  O   UNL     1      13.599 -20.030  -0.807  1.00  0.00    -0.237 OA
ATOM     71  O   UNL     1      15.618 -20.960   0.283  1.00  0.00    -0.237 OA
ATOM     72  O   UNL     1      13.791 -22.456  -0.429  1.00  0.00    -0.744 OA
ENDBRANCH  65  69
ENDBRANCH  48  62
BRANCH  49  73
ATOM     73  C   UNL     1      12.680 -10.206   7.410  1.00  0.00     0.023 A 
ATOM     74  C   UNL     1      13.848  -9.526   7.788  1.00  0.00     0.031 A 
ATOM     75  C   UNL     1      11.441  -9.599   7.686  1.00  0.00     0.131 A 
ATOM     76  C   UNL     1      13.752  -8.297   8.461  1.00  0.00     0.055 A 
ATOM     77  C   UNL     1      11.353  -8.357   8.316  1.00  0.00     0.041 A 
ATOM     78  F   UNL     1      10.296 -10.208   7.339  1.00  0.00    -0.206 F 
ATOM     79  C   UNL     1      12.514  -7.705   8.719  1.00  0.00     0.022 A 
BRANCH  76  80
ATOM     80  S   UNL     1      15.275  -7.513   9.060  1.00  0.00     0.124 S 
ATOM     81  O   UNL     1      15.815  -8.543   9.940  1.00  0.00    -0.237 OA
ATOM     82  O   UNL     1      16.004  -7.282   7.817  1.00  0.00    -0.237 OA
ATOM     83  O   UNL     1      14.795  -6.306   9.730  1.00  0.00    -0.744 OA
ENDBRANCH  76  80
ENDBRANCH  49  73
BRANCH  61  84
ATOM     84  C   UNL     1      14.773 -16.427   9.736  1.00  0.00     0.023 A 
ATOM     85  C   UNL     1      14.064 -16.374  10.950  1.00  0.00     0.031 A 
ATOM     86  C   UNL     1      16.109 -16.863   9.769  1.00  0.00     0.131 A 
ATOM     87  C   UNL     1      14.714 -16.689  12.153  1.00  0.00     0.055 A 
ATOM     88  C   UNL     1      16.733 -17.230  10.962  1.00  0.00     0.041 A 
ATOM     89  F   UNL     1      16.832 -16.934   8.640  1.00  0.00    -0.206 F 
ATOM     90  C   UNL     1      16.040 -17.129  12.165  1.00  0.00     0.022 A 
BRANCH  87  91
ATOM     91  S   UNL     1      13.833 -16.417  13.715  1.00  0.00     0.124 S 
ATOM     92  O   UNL     1      13.469 -15.007  13.619  1.00  0.00    -0.237 OA
ATOM     93  O   UNL     1      12.730 -17.368  13.620  1.00  0.00    -0.237 OA
ATOM     94  O   UNL     1      14.835 -16.729  14.733  1.00  0.00    -0.744 OA
ENDBRANCH  87  91
ENDBRANCH  61  84
ENDBRANCH  35  36
ENDBRANCH  28  30
ENDBRANCH  27  28
ENDBRANCH  26  27
ENDBRANCH  25  26
ENDBRANCH  24  25
ENDBRANCH   1  24
TORSDOF 21
