REMARK SMILES Cc1coc2cc3c(cc12)[C@@H](C)[C@H](CCC(=O)N[C@@H](Cc1c[nH]c2ccccc12)C(=O)OCCOCCOC(=O)c1ccc(-c2c4nc(c(-c5cc(S(=O)(=O)[O-])ccc5F)c5ccc([nH]5)c(-c5cc(S(=O)(=O)[O-])ccc5F)c5nc(c(-c6cc(S(=O)(=O)[O-])ccc6F)c6ccc2[nH]6)C=C5)C=C4)cc1)C(=O)O3
REMARK SMILES IDX 34 1 33 2 32 3 30 4 31 5 19 6 18 7 16 8 17 9 15 11 14 12
REMARK SMILES IDX 13 13 1 14 2 15 3 16 10 17 4 18 5 19 9 20 6 21 8 22 7 23
REMARK SMILES IDX 11 24 106 25 12 26 104 27 105 28 20 29 21 30 22 31 29 32
REMARK SMILES IDX 23 33 24 34 28 35 25 37 27 38 26 39 35 40 36 41 37 42 38 43
REMARK SMILES IDX 39 44 40 45 41 46 42 47 103 48 43 49 102 50 44 51 45 52
REMARK SMILES IDX 46 53 96 54 47 55 101 56 95 57 97 58 48 59 100 60 94 61
REMARK SMILES IDX 93 62 49 64 81 65 61 66 80 67 62 68 65 69 79 70 98 71 63 72
REMARK SMILES IDX 64 73 78 75 99 76 66 77 50 78 51 79 59 80 52 81 58 82 60 83
REMARK SMILES IDX 57 84 53 85 54 86 55 87 56 88 82 89 83 90 91 91 84 92 90 93
REMARK SMILES IDX 92 94 89 95 85 96 86 97 87 98 88 99 67 100 68 101 76 102
REMARK SMILES IDX 69 103 75 104 77 105 74 106 70 107 71 108 72 109 73 110
REMARK H PARENT 18 10 23 36 97 63 65 74
REMARK Flexibility Score: inf
ROOT
ATOM      1  C   UNL     1       3.277  -3.410   5.283  1.00  0.00     0.202 C 
ENDROOT
BRANCH   1   2
ATOM      2  C   UNL     1       3.830  -4.055   4.006  1.00  0.00     0.261 C 
BRANCH   2   3
ATOM      3  O   UNL     1       2.910  -4.196   2.916  1.00  0.00    -0.462 OA
BRANCH   3   4
ATOM      4  C   UNL     1       2.477  -5.468   2.724  1.00  0.00     0.329 C 
ATOM      5  O   UNL     1       2.522  -6.355   3.573  1.00  0.00    -0.250 OA
BRANCH   4   6
ATOM      6  C   UNL     1       1.970  -5.764   1.148  1.00  0.00     0.196 C 
BRANCH   6   7
ATOM      7  N   UNL     1       0.076  -5.918   0.417  1.00  0.00    -0.342 N 
ATOM      8  C   UNL     1      -1.071  -6.570  -0.089  1.00  0.00     0.220 C 
ATOM      9  O   UNL     1      -2.102  -5.902  -0.164  1.00  0.00    -0.275 OA
ATOM     10  H   UNL     1      -0.213  -4.977   0.415  1.00  0.00     0.164 HD
BRANCH   8  11
ATOM     11  C   UNL     1      -1.044  -7.995  -0.533  1.00  0.00     0.101 C 
BRANCH  11  12
ATOM     12  C   UNL     1       0.334  -8.230  -1.077  1.00  0.00     0.026 C 
BRANCH  12  13
ATOM     13  C   UNL     1       1.261  -7.339  -0.251  1.00  0.00     0.107 C 
ATOM     14  C   UNL     1       0.690   0.570  -0.711  1.00  0.00     0.048 C 
ATOM     15  C   UNL     1       0.033  -0.351   0.244  1.00  0.00    -0.005 A 
ATOM     16  C   UNL     1      -0.826   0.021   1.256  1.00  0.00     0.199 A 
ATOM     17  C   UNL     1       0.202  -1.778   0.352  1.00  0.00     0.024 A 
ATOM     18  O   UNL     1      -1.135  -1.034   2.035  1.00  0.00    -0.464 OA
ATOM     19  C   UNL     1      -0.445  -2.110   1.564  1.00  0.00     0.137 A 
ATOM     20  C   UNL     1       0.858  -2.755  -0.478  1.00  0.00     0.020 A 
ATOM     21  C   UNL     1      -0.436  -3.312   2.269  1.00  0.00     0.095 A 
ATOM     22  C   UNL     1       1.008  -4.019   0.071  1.00  0.00    -0.001 A 
ATOM     23  C   UNL     1       0.405  -4.192   1.650  1.00  0.00     0.138 A 
ATOM     24  C   UNL     1       1.335  -5.524  -1.065  1.00  0.00     0.034 C 
ATOM     25  O   UNL     1       0.208  -5.865   2.298  1.00  0.00    -0.426 OA
ATOM     26  C   UNL     1       2.244  -5.382  -2.297  1.00  0.00     0.014 C 
ATOM     27  C   UNL     1       0.573  -7.455   1.613  1.00  0.00     0.314 C 
ATOM     28  O   UNL     1       0.361  -8.483   2.263  1.00  0.00    -0.251 OA
ENDBRANCH  12  13
ENDBRANCH  11  12
ENDBRANCH   8  11
ENDBRANCH   6   7
BRANCH   6  29
ATOM     29  C   UNL     1       3.489  -5.546   0.397  1.00  0.00     0.074 C 
BRANCH  29  30
ATOM     30  C   UNL     1       4.140  -4.254  -0.053  1.00  0.00    -0.020 A 
ATOM     31  C   UNL     1       3.888  -2.943   0.289  1.00  0.00     0.087 A 
ATOM     32  C   UNL     1       5.345  -4.201  -0.868  1.00  0.00     0.003 A 
ATOM     33  N   UNL     1       4.737  -2.120  -0.405  1.00  0.00    -0.361 N 
ATOM     34  C   UNL     1       5.664  -2.862  -1.088  1.00  0.00     0.046 A 
ATOM     35  C   UNL     1       6.213  -5.176  -1.414  1.00  0.00     0.010 A 
ATOM     36  H   UNL     1       4.688  -1.137  -0.411  1.00  0.00     0.166 HD
ATOM     37  C   UNL     1       6.771  -2.443  -1.839  1.00  0.00     0.026 A 
ATOM     38  C   UNL     1       7.340  -4.776  -2.147  1.00  0.00     0.001 A 
ATOM     39  C   UNL     1       7.612  -3.428  -2.359  1.00  0.00     0.002 A 
ENDBRANCH  29  30
ENDBRANCH   6  29
ENDBRANCH   4   6
ENDBRANCH   3   4
ENDBRANCH   2   3
ENDBRANCH   1   2
BRANCH   1  40
ATOM     40  O   UNL     1       2.126  -3.963   5.899  1.00  0.00    -0.374 OA
BRANCH  40  41
ATOM     41  C   UNL     1       0.868  -3.633   5.324  1.00  0.00     0.202 C 
BRANCH  41  42
ATOM     42  C   UNL     1       0.509  -2.138   5.233  1.00  0.00     0.261 C 
BRANCH  42  43
ATOM     43  O   UNL     1       1.230  -1.524   4.154  1.00  0.00    -0.460 OA
BRANCH  43  44
ATOM     44  C   UNL     1       1.301  -0.169   4.221  1.00  0.00     0.338 C 
ATOM     45  O   UNL     1       0.482   0.605   4.679  1.00  0.00    -0.246 OA
BRANCH  44  46
ATOM     46  C   UNL     1       2.740   0.087   4.072  1.00  0.00     0.060 A 
ATOM     47  C   UNL     1       3.400  -0.200   2.875  1.00  0.00     0.016 A 
ATOM     48  C   UNL     1       3.434   0.241   5.279  1.00  0.00     0.016 A 
ATOM     49  C   UNL     1       4.771  -0.426   2.913  1.00  0.00     0.010 A 
ATOM     50  C   UNL     1       4.788  -0.043   5.319  1.00  0.00     0.010 A 
ATOM     51  C   UNL     1       5.447  -0.408   4.141  1.00  0.00    -0.014 A 
BRANCH  51  52
ATOM     52  C   UNL     1       6.897  -0.614   4.144  1.00  0.00     0.031 A 
ATOM     53  C   UNL     1       7.664   0.596   3.758  1.00  0.00     0.074 A 
ATOM     54  C   UNL     1       7.514  -1.699   4.650  1.00  0.00     0.049 A 
ATOM     55  N   UNL     1       8.494   0.759   2.780  1.00  0.00    -0.248 NA
ATOM     56  C   UNL     1       7.341   1.830   4.492  1.00  0.00     0.031 C 
ATOM     57  C   UNL     1       6.892  -2.773   5.412  1.00  0.00     0.029 A 
ATOM     58  N   UNL     1       8.840  -2.009   4.722  1.00  0.00    -0.354 N 
ATOM     59  C   UNL     1       8.937   2.076   2.895  1.00  0.00     0.074 A 
ATOM     60  C   UNL     1       8.037   2.730   3.806  1.00  0.00     0.031 C 
ATOM     61  C   UNL     1       7.832  -3.501   6.044  1.00  0.00     0.029 A 
ATOM     62  C   UNL     1       9.133  -2.988   5.665  1.00  0.00     0.049 A 
ATOM     63  H   UNL     1       9.526  -1.580   4.160  1.00  0.00     0.167 HD
ATOM     64  C   UNL     1      10.149   2.491   2.432  1.00  0.00     0.034 A 
ATOM     65  C   UNL     1      10.339  -3.274   6.213  1.00  0.00     0.034 A 
ATOM     66  C   UNL     1      10.715   1.551   1.509  1.00  0.00     0.049 A 
ATOM     67  C   UNL     1      11.391  -2.658   5.374  1.00  0.00     0.074 A 
ATOM     68  C   UNL     1      10.350   1.065   0.272  1.00  0.00     0.029 A 
ATOM     69  N   UNL     1      11.692   0.710   1.981  1.00  0.00    -0.354 N 
ATOM     70  N   UNL     1      11.712  -3.054   4.175  1.00  0.00    -0.248 NA
ATOM     71  C   UNL     1      11.825  -1.313   5.724  1.00  0.00     0.031 C 
ATOM     72  C   UNL     1      10.817  -0.277   0.245  1.00  0.00     0.029 A 
ATOM     73  C   UNL     1      11.470  -0.534   1.454  1.00  0.00     0.049 A 
ATOM     74  H   UNL     1      12.424   0.958   2.592  1.00  0.00     0.167 HD
ATOM     75  C   UNL     1      11.984  -1.883   3.482  1.00  0.00     0.074 A 
ATOM     76  C   UNL     1      12.165  -0.866   4.514  1.00  0.00     0.031 C 
ATOM     77  C   UNL     1      11.752  -1.781   2.140  1.00  0.00     0.034 A 
BRANCH  64  78
ATOM     78  C   UNL     1      10.949   3.600   3.075  1.00  0.00     0.023 A 
ATOM     79  C   UNL     1      10.647   4.119   4.349  1.00  0.00     0.031 A 
ATOM     80  C   UNL     1      12.165   4.036   2.516  1.00  0.00     0.131 A 
ATOM     81  C   UNL     1      11.464   5.058   4.985  1.00  0.00     0.055 A 
ATOM     82  C   UNL     1      13.029   4.912   3.188  1.00  0.00     0.041 A 
ATOM     83  F   UNL     1      12.578   3.582   1.322  1.00  0.00    -0.206 F 
ATOM     84  C   UNL     1      12.676   5.439   4.425  1.00  0.00     0.022 A 
BRANCH  81  85
ATOM     85  S   UNL     1      10.933   5.806   6.550  1.00  0.00     0.124 S 
ATOM     86  O   UNL     1      11.938   5.303   7.478  1.00  0.00    -0.237 OA
ATOM     87  O   UNL     1      11.008   7.232   6.240  1.00  0.00    -0.237 OA
ATOM     88  O   UNL     1       9.579   5.288   6.732  1.00  0.00    -0.744 OA
ENDBRANCH  81  85
ENDBRANCH  64  78
BRANCH  65  89
ATOM     89  C   UNL     1      10.565  -3.643   7.631  1.00  0.00     0.023 A 
ATOM     90  C   UNL     1       9.700  -3.154   8.632  1.00  0.00     0.031 A 
ATOM     91  C   UNL     1      11.754  -4.255   8.053  1.00  0.00     0.131 A 
ATOM     92  C   UNL     1      10.037  -3.257   9.987  1.00  0.00     0.055 A 
ATOM     93  C   UNL     1      12.086  -4.366   9.410  1.00  0.00     0.041 A 
ATOM     94  F   UNL     1      12.639  -4.713   7.155  1.00  0.00    -0.206 F 
ATOM     95  C   UNL     1      11.230  -3.858  10.385  1.00  0.00     0.022 A 
BRANCH  92  96
ATOM     96  S   UNL     1       8.941  -2.558  11.253  1.00  0.00     0.124 S 
ATOM     97  O   UNL     1       8.927  -3.609  12.268  1.00  0.00    -0.237 OA
ATOM     98  O   UNL     1       9.652  -1.339  11.619  1.00  0.00    -0.237 OA
ATOM     99  O   UNL     1       7.678  -2.370  10.543  1.00  0.00    -0.744 OA
ENDBRANCH  92  96
ENDBRANCH  65  89
BRANCH  77 100
ATOM    100  C   UNL     1      11.487  -3.037   1.341  1.00  0.00     0.023 A 
ATOM    101  C   UNL     1      12.207  -3.196   0.142  1.00  0.00     0.031 A 
ATOM    102  C   UNL     1      10.404  -3.905   1.572  1.00  0.00     0.131 A 
ATOM    103  C   UNL     1      11.806  -4.150  -0.799  1.00  0.00     0.055 A 
ATOM    104  C   UNL     1      10.062  -4.914   0.666  1.00  0.00     0.041 A 
ATOM    105  F   UNL     1       9.590  -3.746   2.624  1.00  0.00    -0.206 F 
ATOM    106  C   UNL     1      10.755  -5.030  -0.534  1.00  0.00     0.022 A 
BRANCH 103 107
ATOM    107  S   UNL     1      12.508  -4.142  -2.469  1.00  0.00     0.124 S 
ATOM    108  O   UNL     1      13.082  -5.481  -2.572  1.00  0.00    -0.237 OA
ATOM    109  O   UNL     1      11.325  -3.904  -3.295  1.00  0.00    -0.237 OA
ATOM    110  O   UNL     1      13.474  -3.048  -2.443  1.00  0.00    -0.744 OA
ENDBRANCH 103 107
ENDBRANCH  77 100
ENDBRANCH  51  52
ENDBRANCH  44  46
ENDBRANCH  43  44
ENDBRANCH  42  43
ENDBRANCH  41  42
ENDBRANCH  40  41
ENDBRANCH   1  40
TORSDOF 23
