REMARK SMILES O=C(OCCOCCOC(=O)[C@H]1CC[C@@H](CNc2nncs2)CC1)c1ccc(-c2c3nc(c(-c4cc(S(=O)(=O)[O-])ccc4F)c4ccc([nH]4)c(-c4cc(S(=O)(=O)[O-])ccc4F)c4nc(c(-c5cc(S(=O)(=O)[O-])ccc5F)c5ccc2[nH]5)C=C4)C=C3)cc1
REMARK SMILES IDX 6 1 5 2 4 3 3 4 2 5 1 6 25 7 26 8 87 9 27 10 86 11 28 12
REMARK SMILES IDX 29 13 30 14 80 15 31 16 85 17 79 18 81 19 32 20 84 21 78 22
REMARK SMILES IDX 77 23 33 25 65 26 45 27 64 28 46 29 49 30 63 31 82 32 47 33
REMARK SMILES IDX 48 34 62 36 83 37 50 38 34 39 35 40 43 41 36 42 42 43 44 44
REMARK SMILES IDX 41 45 37 46 38 47 39 48 40 49 66 50 67 51 75 52 68 53 74 54
REMARK SMILES IDX 76 55 73 56 69 57 70 58 71 59 72 60 51 61 52 62 60 63 53 64
REMARK SMILES IDX 59 65 61 66 58 67 54 68 55 69 56 70 57 71 7 72 8 73 9 74
REMARK SMILES IDX 10 75 11 76 12 77 24 78 13 79 23 80 14 81 15 82 16 83 17 84
REMARK SMILES IDX 18 86 19 87 22 88 20 89 21 90
REMARK H PARENT 81 24 49 35 17 85
REMARK Flexibility Score: inf
ROOT
ATOM      1  O   UNL     1       4.246  -1.091   1.160  1.00  0.00    -0.374 OA
ENDROOT
BRANCH   1   2
ATOM      2  C   UNL     1       4.656   0.271   1.094  1.00  0.00     0.202 C 
BRANCH   2   3
ATOM      3  C   UNL     1       4.292   1.107  -0.133  1.00  0.00     0.261 C 
BRANCH   3   4
ATOM      4  O   UNL     1       2.866   1.104  -0.330  1.00  0.00    -0.460 OA
BRANCH   4   5
ATOM      5  C   UNL     1       2.197   0.443  -1.307  1.00  0.00     0.338 C 
ATOM      6  O   UNL     1       0.983   0.579  -1.423  1.00  0.00    -0.246 OA
BRANCH   5   7
ATOM      7  C   UNL     1       2.924  -0.446  -2.245  1.00  0.00     0.060 A 
ATOM      8  C   UNL     1       3.986  -1.241  -1.828  1.00  0.00     0.016 A 
ATOM      9  C   UNL     1       2.496  -0.548  -3.570  1.00  0.00     0.016 A 
ATOM     10  C   UNL     1       4.697  -2.033  -2.682  1.00  0.00     0.010 A 
ATOM     11  C   UNL     1       3.140  -1.438  -4.434  1.00  0.00     0.010 A 
ATOM     12  C   UNL     1       4.233  -2.185  -3.973  1.00  0.00    -0.014 A 
BRANCH  12  13
ATOM     13  C   UNL     1       4.982  -3.141  -4.783  1.00  0.00     0.031 A 
ATOM     14  C   UNL     1       5.910  -2.598  -5.808  1.00  0.00     0.074 A 
ATOM     15  C   UNL     1       4.940  -4.440  -4.432  1.00  0.00     0.049 A 
ATOM     16  N   UNL     1       6.577  -3.237  -6.720  1.00  0.00    -0.248 NA
ATOM     17  C   UNL     1       6.127  -1.140  -5.797  1.00  0.00     0.031 C 
ATOM     18  C   UNL     1       4.208  -4.983  -3.276  1.00  0.00     0.029 A 
ATOM     19  N   UNL     1       5.544  -5.536  -4.977  1.00  0.00    -0.354 N 
ATOM     20  C   UNL     1       7.240  -2.256  -7.443  1.00  0.00     0.074 A 
ATOM     21  C   UNL     1       6.929  -0.982  -6.838  1.00  0.00     0.031 C 
ATOM     22  C   UNL     1       4.412  -6.306  -3.204  1.00  0.00     0.029 A 
ATOM     23  C   UNL     1       5.173  -6.716  -4.372  1.00  0.00     0.049 A 
ATOM     24  H   UNL     1       6.180  -5.487  -5.726  1.00  0.00     0.167 HD
ATOM     25  C   UNL     1       8.001  -2.440  -8.543  1.00  0.00     0.034 A 
ATOM     26  C   UNL     1       5.355  -7.981  -4.790  1.00  0.00     0.034 A 
ATOM     27  C   UNL     1       8.257  -3.751  -9.078  1.00  0.00     0.049 A 
ATOM     28  C   UNL     1       6.092  -8.148  -6.096  1.00  0.00     0.074 A 
ATOM     29  C   UNL     1       8.963  -4.100 -10.210  1.00  0.00     0.029 A 
ATOM     30  N   UNL     1       7.793  -4.935  -8.508  1.00  0.00    -0.354 N 
ATOM     31  N   UNL     1       6.654  -7.221  -6.844  1.00  0.00    -0.248 NA
ATOM     32  C   UNL     1       6.200  -9.506  -6.631  1.00  0.00     0.031 C 
ATOM     33  C   UNL     1       8.854  -5.485 -10.369  1.00  0.00     0.029 A 
ATOM     34  C   UNL     1       8.154  -6.013  -9.291  1.00  0.00     0.049 A 
ATOM     35  H   UNL     1       7.283  -4.994  -7.668  1.00  0.00     0.167 HD
ATOM     36  C   UNL     1       7.191  -7.889  -7.936  1.00  0.00     0.074 A 
ATOM     37  C   UNL     1       6.913  -9.299  -7.728  1.00  0.00     0.031 C 
ATOM     38  C   UNL     1       7.843  -7.397  -9.021  1.00  0.00     0.034 A 
BRANCH  25  39
ATOM     39  C   UNL     1       8.450  -1.213  -9.283  1.00  0.00     0.023 A 
ATOM     40  C   UNL     1       9.367  -0.296  -8.745  1.00  0.00     0.031 A 
ATOM     41  C   UNL     1       7.879  -0.922 -10.536  1.00  0.00     0.131 A 
ATOM     42  C   UNL     1       9.646   0.894  -9.435  1.00  0.00     0.055 A 
ATOM     43  C   UNL     1       8.216   0.227 -11.250  1.00  0.00     0.041 A 
ATOM     44  F   UNL     1       6.960  -1.740 -11.073  1.00  0.00    -0.206 F 
ATOM     45  C   UNL     1       9.098   1.149 -10.696  1.00  0.00     0.022 A 
BRANCH  42  46
ATOM     46  S   UNL     1      10.637   2.170  -8.609  1.00  0.00     0.124 S 
ATOM     47  O   UNL     1       9.790   2.505  -7.466  1.00  0.00    -0.237 OA
ATOM     48  O   UNL     1      11.873   1.461  -8.299  1.00  0.00    -0.237 OA
ATOM     49  O   UNL     1      10.756   3.220  -9.618  1.00  0.00    -0.744 OA
ENDBRANCH  42  46
ENDBRANCH  25  39
BRANCH  26  50
ATOM     50  C   UNL     1       4.725  -9.136  -4.083  1.00  0.00     0.023 A 
ATOM     51  C   UNL     1       5.489 -10.233  -3.660  1.00  0.00     0.031 A 
ATOM     52  C   UNL     1       3.329  -9.205  -3.897  1.00  0.00     0.131 A 
ATOM     53  C   UNL     1       4.853 -11.373  -3.140  1.00  0.00     0.055 A 
ATOM     54  C   UNL     1       2.709 -10.309  -3.309  1.00  0.00     0.041 A 
ATOM     55  F   UNL     1       2.535  -8.197  -4.293  1.00  0.00    -0.206 F 
ATOM     56  C   UNL     1       3.471 -11.413  -2.947  1.00  0.00     0.022 A 
BRANCH  53  57
ATOM     57  S   UNL     1       5.847 -12.864  -2.861  1.00  0.00     0.124 S 
ATOM     58  O   UNL     1       6.484 -13.042  -4.161  1.00  0.00    -0.237 OA
ATOM     59  O   UNL     1       6.720 -12.444  -1.770  1.00  0.00    -0.237 OA
ATOM     60  O   UNL     1       4.852 -13.875  -2.510  1.00  0.00    -0.744 OA
ENDBRANCH  53  57
ENDBRANCH  26  50
BRANCH  38  61
ATOM     61  C   UNL     1       8.314  -8.408 -10.027  1.00  0.00     0.023 A 
ATOM     62  C   UNL     1       7.404  -9.116 -10.828  1.00  0.00     0.031 A 
ATOM     63  C   UNL     1       9.688  -8.635 -10.205  1.00  0.00     0.131 A 
ATOM     64  C   UNL     1       7.883 -10.055 -11.748  1.00  0.00     0.055 A 
ATOM     65  C   UNL     1      10.160  -9.520 -11.170  1.00  0.00     0.041 A 
ATOM     66  F   UNL     1      10.592  -7.979  -9.458  1.00  0.00    -0.206 F 
ATOM     67  C   UNL     1       9.254 -10.243 -11.942  1.00  0.00     0.022 A 
BRANCH  64  68
ATOM     68  S   UNL     1       6.683 -11.077 -12.641  1.00  0.00     0.124 S 
ATOM     69  O   UNL     1       6.025 -11.791 -11.551  1.00  0.00    -0.237 OA
ATOM     70  O   UNL     1       5.872 -10.079 -13.331  1.00  0.00    -0.237 OA
ATOM     71  O   UNL     1       7.520 -11.903 -13.509  1.00  0.00    -0.744 OA
ENDBRANCH  64  68
ENDBRANCH  38  61
ENDBRANCH  12  13
ENDBRANCH   5   7
ENDBRANCH   4   5
ENDBRANCH   3   4
ENDBRANCH   2   3
ENDBRANCH   1   2
BRANCH   1  72
ATOM     72  C   UNL     1       2.872  -1.367   1.446  1.00  0.00     0.202 C 
BRANCH  72  73
ATOM     73  C   UNL     1       2.811  -2.434   2.539  1.00  0.00     0.261 C 
BRANCH  73  74
ATOM     74  O   UNL     1       3.300  -1.836   3.751  1.00  0.00    -0.463 OA
BRANCH  74  75
ATOM     75  C   UNL     1       4.652  -1.886   3.944  1.00  0.00     0.309 C 
ATOM     76  O   UNL     1       5.436  -2.606   3.356  1.00  0.00    -0.252 OA
BRANCH  75  77
ATOM     77  C   UNL     1       5.068  -0.826   4.956  1.00  0.00     0.099 C 
ATOM     78  C   UNL     1       4.958   0.565   4.320  1.00  0.00     0.015 C 
ATOM     79  C   UNL     1       4.240  -0.970   6.233  1.00  0.00     0.015 C 
ATOM     80  C   UNL     1       5.025   1.740   5.285  1.00  0.00     0.006 C 
ATOM     81  C   UNL     1       4.406   0.233   7.150  1.00  0.00     0.006 C 
ATOM     82  C   UNL     1       4.046   1.554   6.448  1.00  0.00     0.008 C 
BRANCH  82  83
ATOM     83  C   UNL     1       2.577   1.645   5.956  1.00  0.00     0.119 C 
BRANCH  83  84
ATOM     84  N   UNL     1       1.668   1.406   7.051  1.00  0.00    -0.360 N 
ATOM     85  H   UNL     1       1.703   0.521   7.480  1.00  0.00     0.162 HD
BRANCH  84  86
ATOM     86  C   UNL     1       0.774   2.291   7.537  1.00  0.00     0.205 A 
ATOM     87  N   UNL     1       0.303   2.201   8.766  1.00  0.00    -0.121 NA
ATOM     88  S   UNL     1       0.085   3.601   6.650  1.00  0.00    -0.083 S 
ATOM     89  N   UNL     1      -0.593   3.200   9.081  1.00  0.00    -0.145 NA
ATOM     90  C   UNL     1      -0.809   3.989   8.054  1.00  0.00     0.204 A 
ENDBRANCH  84  86
ENDBRANCH  83  84
ENDBRANCH  82  83
ENDBRANCH  75  77
ENDBRANCH  74  75
ENDBRANCH  73  74
ENDBRANCH  72  73
ENDBRANCH   1  72
TORSDOF 20
