REMARK SMILES CC[C@](C)([NH3+])C(=O)N1CC[NH+]([C@H](C)C(=O)OCCOCCOC(=O)c2ccc(-c3c4nc(c(-c5cc(S(=O)(=O)[O-])ccc5F)c5ccc([nH]5)c(-c5cc(S(=O)(=O)[O-])ccc5F)c5nc(c(-c6cc(S(=O)(=O)[O-])ccc6F)c6ccc3[nH]6)C=C5)C=C4)cc2)CC1
REMARK SMILES IDX 19 1 18 2 17 3 16 4 14 5 15 6 12 7 13 8 11 9 6 10 7 11 8 12
REMARK SMILES IDX 9 13 89 14 10 15 88 16 3 18 4 19 2 20 1 21 5 22 20 26 21 27
REMARK SMILES IDX 22 28 23 29 24 30 25 31 26 32 87 33 27 34 86 35 28 36 29 37
REMARK SMILES IDX 30 38 80 39 31 40 85 41 79 42 81 43 32 44 84 45 78 46 77 47
REMARK SMILES IDX 33 49 65 50 45 51 64 52 46 53 49 54 63 55 82 56 47 57 48 58
REMARK SMILES IDX 62 60 83 61 50 62 34 63 35 64 43 65 36 66 42 67 44 68 41 69
REMARK SMILES IDX 37 70 38 71 39 72 40 73 66 74 67 75 75 76 68 77 74 78 76 79
REMARK SMILES IDX 73 80 69 81 70 82 71 83 72 84 51 85 52 86 60 87 53 88 59 89
REMARK SMILES IDX 61 90 58 91 54 92 55 93 56 94 57 95
REMARK H PARENT 11 17 5 23 5 24 5 25 81 48 49 59
REMARK Flexibility Score: inf
ROOT
ATOM      1  O   UNL     1       7.236   7.425   5.300  1.00  0.00    -0.374 OA
ENDROOT
BRANCH   1   2
ATOM      2  C   UNL     1       7.916   6.699   4.276  1.00  0.00     0.202 C 
BRANCH   2   3
ATOM      3  C   UNL     1       8.108   5.199   4.516  1.00  0.00     0.261 C 
BRANCH   3   4
ATOM      4  O   UNL     1       6.855   4.494   4.508  1.00  0.00    -0.459 OA
BRANCH   4   5
ATOM      5  C   UNL     1       6.501   3.886   5.676  1.00  0.00     0.364 C 
ATOM      6  O   UNL     1       7.180   3.879   6.698  1.00  0.00    -0.245 OA
BRANCH   5   7
ATOM      7  C   UNL     1       5.136   3.179   5.572  1.00  0.00     0.292 C 
ATOM      8  C   UNL     1       4.121   3.906   4.681  1.00  0.00     0.088 C 
BRANCH   7   9
ATOM      9  N   UNL     1       5.351   1.748   5.263  1.00  0.00    -0.321 N 
ATOM     10  C   UNL     1       4.041  -1.401   3.001  1.00  0.00     0.283 C 
ATOM     11  O   UNL     1       4.617  -1.787   1.974  1.00  0.00    -0.268 OA
ATOM     12  N   UNL     1       4.777  -0.756   3.978  1.00  0.00    -0.326 N 
ATOM     13  C   UNL     1       5.978  -0.021   3.579  1.00  0.00     0.181 C 
ATOM     14  C   UNL     1       4.465  -0.572   5.389  1.00  0.00     0.181 C 
ATOM     15  C   UNL     1       5.760   1.485   3.861  1.00  0.00     0.284 C 
ATOM     16  C   UNL     1       4.204   0.913   5.673  1.00  0.00     0.284 C 
ATOM     17  H   UNL     1       6.152   1.470   5.830  1.00  0.00     0.348 HD
BRANCH  10  18
ATOM     18  C   UNL     1       2.465  -1.411   3.033  1.00  0.00     0.171 C 
ATOM     19  C   UNL     1       1.997  -2.508   2.054  1.00  0.00     0.090 C 
BRANCH  18  20
ATOM     20  C   UNL     1       1.980   0.026   2.657  1.00  0.00     0.075 C 
ATOM     21  C   UNL     1       1.088   0.150   1.429  1.00  0.00     0.011 C 
ENDBRANCH  18  20
BRANCH  18  22
ATOM     22  N   UNL     1       1.893  -1.793   4.349  1.00  0.00    -0.345 N 
ATOM     23  H   UNL     1       2.208  -2.731   4.597  1.00  0.00     0.345 HD
ATOM     24  H   UNL     1       0.875  -1.780   4.295  1.00  0.00     0.345 HD
ATOM     25  H   UNL     1       2.204  -1.131   5.060  1.00  0.00     0.345 HD
ENDBRANCH  18  22
ENDBRANCH  10  18
ENDBRANCH   7   9
ENDBRANCH   5   7
ENDBRANCH   4   5
ENDBRANCH   3   4
ENDBRANCH   2   3
ENDBRANCH   1   2
BRANCH   1  26
ATOM     26  C   UNL     1       5.825   7.255   5.403  1.00  0.00     0.202 C 
BRANCH  26  27
ATOM     27  C   UNL     1       4.959   7.936   4.335  1.00  0.00     0.261 C 
BRANCH  27  28
ATOM     28  O   UNL     1       5.156   7.389   3.017  1.00  0.00    -0.460 OA
BRANCH  28  29
ATOM     29  C   UNL     1       5.721   8.250   2.133  1.00  0.00     0.338 C 
ATOM     30  O   UNL     1       6.020   9.418   2.339  1.00  0.00    -0.246 OA
BRANCH  29  31
ATOM     31  C   UNL     1       6.101   7.549   0.893  1.00  0.00     0.060 A 
ATOM     32  C   UNL     1       7.438   7.637   0.484  1.00  0.00     0.016 A 
ATOM     33  C   UNL     1       5.154   6.916   0.085  1.00  0.00     0.016 A 
ATOM     34  C   UNL     1       7.826   7.131  -0.755  1.00  0.00     0.010 A 
ATOM     35  C   UNL     1       5.544   6.418  -1.165  1.00  0.00     0.010 A 
ATOM     36  C   UNL     1       6.874   6.554  -1.605  1.00  0.00    -0.014 A 
BRANCH  36  37
ATOM     37  C   UNL     1       7.242   6.237  -3.009  1.00  0.00     0.031 A 
ATOM     38  C   UNL     1       6.883   7.216  -4.095  1.00  0.00     0.074 A 
ATOM     39  C   UNL     1       7.923   5.116  -3.309  1.00  0.00     0.049 A 
ATOM     40  N   UNL     1       7.058   7.126  -5.388  1.00  0.00    -0.248 NA
ATOM     41  C   UNL     1       6.239   8.465  -3.659  1.00  0.00     0.031 C 
ATOM     42  C   UNL     1       8.386   4.126  -2.338  1.00  0.00     0.029 A 
ATOM     43  N   UNL     1       8.344   4.622  -4.519  1.00  0.00    -0.354 N 
ATOM     44  C   UNL     1       6.553   8.307  -5.923  1.00  0.00     0.074 A 
ATOM     45  C   UNL     1       6.027   9.077  -4.815  1.00  0.00     0.031 C 
ATOM     46  C   UNL     1       9.018   3.136  -2.992  1.00  0.00     0.029 A 
ATOM     47  C   UNL     1       8.968   3.400  -4.429  1.00  0.00     0.049 A 
ATOM     48  H   UNL     1       8.210   5.098  -5.370  1.00  0.00     0.167 HD
ATOM     49  C   UNL     1       6.540   8.716  -7.216  1.00  0.00     0.034 A 
ATOM     50  C   UNL     1       9.419   2.577  -5.398  1.00  0.00     0.034 A 
ATOM     51  C   UNL     1       7.050   7.931  -8.313  1.00  0.00     0.049 A 
ATOM     52  C   UNL     1       9.278   2.998  -6.843  1.00  0.00     0.074 A 
ATOM     53  C   UNL     1       7.080   8.246  -9.661  1.00  0.00     0.029 A 
ATOM     54  N   UNL     1       7.611   6.666  -8.191  1.00  0.00    -0.354 N 
ATOM     55  N   UNL     1       8.788   4.112  -7.336  1.00  0.00    -0.248 NA
ATOM     56  C   UNL     1       9.752   2.049  -7.860  1.00  0.00     0.031 C 
ATOM     57  C   UNL     1       7.595   7.148 -10.358  1.00  0.00     0.029 A 
ATOM     58  C   UNL     1       7.957   6.175  -9.441  1.00  0.00     0.049 A 
ATOM     59  H   UNL     1       7.744   6.188  -7.341  1.00  0.00     0.167 HD
ATOM     60  C   UNL     1       8.926   4.008  -8.718  1.00  0.00     0.074 A 
ATOM     61  C   UNL     1       9.553   2.729  -8.979  1.00  0.00     0.031 C 
ATOM     62  C   UNL     1       8.574   4.893  -9.686  1.00  0.00     0.034 A 
BRANCH  49  63
ATOM     63  C   UNL     1       5.906  10.054  -7.511  1.00  0.00     0.023 A 
ATOM     64  C   UNL     1       6.457  11.254  -7.028  1.00  0.00     0.031 A 
ATOM     65  C   UNL     1       4.719  10.128  -8.261  1.00  0.00     0.131 A 
ATOM     66  C   UNL     1       5.786  12.468  -7.243  1.00  0.00     0.055 A 
ATOM     67  C   UNL     1       4.097  11.348  -8.536  1.00  0.00     0.041 A 
ATOM     68  F   UNL     1       4.135   9.014  -8.728  1.00  0.00    -0.206 F 
ATOM     69  C   UNL     1       4.623  12.526  -8.014  1.00  0.00     0.022 A 
BRANCH  66  70
ATOM     70  S   UNL     1       6.381  13.952  -6.387  1.00  0.00     0.124 S 
ATOM     71  O   UNL     1       6.285  13.544  -4.987  1.00  0.00    -0.237 OA
ATOM     72  O   UNL     1       7.731  14.103  -6.917  1.00  0.00    -0.237 OA
ATOM     73  O   UNL     1       5.432  14.986  -6.793  1.00  0.00    -0.744 OA
ENDBRANCH  66  70
ENDBRANCH  49  63
BRANCH  50  74
ATOM     74  C   UNL     1       9.999   1.246  -5.055  1.00  0.00     0.023 A 
ATOM     75  C   UNL     1      11.329   0.930  -5.371  1.00  0.00     0.031 A 
ATOM     76  C   UNL     1       9.205   0.243  -4.469  1.00  0.00     0.131 A 
ATOM     77  C   UNL     1      11.812  -0.369  -5.146  1.00  0.00     0.055 A 
ATOM     78  C   UNL     1       9.706  -1.030  -4.196  1.00  0.00     0.041 A 
ATOM     79  F   UNL     1       7.924   0.491  -4.152  1.00  0.00    -0.206 F 
ATOM     80  C   UNL     1      11.013  -1.347  -4.549  1.00  0.00     0.022 A 
BRANCH  77  81
ATOM     81  S   UNL     1      13.474  -0.792  -5.738  1.00  0.00     0.124 S 
ATOM     82  O   UNL     1      13.369  -0.487  -7.161  1.00  0.00    -0.237 OA
ATOM     83  O   UNL     1      14.312   0.105  -4.949  1.00  0.00    -0.237 OA
ATOM     84  O   UNL     1      13.602  -2.210  -5.411  1.00  0.00    -0.744 OA
ENDBRANCH  77  81
ENDBRANCH  50  74
BRANCH  62  85
ATOM     85  C   UNL     1       8.906   4.523 -11.110  1.00  0.00     0.023 A 
ATOM     86  C   UNL     1       8.250   3.473 -11.776  1.00  0.00     0.031 A 
ATOM     87  C   UNL     1       9.896   5.235 -11.811  1.00  0.00     0.131 A 
ATOM     88  C   UNL     1       8.624   3.134 -13.085  1.00  0.00     0.055 A 
ATOM     89  C   UNL     1      10.227   4.929 -13.131  1.00  0.00     0.041 A 
ATOM     90  F   UNL     1      10.554   6.248 -11.223  1.00  0.00    -0.206 F 
ATOM     91  C   UNL     1       9.597   3.866 -13.772  1.00  0.00     0.022 A 
BRANCH  88  92
ATOM     92  S   UNL     1       7.871   1.677 -13.860  1.00  0.00     0.124 S 
ATOM     93  O   UNL     1       8.280   0.607 -12.957  1.00  0.00    -0.237 OA
ATOM     94  O   UNL     1       6.451   2.014 -13.847  1.00  0.00    -0.237 OA
ATOM     95  O   UNL     1       8.484   1.638 -15.187  1.00  0.00    -0.744 OA
ENDBRANCH  88  92
ENDBRANCH  62  85
ENDBRANCH  36  37
ENDBRANCH  29  31
ENDBRANCH  28  29
ENDBRANCH  27  28
ENDBRANCH  26  27
ENDBRANCH   1  26
TORSDOF 21
