REMARK SMILES Cc1c(NC(=O)c2ccc(-c3cccc(Cl)c3)o2)cccc1C(=O)OCCOCCOC(=O)c1ccc(-c2c3nc(c(-c4cc(S(=O)(=O)[O-])ccc4F)c4ccc([nH]4)c(-c4cc(S(=O)(=O)[O-])ccc4F)c4nc(c(-c5cc(S(=O)(=O)[O-])ccc5F)c5ccc2[nH]5)C=C4)C=C3)cc1
REMARK SMILES IDX 28 1 27 2 26 3 25 4 23 5 24 6 22 7 1 8 2 9 3 10 19 11 21 12
REMARK SMILES IDX 20 13 4 14 5 15 6 17 7 18 8 19 18 20 9 21 10 22 11 23 12 24
REMARK SMILES IDX 17 25 13 26 15 27 14 28 16 29 29 30 30 31 31 32 32 33 33 34
REMARK SMILES IDX 34 35 35 36 96 37 36 38 95 39 37 40 38 41 39 42 89 43 40 44
REMARK SMILES IDX 94 45 88 46 90 47 41 48 93 49 87 50 86 51 42 53 74 54 54 55
REMARK SMILES IDX 73 56 55 57 58 58 72 59 91 60 56 61 57 62 71 64 92 65 59 66
REMARK SMILES IDX 43 67 44 68 52 69 45 70 51 71 53 72 50 73 46 74 47 75 48 76
REMARK SMILES IDX 49 77 75 78 76 79 84 80 77 81 83 82 85 83 82 84 78 85 79 86
REMARK SMILES IDX 80 87 81 88 60 89 61 90 69 91 62 92 68 93 70 94 67 95 63 96
REMARK SMILES IDX 64 97 65 98 66 99
REMARK H PARENT 4 16 90 52 58 63
REMARK Flexibility Score: inf
ROOT
ATOM      1  O   UNL     1       1.035   3.162  -2.423  1.00  0.00    -0.374 OA
ENDROOT
BRANCH   1   2
ATOM      2  C   UNL     1       2.187   2.334  -2.454  1.00  0.00     0.202 C 
BRANCH   2   3
ATOM      3  C   UNL     1       2.704   2.391  -1.062  1.00  0.00     0.261 C 
BRANCH   3   4
ATOM      4  O   UNL     1       1.870   1.647  -0.160  1.00  0.00    -0.460 OA
BRANCH   4   5
ATOM      5  C   UNL     1       0.593   1.946   0.114  1.00  0.00     0.338 C 
ATOM      6  O   UNL     1       0.070   3.039   0.132  1.00  0.00    -0.246 OA
BRANCH   5   7
ATOM      7  C   UNL     1      -0.117   0.652   0.345  1.00  0.00     0.065 A 
ATOM      8  C   UNL     1       1.921  -0.948   0.005  1.00  0.00     0.047 C 
ATOM      9  C   UNL     1       0.466  -0.648   0.297  1.00  0.00    -0.013 A 
ATOM     10  C   UNL     1      -0.362  -1.766   0.531  1.00  0.00     0.045 A 
ATOM     11  C   UNL     1      -1.719  -1.571   0.818  1.00  0.00     0.026 A 
ATOM     12  C   UNL     1      -1.500   0.800   0.557  1.00  0.00     0.016 A 
ATOM     13  C   UNL     1      -2.299  -0.307   0.789  1.00  0.00     0.003 A 
BRANCH  10  14
ATOM     14  N   UNL     1       0.236  -3.050   0.465  1.00  0.00    -0.319 N 
ATOM     15  C   UNL     1      -0.273  -4.279   0.123  1.00  0.00     0.291 C 
ATOM     16  H   UNL     1       1.190  -3.062   0.707  1.00  0.00     0.170 HD
ATOM     17  O   UNL     1       0.458  -5.268   0.181  1.00  0.00    -0.265 OA
BRANCH  15  18
ATOM     18  C   UNL     1      -1.632  -4.337  -0.326  1.00  0.00     0.192 A 
ATOM     19  C   UNL     1      -2.282  -3.782  -1.413  1.00  0.00     0.057 A 
ATOM     20  O   UNL     1      -2.535  -4.893   0.527  1.00  0.00    -0.451 OA
ATOM     21  C   UNL     1      -3.667  -3.944  -1.165  1.00  0.00     0.052 A 
ATOM     22  C   UNL     1      -3.768  -4.610   0.039  1.00  0.00     0.135 A 
BRANCH  22  23
ATOM     23  C   UNL     1      -4.862  -5.038   0.879  1.00  0.00     0.019 A 
ATOM     24  C   UNL     1      -5.951  -5.697   0.303  1.00  0.00     0.012 A 
ATOM     25  C   UNL     1      -4.840  -4.809   2.264  1.00  0.00     0.032 A 
ATOM     26  C   UNL     1      -7.007  -6.135   1.098  1.00  0.00     0.002 A 
ATOM     27  C   UNL     1      -5.904  -5.238   3.051  1.00  0.00     0.041 A 
ATOM     28  C   UNL     1      -6.986  -5.902   2.473  1.00  0.00     0.020 A 
ATOM     29  Cl  UNL     1      -5.892  -4.952   4.748  1.00  0.00    -0.084 Cl
ENDBRANCH  22  23
ENDBRANCH  15  18
ENDBRANCH  10  14
ENDBRANCH   5   7
ENDBRANCH   4   5
ENDBRANCH   3   4
ENDBRANCH   2   3
ENDBRANCH   1   2
BRANCH   1  30
ATOM     30  C   UNL     1       0.379   3.338  -3.651  1.00  0.00     0.202 C 
BRANCH  30  31
ATOM     31  C   UNL     1       1.278   4.043  -4.669  1.00  0.00     0.261 C 
BRANCH  31  32
ATOM     32  O   UNL     1       1.655   5.344  -4.159  1.00  0.00    -0.460 OA
BRANCH  32  33
ATOM     33  C   UNL     1       2.933   5.468  -3.694  1.00  0.00     0.338 C 
ATOM     34  O   UNL     1       3.936   5.191  -4.328  1.00  0.00    -0.246 OA
BRANCH  33  35
ATOM     35  C   UNL     1       2.923   5.835  -2.244  1.00  0.00     0.060 A 
ATOM     36  C   UNL     1       4.095   5.729  -1.464  1.00  0.00     0.016 A 
ATOM     37  C   UNL     1       1.691   5.992  -1.616  1.00  0.00     0.016 A 
ATOM     38  C   UNL     1       4.009   5.614  -0.063  1.00  0.00     0.010 A 
ATOM     39  C   UNL     1       1.606   5.779  -0.257  1.00  0.00     0.010 A 
ATOM     40  C   UNL     1       2.750   5.546   0.528  1.00  0.00    -0.014 A 
BRANCH  40  41
ATOM     41  C   UNL     1       2.438   5.097   1.893  1.00  0.00     0.031 A 
ATOM     42  C   UNL     1       1.657   6.014   2.749  1.00  0.00     0.074 A 
ATOM     43  C   UNL     1       2.541   3.785   2.236  1.00  0.00     0.049 A 
ATOM     44  N   UNL     1       1.363   5.762   3.970  1.00  0.00    -0.248 NA
ATOM     45  C   UNL     1       1.160   7.323   2.322  1.00  0.00     0.031 C 
ATOM     46  C   UNL     1       1.791   3.023   3.239  1.00  0.00     0.029 A 
ATOM     47  N   UNL     1       3.385   2.813   1.700  1.00  0.00    -0.354 N 
ATOM     48  C   UNL     1       0.391   6.644   4.367  1.00  0.00     0.074 A 
ATOM     49  C   UNL     1       0.402   7.675   3.365  1.00  0.00     0.031 C 
ATOM     50  C   UNL     1       2.370   1.821   3.432  1.00  0.00     0.029 A 
ATOM     51  C   UNL     1       3.589   1.793   2.638  1.00  0.00     0.049 A 
ATOM     52  H   UNL     1       3.779   2.840   0.798  1.00  0.00     0.167 HD
ATOM     53  C   UNL     1      -0.371   6.298   5.439  1.00  0.00     0.034 A 
ATOM     54  C   UNL     1       4.854   1.491   3.032  1.00  0.00     0.034 A 
ATOM     55  C   UNL     1       0.189   5.101   6.092  1.00  0.00     0.049 A 
ATOM     56  C   UNL     1       4.956   1.990   4.458  1.00  0.00     0.074 A 
ATOM     57  C   UNL     1      -0.215   3.783   6.204  1.00  0.00     0.029 A 
ATOM     58  N   UNL     1       1.530   5.126   6.484  1.00  0.00    -0.354 N 
ATOM     59  N   UNL     1       4.147   2.900   4.945  1.00  0.00    -0.248 NA
ATOM     60  C   UNL     1       5.812   1.403   5.481  1.00  0.00     0.031 C 
ATOM     61  C   UNL     1       0.940   3.005   6.541  1.00  0.00     0.029 A 
ATOM     62  C   UNL     1       2.031   3.854   6.678  1.00  0.00     0.049 A 
ATOM     63  H   UNL     1       2.054   5.951   6.607  1.00  0.00     0.167 HD
ATOM     64  C   UNL     1       4.248   2.927   6.300  1.00  0.00     0.074 A 
ATOM     65  C   UNL     1       5.349   2.015   6.587  1.00  0.00     0.031 C 
ATOM     66  C   UNL     1       3.418   3.662   7.099  1.00  0.00     0.034 A 
BRANCH  53  67
ATOM     67  C   UNL     1      -1.692   6.926   5.833  1.00  0.00     0.023 A 
ATOM     68  C   UNL     1      -2.334   6.457   6.999  1.00  0.00     0.031 A 
ATOM     69  C   UNL     1      -2.416   7.899   5.106  1.00  0.00     0.131 A 
ATOM     70  C   UNL     1      -3.596   6.944   7.395  1.00  0.00     0.055 A 
ATOM     71  C   UNL     1      -3.647   8.421   5.529  1.00  0.00     0.041 A 
ATOM     72  F   UNL     1      -2.014   8.365   3.921  1.00  0.00    -0.206 F 
ATOM     73  C   UNL     1      -4.247   7.942   6.678  1.00  0.00     0.022 A 
BRANCH  70  74
ATOM     74  S   UNL     1      -4.401   6.222   8.848  1.00  0.00     0.124 S 
ATOM     75  O   UNL     1      -4.607   4.839   8.428  1.00  0.00    -0.237 OA
ATOM     76  O   UNL     1      -3.410   6.442   9.895  1.00  0.00    -0.237 OA
ATOM     77  O   UNL     1      -5.626   7.011   8.985  1.00  0.00    -0.744 OA
ENDBRANCH  70  74
ENDBRANCH  53  67
BRANCH  54  78
ATOM     78  C   UNL     1       5.815   1.598   1.872  1.00  0.00     0.023 A 
ATOM     79  C   UNL     1       5.726   0.617   0.837  1.00  0.00     0.031 A 
ATOM     80  C   UNL     1       6.402   2.826   1.527  1.00  0.00     0.131 A 
ATOM     81  C   UNL     1       6.104   0.920  -0.492  1.00  0.00     0.055 A 
ATOM     82  C   UNL     1       6.758   3.127   0.200  1.00  0.00     0.041 A 
ATOM     83  F   UNL     1       6.495   3.813   2.429  1.00  0.00    -0.206 F 
ATOM     84  C   UNL     1       6.576   2.192  -0.818  1.00  0.00     0.022 A 
BRANCH  81  85
ATOM     85  S   UNL     1       5.734  -0.235  -1.866  1.00  0.00     0.124 S 
ATOM     86  O   UNL     1       6.944  -1.044  -1.927  1.00  0.00    -0.237 OA
ATOM     87  O   UNL     1       4.536  -0.931  -1.410  1.00  0.00    -0.237 OA
ATOM     88  O   UNL     1       5.505   0.656  -3.002  1.00  0.00    -0.744 OA
ENDBRANCH  81  85
ENDBRANCH  54  78
BRANCH  66  89
ATOM     89  C   UNL     1       3.890   4.222   8.412  1.00  0.00     0.023 A 
ATOM     90  C   UNL     1       5.247   4.223   8.750  1.00  0.00     0.031 A 
ATOM     91  C   UNL     1       3.030   4.893   9.308  1.00  0.00     0.131 A 
ATOM     92  C   UNL     1       5.689   4.717   9.978  1.00  0.00     0.055 A 
ATOM     93  C   UNL     1       3.493   5.508  10.473  1.00  0.00     0.041 A 
ATOM     94  F   UNL     1       1.712   5.001   9.086  1.00  0.00    -0.206 F 
ATOM     95  C   UNL     1       4.827   5.394  10.834  1.00  0.00     0.022 A 
BRANCH  92  96
ATOM     96  S   UNL     1       7.379   4.308  10.461  1.00  0.00     0.124 S 
ATOM     97  O   UNL     1       7.340   2.847  10.460  1.00  0.00    -0.237 OA
ATOM     98  O   UNL     1       8.170   4.918   9.396  1.00  0.00    -0.237 OA
ATOM     99  O   UNL     1       7.518   4.926  11.777  1.00  0.00    -0.744 OA
ENDBRANCH  92  96
ENDBRANCH  66  89
ENDBRANCH  40  41
ENDBRANCH  33  35
ENDBRANCH  32  33
ENDBRANCH  31  32
ENDBRANCH  30  31
ENDBRANCH   1  30
TORSDOF 20
