REMARK SMILES Cc1ccccc1OC1(C(=O)OCCOCCOC(=O)c2ccc(-c3c4nc(c(-c5cc(S(=O)(=O)[O-])ccc5F)c5ccc([nH]5)c(-c5cc(S(=O)(=O)[O-])ccc5F)c5nc(c(-c6cc(S(=O)(=O)[O-])ccc6F)c6ccc3[nH]6)C=C5)C=C4)cc2)CCN(C(=O)[C@H]2CCCCO2)CC1
REMARK SMILES IDX 16 1 15 2 14 3 13 4 12 5 10 6 11 7 9 8 84 9 96 10 85 11
REMARK SMILES IDX 95 12 86 13 87 14 88 15 8 16 7 17 1 18 2 19 3 20 4 21 6 22
REMARK SMILES IDX 5 23 89 24 90 25 94 26 91 27 93 28 92 29 17 30 18 31 19 32
REMARK SMILES IDX 20 33 21 34 22 35 83 36 23 37 82 38 24 39 25 40 26 41 76 42
REMARK SMILES IDX 27 43 81 44 75 45 77 46 28 47 80 48 74 49 73 50 29 52 61 53
REMARK SMILES IDX 41 54 60 55 42 56 45 57 59 58 78 59 43 60 44 61 58 63 79 64
REMARK SMILES IDX 46 65 30 66 31 67 39 68 32 69 38 70 40 71 37 72 33 73 34 74
REMARK SMILES IDX 35 75 36 76 62 77 63 78 71 79 64 80 70 81 72 82 69 83 65 84
REMARK SMILES IDX 66 85 67 86 68 87 47 88 48 89 56 90 49 91 55 92 57 93 54 94
REMARK SMILES IDX 50 95 51 96 52 97 53 98
REMARK H PARENT 77 51 45 62
REMARK Flexibility Score: inf
ROOT
ATOM      1  C   UNL     1       8.604  -9.084  -2.342  1.00  0.00     0.202 C 
ENDROOT
BRANCH   1   2
ATOM      2  O   UNL     1       8.220  -7.851  -2.901  1.00  0.00    -0.374 OA
BRANCH   2   3
ATOM      3  C   UNL     1       8.959  -6.711  -2.492  1.00  0.00     0.202 C 
BRANCH   3   4
ATOM      4  C   UNL     1       8.222  -5.540  -3.068  1.00  0.00     0.261 C 
BRANCH   4   5
ATOM      5  O   UNL     1       6.926  -5.295  -2.475  1.00  0.00    -0.460 OA
BRANCH   5   6
ATOM      6  C   UNL     1       5.922  -6.229  -2.443  1.00  0.00     0.350 C 
ATOM      7  O   UNL     1       5.684  -7.064  -3.302  1.00  0.00    -0.247 OA
BRANCH   6   8
ATOM      8  C   UNL     1       5.136  -6.024  -1.111  1.00  0.00     0.209 C 
ATOM      9  C   UNL     1       6.234  -6.029  -0.043  1.00  0.00     0.082 C 
ATOM     10  C   UNL     1       4.308  -4.758  -1.359  1.00  0.00     0.082 C 
ATOM     11  C   UNL     1       6.728  -4.648   0.365  1.00  0.00     0.124 C 
ATOM     12  C   UNL     1       4.749  -3.482  -0.654  1.00  0.00     0.124 C 
ATOM     13  N   UNL     1       5.691  -3.623   0.452  1.00  0.00    -0.340 N 
ATOM     14  C   UNL     1       5.811  -2.690   1.492  1.00  0.00     0.251 C 
ATOM     15  O   UNL     1       6.658  -2.820   2.382  1.00  0.00    -0.272 OA
BRANCH   8  16
ATOM     16  O   UNL     1       4.277  -7.173  -0.943  1.00  0.00    -0.475 OA
BRANCH  16  17
ATOM     17  C   UNL     1       3.387  -7.445   0.064  1.00  0.00     0.123 A 
ATOM     18  C   UNL     1       3.885  -5.735   1.966  1.00  0.00     0.048 C 
ATOM     19  C   UNL     1       3.154  -6.861   1.324  1.00  0.00    -0.009 A 
ATOM     20  C   UNL     1       2.160  -7.395   2.179  1.00  0.00     0.007 A 
ATOM     21  C   UNL     1       1.392  -8.486   1.814  1.00  0.00     0.001 A 
ATOM     22  C   UNL     1       2.592  -8.557  -0.275  1.00  0.00     0.047 A 
ATOM     23  C   UNL     1       1.611  -9.072   0.581  1.00  0.00     0.004 A 
ENDBRANCH  16  17
ENDBRANCH   8  16
BRANCH  14  24
ATOM     24  C   UNL     1       4.761  -1.554   1.582  1.00  0.00     0.207 C 
ATOM     25  C   UNL     1       3.530  -2.122   2.310  1.00  0.00     0.042 C 
ATOM     26  O   UNL     1       5.316  -0.457   2.320  1.00  0.00    -0.368 OA
ATOM     27  C   UNL     1       2.538  -1.045   2.724  1.00  0.00     0.006 C 
ATOM     28  C   UNL     1       4.393   0.595   2.556  1.00  0.00     0.161 C 
ATOM     29  C   UNL     1       3.256   0.094   3.429  1.00  0.00     0.029 C 
ENDBRANCH  14  24
ENDBRANCH   6   8
ENDBRANCH   5   6
ENDBRANCH   4   5
ENDBRANCH   3   4
ENDBRANCH   2   3
ENDBRANCH   1   2
BRANCH   1  30
ATOM     30  C   UNL     1      10.046  -9.460  -2.694  1.00  0.00     0.261 C 
BRANCH  30  31
ATOM     31  O   UNL     1      10.181  -9.689  -4.115  1.00  0.00    -0.460 OA
BRANCH  31  32
ATOM     32  C   UNL     1      10.696  -8.655  -4.839  1.00  0.00     0.338 C 
ATOM     33  O   UNL     1      11.834  -8.220  -4.718  1.00  0.00    -0.246 OA
BRANCH  32  34
ATOM     34  C   UNL     1       9.646  -8.051  -5.708  1.00  0.00     0.060 A 
ATOM     35  C   UNL     1       9.839  -6.790  -6.307  1.00  0.00     0.016 A 
ATOM     36  C   UNL     1       8.377  -8.619  -5.685  1.00  0.00     0.016 A 
ATOM     37  C   UNL     1       8.732  -6.037  -6.734  1.00  0.00     0.010 A 
ATOM     38  C   UNL     1       7.293  -7.823  -5.974  1.00  0.00     0.010 A 
ATOM     39  C   UNL     1       7.453  -6.523  -6.478  1.00  0.00    -0.014 A 
BRANCH  39  40
ATOM     40  C   UNL     1       6.189  -5.796  -6.617  1.00  0.00     0.031 A 
ATOM     41  C   UNL     1       5.184  -6.367  -7.545  1.00  0.00     0.074 A 
ATOM     42  C   UNL     1       5.828  -4.825  -5.739  1.00  0.00     0.049 A 
ATOM     43  N   UNL     1       4.066  -5.799  -7.816  1.00  0.00    -0.248 NA
ATOM     44  C   UNL     1       5.358  -7.619  -8.288  1.00  0.00     0.031 C 
ATOM     45  C   UNL     1       4.484  -4.351  -5.400  1.00  0.00     0.029 A 
ATOM     46  N   UNL     1       6.642  -3.992  -4.966  1.00  0.00    -0.354 N 
ATOM     47  C   UNL     1       3.266  -6.710  -8.455  1.00  0.00     0.074 A 
ATOM     48  C   UNL     1       4.151  -7.774  -8.841  1.00  0.00     0.031 C 
ATOM     49  C   UNL     1       4.569  -3.169  -4.762  1.00  0.00     0.029 A 
ATOM     50  C   UNL     1       5.969  -2.780  -4.763  1.00  0.00     0.049 A 
ATOM     51  H   UNL     1       7.536  -4.218  -4.623  1.00  0.00     0.167 HD
ATOM     52  C   UNL     1       1.926  -6.476  -8.460  1.00  0.00     0.034 A 
ATOM     53  C   UNL     1       6.508  -1.610  -5.199  1.00  0.00     0.034 A 
ATOM     54  C   UNL     1       1.653  -5.114  -7.977  1.00  0.00     0.049 A 
ATOM     55  C   UNL     1       5.596  -1.091  -6.279  1.00  0.00     0.074 A 
ATOM     56  C   UNL     1       1.097  -4.593  -6.822  1.00  0.00     0.029 A 
ATOM     57  N   UNL     1       2.280  -4.045  -8.621  1.00  0.00    -0.354 N 
ATOM     58  N   UNL     1       4.813  -1.877  -6.975  1.00  0.00    -0.248 NA
ATOM     59  C   UNL     1       5.353   0.322  -6.538  1.00  0.00     0.031 C 
ATOM     60  C   UNL     1       1.506  -3.226  -6.727  1.00  0.00     0.029 A 
ATOM     61  C   UNL     1       2.266  -2.905  -7.845  1.00  0.00     0.049 A 
ATOM     62  H   UNL     1       2.683  -4.099  -9.518  1.00  0.00     0.167 HD
ATOM     63  C   UNL     1       3.900  -1.125  -7.645  1.00  0.00     0.074 A 
ATOM     64  C   UNL     1       4.309   0.249  -7.383  1.00  0.00     0.031 C 
ATOM     65  C   UNL     1       2.855  -1.664  -8.341  1.00  0.00     0.034 A 
BRANCH  52  66
ATOM     66  C   UNL     1       0.843  -7.491  -8.755  1.00  0.00     0.023 A 
ATOM     67  C   UNL     1      -0.500  -7.060  -8.732  1.00  0.00     0.031 A 
ATOM     68  C   UNL     1       1.022  -8.878  -8.960  1.00  0.00     0.131 A 
ATOM     69  C   UNL     1      -1.568  -7.962  -8.910  1.00  0.00     0.055 A 
ATOM     70  C   UNL     1      -0.038  -9.765  -9.191  1.00  0.00     0.041 A 
ATOM     71  F   UNL     1       2.218  -9.471  -8.894  1.00  0.00    -0.206 F 
ATOM     72  C   UNL     1      -1.344  -9.311  -9.163  1.00  0.00     0.022 A 
BRANCH  69  73
ATOM     73  S   UNL     1      -3.268  -7.354  -8.755  1.00  0.00     0.124 S 
ATOM     74  O   UNL     1      -3.311  -6.918  -7.363  1.00  0.00    -0.237 OA
ATOM     75  O   UNL     1      -3.316  -6.303  -9.765  1.00  0.00    -0.237 OA
ATOM     76  O   UNL     1      -4.079  -8.534  -9.054  1.00  0.00    -0.744 OA
ENDBRANCH  69  73
ENDBRANCH  52  66
BRANCH  53  77
ATOM     77  C   UNL     1       8.006  -1.617  -5.110  1.00  0.00     0.023 A 
ATOM     78  C   UNL     1       8.578  -1.640  -3.809  1.00  0.00     0.031 A 
ATOM     79  C   UNL     1       8.802  -2.086  -6.166  1.00  0.00     0.131 A 
ATOM     80  C   UNL     1       9.830  -2.248  -3.579  1.00  0.00     0.055 A 
ATOM     81  C   UNL     1      10.055  -2.680  -5.931  1.00  0.00     0.041 A 
ATOM     82  F   UNL     1       8.323  -2.119  -7.417  1.00  0.00    -0.206 F 
ATOM     83  C   UNL     1      10.551  -2.806  -4.634  1.00  0.00     0.022 A 
BRANCH  80  84
ATOM     84  S   UNL     1      10.371  -2.610  -1.867  1.00  0.00     0.124 S 
ATOM     85  O   UNL     1      11.283  -1.508  -1.589  1.00  0.00    -0.237 OA
ATOM     86  O   UNL     1       9.113  -2.605  -1.129  1.00  0.00    -0.237 OA
ATOM     87  O   UNL     1      10.988  -3.932  -1.988  1.00  0.00    -0.744 OA
ENDBRANCH  80  84
ENDBRANCH  53  77
BRANCH  65  88
ATOM     88  C   UNL     1       2.277  -0.984  -9.550  1.00  0.00     0.023 A 
ATOM     89  C   UNL     1       2.913   0.115 -10.137  1.00  0.00     0.031 A 
ATOM     90  C   UNL     1       1.151  -1.484 -10.238  1.00  0.00     0.131 A 
ATOM     91  C   UNL     1       2.368   0.764 -11.247  1.00  0.00     0.055 A 
ATOM     92  C   UNL     1       0.681  -0.914 -11.423  1.00  0.00     0.041 A 
ATOM     93  F   UNL     1       0.473  -2.559  -9.810  1.00  0.00    -0.206 F 
ATOM     94  C   UNL     1       1.271   0.240 -11.919  1.00  0.00     0.022 A 
BRANCH  91  95
ATOM     95  S   UNL     1       3.067   2.372 -11.676  1.00  0.00     0.124 S 
ATOM     96  O   UNL     1       2.825   3.134 -10.452  1.00  0.00    -0.237 OA
ATOM     97  O   UNL     1       4.464   2.048 -11.948  1.00  0.00    -0.237 OA
ATOM     98  O   UNL     1       2.283   2.788 -12.834  1.00  0.00    -0.744 OA
ENDBRANCH  91  95
ENDBRANCH  65  88
ENDBRANCH  39  40
ENDBRANCH  32  34
ENDBRANCH  31  32
ENDBRANCH  30  31
ENDBRANCH   1  30
TORSDOF 20
