REMARK SMILES CCC[NH2+][C@]1(C(=O)OCCOCCOC(=O)c2ccc(-c3c4nc(c(-c5cc(S(=O)(=O)[O-])ccc5F)c5ccc([nH]5)c(-c5cc(S(=O)(=O)[O-])ccc5F)c5nc(c(-c6cc(S(=O)(=O)[O-])ccc6F)c6ccc3[nH]6)C=C5)C=C4)cc2)CC[C@@H](OC(C)(C)C)C1
REMARK SMILES IDX 11 1 10 2 9 3 8 4 6 5 7 6 5 7 80 8 88 9 81 10 82 11 4 12
REMARK SMILES IDX 3 15 2 16 1 17 83 18 84 19 85 20 86 21 87 22 12 23 13 24
REMARK SMILES IDX 14 25 15 26 16 27 17 28 18 29 79 30 19 31 78 32 20 33 21 34
REMARK SMILES IDX 22 35 72 36 23 37 77 38 71 39 73 40 24 41 76 42 70 43 69 44
REMARK SMILES IDX 25 46 57 47 37 48 56 49 38 50 41 51 55 52 74 53 39 54 40 55
REMARK SMILES IDX 54 57 75 58 42 59 26 60 27 61 35 62 28 63 34 64 36 65 33 66
REMARK SMILES IDX 29 67 30 68 31 69 32 70 58 71 59 72 67 73 60 74 66 75 68 76
REMARK SMILES IDX 65 77 61 78 62 79 63 80 64 81 43 82 44 83 52 84 45 85 51 86
REMARK SMILES IDX 53 87 50 88 46 89 47 90 48 91 49 92
REMARK H PARENT 4 13 4 14 73 45 41 56
REMARK Flexibility Score: inf
ROOT
ATOM      1  O   UNL     1      -0.398  -1.381   0.500  1.00  0.00    -0.374 OA
ENDROOT
BRANCH   1   2
ATOM      2  C   UNL     1      -0.679  -0.188  -0.230  1.00  0.00     0.202 C 
BRANCH   2   3
ATOM      3  C   UNL     1       0.280   0.179  -1.368  1.00  0.00     0.261 C 
BRANCH   3   4
ATOM      4  O   UNL     1       0.347  -0.819  -2.402  1.00  0.00    -0.459 OA
BRANCH   4   5
ATOM      5  C   UNL     1       1.394  -1.673  -2.284  1.00  0.00     0.368 C 
ATOM      6  O   UNL     1       2.191  -1.669  -1.345  1.00  0.00    -0.245 OA
BRANCH   5   7
ATOM      7  C   UNL     1       1.552  -2.682  -3.459  1.00  0.00     0.196 C 
ATOM      8  C   UNL     1       1.379  -4.090  -2.846  1.00  0.00     0.084 C 
ATOM      9  C   UNL     1       0.464  -2.656  -4.551  1.00  0.00     0.113 C 
ATOM     10  C   UNL     1       0.977  -5.015  -3.980  1.00  0.00     0.039 C 
ATOM     11  C   UNL     1       0.222  -4.124  -4.960  1.00  0.00     0.126 C 
BRANCH   7  12
ATOM     12  N   UNL     1       2.929  -2.416  -3.920  1.00  0.00    -0.332 N 
ATOM     13  H   UNL     1       2.965  -1.423  -4.152  1.00  0.00     0.347 HD
ATOM     14  H   UNL     1       3.487  -2.763  -3.140  1.00  0.00     0.347 HD
BRANCH  12  15
ATOM     15  C   UNL     1       3.510  -3.114  -5.042  1.00  0.00     0.261 C 
BRANCH  15  16
ATOM     16  C   UNL     1       5.023  -2.850  -5.079  1.00  0.00     0.058 C 
ATOM     17  C   UNL     1       5.767  -3.466  -3.896  1.00  0.00     0.010 C 
ENDBRANCH  15  16
ENDBRANCH  12  15
ENDBRANCH   7  12
BRANCH  11  18
ATOM     18  O   UNL     1      -1.104  -4.519  -5.287  1.00  0.00    -0.372 OA
BRANCH  18  19
ATOM     19  C   UNL     1      -2.212  -4.657  -4.391  1.00  0.00     0.060 C 
ATOM     20  C   UNL     1      -2.037  -5.747  -3.328  1.00  0.00     0.042 C 
ATOM     21  C   UNL     1      -2.625  -3.345  -3.729  1.00  0.00     0.042 C 
ATOM     22  C   UNL     1      -3.374  -5.105  -5.301  1.00  0.00     0.042 C 
ENDBRANCH  18  19
ENDBRANCH  11  18
ENDBRANCH   5   7
ENDBRANCH   4   5
ENDBRANCH   3   4
ENDBRANCH   2   3
ENDBRANCH   1   2
BRANCH   1  23
ATOM     23  C   UNL     1      -0.827  -2.603  -0.099  1.00  0.00     0.202 C 
BRANCH  23  24
ATOM     24  C   UNL     1      -2.300  -2.975   0.088  1.00  0.00     0.261 C 
BRANCH  24  25
ATOM     25  O   UNL     1      -3.153  -2.116  -0.694  1.00  0.00    -0.460 OA
BRANCH  25  26
ATOM     26  C   UNL     1      -3.894  -1.236   0.019  1.00  0.00     0.338 C 
ATOM     27  O   UNL     1      -4.004  -1.189   1.236  1.00  0.00    -0.246 OA
BRANCH  26  28
ATOM     28  C   UNL     1      -4.394  -0.173  -0.876  1.00  0.00     0.060 A 
ATOM     29  C   UNL     1      -4.120   1.153  -0.518  1.00  0.00     0.016 A 
ATOM     30  C   UNL     1      -5.128  -0.455  -2.031  1.00  0.00     0.016 A 
ATOM     31  C   UNL     1      -4.604   2.204  -1.294  1.00  0.00     0.010 A 
ATOM     32  C   UNL     1      -5.626   0.603  -2.800  1.00  0.00     0.010 A 
ATOM     33  C   UNL     1      -5.386   1.938  -2.424  1.00  0.00    -0.014 A 
BRANCH  33  34
ATOM     34  C   UNL     1      -6.032   3.056  -3.157  1.00  0.00     0.031 A 
ATOM     35  C   UNL     1      -7.490   3.343  -2.918  1.00  0.00     0.074 A 
ATOM     36  C   UNL     1      -5.322   3.812  -4.015  1.00  0.00     0.049 A 
ATOM     37  N   UNL     1      -8.270   4.213  -3.505  1.00  0.00    -0.248 NA
ATOM     38  C   UNL     1      -8.156   2.542  -1.879  1.00  0.00     0.031 C 
ATOM     39  C   UNL     1      -3.890   3.669  -4.278  1.00  0.00     0.029 A 
ATOM     40  N   UNL     1      -5.710   4.846  -4.831  1.00  0.00    -0.354 N 
ATOM     41  C   UNL     1      -9.522   4.057  -2.920  1.00  0.00     0.074 A 
ATOM     42  C   UNL     1      -9.400   2.997  -1.942  1.00  0.00     0.031 C 
ATOM     43  C   UNL     1      -3.523   4.573  -5.202  1.00  0.00     0.029 A 
ATOM     44  C   UNL     1      -4.701   5.322  -5.638  1.00  0.00     0.049 A 
ATOM     45  H   UNL     1      -6.623   5.213  -4.839  1.00  0.00     0.167 HD
ATOM     46  C   UNL     1     -10.665   4.736  -3.181  1.00  0.00     0.034 A 
ATOM     47  C   UNL     1      -4.734   6.225  -6.640  1.00  0.00     0.034 A 
ATOM     48  C   UNL     1     -10.766   5.793  -4.157  1.00  0.00     0.049 A 
ATOM     49  C   UNL     1      -6.052   6.882  -6.986  1.00  0.00     0.074 A 
ATOM     50  C   UNL     1     -11.865   6.580  -4.460  1.00  0.00     0.029 A 
ATOM     51  N   UNL     1      -9.744   6.197  -5.004  1.00  0.00    -0.354 N 
ATOM     52  N   UNL     1      -7.221   6.749  -6.402  1.00  0.00    -0.248 NA
ATOM     53  C   UNL     1      -6.056   7.806  -8.129  1.00  0.00     0.031 C 
ATOM     54  C   UNL     1     -11.535   7.391  -5.550  1.00  0.00     0.029 A 
ATOM     55  C   UNL     1     -10.205   7.177  -5.871  1.00  0.00     0.049 A 
ATOM     56  H   UNL     1      -8.826   5.841  -4.992  1.00  0.00     0.167 HD
ATOM     57  C   UNL     1      -8.088   7.595  -7.091  1.00  0.00     0.074 A 
ATOM     58  C   UNL     1      -7.304   8.249  -8.117  1.00  0.00     0.031 C 
ATOM     59  C   UNL     1      -9.414   7.812  -6.897  1.00  0.00     0.034 A 
BRANCH  46  60
ATOM     60  C   UNL     1     -11.918   4.324  -2.450  1.00  0.00     0.023 A 
ATOM     61  C   UNL     1     -12.073   4.506  -1.066  1.00  0.00     0.031 A 
ATOM     62  C   UNL     1     -12.993   3.766  -3.168  1.00  0.00     0.131 A 
ATOM     63  C   UNL     1     -13.261   4.099  -0.438  1.00  0.00     0.055 A 
ATOM     64  C   UNL     1     -14.196   3.427  -2.549  1.00  0.00     0.041 A 
ATOM     65  F   UNL     1     -12.890   3.547  -4.488  1.00  0.00    -0.206 F 
ATOM     66  C   UNL     1     -14.333   3.587  -1.173  1.00  0.00     0.022 A 
BRANCH  63  67
ATOM     67  S   UNL     1     -13.353   4.157   1.373  1.00  0.00     0.124 S 
ATOM     68  O   UNL     1     -12.248   3.281   1.753  1.00  0.00    -0.237 OA
ATOM     69  O   UNL     1     -13.169   5.576   1.653  1.00  0.00    -0.237 OA
ATOM     70  O   UNL     1     -14.685   3.630   1.666  1.00  0.00    -0.744 OA
ENDBRANCH  63  67
ENDBRANCH  46  60
BRANCH  47  71
ATOM     71  C   UNL     1      -3.513   6.525  -7.446  1.00  0.00     0.023 A 
ATOM     72  C   UNL     1      -3.007   7.832  -7.532  1.00  0.00     0.031 A 
ATOM     73  C   UNL     1      -2.895   5.530  -8.226  1.00  0.00     0.131 A 
ATOM     74  C   UNL     1      -1.965   8.122  -8.427  1.00  0.00     0.055 A 
ATOM     75  C   UNL     1      -1.811   5.810  -9.060  1.00  0.00     0.041 A 
ATOM     76  F   UNL     1      -3.342   4.264  -8.195  1.00  0.00    -0.206 F 
ATOM     77  C   UNL     1      -1.352   7.118  -9.178  1.00  0.00     0.022 A 
BRANCH  74  78
ATOM     78  S   UNL     1      -1.514   9.859  -8.694  1.00  0.00     0.124 S 
ATOM     79  O   UNL     1      -2.792  10.436  -9.098  1.00  0.00    -0.237 OA
ATOM     80  O   UNL     1      -1.021  10.249  -7.378  1.00  0.00    -0.237 OA
ATOM     81  O   UNL     1      -0.500   9.789  -9.744  1.00  0.00    -0.744 OA
ENDBRANCH  74  78
ENDBRANCH  47  71
BRANCH  59  82
ATOM     82  C   UNL     1     -10.089   8.819  -7.796  1.00  0.00     0.023 A 
ATOM     83  C   UNL     1     -10.252   8.586  -9.173  1.00  0.00     0.031 A 
ATOM     84  C   UNL     1     -10.582  10.026  -7.268  1.00  0.00     0.131 A 
ATOM     85  C   UNL     1     -10.849   9.564  -9.982  1.00  0.00     0.055 A 
ATOM     86  C   UNL     1     -11.232  10.967  -8.066  1.00  0.00     0.041 A 
ATOM     87  F   UNL     1     -10.451  10.304  -5.960  1.00  0.00    -0.206 F 
ATOM     88  C   UNL     1     -11.358  10.744  -9.434  1.00  0.00     0.022 A 
BRANCH  85  89
ATOM     89  S   UNL     1     -10.882   9.308 -11.777  1.00  0.00     0.124 S 
ATOM     90  O   UNL     1      -9.461   9.224 -12.098  1.00  0.00    -0.237 OA
ATOM     91  O   UNL     1     -11.638   8.066 -11.903  1.00  0.00    -0.237 OA
ATOM     92  O   UNL     1     -11.562  10.499 -12.281  1.00  0.00    -0.744 OA
ENDBRANCH  85  89
ENDBRANCH  59  82
ENDBRANCH  33  34
ENDBRANCH  26  28
ENDBRANCH  25  26
ENDBRANCH  24  25
ENDBRANCH  23  24
ENDBRANCH   1  23
TORSDOF 22
