REMARK SMILES CC(C)C[C@H](NC(=O)[C@H](Cc1ccccc1)NC(=O)CNC(=O)CNC(=O)OCc1ccccc1)C(=O)OCCOCCOC(=O)c1ccc(-c2c3nc(c(-c4cc(S(=O)(=O)[O-])ccc4F)c4ccc([nH]4)c(-c4cc(S(=O)(=O)[O-])ccc4F)c4nc(c(-c5cc(S(=O)(=O)[O-])ccc5F)c5ccc2[nH]5)C=C4)C=C3)cc1
REMARK SMILES IDX 36 1 37 2 5 3 4 4 2 5 1 6 3 7 6 8 7 9 8 11 9 12 17 13 18 14
REMARK SMILES IDX 19 16 20 17 21 18 22 19 23 21 24 22 25 23 26 24 27 26 28 27
REMARK SMILES IDX 29 28 30 29 31 30 35 31 32 32 34 33 33 34 10 35 11 36 12 37
REMARK SMILES IDX 16 38 13 39 15 40 14 41 38 42 39 43 40 44 41 45 42 46 43 47
REMARK SMILES IDX 44 48 45 49 46 50 47 51 48 52 109 53 49 54 108 55 50 56
REMARK SMILES IDX 51 57 52 58 102 59 53 60 107 61 101 62 103 63 54 64 106 65
REMARK SMILES IDX 100 66 99 67 55 69 87 70 67 71 86 72 68 73 71 74 85 75
REMARK SMILES IDX 104 76 69 77 70 78 84 80 105 81 72 82 56 83 57 84 65 85
REMARK SMILES IDX 58 86 64 87 66 88 63 89 59 90 60 91 61 92 62 93 88 94 89 95
REMARK SMILES IDX 97 96 90 97 96 98 98 99 95 100 91 101 92 102 93 103 94 104
REMARK SMILES IDX 73 105 74 106 82 107 75 108 81 109 83 110 80 111 76 112
REMARK SMILES IDX 77 113 78 114 79 115
REMARK H PARENT 6 10 17 15 21 20 25 25 103 68 71 79
REMARK Flexibility Score: inf
ROOT
ATOM      1  C   UNL     1      -6.186  -3.457   2.125  1.00  0.00     0.328 C 
ATOM      2  O   UNL     1      -6.713  -3.021   1.090  1.00  0.00    -0.250 OA
ENDROOT
BRANCH   1   3
ATOM      3  C   UNL     1      -5.774  -2.370   3.250  1.00  0.00     0.192 C 
BRANCH   3   4
ATOM      4  C   UNL     1      -4.295  -1.966   4.180  1.00  0.00     0.040 C 
BRANCH   4   5
ATOM      5  C   UNL     1      -2.738  -0.986   3.989  1.00  0.00    -0.015 C 
ATOM      6  C   UNL     1      -1.644  -0.784   2.779  1.00  0.00     0.007 C 
ATOM      7  C   UNL     1      -2.651   0.444   4.585  1.00  0.00     0.007 C 
ENDBRANCH   4   5
ENDBRANCH   3   4
BRANCH   3   8
ATOM      8  N   UNL     1      -7.021  -2.175   4.076  1.00  0.00    -0.341 N 
ATOM      9  C   UNL     1      -8.104  -1.330   4.057  1.00  0.00     0.243 C 
ATOM     10  H   UNL     1      -7.072  -2.817   4.820  1.00  0.00     0.164 HD
ATOM     11  O   UNL     1      -9.038  -1.733   4.774  1.00  0.00    -0.273 OA
BRANCH   9  12
ATOM     12  C   UNL     1      -8.308   0.049   3.240  1.00  0.00     0.175 C 
BRANCH  12  13
ATOM     13  N   UNL     1      -8.460  -0.226   1.805  1.00  0.00    -0.342 N 
ATOM     14  C   UNL     1      -7.994   0.359   0.671  1.00  0.00     0.240 C 
ATOM     15  H   UNL     1      -9.027  -1.011   1.625  1.00  0.00     0.164 HD
ATOM     16  O   UNL     1      -8.413  -0.112  -0.396  1.00  0.00    -0.273 OA
BRANCH  14  17
ATOM     17  C   UNL     1      -6.915   1.463   0.597  1.00  0.00     0.216 C 
BRANCH  17  18
ATOM     18  N   UNL     1      -6.916   2.648   1.443  1.00  0.00    -0.346 N 
ATOM     19  C   UNL     1      -5.840   3.394   1.842  1.00  0.00     0.239 C 
ATOM     20  H   UNL     1      -7.796   2.949   1.766  1.00  0.00     0.164 HD
ATOM     21  O   UNL     1      -6.040   4.531   2.276  1.00  0.00    -0.273 OA
BRANCH  19  22
ATOM     22  C   UNL     1      -4.426   2.795   1.779  1.00  0.00     0.219 C 
BRANCH  22  23
ATOM     23  N   UNL     1      -4.504   1.650   2.625  1.00  0.00    -0.312 N 
ATOM     24  C   UNL     1      -4.635   0.323   2.473  1.00  0.00     0.407 C 
ATOM     25  H   UNL     1      -4.447   1.900   3.575  1.00  0.00     0.167 HD
ATOM     26  O   UNL     1      -5.411   0.010   3.385  1.00  0.00    -0.225 OA
BRANCH  24  27
ATOM     27  O   UNL     1      -3.911  -0.451   1.589  1.00  0.00    -0.445 OA
BRANCH  27  28
ATOM     28  C   UNL     1      -3.553  -2.037   1.224  1.00  0.00     0.270 C 
BRANCH  28  29
ATOM     29  C   UNL     1      -3.012  -3.375   2.061  1.00  0.00    -0.011 A 
ATOM     30  C   UNL     1      -3.396  -4.629   1.608  1.00  0.00     0.007 A 
ATOM     31  C   UNL     1      -2.118  -3.546   3.148  1.00  0.00     0.007 A 
ATOM     32  C   UNL     1      -3.370  -5.784   2.449  1.00  0.00     0.000 A 
ATOM     33  C   UNL     1      -2.140  -4.631   4.048  1.00  0.00     0.000 A 
ATOM     34  C   UNL     1      -2.886  -5.728   3.739  1.00  0.00     0.000 A 
ENDBRANCH  28  29
ENDBRANCH  27  28
ENDBRANCH  24  27
ENDBRANCH  22  23
ENDBRANCH  19  22
ENDBRANCH  17  18
ENDBRANCH  14  17
ENDBRANCH  12  13
BRANCH  12  35
ATOM     35  C   UNL     1      -9.626   0.737   3.832  1.00  0.00     0.070 C 
BRANCH  35  36
ATOM     36  C   UNL     1     -10.228   2.062   3.356  1.00  0.00    -0.045 A 
ATOM     37  C   UNL     1     -10.077   2.588   2.075  1.00  0.00     0.004 A 
ATOM     38  C   UNL     1     -11.100   2.766   4.213  1.00  0.00     0.004 A 
ATOM     39  C   UNL     1     -10.622   3.823   1.697  1.00  0.00     0.000 A 
ATOM     40  C   UNL     1     -11.707   3.972   3.823  1.00  0.00     0.000 A 
ATOM     41  C   UNL     1     -11.440   4.519   2.574  1.00  0.00     0.000 A 
ENDBRANCH  35  36
ENDBRANCH  12  35
ENDBRANCH   9  12
ENDBRANCH   3   8
ENDBRANCH   1   3
BRANCH   1  42
ATOM     42  O   UNL     1      -6.093  -4.806   2.305  1.00  0.00    -0.462 OA
BRANCH  42  43
ATOM     43  C   UNL     1      -6.240  -5.613   1.061  1.00  0.00     0.261 C 
BRANCH  43  44
ATOM     44  C   UNL     1      -7.070  -6.896   1.110  1.00  0.00     0.202 C 
BRANCH  44  45
ATOM     45  O   UNL     1      -8.469  -6.743   0.933  1.00  0.00    -0.374 OA
BRANCH  45  46
ATOM     46  C   UNL     1      -9.058  -5.655   1.623  1.00  0.00     0.202 C 
BRANCH  46  47
ATOM     47  C   UNL     1      -9.196  -5.814   3.143  1.00  0.00     0.261 C 
BRANCH  47  48
ATOM     48  O   UNL     1      -7.983  -6.109   3.869  1.00  0.00    -0.460 OA
BRANCH  48  49
ATOM     49  C   UNL     1      -7.800  -7.421   4.180  1.00  0.00     0.338 C 
ATOM     50  O   UNL     1      -8.496  -8.354   3.822  1.00  0.00    -0.246 OA
BRANCH  49  51
ATOM     51  C   UNL     1      -6.566  -7.623   4.976  1.00  0.00     0.060 A 
ATOM     52  C   UNL     1      -5.563  -8.475   4.490  1.00  0.00     0.016 A 
ATOM     53  C   UNL     1      -6.501  -7.148   6.286  1.00  0.00     0.016 A 
ATOM     54  C   UNL     1      -4.521  -8.892   5.332  1.00  0.00     0.010 A 
ATOM     55  C   UNL     1      -5.463  -7.575   7.129  1.00  0.00     0.010 A 
ATOM     56  C   UNL     1      -4.489  -8.484   6.673  1.00  0.00    -0.014 A 
BRANCH  56  57
ATOM     57  C   UNL     1      -3.587  -9.165   7.648  1.00  0.00     0.031 A 
ATOM     58  C   UNL     1      -4.148 -10.289   8.483  1.00  0.00     0.074 A 
ATOM     59  C   UNL     1      -2.294  -8.817   7.796  1.00  0.00     0.049 A 
ATOM     60  N   UNL     1      -3.576 -10.992   9.427  1.00  0.00    -0.248 NA
ATOM     61  C   UNL     1      -5.544 -10.664   8.214  1.00  0.00     0.031 C 
ATOM     62  C   UNL     1      -1.605  -7.790   7.022  1.00  0.00     0.029 A 
ATOM     63  N   UNL     1      -1.328  -9.285   8.656  1.00  0.00    -0.354 N 
ATOM     64  C   UNL     1      -4.538 -11.899   9.861  1.00  0.00     0.074 A 
ATOM     65  C   UNL     1      -5.744 -11.620   9.109  1.00  0.00     0.031 C 
ATOM     66  C   UNL     1      -0.334  -7.693   7.447  1.00  0.00     0.029 A 
ATOM     67  C   UNL     1      -0.125  -8.623   8.555  1.00  0.00     0.049 A 
ATOM     68  H   UNL     1      -1.483 -10.025   9.287  1.00  0.00     0.167 HD
ATOM     69  C   UNL     1      -4.426 -12.884  10.788  1.00  0.00     0.034 A 
ATOM     70  C   UNL     1       1.007  -8.730   9.283  1.00  0.00     0.034 A 
ATOM     71  C   UNL     1      -3.229 -13.139  11.553  1.00  0.00     0.049 A 
ATOM     72  C   UNL     1       1.072  -9.753  10.394  1.00  0.00     0.074 A 
ATOM     73  C   UNL     1      -3.012 -14.112  12.514  1.00  0.00     0.029 A 
ATOM     74  N   UNL     1      -2.051 -12.409  11.460  1.00  0.00    -0.354 N 
ATOM     75  N   UNL     1       0.158 -10.613  10.781  1.00  0.00    -0.248 NA
ATOM     76  C   UNL     1       2.327  -9.829  11.155  1.00  0.00     0.031 C 
ATOM     77  C   UNL     1      -1.738 -13.918  13.059  1.00  0.00     0.029 A 
ATOM     78  C   UNL     1      -1.121 -12.885  12.373  1.00  0.00     0.049 A 
ATOM     79  H   UNL     1      -1.899 -11.662  10.837  1.00  0.00     0.167 HD
ATOM     80  C   UNL     1       0.747 -11.359  11.800  1.00  0.00     0.074 A 
ATOM     81  C   UNL     1       2.094 -10.856  11.958  1.00  0.00     0.031 C 
ATOM     82  C   UNL     1       0.222 -12.375  12.533  1.00  0.00     0.034 A 
BRANCH  69  83
ATOM     83  C   UNL     1      -5.652 -13.724  11.056  1.00  0.00     0.023 A 
ATOM     84  C   UNL     1      -6.221 -14.539  10.061  1.00  0.00     0.031 A 
ATOM     85  C   UNL     1      -6.278 -13.691  12.315  1.00  0.00     0.131 A 
ATOM     86  C   UNL     1      -7.417 -15.226  10.316  1.00  0.00     0.055 A 
ATOM     87  C   UNL     1      -7.421 -14.445  12.589  1.00  0.00     0.041 A 
ATOM     88  F   UNL     1      -5.795 -12.916  13.298  1.00  0.00    -0.206 F 
ATOM     89  C   UNL     1      -8.007 -15.206  11.582  1.00  0.00     0.022 A 
BRANCH  86  90
ATOM     90  S   UNL     1      -8.272 -16.021   8.929  1.00  0.00     0.124 S 
ATOM     91  O   UNL     1      -8.476 -14.893   8.023  1.00  0.00    -0.237 OA
ATOM     92  O   UNL     1      -7.305 -17.023   8.495  1.00  0.00    -0.237 OA
ATOM     93  O   UNL     1      -9.491 -16.552   9.536  1.00  0.00    -0.744 OA
ENDBRANCH  86  90
ENDBRANCH  69  83
BRANCH  70  94
ATOM     94  C   UNL     1       2.169  -7.826   9.025  1.00  0.00     0.023 A 
ATOM     95  C   UNL     1       3.418  -8.338   8.636  1.00  0.00     0.031 A 
ATOM     96  C   UNL     1       2.067  -6.439   9.241  1.00  0.00     0.131 A 
ATOM     97  C   UNL     1       4.525  -7.480   8.531  1.00  0.00     0.055 A 
ATOM     98  C   UNL     1       3.157  -5.582   9.076  1.00  0.00     0.041 A 
ATOM     99  F   UNL     1       0.899  -5.894   9.617  1.00  0.00    -0.206 F 
ATOM    100  C   UNL     1       4.400  -6.104   8.734  1.00  0.00     0.022 A 
BRANCH  97 101
ATOM    101  S   UNL     1       6.161  -8.206   8.230  1.00  0.00     0.124 S 
ATOM    102  O   UNL     1       6.292  -9.120   9.359  1.00  0.00    -0.237 OA
ATOM    103  O   UNL     1       5.981  -8.823   6.921  1.00  0.00    -0.237 OA
ATOM    104  O   UNL     1       7.055  -7.050   8.254  1.00  0.00    -0.744 OA
ENDBRANCH  97 101
ENDBRANCH  70  94
BRANCH  82 105
ATOM    105  C   UNL     1       1.131 -13.051  13.534  1.00  0.00     0.023 A 
ATOM    106  C   UNL     1       1.642 -12.372  14.654  1.00  0.00     0.031 A 
ATOM    107  C   UNL     1       1.500 -14.397  13.356  1.00  0.00     0.131 A 
ATOM    108  C   UNL     1       2.542 -13.020  15.516  1.00  0.00     0.055 A 
ATOM    109  C   UNL     1       2.339 -15.057  14.255  1.00  0.00     0.041 A 
ATOM    110  F   UNL     1       1.049 -15.096  12.302  1.00  0.00    -0.206 F 
ATOM    111  C   UNL     1       2.877 -14.364  15.334  1.00  0.00     0.022 A 
BRANCH 108 112
ATOM    112  S   UNL     1       3.354 -12.052  16.817  1.00  0.00     0.124 S 
ATOM    113  O   UNL     1       4.010 -11.000  16.047  1.00  0.00    -0.237 OA
ATOM    114  O   UNL     1       2.226 -11.629  17.642  1.00  0.00    -0.237 OA
ATOM    115  O   UNL     1       4.256 -13.013  17.448  1.00  0.00    -0.744 OA
ENDBRANCH 108 112
ENDBRANCH  82 105
ENDBRANCH  56  57
ENDBRANCH  49  51
ENDBRANCH  48  49
ENDBRANCH  47  48
ENDBRANCH  46  47
ENDBRANCH  45  46
ENDBRANCH  44  45
ENDBRANCH  43  44
ENDBRANCH  42  43
ENDBRANCH   1  42
TORSDOF 31
