REMARK SMILES C[NH+](C)CCCNC(=O)[C@@H]1[C@@H](C(=O)OCCOCCOC(=O)c2ccc(-c3c4nc(c(-c5cc(S(=O)(=O)[O-])ccc5F)c5ccc([nH]5)c(-c5cc(S(=O)(=O)[O-])ccc5F)c5nc(c(-c6cc(S(=O)(=O)[O-])ccc6F)c6ccc3[nH]6)C=C5)C=C4)cc2)C1(C)C
REMARK SMILES IDX 16 1 15 2 14 3 12 4 13 5 11 6 10 7 86 8 87 9 88 10 8 11 7 12
REMARK SMILES IDX 9 14 6 15 5 16 4 17 2 18 1 19 3 20 17 22 18 23 19 24 20 25
REMARK SMILES IDX 21 26 22 27 23 28 24 29 85 30 25 31 84 32 26 33 27 34 28 35
REMARK SMILES IDX 78 36 29 37 83 38 77 39 79 40 30 41 82 42 76 43 75 44 31 46
REMARK SMILES IDX 63 47 43 48 62 49 44 50 47 51 61 52 80 53 45 54 46 55 60 57
REMARK SMILES IDX 81 58 48 59 32 60 33 61 41 62 34 63 40 64 42 65 39 66 35 67
REMARK SMILES IDX 36 68 37 69 38 70 64 71 65 72 73 73 66 74 72 75 74 76 71 77
REMARK SMILES IDX 67 78 68 79 69 80 70 81 49 82 50 83 58 84 51 85 57 86 59 87
REMARK SMILES IDX 56 88 52 89 53 90 54 91 55 92
REMARK H PARENT 7 13 2 21 79 45 47 56
REMARK Flexibility Score: inf
ROOT
ATOM      1  C   UNL     1      -1.645  -1.934   2.121  1.00  0.00     0.202 C 
ENDROOT
BRANCH   1   2
ATOM      2  C   UNL     1      -0.154  -2.183   2.357  1.00  0.00     0.261 C 
BRANCH   2   3
ATOM      3  O   UNL     1       0.429  -2.922   1.275  1.00  0.00    -0.463 OA
BRANCH   3   4
ATOM      4  C   UNL     1       0.882  -4.152   1.613  1.00  0.00     0.310 C 
ATOM      5  O   UNL     1       1.010  -4.583   2.750  1.00  0.00    -0.252 OA
BRANCH   4   6
ATOM      6  C   UNL     1       1.193  -5.027   0.462  1.00  0.00     0.118 C 
ATOM      7  C   UNL     1       2.502  -4.711  -0.231  1.00  0.00     0.100 C 
ATOM      8  C   UNL     1       1.240  -4.829  -1.049  1.00  0.00    -0.009 C 
ATOM      9  C   UNL     1       0.839  -3.550  -1.748  1.00  0.00     0.013 C 
ATOM     10  C   UNL     1       1.046  -6.054  -1.917  1.00  0.00     0.013 C 
BRANCH   7  11
ATOM     11  C   UNL     1       3.577  -5.701  -0.007  1.00  0.00     0.224 C 
ATOM     12  N   UNL     1       4.716  -5.255   0.610  1.00  0.00    -0.356 N 
ATOM     13  H   UNL     1       5.376  -5.942   0.856  1.00  0.00     0.163 HD
ATOM     14  O   UNL     1       3.439  -6.884  -0.297  1.00  0.00    -0.275 OA
BRANCH  12  15
ATOM     15  C   UNL     1       5.063  -3.882   0.943  1.00  0.00     0.121 C 
BRANCH  15  16
ATOM     16  C   UNL     1       5.950  -3.741   2.167  1.00  0.00     0.083 C 
BRANCH  16  17
ATOM     17  C   UNL     1       7.299  -4.464   2.133  1.00  0.00     0.263 C 
BRANCH  17  18
ATOM     18  N   UNL     1       8.304  -4.080   1.140  1.00  0.00    -0.340 N 
ATOM     19  C   UNL     1       8.095  -4.634  -0.190  1.00  0.00     0.332 C 
ATOM     20  C   UNL     1       8.564  -2.645   1.091  1.00  0.00     0.332 C 
ATOM     21  H   UNL     1       9.153  -4.524   1.490  1.00  0.00     0.347 HD
ENDBRANCH  17  18
ENDBRANCH  16  17
ENDBRANCH  15  16
ENDBRANCH  12  15
ENDBRANCH   7  11
ENDBRANCH   4   6
ENDBRANCH   3   4
ENDBRANCH   2   3
ENDBRANCH   1   2
BRANCH   1  22
ATOM     22  O   UNL     1      -2.474  -3.067   1.871  1.00  0.00    -0.374 OA
BRANCH  22  23
ATOM     23  C   UNL     1      -2.343  -3.754   0.628  1.00  0.00     0.202 C 
BRANCH  23  24
ATOM     24  C   UNL     1      -2.767  -3.046  -0.666  1.00  0.00     0.261 C 
BRANCH  24  25
ATOM     25  O   UNL     1      -2.053  -1.827  -0.930  1.00  0.00    -0.460 OA
BRANCH  25  26
ATOM     26  C   UNL     1      -2.802  -0.703  -0.781  1.00  0.00     0.338 C 
ATOM     27  O   UNL     1      -3.980  -0.646  -0.472  1.00  0.00    -0.246 OA
BRANCH  26  28
ATOM     28  C   UNL     1      -1.948   0.497  -0.861  1.00  0.00     0.060 A 
ATOM     29  C   UNL     1      -1.984   1.391   0.218  1.00  0.00     0.016 A 
ATOM     30  C   UNL     1      -1.212   0.796  -2.007  1.00  0.00     0.016 A 
ATOM     31  C   UNL     1      -1.325   2.615   0.134  1.00  0.00     0.010 A 
ATOM     32  C   UNL     1      -0.558   2.031  -2.094  1.00  0.00     0.010 A 
ATOM     33  C   UNL     1      -0.644   2.961  -1.040  1.00  0.00    -0.014 A 
BRANCH  33  34
ATOM     34  C   UNL     1      -0.170   4.355  -1.231  1.00  0.00     0.031 A 
ATOM     35  C   UNL     1      -0.984   5.285  -2.091  1.00  0.00     0.074 A 
ATOM     36  C   UNL     1       0.949   4.795  -0.628  1.00  0.00     0.049 A 
ATOM     37  N   UNL     1      -0.729   6.512  -2.462  1.00  0.00    -0.248 NA
ATOM     38  C   UNL     1      -2.256   4.751  -2.603  1.00  0.00     0.031 C 
ATOM     39  C   UNL     1       1.784   4.007   0.277  1.00  0.00     0.029 A 
ATOM     40  N   UNL     1       1.579   6.013  -0.693  1.00  0.00    -0.354 N 
ATOM     41  C   UNL     1      -1.801   6.896  -3.262  1.00  0.00     0.074 A 
ATOM     42  C   UNL     1      -2.689   5.756  -3.349  1.00  0.00     0.031 C 
ATOM     43  C   UNL     1       2.825   4.760   0.674  1.00  0.00     0.029 A 
ATOM     44  C   UNL     1       2.757   6.063   0.015  1.00  0.00     0.049 A 
ATOM     45  H   UNL     1       1.221   6.778  -1.199  1.00  0.00     0.167 HD
ATOM     46  C   UNL     1      -2.026   8.092  -3.861  1.00  0.00     0.034 A 
ATOM     47  C   UNL     1       3.687   7.037   0.095  1.00  0.00     0.034 A 
ATOM     48  C   UNL     1      -1.126   9.216  -3.768  1.00  0.00     0.049 A 
ATOM     49  C   UNL     1       3.463   8.327  -0.659  1.00  0.00     0.074 A 
ATOM     50  C   UNL     1      -1.258  10.474  -4.328  1.00  0.00     0.029 A 
ATOM     51  N   UNL     1       0.080   9.214  -3.078  1.00  0.00    -0.354 N 
ATOM     52  N   UNL     1       2.451   8.677  -1.419  1.00  0.00    -0.248 NA
ATOM     53  C   UNL     1       4.504   9.357  -0.537  1.00  0.00     0.031 C 
ATOM     54  C   UNL     1      -0.100  11.205  -4.044  1.00  0.00     0.029 A 
ATOM     55  C   UNL     1       0.716  10.438  -3.228  1.00  0.00     0.049 A 
ATOM     56  H   UNL     1       0.432   8.456  -2.558  1.00  0.00     0.167 HD
ATOM     57  C   UNL     1       2.716   9.982  -1.830  1.00  0.00     0.074 A 
ATOM     58  C   UNL     1       3.978  10.357  -1.230  1.00  0.00     0.031 C 
ATOM     59  C   UNL     1       1.977  10.800  -2.623  1.00  0.00     0.034 A 
BRANCH  46  60
ATOM     60  C   UNL     1      -3.266   8.221  -4.713  1.00  0.00     0.023 A 
ATOM     61  C   UNL     1      -4.558   8.112  -4.169  1.00  0.00     0.031 A 
ATOM     62  C   UNL     1      -3.153   8.430  -6.100  1.00  0.00     0.131 A 
ATOM     63  C   UNL     1      -5.678   8.142  -5.014  1.00  0.00     0.055 A 
ATOM     64  C   UNL     1      -4.274   8.543  -6.923  1.00  0.00     0.041 A 
ATOM     65  F   UNL     1      -1.946   8.517  -6.681  1.00  0.00    -0.206 F 
ATOM     66  C   UNL     1      -5.547   8.384  -6.383  1.00  0.00     0.022 A 
BRANCH  63  67
ATOM     67  S   UNL     1      -7.298   7.712  -4.321  1.00  0.00     0.124 S 
ATOM     68  O   UNL     1      -7.050   6.368  -3.804  1.00  0.00    -0.237 OA
ATOM     69  O   UNL     1      -7.500   8.754  -3.321  1.00  0.00    -0.237 OA
ATOM     70  O   UNL     1      -8.192   7.772  -5.475  1.00  0.00    -0.744 OA
ENDBRANCH  63  67
ENDBRANCH  46  60
BRANCH  47  71
ATOM     71  C   UNL     1       4.938   6.824   0.880  1.00  0.00     0.023 A 
ATOM     72  C   UNL     1       5.250   7.633   1.984  1.00  0.00     0.031 A 
ATOM     73  C   UNL     1       5.874   5.846   0.495  1.00  0.00     0.131 A 
ATOM     74  C   UNL     1       6.486   7.484   2.633  1.00  0.00     0.055 A 
ATOM     75  C   UNL     1       7.075   5.662   1.181  1.00  0.00     0.041 A 
ATOM     76  F   UNL     1       5.629   5.046  -0.555  1.00  0.00    -0.206 F 
ATOM     77  C   UNL     1       7.394   6.495   2.249  1.00  0.00     0.022 A 
BRANCH  74  78
ATOM     78  S   UNL     1       6.933   8.671   3.930  1.00  0.00     0.124 S 
ATOM     79  O   UNL     1       6.858   9.937   3.210  1.00  0.00    -0.237 OA
ATOM     80  O   UNL     1       5.894   8.435   4.926  1.00  0.00    -0.237 OA
ATOM     81  O   UNL     1       8.278   8.253   4.322  1.00  0.00    -0.744 OA
ENDBRANCH  74  78
ENDBRANCH  47  71
BRANCH  59  82
ATOM     82  C   UNL     1       2.482  12.209  -2.830  1.00  0.00     0.023 A 
ATOM     83  C   UNL     1       3.666  12.483  -3.537  1.00  0.00     0.031 A 
ATOM     84  C   UNL     1       1.756  13.297  -2.312  1.00  0.00     0.131 A 
ATOM     85  C   UNL     1       4.114  13.807  -3.662  1.00  0.00     0.055 A 
ATOM     86  C   UNL     1       2.173  14.616  -2.495  1.00  0.00     0.041 A 
ATOM     87  F   UNL     1       0.619  13.095  -1.626  1.00  0.00    -0.206 F 
ATOM     88  C   UNL     1       3.366  14.876  -3.163  1.00  0.00     0.022 A 
BRANCH  85  89
ATOM     89  S   UNL     1       5.738  14.112  -4.412  1.00  0.00     0.124 S 
ATOM     90  O   UNL     1       6.623  13.342  -3.543  1.00  0.00    -0.237 OA
ATOM     91  O   UNL     1       5.561  13.592  -5.763  1.00  0.00    -0.237 OA
ATOM     92  O   UNL     1       5.891  15.564  -4.322  1.00  0.00    -0.744 OA
ENDBRANCH  85  89
ENDBRANCH  59  82
ENDBRANCH  33  34
ENDBRANCH  26  28
ENDBRANCH  25  26
ENDBRANCH  24  25
ENDBRANCH  23  24
ENDBRANCH  22  23
ENDBRANCH   1  22
TORSDOF 22
