REMARK SMILES CS(=O)(=O)c1ccc(/C=C(/C(=O)OCCOCCOC(=O)c2ccc(-c3c4nc(c(-c5cc(S(=O)(=O)[O-])ccc5F)c5ccc([nH]5)c(-c5cc(S(=O)(=O)[O-])ccc5F)c5nc(c(-c6cc(S(=O)(=O)[O-])ccc6F)c6ccc3[nH]6)C=C5)C=C4)cc2)c2cccc(Br)c2)cc1
REMARK SMILES IDX 17 1 16 2 15 3 14 4 13 5 11 6 12 7 10 8 9 9 8 10 5 11 6 12
REMARK SMILES IDX 93 13 7 14 92 15 2 16 1 17 3 18 4 19 85 20 86 21 91 22 87 23
REMARK SMILES IDX 89 24 88 25 90 26 18 27 19 28 20 29 21 30 22 31 23 32 84 33
REMARK SMILES IDX 24 34 83 35 25 36 26 37 27 38 77 39 28 40 82 41 76 42 78 43
REMARK SMILES IDX 29 44 81 45 75 46 74 47 30 49 62 50 42 51 61 52 43 53 46 54
REMARK SMILES IDX 60 55 79 56 44 57 45 58 59 60 80 61 47 62 31 63 32 64 40 65
REMARK SMILES IDX 33 66 39 67 41 68 38 69 34 70 35 71 36 72 37 73 63 74 64 75
REMARK SMILES IDX 72 76 65 77 71 78 73 79 70 80 66 81 67 82 68 83 69 84 48 85
REMARK SMILES IDX 49 86 57 87 50 88 56 89 58 90 55 91 51 92 52 93 53 94 54 95
REMARK H PARENT 78 48 46 59
REMARK Flexibility Score: inf
ROOT
ATOM      1  C   UNL     1       4.365  -6.830  -7.830  1.00  0.00     0.202 C 
ENDROOT
BRANCH   1   2
ATOM      2  O   UNL     1       4.035  -6.981  -9.207  1.00  0.00    -0.374 OA
BRANCH   2   3
ATOM      3  C   UNL     1       3.893  -5.800  -9.995  1.00  0.00     0.202 C 
BRANCH   3   4
ATOM      4  C   UNL     1       2.647  -4.937  -9.776  1.00  0.00     0.261 C 
BRANCH   4   5
ATOM      5  O   UNL     1       2.529  -4.487  -8.415  1.00  0.00    -0.460 OA
BRANCH   5   6
ATOM      6  C   UNL     1       1.456  -4.989  -7.750  1.00  0.00     0.338 C 
ATOM      7  O   UNL     1       0.554  -5.647  -8.250  1.00  0.00    -0.246 OA
BRANCH   6   8
ATOM      8  C   UNL     1       1.540  -4.759  -6.269  1.00  0.00     0.067 C 
ATOM      9  C   UNL     1       2.111  -3.635  -5.772  1.00  0.00     0.024 C 
BRANCH   9  10
ATOM     10  C   UNL     1       2.034  -3.128  -4.378  1.00  0.00    -0.025 A 
ATOM     11  C   UNL     1       1.285  -2.077  -1.882  1.00  0.00     0.067 A 
ATOM     12  C   UNL     1       1.574  -3.436  -2.007  1.00  0.00     0.021 A 
ATOM     13  C   UNL     1       1.500  -1.214  -2.955  1.00  0.00     0.021 A 
ATOM     14  C   UNL     1       1.985  -3.946  -3.242  1.00  0.00     0.009 A 
ATOM     15  C   UNL     1       1.877  -1.743  -4.197  1.00  0.00     0.009 A 
BRANCH  11  16
ATOM     16  S   UNL     1       0.552  -1.507  -0.368  1.00  0.00     0.175 S 
ATOM     17  C   UNL     1       1.181   0.120  -0.079  1.00  0.00     0.163 C 
ATOM     18  O   UNL     1       1.059  -2.352   0.698  1.00  0.00    -0.224 OA
ATOM     19  O   UNL     1      -0.873  -1.398  -0.616  1.00  0.00    -0.224 OA
ENDBRANCH  11  16
ENDBRANCH   9  10
BRANCH   8  20
ATOM     20  C   UNL     1       0.899  -5.796  -5.434  1.00  0.00    -0.010 A 
ATOM     21  C   UNL     1       1.572  -7.011  -5.213  1.00  0.00     0.009 A 
ATOM     22  C   UNL     1      -0.348  -5.585  -4.840  1.00  0.00     0.024 A 
ATOM     23  C   UNL     1       1.017  -7.994  -4.396  1.00  0.00     0.002 A 
ATOM     24  C   UNL     1      -0.890  -6.568  -4.011  1.00  0.00     0.018 A 
ATOM     25  C   UNL     1      -0.215  -7.769  -3.788  1.00  0.00     0.016 A 
ATOM     26  Br  UNL     1      -2.545  -6.256  -3.155  1.00  0.00    -0.051 Br
ENDBRANCH   8  20
ENDBRANCH   6   8
ENDBRANCH   5   6
ENDBRANCH   4   5
ENDBRANCH   3   4
ENDBRANCH   2   3
ENDBRANCH   1   2
BRANCH   1  27
ATOM     27  C   UNL     1       5.792  -6.425  -7.445  1.00  0.00     0.261 C 
BRANCH  27  28
ATOM     28  O   UNL     1       6.180  -5.149  -7.972  1.00  0.00    -0.460 OA
BRANCH  28  29
ATOM     29  C   UNL     1       7.025  -5.217  -9.030  1.00  0.00     0.338 C 
ATOM     30  O   UNL     1       7.491  -6.229  -9.536  1.00  0.00    -0.246 OA
BRANCH  29  31
ATOM     31  C   UNL     1       7.160  -3.881  -9.633  1.00  0.00     0.060 A 
ATOM     32  C   UNL     1       6.881  -3.743 -11.000  1.00  0.00     0.016 A 
ATOM     33  C   UNL     1       7.605  -2.794  -8.880  1.00  0.00     0.016 A 
ATOM     34  C   UNL     1       7.089  -2.521 -11.633  1.00  0.00     0.010 A 
ATOM     35  C   UNL     1       7.826  -1.574  -9.519  1.00  0.00     0.010 A 
ATOM     36  C   UNL     1       7.602  -1.443 -10.903  1.00  0.00    -0.014 A 
BRANCH  36  37
ATOM     37  C   UNL     1       8.092  -0.232 -11.602  1.00  0.00     0.031 A 
ATOM     38  C   UNL     1       9.574  -0.086 -11.810  1.00  0.00     0.074 A 
ATOM     39  C   UNL     1       7.243   0.723 -12.018  1.00  0.00     0.049 A 
ATOM     40  N   UNL     1      10.257   0.944 -12.233  1.00  0.00    -0.248 NA
ATOM     41  C   UNL     1      10.393  -1.262 -11.479  1.00  0.00     0.031 C 
ATOM     42  C   UNL     1       5.786   0.654 -11.929  1.00  0.00     0.029 A 
ATOM     43  N   UNL     1       7.490   1.949 -12.582  1.00  0.00    -0.354 N 
ATOM     44  C   UNL     1      11.590   0.550 -12.199  1.00  0.00     0.074 A 
ATOM     45  C   UNL     1      11.618  -0.802 -11.684  1.00  0.00     0.031 C 
ATOM     46  C   UNL     1       5.268   1.802 -12.399  1.00  0.00     0.029 A 
ATOM     47  C   UNL     1       6.357   2.704 -12.770  1.00  0.00     0.049 A 
ATOM     48  H   UNL     1       8.392   2.258 -12.827  1.00  0.00     0.167 HD
ATOM     49  C   UNL     1      12.688   1.255 -12.566  1.00  0.00     0.034 A 
ATOM     50  C   UNL     1       6.222   3.990 -13.156  1.00  0.00     0.034 A 
ATOM     51  C   UNL     1      12.633   2.606 -13.069  1.00  0.00     0.049 A 
ATOM     52  C   UNL     1       7.465   4.792 -13.470  1.00  0.00     0.074 A 
ATOM     53  C   UNL     1      13.677   3.417 -13.476  1.00  0.00     0.029 A 
ATOM     54  N   UNL     1      11.469   3.349 -13.223  1.00  0.00    -0.354 N 
ATOM     55  N   UNL     1       8.724   4.421 -13.417  1.00  0.00    -0.248 NA
ATOM     56  C   UNL     1       7.268   6.183 -13.900  1.00  0.00     0.031 C 
ATOM     57  C   UNL     1      13.153   4.673 -13.800  1.00  0.00     0.029 A 
ATOM     58  C   UNL     1      11.773   4.618 -13.689  1.00  0.00     0.049 A 
ATOM     59  H   UNL     1      10.560   3.022 -13.030  1.00  0.00     0.167 HD
ATOM     60  C   UNL     1       9.464   5.518 -13.853  1.00  0.00     0.074 A 
ATOM     61  C   UNL     1       8.510   6.564 -14.161  1.00  0.00     0.031 C 
ATOM     62  C   UNL     1      10.807   5.647 -13.999  1.00  0.00     0.034 A 
BRANCH  49  63
ATOM     63  C   UNL     1      14.033   0.598 -12.375  1.00  0.00     0.023 A 
ATOM     64  C   UNL     1      14.392  -0.574 -13.063  1.00  0.00     0.031 A 
ATOM     65  C   UNL     1      14.959   1.134 -11.463  1.00  0.00     0.131 A 
ATOM     66  C   UNL     1      15.608  -1.211 -12.773  1.00  0.00     0.055 A 
ATOM     67  C   UNL     1      16.205   0.543 -11.243  1.00  0.00     0.041 A 
ATOM     68  F   UNL     1      14.663   2.235 -10.755  1.00  0.00    -0.206 F 
ATOM     69  C   UNL     1      16.529  -0.646 -11.889  1.00  0.00     0.022 A 
BRANCH  66  70
ATOM     70  S   UNL     1      15.901  -2.868 -13.451  1.00  0.00     0.124 S 
ATOM     71  O   UNL     1      14.764  -3.611 -12.913  1.00  0.00    -0.237 OA
ATOM     72  O   UNL     1      15.885  -2.628 -14.889  1.00  0.00    -0.237 OA
ATOM     73  O   UNL     1      17.199  -3.242 -12.894  1.00  0.00    -0.744 OA
ENDBRANCH  66  70
ENDBRANCH  49  63
BRANCH  50  74
ATOM     74  C   UNL     1       4.872   4.621 -13.224  1.00  0.00     0.023 A 
ATOM     75  C   UNL     1       4.359   5.102 -14.438  1.00  0.00     0.031 A 
ATOM     76  C   UNL     1       4.098   4.804 -12.063  1.00  0.00     0.131 A 
ATOM     77  C   UNL     1       3.134   5.786 -14.457  1.00  0.00     0.055 A 
ATOM     78  C   UNL     1       2.852   5.432 -12.098  1.00  0.00     0.041 A 
ATOM     79  F   UNL     1       4.541   4.366 -10.874  1.00  0.00    -0.206 F 
ATOM     80  C   UNL     1       2.369   5.941 -13.299  1.00  0.00     0.022 A 
BRANCH  77  81
ATOM     81  S   UNL     1       2.599   6.561 -16.008  1.00  0.00     0.124 S 
ATOM     82  O   UNL     1       3.714   7.458 -16.289  1.00  0.00    -0.237 OA
ATOM     83  O   UNL     1       2.463   5.407 -16.890  1.00  0.00    -0.237 OA
ATOM     84  O   UNL     1       1.345   7.217 -15.644  1.00  0.00    -0.744 OA
ENDBRANCH  77  81
ENDBRANCH  50  74
BRANCH  62  85
ATOM     85  C   UNL     1      11.324   6.935 -14.595  1.00  0.00     0.023 A 
ATOM     86  C   UNL     1      11.236   8.164 -13.920  1.00  0.00     0.031 A 
ATOM     87  C   UNL     1      11.940   6.918 -15.861  1.00  0.00     0.131 A 
ATOM     88  C   UNL     1      11.716   9.332 -14.532  1.00  0.00     0.055 A 
ATOM     89  C   UNL     1      12.471   8.072 -16.437  1.00  0.00     0.041 A 
ATOM     90  F   UNL     1      12.049   5.772 -16.552  1.00  0.00    -0.206 F 
ATOM     91  C   UNL     1      12.351   9.290 -15.777  1.00  0.00     0.022 A 
BRANCH  88  92
ATOM     92  S   UNL     1      11.433  10.927 -13.716  1.00  0.00     0.124 S 
ATOM     93  O   UNL     1       9.978  10.964 -13.618  1.00  0.00    -0.237 OA
ATOM     94  O   UNL     1      12.152  10.766 -12.456  1.00  0.00    -0.237 OA
ATOM     95  O   UNL     1      12.017  11.896 -14.642  1.00  0.00    -0.744 OA
ENDBRANCH  88  92
ENDBRANCH  62  85
ENDBRANCH  36  37
ENDBRANCH  29  31
ENDBRANCH  28  29
ENDBRANCH  27  28
ENDBRANCH   1  27
TORSDOF 20
