REMARK SMILES Nc1nc(Nc2ccc(C(=O)OCCOCCOC(=O)c3ccc(-c4c5nc(c(-c6cc(S(=O)(=O)[O-])ccc6F)c6ccc([nH]6)c(-c6cc(S(=O)(=O)[O-])ccc6F)c6nc(c(-c7cc(S(=O)(=O)[O-])ccc7F)c7ccc4[nH]7)C=C6)C=C5)cc3)cc2)ccc1[N+](=O)[O-]
REMARK SMILES IDX 15 1 14 2 13 3 12 4 10 5 11 6 9 7 6 8 7 9 85 10 8 11 84 12
REMARK SMILES IDX 5 13 4 15 2 16 3 17 88 18 87 19 86 20 1 21 89 24 90 25 91 26
REMARK SMILES IDX 16 27 17 28 18 29 19 30 20 31 21 32 22 33 83 34 23 35 82 36
REMARK SMILES IDX 24 37 25 38 26 39 76 40 27 41 81 42 75 43 77 44 28 45 80 46
REMARK SMILES IDX 74 47 73 48 29 50 61 51 41 52 60 53 42 54 45 55 59 56 78 57
REMARK SMILES IDX 43 58 44 59 58 61 79 62 46 63 30 64 31 65 39 66 32 67 38 68
REMARK SMILES IDX 40 69 37 70 33 71 34 72 35 73 36 74 62 75 63 76 71 77 64 78
REMARK SMILES IDX 70 79 72 80 69 81 65 82 66 83 67 84 68 85 47 86 48 87 56 88
REMARK SMILES IDX 49 89 55 90 57 91 54 92 50 93 51 94 52 95 53 96
REMARK H PARENT 5 14 1 22 1 23 77 49 45 60
REMARK Flexibility Score: inf
ROOT
ATOM      1  O   UNL     1       1.409   9.914   0.550  1.00  0.00    -0.374 OA
ENDROOT
BRANCH   1   2
ATOM      2  C   UNL     1       2.649   9.673  -0.118  1.00  0.00     0.202 C 
BRANCH   2   3
ATOM      3  C   UNL     1       3.403   8.409   0.304  1.00  0.00     0.261 C 
BRANCH   3   4
ATOM      4  O   UNL     1       2.644   7.228   0.001  1.00  0.00    -0.460 OA
BRANCH   4   5
ATOM      5  C   UNL     1       2.111   6.601   1.075  1.00  0.00     0.338 C 
ATOM      6  O   UNL     1       2.319   6.855   2.253  1.00  0.00    -0.246 OA
BRANCH   5   7
ATOM      7  C   UNL     1       1.090   5.620   0.644  1.00  0.00     0.060 A 
ATOM      8  C   UNL     1      -0.797   3.627   0.065  1.00  0.00     0.040 A 
ATOM      9  C   UNL     1      -0.924   4.402   1.223  1.00  0.00     0.027 A 
ATOM     10  C   UNL     1       0.241   3.915  -0.835  1.00  0.00     0.027 A 
ATOM     11  C   UNL     1       0.020   5.385   1.516  1.00  0.00     0.018 A 
ATOM     12  C   UNL     1       1.177   4.916  -0.559  1.00  0.00     0.018 A 
BRANCH   8  13
ATOM     13  N   UNL     1      -1.565   2.450  -0.059  1.00  0.00    -0.340 N 
ATOM     14  H   UNL     1      -2.542   2.535  -0.145  1.00  0.00     0.168 HD
BRANCH  13  15
ATOM     15  C   UNL     1      -1.003   1.156  -0.067  1.00  0.00     0.133 A 
ATOM     16  C   UNL     1       0.908  -0.209   0.025  1.00  0.00     0.204 A 
ATOM     17  N   UNL     1       0.341   1.013  -0.009  1.00  0.00    -0.207 NA
ATOM     18  C   UNL     1       0.123  -1.355   0.006  1.00  0.00     0.311 A 
ATOM     19  C   UNL     1      -1.270  -1.225  -0.080  1.00  0.00     0.093 A 
ATOM     20  C   UNL     1      -1.837   0.048  -0.127  1.00  0.00     0.054 A 
BRANCH  16  21
ATOM     21  N   UNL     1       2.273  -0.170   0.182  1.00  0.00    -0.378 N 
ATOM     22  H   UNL     1       2.744   0.695   0.182  1.00  0.00     0.158 HD
ATOM     23  H   UNL     1       2.780  -1.006   0.295  1.00  0.00     0.158 HD
ENDBRANCH  16  21
BRANCH  18  24
ATOM     24  N   UNL     1       0.712  -2.689   0.060  1.00  0.00     0.066 N 
ATOM     25  O   UNL     1      -0.064  -3.645   0.224  1.00  0.00    -0.258 OA
ATOM     26  O   UNL     1       1.937  -2.813  -0.083  1.00  0.00    -0.258 OA
ENDBRANCH  18  24
ENDBRANCH  13  15
ENDBRANCH   8  13
ENDBRANCH   5   7
ENDBRANCH   4   5
ENDBRANCH   3   4
ENDBRANCH   2   3
ENDBRANCH   1   2
BRANCH   1  27
ATOM     27  C   UNL     1       0.260   9.232   0.044  1.00  0.00     0.202 C 
BRANCH  27  28
ATOM     28  C   UNL     1      -0.394   9.830  -1.207  1.00  0.00     0.261 C 
BRANCH  28  29
ATOM     29  O   UNL     1       0.438   9.680  -2.372  1.00  0.00    -0.460 OA
BRANCH  29  30
ATOM     30  C   UNL     1       0.993  10.831  -2.824  1.00  0.00     0.338 C 
ATOM     31  O   UNL     1       0.791  11.959  -2.396  1.00  0.00    -0.246 OA
BRANCH  30  32
ATOM     32  C   UNL     1       2.047  10.529  -3.812  1.00  0.00     0.060 A 
ATOM     33  C   UNL     1       3.297  11.134  -3.628  1.00  0.00     0.016 A 
ATOM     34  C   UNL     1       1.809   9.721  -4.927  1.00  0.00     0.016 A 
ATOM     35  C   UNL     1       4.299  10.974  -4.583  1.00  0.00     0.010 A 
ATOM     36  C   UNL     1       2.815   9.569  -5.889  1.00  0.00     0.010 A 
ATOM     37  C   UNL     1       4.053  10.221  -5.738  1.00  0.00    -0.014 A 
BRANCH  37  38
ATOM     38  C   UNL     1       5.034  10.246  -6.853  1.00  0.00     0.031 A 
ATOM     39  C   UNL     1       4.781  11.159  -8.022  1.00  0.00     0.074 A 
ATOM     40  C   UNL     1       6.153   9.500  -6.805  1.00  0.00     0.049 A 
ATOM     41  N   UNL     1       5.473  11.315  -9.121  1.00  0.00    -0.248 NA
ATOM     42  C   UNL     1       3.585  12.011  -7.936  1.00  0.00     0.031 C 
ATOM     43  C   UNL     1       6.537   8.624  -5.698  1.00  0.00     0.029 A 
ATOM     44  N   UNL     1       7.173   9.361  -7.712  1.00  0.00    -0.354 N 
ATOM     45  C   UNL     1       4.803  12.288  -9.856  1.00  0.00     0.074 A 
ATOM     46  C   UNL     1       3.624  12.649  -9.096  1.00  0.00     0.031 C 
ATOM     47  C   UNL     1       7.708   8.036  -5.995  1.00  0.00     0.029 A 
ATOM     48  C   UNL     1       8.137   8.458  -7.327  1.00  0.00     0.049 A 
ATOM     49  H   UNL     1       7.212   9.861  -8.560  1.00  0.00     0.167 HD
ATOM     50  C   UNL     1       5.145  12.838 -11.047  1.00  0.00     0.034 A 
ATOM     51  C   UNL     1       9.225   8.009  -7.986  1.00  0.00     0.034 A 
ATOM     52  C   UNL     1       6.312  12.455 -11.803  1.00  0.00     0.049 A 
ATOM     53  C   UNL     1       9.522   8.552  -9.365  1.00  0.00     0.074 A 
ATOM     54  C   UNL     1       6.743  12.934 -13.029  1.00  0.00     0.029 A 
ATOM     55  N   UNL     1       7.234  11.493 -11.409  1.00  0.00    -0.354 N 
ATOM     56  N   UNL     1       8.872   9.462 -10.055  1.00  0.00    -0.248 NA
ATOM     57  C   UNL     1      10.704   8.012 -10.050  1.00  0.00     0.031 C 
ATOM     58  C   UNL     1       7.885  12.217 -13.404  1.00  0.00     0.029 A 
ATOM     59  C   UNL     1       8.213  11.345 -12.379  1.00  0.00     0.049 A 
ATOM     60  H   UNL     1       7.196  10.989 -10.564  1.00  0.00     0.167 HD
ATOM     61  C   UNL     1       9.592   9.628 -11.236  1.00  0.00     0.074 A 
ATOM     62  C   UNL     1      10.729   8.735 -11.159  1.00  0.00     0.031 C 
ATOM     63  C   UNL     1       9.341  10.449 -12.288  1.00  0.00     0.034 A 
BRANCH  50  64
ATOM     64  C   UNL     1       4.216  13.882 -11.618  1.00  0.00     0.023 A 
ATOM     65  C   UNL     1       4.017  15.119 -10.981  1.00  0.00     0.031 A 
ATOM     66  C   UNL     1       3.503  13.628 -12.803  1.00  0.00     0.131 A 
ATOM     67  C   UNL     1       3.079  16.028 -11.495  1.00  0.00     0.055 A 
ATOM     68  C   UNL     1       2.629  14.569 -13.351  1.00  0.00     0.041 A 
ATOM     69  F   UNL     1       3.635  12.456 -13.443  1.00  0.00    -0.206 F 
ATOM     70  C   UNL     1       2.402  15.772 -12.690  1.00  0.00     0.022 A 
BRANCH  67  71
ATOM     71  S   UNL     1       2.660  17.492 -10.510  1.00  0.00     0.124 S 
ATOM     72  O   UNL     1       2.155  16.885  -9.281  1.00  0.00    -0.237 OA
ATOM     73  O   UNL     1       3.941  18.180 -10.404  1.00  0.00    -0.237 OA
ATOM     74  O   UNL     1       1.651  18.172 -11.320  1.00  0.00    -0.744 OA
ENDBRANCH  67  71
ENDBRANCH  50  64
BRANCH  51  75
ATOM     75  C   UNL     1      10.103   6.962  -7.386  1.00  0.00     0.023 A 
ATOM     76  C   UNL     1      11.459   7.217  -7.124  1.00  0.00     0.031 A 
ATOM     77  C   UNL     1       9.621   5.663  -7.147  1.00  0.00     0.131 A 
ATOM     78  C   UNL     1      12.298   6.176  -6.698  1.00  0.00     0.055 A 
ATOM     79  C   UNL     1      10.446   4.645  -6.665  1.00  0.00     0.041 A 
ATOM     80  F   UNL     1       8.334   5.361  -7.385  1.00  0.00    -0.206 F 
ATOM     81  C   UNL     1      11.798   4.895  -6.454  1.00  0.00     0.022 A 
BRANCH  78  82
ATOM     82  S   UNL     1      14.080   6.492  -6.577  1.00  0.00     0.124 S 
ATOM     83  O   UNL     1      14.392   6.947  -7.927  1.00  0.00    -0.237 OA
ATOM     84  O   UNL     1      14.136   7.506  -5.529  1.00  0.00    -0.237 OA
ATOM     85  O   UNL     1      14.633   5.190  -6.212  1.00  0.00    -0.744 OA
ENDBRANCH  78  82
ENDBRANCH  51  75
BRANCH  63  86
ATOM     86  C   UNL     1      10.352  10.459 -13.410  1.00  0.00     0.023 A 
ATOM     87  C   UNL     1      10.552   9.342 -14.241  1.00  0.00     0.031 A 
ATOM     88  C   UNL     1      11.137  11.603 -13.641  1.00  0.00     0.131 A 
ATOM     89  C   UNL     1      11.551   9.373 -15.226  1.00  0.00     0.055 A 
ATOM     90  C   UNL     1      12.088  11.649 -14.661  1.00  0.00     0.041 A 
ATOM     91  F   UNL     1      10.990  12.698 -12.878  1.00  0.00    -0.206 F 
ATOM     92  C   UNL     1      12.309  10.525 -15.452  1.00  0.00     0.022 A 
BRANCH  89  93
ATOM     93  S   UNL     1      11.909   7.856 -16.153  1.00  0.00     0.124 S 
ATOM     94  O   UNL     1      12.265   6.925 -15.088  1.00  0.00    -0.237 OA
ATOM     95  O   UNL     1      10.641   7.596 -16.829  1.00  0.00    -0.237 OA
ATOM     96  O   UNL     1      13.010   8.243 -17.033  1.00  0.00    -0.744 OA
ENDBRANCH  89  93
ENDBRANCH  63  86
ENDBRANCH  37  38
ENDBRANCH  30  32
ENDBRANCH  29  30
ENDBRANCH  28  29
ENDBRANCH  27  28
ENDBRANCH   1  27
TORSDOF 21
