REMARK SMILES O=C(OCCOCCOC(=O)[C@@H]1CCCC[C@@H]1C(=O)Nc1cccc(Br)c1)c1ccc(-c2c3nc(c(-c4cc(S(=O)(=O)[O-])ccc4F)c4ccc([nH]4)c(-c4cc(S(=O)(=O)[O-])ccc4F)c4nc(c(-c5cc(S(=O)(=O)[O-])ccc5F)c5ccc2[nH]5)C=C4)C=C3)cc1
REMARK SMILES IDX 5 1 4 2 3 3 2 4 1 5 28 6 29 7 90 8 30 9 89 10 31 11 32 12
REMARK SMILES IDX 33 13 83 14 34 15 88 16 82 17 84 18 35 19 87 20 81 21 80 22
REMARK SMILES IDX 36 24 68 25 48 26 67 27 49 28 52 29 66 30 85 31 50 32 51 33
REMARK SMILES IDX 65 35 86 36 53 37 37 38 38 39 46 40 39 41 45 42 47 43 44 44
REMARK SMILES IDX 40 45 41 46 42 47 43 48 69 49 70 50 78 51 71 52 77 53 79 54
REMARK SMILES IDX 76 55 72 56 73 57 74 58 75 59 54 60 55 61 63 62 56 63 62 64
REMARK SMILES IDX 64 65 61 66 57 67 58 68 59 69 60 70 6 71 7 72 8 73 9 74
REMARK SMILES IDX 10 75 11 76 12 77 13 78 17 79 14 80 16 81 15 82 18 83 19 84
REMARK SMILES IDX 20 85 21 87 22 88 27 89 23 90 25 91 24 92 26 93
REMARK H PARENT 84 23 52 34 20 86
REMARK Flexibility Score: inf
ROOT
ATOM      1  C   UNL     1       4.513   0.107  -1.137  1.00  0.00     0.202 C 
ENDROOT
BRANCH   1   2
ATOM      2  C   UNL     1       4.079  -0.871  -0.032  1.00  0.00     0.261 C 
BRANCH   2   3
ATOM      3  O   UNL     1       2.660  -0.828   0.203  1.00  0.00    -0.460 OA
BRANCH   3   4
ATOM      4  C   UNL     1       2.024  -0.081   1.143  1.00  0.00     0.338 C 
ATOM      5  O   UNL     1       0.802  -0.154   1.250  1.00  0.00    -0.246 OA
BRANCH   4   6
ATOM      6  C   UNL     1       2.774   0.809   2.072  1.00  0.00     0.060 A 
ATOM      7  C   UNL     1       3.952   1.449   1.715  1.00  0.00     0.016 A 
ATOM      8  C   UNL     1       2.269   1.047   3.355  1.00  0.00     0.016 A 
ATOM      9  C   UNL     1       4.705   2.168   2.599  1.00  0.00     0.010 A 
ATOM     10  C   UNL     1       2.976   1.865   4.247  1.00  0.00     0.010 A 
ATOM     11  C   UNL     1       4.212   2.404   3.866  1.00  0.00    -0.014 A 
BRANCH  11  12
ATOM     12  C   UNL     1       5.155   3.085   4.759  1.00  0.00     0.031 A 
ATOM     13  C   UNL     1       5.841   2.253   5.793  1.00  0.00     0.074 A 
ATOM     14  C   UNL     1       5.567   4.326   4.436  1.00  0.00     0.049 A 
ATOM     15  N   UNL     1       6.700   2.612   6.701  1.00  0.00    -0.248 NA
ATOM     16  C   UNL     1       5.526   0.814   5.790  1.00  0.00     0.031 C 
ATOM     17  C   UNL     1       5.091   5.100   3.277  1.00  0.00     0.029 A 
ATOM     18  N   UNL     1       6.527   5.125   4.987  1.00  0.00    -0.354 N 
ATOM     19  C   UNL     1       6.979   1.458   7.423  1.00  0.00     0.074 A 
ATOM     20  C   UNL     1       6.208   0.386   6.838  1.00  0.00     0.031 C 
ATOM     21  C   UNL     1       5.801   6.233   3.182  1.00  0.00     0.029 A 
ATOM     22  C   UNL     1       6.686   6.324   4.332  1.00  0.00     0.049 A 
ATOM     23  H   UNL     1       7.054   4.867   5.777  1.00  0.00     0.167 HD
ATOM     24  C   UNL     1       7.796   1.337   8.494  1.00  0.00     0.034 A 
ATOM     25  C   UNL     1       7.429   7.393   4.672  1.00  0.00     0.034 A 
ATOM     26  C   UNL     1       8.542   2.455   9.014  1.00  0.00     0.049 A 
ATOM     27  C   UNL     1       8.229   7.274   5.943  1.00  0.00     0.074 A 
ATOM     28  C   UNL     1       9.329   2.526  10.146  1.00  0.00     0.029 A 
ATOM     29  N   UNL     1       8.588   3.713   8.413  1.00  0.00    -0.354 N 
ATOM     30  N   UNL     1       8.378   6.228   6.728  1.00  0.00    -0.248 NA
ATOM     31  C   UNL     1       8.944   8.472   6.386  1.00  0.00     0.031 C 
ATOM     32  C   UNL     1       9.790   3.842  10.267  1.00  0.00     0.029 A 
ATOM     33  C   UNL     1       9.369   4.573   9.164  1.00  0.00     0.049 A 
ATOM     34  H   UNL     1       8.131   3.954   7.575  1.00  0.00     0.167 HD
ATOM     35  C   UNL     1       9.226   6.636   7.749  1.00  0.00     0.074 A 
ATOM     36  C   UNL     1       9.571   8.017   7.460  1.00  0.00     0.031 C 
ATOM     37  C   UNL     1       9.680   5.945   8.828  1.00  0.00     0.034 A 
BRANCH  24  38
ATOM     38  C   UNL     1       7.777   0.013   9.216  1.00  0.00     0.023 A 
ATOM     39  C   UNL     1       8.199  -1.184   8.611  1.00  0.00     0.031 A 
ATOM     40  C   UNL     1       7.196  -0.067  10.495  1.00  0.00     0.131 A 
ATOM     41  C   UNL     1       7.948  -2.413   9.244  1.00  0.00     0.055 A 
ATOM     42  C   UNL     1       7.032  -1.284  11.157  1.00  0.00     0.041 A 
ATOM     43  F   UNL     1       6.736   1.036  11.106  1.00  0.00    -0.206 F 
ATOM     44  C   UNL     1       7.391  -2.469  10.524  1.00  0.00     0.022 A 
BRANCH  41  45
ATOM     45  S   UNL     1       8.187  -3.945   8.298  1.00  0.00     0.124 S 
ATOM     46  O   UNL     1       7.258  -3.751   7.187  1.00  0.00    -0.237 OA
ATOM     47  O   UNL     1       9.604  -3.891   7.961  1.00  0.00    -0.237 OA
ATOM     48  O   UNL     1       7.808  -4.994   9.242  1.00  0.00    -0.744 OA
ENDBRANCH  41  45
ENDBRANCH  24  38
BRANCH  25  49
ATOM     49  C   UNL     1       7.371   8.661   3.885  1.00  0.00     0.023 A 
ATOM     50  C   UNL     1       8.529   9.242   3.346  1.00  0.00     0.031 A 
ATOM     51  C   UNL     1       6.154   9.349   3.706  1.00  0.00     0.131 A 
ATOM     52  C   UNL     1       8.454  10.487   2.699  1.00  0.00     0.055 A 
ATOM     53  C   UNL     1       6.075  10.554   3.007  1.00  0.00     0.041 A 
ATOM     54  F   UNL     1       5.011   8.854   4.207  1.00  0.00    -0.206 F 
ATOM     55  C   UNL     1       7.234  11.139   2.512  1.00  0.00     0.022 A 
BRANCH  52  56
ATOM     56  S   UNL     1       9.996  11.300   2.194  1.00  0.00     0.124 S 
ATOM     57  O   UNL     1      10.727  11.358   3.455  1.00  0.00    -0.237 OA
ATOM     58  O   UNL     1      10.513  10.373   1.193  1.00  0.00    -0.237 OA
ATOM     59  O   UNL     1       9.546  12.589   1.673  1.00  0.00    -0.744 OA
ENDBRANCH  52  56
ENDBRANCH  25  49
BRANCH  37  60
ATOM     60  C   UNL     1      10.645   6.674   9.723  1.00  0.00     0.023 A 
ATOM     61  C   UNL     1      10.253   7.792  10.476  1.00  0.00     0.031 A 
ATOM     62  C   UNL     1      11.982   6.248   9.802  1.00  0.00     0.131 A 
ATOM     63  C   UNL     1      11.210   8.494  11.221  1.00  0.00     0.055 A 
ATOM     64  C   UNL     1      12.911   6.904  10.606  1.00  0.00     0.041 A 
ATOM     65  F   UNL     1      12.405   5.186   9.098  1.00  0.00    -0.206 F 
ATOM     66  C   UNL     1      12.530   8.045  11.308  1.00  0.00     0.022 A 
BRANCH  63  67
ATOM     67  S   UNL     1      10.730  10.071  11.973  1.00  0.00     0.124 S 
ATOM     68  O   UNL     1      10.269  10.830  10.815  1.00  0.00    -0.237 OA
ATOM     69  O   UNL     1       9.698   9.664  12.921  1.00  0.00    -0.237 OA
ATOM     70  O   UNL     1      11.972  10.553  12.576  1.00  0.00    -0.744 OA
ENDBRANCH  63  67
ENDBRANCH  37  60
ENDBRANCH  11  12
ENDBRANCH   4   6
ENDBRANCH   3   4
ENDBRANCH   2   3
ENDBRANCH   1   2
BRANCH   1  71
ATOM     71  O   UNL     1       3.914   1.403  -1.189  1.00  0.00    -0.374 OA
BRANCH  71  72
ATOM     72  C   UNL     1       2.603   1.477  -1.733  1.00  0.00     0.202 C 
BRANCH  72  73
ATOM     73  C   UNL     1       2.650   2.033  -3.151  1.00  0.00     0.261 C 
BRANCH  73  74
ATOM     74  O   UNL     1       3.222   1.030  -4.013  1.00  0.00    -0.463 OA
BRANCH  74  75
ATOM     75  C   UNL     1       4.572   1.084  -4.166  1.00  0.00     0.309 C 
ATOM     76  O   UNL     1       5.267   2.056  -3.894  1.00  0.00    -0.252 OA
BRANCH  75  77
ATOM     77  C   UNL     1       5.108  -0.188  -4.802  1.00  0.00     0.111 C 
ATOM     78  C   UNL     1       4.377  -1.487  -4.424  1.00  0.00     0.016 C 
ATOM     79  C   UNL     1       6.642  -0.294  -4.652  1.00  0.00     0.093 C 
ATOM     80  C   UNL     1       4.902  -2.673  -5.220  1.00  0.00     0.001 C 
ATOM     81  C   UNL     1       7.147  -1.499  -5.465  1.00  0.00     0.014 C 
ATOM     82  C   UNL     1       6.419  -2.803  -5.125  1.00  0.00     0.001 C 
BRANCH  79  83
ATOM     83  C   UNL     1       7.187  -0.445  -3.219  1.00  0.00     0.228 C 
ATOM     84  O   UNL     1       6.673  -1.234  -2.421  1.00  0.00    -0.274 OA
ATOM     85  N   UNL     1       8.397   0.096  -2.869  1.00  0.00    -0.326 N 
ATOM     86  H   UNL     1       8.767  -0.217  -2.012  1.00  0.00     0.169 HD
BRANCH  85  87
ATOM     87  C   UNL     1       9.183   1.029  -3.555  1.00  0.00     0.042 A 
ATOM     88  C   UNL     1       8.645   2.188  -4.114  1.00  0.00     0.026 A 
ATOM     89  C   UNL     1      10.552   0.782  -3.661  1.00  0.00     0.041 A 
ATOM     90  C   UNL     1       9.441   3.039  -4.878  1.00  0.00     0.003 A 
ATOM     91  C   UNL     1      11.339   1.619  -4.451  1.00  0.00     0.020 A 
ATOM     92  C   UNL     1      10.787   2.738  -5.074  1.00  0.00     0.016 A 
ATOM     93  Br  UNL     1      13.162   1.201  -4.727  1.00  0.00    -0.051 Br
ENDBRANCH  85  87
ENDBRANCH  79  83
ENDBRANCH  75  77
ENDBRANCH  74  75
ENDBRANCH  73  74
ENDBRANCH  72  73
ENDBRANCH  71  72
ENDBRANCH   1  71
TORSDOF 19
