REMARK SMILES O=C(OCCOCCOC(=O)[C@@]12CCC(=O)N1c1cc(Cl)ccc1S2)c1ccc(-c2c3nc(c(-c4cc(S(=O)(=O)[O-])ccc4F)c4ccc([nH]4)c(-c4cc(S(=O)(=O)[O-])ccc4F)c4nc(c(-c5cc(S(=O)(=O)[O-])ccc5F)c5ccc2[nH]5)C=C4)C=C3)cc1
REMARK SMILES IDX 4 1 3 2 2 3 1 4 26 5 27 6 88 7 28 8 87 9 29 10 30 11 31 12
REMARK SMILES IDX 81 13 32 14 86 15 80 16 82 17 33 18 85 19 79 20 78 21 34 23
REMARK SMILES IDX 66 24 46 25 65 26 47 27 50 28 64 29 83 30 48 31 49 32 63 34
REMARK SMILES IDX 84 35 51 36 35 37 36 38 44 39 37 40 43 41 45 42 42 43 38 44
REMARK SMILES IDX 39 45 40 46 41 47 67 48 68 49 76 50 69 51 75 52 77 53 74 54
REMARK SMILES IDX 70 55 71 56 72 57 73 58 52 59 53 60 61 61 54 62 60 63 62 64
REMARK SMILES IDX 59 65 55 66 56 67 57 68 58 69 5 70 6 71 7 72 8 73 9 74 10 75
REMARK SMILES IDX 11 76 12 77 13 78 17 79 25 80 14 81 15 82 18 83 24 84 16 85
REMARK SMILES IDX 19 86 23 87 20 88 22 89 21 90
REMARK H PARENT 82 22 50 33
REMARK Flexibility Score: inf
ROOT
ATOM      1  C   UNL     1       4.005   0.428   1.030  1.00  0.00     0.261 C 
ENDROOT
BRANCH   1   2
ATOM      2  O   UNL     1       2.613   0.702   0.899  1.00  0.00    -0.460 OA
BRANCH   2   3
ATOM      3  C   UNL     1       1.996   1.290  -0.152  1.00  0.00     0.338 C 
ATOM      4  O   UNL     1       0.799   1.552  -0.021  1.00  0.00    -0.246 OA
BRANCH   3   5
ATOM      5  C   UNL     1       2.647   1.603  -1.473  1.00  0.00     0.060 A 
ATOM      6  C   UNL     1       1.835   2.265  -2.414  1.00  0.00     0.016 A 
ATOM      7  C   UNL     1       3.938   1.254  -1.882  1.00  0.00     0.016 A 
ATOM      8  C   UNL     1       2.278   2.509  -3.717  1.00  0.00     0.010 A 
ATOM      9  C   UNL     1       4.386   1.479  -3.177  1.00  0.00     0.010 A 
ATOM     10  C   UNL     1       3.551   2.091  -4.102  1.00  0.00    -0.014 A 
BRANCH  10  11
ATOM     11  C   UNL     1       4.096   2.352  -5.440  1.00  0.00     0.031 A 
ATOM     12  C   UNL     1       4.111   1.271  -6.472  1.00  0.00     0.074 A 
ATOM     13  C   UNL     1       4.721   3.526  -5.626  1.00  0.00     0.049 A 
ATOM     14  N   UNL     1       4.550   1.324  -7.698  1.00  0.00    -0.248 NA
ATOM     15  C   UNL     1       3.588  -0.047  -6.072  1.00  0.00     0.031 C 
ATOM     16  C   UNL     1       4.857   4.564  -4.601  1.00  0.00     0.029 A 
ATOM     17  N   UNL     1       5.401   4.021  -6.703  1.00  0.00    -0.354 N 
ATOM     18  C   UNL     1       4.329   0.061  -8.233  1.00  0.00     0.074 A 
ATOM     19  C   UNL     1       3.775  -0.757  -7.178  1.00  0.00     0.031 C 
ATOM     20  C   UNL     1       5.607   5.561  -5.090  1.00  0.00     0.029 A 
ATOM     21  C   UNL     1       5.996   5.234  -6.459  1.00  0.00     0.049 A 
ATOM     22  H   UNL     1       5.459   3.554  -7.568  1.00  0.00     0.167 HD
ATOM     23  C   UNL     1       4.553  -0.348  -9.503  1.00  0.00     0.034 A 
ATOM     24  C   UNL     1       6.766   5.998  -7.257  1.00  0.00     0.034 A 
ATOM     25  C   UNL     1       5.135   0.508 -10.505  1.00  0.00     0.049 A 
ATOM     26  C   UNL     1       6.954   5.551  -8.681  1.00  0.00     0.074 A 
ATOM     27  C   UNL     1       5.319   0.250 -11.851  1.00  0.00     0.029 A 
ATOM     28  N   UNL     1       5.640   1.780 -10.267  1.00  0.00    -0.354 N 
ATOM     29  N   UNL     1       6.571   4.426  -9.240  1.00  0.00    -0.248 NA
ATOM     30  C   UNL     1       7.627   6.479  -9.596  1.00  0.00     0.031 C 
ATOM     31  C   UNL     1       5.992   1.336 -12.411  1.00  0.00     0.029 A 
ATOM     32  C   UNL     1       6.163   2.308 -11.434  1.00  0.00     0.049 A 
ATOM     33  H   UNL     1       5.629   2.239  -9.396  1.00  0.00     0.167 HD
ATOM     34  C   UNL     1       6.932   4.519 -10.579  1.00  0.00     0.074 A 
ATOM     35  C   UNL     1       7.547   5.821 -10.747  1.00  0.00     0.031 C 
ATOM     36  C   UNL     1       6.768   3.613 -11.575  1.00  0.00     0.034 A 
BRANCH  23  37
ATOM     37  C   UNL     1       4.133  -1.737  -9.916  1.00  0.00     0.023 A 
ATOM     38  C   UNL     1       5.080  -2.647 -10.424  1.00  0.00     0.031 A 
ATOM     39  C   UNL     1       2.774  -2.099  -9.966  1.00  0.00     0.131 A 
ATOM     40  C   UNL     1       4.651  -3.850 -11.000  1.00  0.00     0.055 A 
ATOM     41  C   UNL     1       2.356  -3.317 -10.505  1.00  0.00     0.041 A 
ATOM     42  F   UNL     1       1.829  -1.266  -9.501  1.00  0.00    -0.206 F 
ATOM     43  C   UNL     1       3.295  -4.192 -11.038  1.00  0.00     0.022 A 
BRANCH  40  44
ATOM     44  S   UNL     1       5.827  -4.991 -11.780  1.00  0.00     0.124 S 
ATOM     45  O   UNL     1       5.535  -6.245 -11.088  1.00  0.00    -0.237 OA
ATOM     46  O   UNL     1       5.413  -4.941 -13.180  1.00  0.00    -0.237 OA
ATOM     47  O   UNL     1       7.130  -4.408 -11.483  1.00  0.00    -0.744 OA
ENDBRANCH  40  44
ENDBRANCH  23  37
BRANCH  24  48
ATOM     48  C   UNL     1       7.277   7.289  -6.719  1.00  0.00     0.023 A 
ATOM     49  C   UNL     1       8.176   7.308  -5.635  1.00  0.00     0.031 A 
ATOM     50  C   UNL     1       6.730   8.509  -7.147  1.00  0.00     0.131 A 
ATOM     51  C   UNL     1       8.443   8.514  -4.972  1.00  0.00     0.055 A 
ATOM     52  C   UNL     1       7.050   9.717  -6.525  1.00  0.00     0.041 A 
ATOM     53  F   UNL     1       5.845   8.536  -8.155  1.00  0.00    -0.206 F 
ATOM     54  C   UNL     1       7.894   9.720  -5.418  1.00  0.00     0.022 A 
BRANCH  51  55
ATOM     55  S   UNL     1       9.370   8.532  -3.410  1.00  0.00     0.124 S 
ATOM     56  O   UNL     1      10.550   9.312  -3.768  1.00  0.00    -0.237 OA
ATOM     57  O   UNL     1       8.428   9.190  -2.508  1.00  0.00    -0.237 OA
ATOM     58  O   UNL     1       9.605   7.119  -3.132  1.00  0.00    -0.744 OA
ENDBRANCH  51  55
ENDBRANCH  24  48
BRANCH  36  59
ATOM     59  C   UNL     1       7.263   3.970 -12.953  1.00  0.00     0.023 A 
ATOM     60  C   UNL     1       6.350   4.077 -14.018  1.00  0.00     0.031 A 
ATOM     61  C   UNL     1       8.637   4.023 -13.239  1.00  0.00     0.131 A 
ATOM     62  C   UNL     1       6.824   4.181 -15.330  1.00  0.00     0.055 A 
ATOM     63  C   UNL     1       9.104   4.175 -14.544  1.00  0.00     0.041 A 
ATOM     64  F   UNL     1       9.543   3.914 -12.254  1.00  0.00    -0.206 F 
ATOM     65  C   UNL     1       8.197   4.237 -15.598  1.00  0.00     0.022 A 
BRANCH  62  66
ATOM     66  S   UNL     1       5.685   4.147 -16.741  1.00  0.00     0.124 S 
ATOM     67  O   UNL     1       5.957   5.433 -17.378  1.00  0.00    -0.237 OA
ATOM     68  O   UNL     1       6.145   2.974 -17.479  1.00  0.00    -0.237 OA
ATOM     69  O   UNL     1       4.367   4.026 -16.127  1.00  0.00    -0.744 OA
ENDBRANCH  62  66
ENDBRANCH  36  59
ENDBRANCH  10  11
ENDBRANCH   3   5
ENDBRANCH   2   3
ENDBRANCH   1   2
BRANCH   1  70
ATOM     70  C   UNL     1       4.333  -0.984   0.546  1.00  0.00     0.202 C 
BRANCH  70  71
ATOM     71  O   UNL     1       3.880  -1.350  -0.753  1.00  0.00    -0.374 OA
BRANCH  71  72
ATOM     72  C   UNL     1       2.795  -2.283  -0.816  1.00  0.00     0.202 C 
BRANCH  72  73
ATOM     73  C   UNL     1       3.261  -3.755  -0.762  1.00  0.00     0.261 C 
BRANCH  73  74
ATOM     74  O   UNL     1       3.417  -4.102   0.626  1.00  0.00    -0.461 OA
BRANCH  74  75
ATOM     75  C   UNL     1       4.494  -4.844   1.036  1.00  0.00     0.343 C 
ATOM     76  O   UNL     1       5.007  -5.739   0.383  1.00  0.00    -0.248 OA
BRANCH  75  77
ATOM     77  C   UNL     1       5.046  -4.196   2.351  1.00  0.00     0.196 C 
ATOM     78  C   UNL     1       3.875  -3.558   3.140  1.00  0.00     0.063 C 
ATOM     79  N   UNL     1       5.658  -4.937   3.464  1.00  0.00    -0.285 N 
ATOM     80  S   UNL     1       6.399  -3.084   1.762  1.00  0.00    -0.083 SA
ATOM     81  C   UNL     1       3.399  -4.735   4.004  1.00  0.00     0.104 C 
ATOM     82  C   UNL     1       4.664  -5.530   4.245  1.00  0.00     0.228 C 
ATOM     83  C   UNL     1       6.646  -4.124   4.135  1.00  0.00     0.061 A 
ATOM     84  C   UNL     1       7.091  -3.043   3.365  1.00  0.00     0.034 A 
ATOM     85  O   UNL     1       4.787  -6.423   5.060  1.00  0.00    -0.274 OA
ATOM     86  C   UNL     1       6.899  -4.128   5.501  1.00  0.00     0.048 A 
ATOM     87  C   UNL     1       7.737  -1.944   3.910  1.00  0.00     0.019 A 
ATOM     88  C   UNL     1       7.514  -3.005   6.070  1.00  0.00     0.043 A 
ATOM     89  C   UNL     1       7.924  -1.917   5.286  1.00  0.00     0.022 A 
ATOM     90  Cl  UNL     1       7.662  -2.899   7.782  1.00  0.00    -0.084 Cl
ENDBRANCH  75  77
ENDBRANCH  74  75
ENDBRANCH  73  74
ENDBRANCH  72  73
ENDBRANCH  71  72
ENDBRANCH  70  71
ENDBRANCH   1  70
TORSDOF 17
