REMARK SMILES C[C@@H]1[C@@H](C(=O)OCCOCCOC(=O)c2ccc(-c3c4nc(c(-c5cc(S(=O)(=O)[O-])ccc5F)c5ccc([nH]5)c(-c5cc(S(=O)(=O)[O-])ccc5F)c5nc(c(-c6cc(S(=O)(=O)[O-])ccc6F)c6ccc3[nH]6)C=C5)C=C4)cc2)CCN1C(=O)CC[C@@H]1CCCC[NH2+]1
REMARK SMILES IDX 8 1 7 2 6 3 4 4 5 5 3 6 1 7 2 8 80 9 78 10 79 11 81 12 82 13
REMARK SMILES IDX 83 14 84 15 85 16 86 17 90 18 87 19 89 20 88 23 9 24 10 25
REMARK SMILES IDX 11 26 12 27 13 28 14 29 15 30 16 31 77 32 17 33 76 34 18 35
REMARK SMILES IDX 19 36 20 37 70 38 21 39 75 40 69 41 71 42 22 43 74 44 68 45
REMARK SMILES IDX 67 46 23 48 55 49 35 50 54 51 36 52 39 53 53 54 72 55 37 56
REMARK SMILES IDX 38 57 52 59 73 60 40 61 24 62 25 63 33 64 26 65 32 66 34 67
REMARK SMILES IDX 31 68 27 69 28 70 29 71 30 72 56 73 57 74 65 75 58 76 64 77
REMARK SMILES IDX 66 78 63 79 59 80 60 81 61 82 62 83 41 84 42 85 50 86 43 87
REMARK SMILES IDX 49 88 51 89 48 90 44 91 45 92 46 93 47 94
REMARK H PARENT 90 21 90 22 71 47 39 58
REMARK Flexibility Score: inf
ROOT
ATOM      1  C   UNL     1      -1.750   2.898  -4.174  1.00  0.00     0.202 C 
ENDROOT
BRANCH   1   2
ATOM      2  C   UNL     1      -2.347   1.747  -3.369  1.00  0.00     0.261 C 
BRANCH   2   3
ATOM      3  O   UNL     1      -1.937   1.818  -1.994  1.00  0.00    -0.463 OA
BRANCH   3   4
ATOM      4  C   UNL     1      -1.568   0.622  -1.473  1.00  0.00     0.311 C 
ATOM      5  O   UNL     1      -1.735  -0.452  -2.035  1.00  0.00    -0.252 OA
BRANCH   4   6
ATOM      6  C   UNL     1      -0.886   0.785  -0.120  1.00  0.00     0.123 C 
ATOM      7  C   UNL     1       1.392   0.285   0.937  1.00  0.00     0.032 C 
ATOM      8  C   UNL     1       0.324  -0.160  -0.059  1.00  0.00     0.096 C 
ATOM      9  N   UNL     1      -0.250  -1.457   0.291  1.00  0.00    -0.339 N 
ATOM     10  C   UNL     1      -1.777   0.243   0.985  1.00  0.00     0.039 C 
ATOM     11  C   UNL     1      -1.590  -1.271   0.852  1.00  0.00     0.121 C 
BRANCH   9  12
ATOM     12  C   UNL     1       0.111  -2.690  -0.239  1.00  0.00     0.223 C 
ATOM     13  O   UNL     1      -0.705  -3.613  -0.321  1.00  0.00    -0.275 OA
BRANCH  12  14
ATOM     14  C   UNL     1       1.581  -2.971  -0.574  1.00  0.00     0.106 C 
BRANCH  14  15
ATOM     15  C   UNL     1       2.049  -2.920  -2.040  1.00  0.00     0.075 C 
BRANCH  15  16
ATOM     16  C   UNL     1       2.393  -1.496  -2.503  1.00  0.00     0.182 C 
ATOM     17  C   UNL     1       1.384  -1.020  -3.552  1.00  0.00     0.065 C 
ATOM     18  N   UNL     1       3.749  -1.298  -3.045  1.00  0.00    -0.344 N 
ATOM     19  C   UNL     1       1.562   0.465  -3.797  1.00  0.00     0.012 C 
ATOM     20  C   UNL     1       4.000   0.149  -3.196  1.00  0.00     0.260 C 
ATOM     21  H   UNL     1       3.824  -1.754  -3.954  1.00  0.00     0.346 HD
ATOM     22  H   UNL     1       4.437  -1.702  -2.410  1.00  0.00     0.346 HD
ATOM     23  C   UNL     1       3.004   0.810  -4.150  1.00  0.00     0.062 C 
ENDBRANCH  15  16
ENDBRANCH  14  15
ENDBRANCH  12  14
ENDBRANCH   9  12
ENDBRANCH   4   6
ENDBRANCH   3   4
ENDBRANCH   2   3
ENDBRANCH   1   2
BRANCH   1  24
ATOM     24  O   UNL     1      -0.328   3.015  -4.217  1.00  0.00    -0.374 OA
BRANCH  24  25
ATOM     25  C   UNL     1       0.360   3.429  -3.039  1.00  0.00     0.202 C 
BRANCH  25  26
ATOM     26  C   UNL     1       0.406   4.916  -2.696  1.00  0.00     0.261 C 
BRANCH  26  27
ATOM     27  O   UNL     1      -0.890   5.479  -2.541  1.00  0.00    -0.460 OA
BRANCH  27  28
ATOM     28  C   UNL     1      -1.360   6.081  -3.660  1.00  0.00     0.338 C 
ATOM     29  O   UNL     1      -0.775   6.248  -4.718  1.00  0.00    -0.246 OA
BRANCH  28  30
ATOM     30  C   UNL     1      -2.800   6.293  -3.465  1.00  0.00     0.060 A 
ATOM     31  C   UNL     1      -3.663   5.905  -4.498  1.00  0.00     0.016 A 
ATOM     32  C   UNL     1      -3.285   6.815  -2.264  1.00  0.00     0.016 A 
ATOM     33  C   UNL     1      -5.028   6.086  -4.351  1.00  0.00     0.010 A 
ATOM     34  C   UNL     1      -4.650   7.012  -2.122  1.00  0.00     0.010 A 
ATOM     35  C   UNL     1      -5.511   6.689  -3.184  1.00  0.00    -0.014 A 
BRANCH  35  36
ATOM     36  C   UNL     1      -6.883   7.215  -3.172  1.00  0.00     0.031 A 
ATOM     37  C   UNL     1      -7.061   8.669  -3.491  1.00  0.00     0.074 A 
ATOM     38  C   UNL     1      -7.914   6.403  -2.898  1.00  0.00     0.049 A 
ATOM     39  N   UNL     1      -8.143   9.396  -3.473  1.00  0.00    -0.248 NA
ATOM     40  C   UNL     1      -5.843   9.408  -3.870  1.00  0.00     0.031 C 
ATOM     41  C   UNL     1      -7.809   4.968  -2.629  1.00  0.00     0.029 A 
ATOM     42  N   UNL     1      -9.249   6.672  -2.793  1.00  0.00    -0.354 N 
ATOM     43  C   UNL     1      -7.737  10.677  -3.829  1.00  0.00     0.074 A 
ATOM     44  C   UNL     1      -6.305  10.639  -4.013  1.00  0.00     0.031 C 
ATOM     45  C   UNL     1      -9.038   4.484  -2.379  1.00  0.00     0.029 A 
ATOM     46  C   UNL     1      -9.999   5.582  -2.426  1.00  0.00     0.049 A 
ATOM     47  H   UNL     1      -9.636   7.561  -2.964  1.00  0.00     0.167 HD
ATOM     48  C   UNL     1      -8.505  11.779  -3.995  1.00  0.00     0.034 A 
ATOM     49  C   UNL     1     -11.311   5.505  -2.134  1.00  0.00     0.034 A 
ATOM     50  C   UNL     1      -9.929  11.771  -3.781  1.00  0.00     0.049 A 
ATOM     51  C   UNL     1     -12.133   6.766  -2.243  1.00  0.00     0.074 A 
ATOM     52  C   UNL     1     -10.829  12.811  -3.910  1.00  0.00     0.029 A 
ATOM     53  N   UNL     1     -10.660  10.657  -3.376  1.00  0.00    -0.354 N 
ATOM     54  N   UNL     1     -11.748   7.978  -2.583  1.00  0.00    -0.248 NA
ATOM     55  C   UNL     1     -13.563   6.651  -1.940  1.00  0.00     0.031 C 
ATOM     56  C   UNL     1     -12.086  12.348  -3.508  1.00  0.00     0.029 A 
ATOM     57  C   UNL     1     -11.993  10.995  -3.218  1.00  0.00     0.049 A 
ATOM     58  H   UNL     1     -10.283   9.760  -3.225  1.00  0.00     0.167 HD
ATOM     59  C   UNL     1     -12.898   8.761  -2.570  1.00  0.00     0.074 A 
ATOM     60  C   UNL     1     -13.989   7.878  -2.202  1.00  0.00     0.031 C 
ATOM     61  C   UNL     1     -13.050  10.084  -2.839  1.00  0.00     0.034 A 
BRANCH  48  62
ATOM     62  C   UNL     1      -7.806  13.066  -4.357  1.00  0.00     0.023 A 
ATOM     63  C   UNL     1      -7.084  13.210  -5.556  1.00  0.00     0.031 A 
ATOM     64  C   UNL     1      -7.818  14.153  -3.466  1.00  0.00     0.131 A 
ATOM     65  C   UNL     1      -6.349  14.381  -5.797  1.00  0.00     0.055 A 
ATOM     66  C   UNL     1      -7.154  15.348  -3.750  1.00  0.00     0.041 A 
ATOM     67  F   UNL     1      -8.458  14.065  -2.289  1.00  0.00    -0.206 F 
ATOM     68  C   UNL     1      -6.402  15.462  -4.915  1.00  0.00     0.022 A 
BRANCH  65  69
ATOM     69  S   UNL     1      -5.200  14.412  -7.201  1.00  0.00     0.124 S 
ATOM     70  O   UNL     1      -4.312  13.298  -6.880  1.00  0.00    -0.237 OA
ATOM     71  O   UNL     1      -6.089  14.213  -8.340  1.00  0.00    -0.237 OA
ATOM     72  O   UNL     1      -4.585  15.735  -7.112  1.00  0.00    -0.744 OA
ENDBRANCH  65  69
ENDBRANCH  48  62
BRANCH  49  73
ATOM     73  C   UNL     1     -11.914   4.217  -1.691  1.00  0.00     0.023 A 
ATOM     74  C   UNL     1     -12.927   3.598  -2.437  1.00  0.00     0.031 A 
ATOM     75  C   UNL     1     -11.511   3.600  -0.491  1.00  0.00     0.131 A 
ATOM     76  C   UNL     1     -13.538   2.430  -1.955  1.00  0.00     0.055 A 
ATOM     77  C   UNL     1     -12.080   2.406  -0.046  1.00  0.00     0.041 A 
ATOM     78  F   UNL     1     -10.544   4.148   0.263  1.00  0.00    -0.206 F 
ATOM     79  C   UNL     1     -13.111   1.821  -0.773  1.00  0.00     0.022 A 
BRANCH  76  80
ATOM     80  S   UNL     1     -14.972   1.773  -2.849  1.00  0.00     0.124 S 
ATOM     81  O   UNL     1     -15.873   2.920  -2.846  1.00  0.00    -0.237 OA
ATOM     82  O   UNL     1     -14.388   1.419  -4.138  1.00  0.00    -0.237 OA
ATOM     83  O   UNL     1     -15.396   0.642  -2.026  1.00  0.00    -0.744 OA
ENDBRANCH  76  80
ENDBRANCH  49  73
BRANCH  61  84
ATOM     84  C   UNL     1     -14.455  10.630  -2.790  1.00  0.00     0.023 A 
ATOM     85  C   UNL     1     -15.184  10.688  -1.591  1.00  0.00     0.031 A 
ATOM     86  C   UNL     1     -15.071  11.094  -3.966  1.00  0.00     0.131 A 
ATOM     87  C   UNL     1     -16.512  11.136  -1.607  1.00  0.00     0.055 A 
ATOM     88  C   UNL     1     -16.366  11.610  -3.961  1.00  0.00     0.041 A 
ATOM     89  F   UNL     1     -14.419  11.060  -5.140  1.00  0.00    -0.206 F 
ATOM     90  C   UNL     1     -17.100  11.618  -2.779  1.00  0.00     0.022 A 
BRANCH  87  91
ATOM     91  S   UNL     1     -17.497  10.973  -0.094  1.00  0.00     0.124 S 
ATOM     92  O   UNL     1     -17.419   9.539   0.164  1.00  0.00    -0.237 OA
ATOM     93  O   UNL     1     -16.776  11.829   0.843  1.00  0.00    -0.237 OA
ATOM     94  O   UNL     1     -18.817  11.461  -0.490  1.00  0.00    -0.744 OA
ENDBRANCH  87  91
ENDBRANCH  61  84
ENDBRANCH  35  36
ENDBRANCH  28  30
ENDBRANCH  27  28
ENDBRANCH  26  27
ENDBRANCH  25  26
ENDBRANCH  24  25
ENDBRANCH   1  24
TORSDOF 21
