REMARK SMILES CCC(CC)([NH2+]Cc1ccc(Cl)cc1[N+](=O)[O-])C(=O)OCCOCCOC(=O)c1ccc(-c2c3nc(c(-c4cc(S(=O)(=O)[O-])ccc4F)c4ccc([nH]4)c(-c4cc(S(=O)(=O)[O-])ccc4F)c4nc(c(-c5cc(S(=O)(=O)[O-])ccc5F)c5ccc2[nH]5)C=C4)C=C3)cc1
REMARK SMILES IDX 22 1 21 2 20 3 18 4 19 5 3 6 2 7 1 8 4 9 5 10 6 11 7 14 8 15
REMARK SMILES IDX 9 16 14 17 10 18 13 19 11 20 12 21 15 22 16 23 17 24 23 25
REMARK SMILES IDX 24 26 25 27 26 28 27 29 28 30 29 31 30 32 91 33 31 34 90 35
REMARK SMILES IDX 32 36 33 37 34 38 84 39 35 40 89 41 83 42 85 43 36 44 88 45
REMARK SMILES IDX 82 46 81 47 37 49 69 50 49 51 68 52 50 53 53 54 67 55 86 56
REMARK SMILES IDX 51 57 52 58 66 60 87 61 54 62 38 63 39 64 47 65 40 66 46 67
REMARK SMILES IDX 48 68 45 69 41 70 42 71 43 72 44 73 70 74 71 75 79 76 72 77
REMARK SMILES IDX 78 78 80 79 77 80 73 81 74 82 75 83 76 84 55 85 56 86 64 87
REMARK SMILES IDX 57 88 63 89 65 90 62 91 58 92 59 93 60 94 61 95
REMARK H PARENT 6 12 6 13 85 48 53 59
REMARK Flexibility Score: inf
ROOT
ATOM      1  C   UNL     1       5.391   0.725   2.914  1.00  0.00     0.202 C 
ENDROOT
BRANCH   1   2
ATOM      2  C   UNL     1       4.769   1.872   2.116  1.00  0.00     0.261 C 
BRANCH   2   3
ATOM      3  O   UNL     1       3.344   1.923   2.276  1.00  0.00    -0.459 OA
BRANCH   3   4
ATOM      4  C   UNL     1       2.640   1.429   1.226  1.00  0.00     0.368 C 
ATOM      5  O   UNL     1       3.160   1.149   0.149  1.00  0.00    -0.245 OA
BRANCH   4   6
ATOM      6  C   UNL     1       1.103   1.328   1.467  1.00  0.00     0.194 C 
BRANCH   6   7
ATOM      7  C   UNL     1       0.625  -0.048   0.873  1.00  0.00     0.077 C 
ATOM      8  C   UNL     1       0.859  -0.322  -0.608  1.00  0.00     0.011 C 
ENDBRANCH   6   7
BRANCH   6   9
ATOM      9  C   UNL     1       0.518   2.544   0.701  1.00  0.00     0.077 C 
ATOM     10  C   UNL     1      -0.946   2.499   0.298  1.00  0.00     0.011 C 
ENDBRANCH   6   9
BRANCH   6  11
ATOM     11  N   UNL     1       0.678   1.160   2.889  1.00  0.00    -0.328 N 
ATOM     12  H   UNL     1       1.067   0.262   3.179  1.00  0.00     0.347 HD
ATOM     13  H   UNL     1      -0.324   1.323   2.790  1.00  0.00     0.347 HD
BRANCH  11  14
ATOM     14  C   UNL     1       0.967   2.071   3.986  1.00  0.00     0.305 C 
BRANCH  14  15
ATOM     15  C   UNL     1       0.313   3.426   3.891  1.00  0.00     0.084 A 
ATOM     16  C   UNL     1       1.164   4.548   3.951  1.00  0.00     0.018 A 
ATOM     17  C   UNL     1      -1.065   3.655   3.683  1.00  0.00     0.279 A 
ATOM     18  C   UNL     1       0.690   5.828   3.663  1.00  0.00     0.021 A 
ATOM     19  C   UNL     1      -1.531   4.936   3.344  1.00  0.00     0.106 A 
ATOM     20  C   UNL     1      -0.642   6.006   3.310  1.00  0.00     0.047 A 
ATOM     21  Cl  UNL     1      -1.195   7.556   2.811  1.00  0.00    -0.084 Cl
BRANCH  17  22
ATOM     22  N   UNL     1      -2.070   2.579   3.773  1.00  0.00     0.063 N 
ATOM     23  O   UNL     1      -3.158   2.762   3.206  1.00  0.00    -0.258 OA
ATOM     24  O   UNL     1      -1.788   1.555   4.407  1.00  0.00    -0.258 OA
ENDBRANCH  17  22
ENDBRANCH  14  15
ENDBRANCH  11  14
ENDBRANCH   6  11
ENDBRANCH   4   6
ENDBRANCH   3   4
ENDBRANCH   2   3
ENDBRANCH   1   2
BRANCH   1  25
ATOM     25  O   UNL     1       4.911  -0.595   2.667  1.00  0.00    -0.374 OA
BRANCH  25  26
ATOM     26  C   UNL     1       3.653  -0.969   3.228  1.00  0.00     0.202 C 
BRANCH  26  27
ATOM     27  C   UNL     1       3.565  -1.208   4.739  1.00  0.00     0.261 C 
BRANCH  27  28
ATOM     28  O   UNL     1       3.797  -0.011   5.503  1.00  0.00    -0.460 OA
BRANCH  28  29
ATOM     29  C   UNL     1       4.992   0.002   6.144  1.00  0.00     0.338 C 
ATOM     30  O   UNL     1       5.811  -0.899   6.181  1.00  0.00    -0.246 OA
BRANCH  29  31
ATOM     31  C   UNL     1       5.295   1.362   6.632  1.00  0.00     0.060 A 
ATOM     32  C   UNL     1       6.553   1.882   6.300  1.00  0.00     0.016 A 
ATOM     33  C   UNL     1       4.432   2.066   7.473  1.00  0.00     0.016 A 
ATOM     34  C   UNL     1       6.996   3.060   6.888  1.00  0.00     0.010 A 
ATOM     35  C   UNL     1       4.882   3.251   8.069  1.00  0.00     0.010 A 
ATOM     36  C   UNL     1       6.190   3.713   7.827  1.00  0.00    -0.014 A 
BRANCH  36  37
ATOM     37  C   UNL     1       6.830   4.714   8.717  1.00  0.00     0.031 A 
ATOM     38  C   UNL     1       7.258   4.276  10.095  1.00  0.00     0.074 A 
ATOM     39  C   UNL     1       7.123   5.949   8.274  1.00  0.00     0.049 A 
ATOM     40  N   UNL     1       7.884   4.947  11.027  1.00  0.00    -0.248 NA
ATOM     41  C   UNL     1       6.933   2.890  10.470  1.00  0.00     0.031 C 
ATOM     42  C   UNL     1       6.814   6.462   6.940  1.00  0.00     0.029 A 
ATOM     43  N   UNL     1       7.765   6.990   8.895  1.00  0.00    -0.354 N 
ATOM     44  C   UNL     1       8.021   4.069  12.099  1.00  0.00     0.074 A 
ATOM     45  C   UNL     1       7.370   2.835  11.717  1.00  0.00     0.031 C 
ATOM     46  C   UNL     1       7.277   7.720   6.840  1.00  0.00     0.029 A 
ATOM     47  C   UNL     1       7.885   8.113   8.110  1.00  0.00     0.049 A 
ATOM     48  H   UNL     1       8.107   6.939   9.817  1.00  0.00     0.167 HD
ATOM     49  C   UNL     1       8.644   4.269  13.287  1.00  0.00     0.034 A 
ATOM     50  C   UNL     1       8.419   9.319   8.390  1.00  0.00     0.034 A 
ATOM     51  C   UNL     1       9.290   5.507  13.650  1.00  0.00     0.049 A 
ATOM     52  C   UNL     1       9.045   9.542   9.747  1.00  0.00     0.074 A 
ATOM     53  C   UNL     1       9.959   5.820  14.820  1.00  0.00     0.029 A 
ATOM     54  N   UNL     1       9.342   6.642  12.850  1.00  0.00    -0.354 N 
ATOM     55  N   UNL     1       9.171   8.704  10.751  1.00  0.00    -0.248 NA
ATOM     56  C   UNL     1       9.617  10.871   9.998  1.00  0.00     0.031 C 
ATOM     57  C   UNL     1      10.345   7.163  14.760  1.00  0.00     0.029 A 
ATOM     58  C   UNL     1      10.002   7.665  13.514  1.00  0.00     0.049 A 
ATOM     59  H   UNL     1       8.965   6.710  11.943  1.00  0.00     0.167 HD
ATOM     60  C   UNL     1       9.879   9.393  11.735  1.00  0.00     0.074 A 
ATOM     61  C   UNL     1      10.158  10.708  11.196  1.00  0.00     0.031 C 
ATOM     62  C   UNL     1      10.272   8.975  12.966  1.00  0.00     0.034 A 
BRANCH  49  63
ATOM     63  C   UNL     1       8.596   3.144  14.294  1.00  0.00     0.023 A 
ATOM     64  C   UNL     1       9.187   1.892  14.047  1.00  0.00     0.031 A 
ATOM     65  C   UNL     1       7.908   3.315  15.509  1.00  0.00     0.131 A 
ATOM     66  C   UNL     1       9.013   0.842  14.962  1.00  0.00     0.055 A 
ATOM     67  C   UNL     1       7.812   2.292  16.454  1.00  0.00     0.041 A 
ATOM     68  F   UNL     1       7.299   4.478  15.792  1.00  0.00    -0.206 F 
ATOM     69  C   UNL     1       8.353   1.041  16.176  1.00  0.00     0.022 A 
BRANCH  66  70
ATOM     70  S   UNL     1       9.522  -0.830  14.473  1.00  0.00     0.124 S 
ATOM     71  O   UNL     1       8.737  -1.033  13.257  1.00  0.00    -0.237 OA
ATOM     72  O   UNL     1      10.960  -0.680  14.288  1.00  0.00    -0.237 OA
ATOM     73  O   UNL     1       9.120  -1.657  15.609  1.00  0.00    -0.744 OA
ENDBRANCH  66  70
ENDBRANCH  49  63
BRANCH  50  74
ATOM     74  C   UNL     1       8.377  10.418   7.383  1.00  0.00     0.023 A 
ATOM     75  C   UNL     1       9.555  10.977   6.864  1.00  0.00     0.031 A 
ATOM     76  C   UNL     1       7.150  10.971   6.973  1.00  0.00     0.131 A 
ATOM     77  C   UNL     1       9.486  12.087   6.007  1.00  0.00     0.055 A 
ATOM     78  C   UNL     1       7.084  12.038   6.076  1.00  0.00     0.041 A 
ATOM     79  F   UNL     1       5.992  10.475   7.437  1.00  0.00    -0.206 F 
ATOM     80  C   UNL     1       8.258  12.613   5.599  1.00  0.00     0.022 A 
BRANCH  77  81
ATOM     81  S   UNL     1      11.030  12.895   5.505  1.00  0.00     0.124 S 
ATOM     82  O   UNL     1      11.606  13.259   6.795  1.00  0.00    -0.237 OA
ATOM     83  O   UNL     1      11.707  11.827   4.778  1.00  0.00    -0.237 OA
ATOM     84  O   UNL     1      10.575  14.015   4.684  1.00  0.00    -0.744 OA
ENDBRANCH  77  81
ENDBRANCH  50  74
BRANCH  62  85
ATOM     85  C   UNL     1      11.107   9.933  13.785  1.00  0.00     0.023 A 
ATOM     86  C   UNL     1      10.604  11.165  14.237  1.00  0.00     0.031 A 
ATOM     87  C   UNL     1      12.443   9.614  14.093  1.00  0.00     0.131 A 
ATOM     88  C   UNL     1      11.451  12.064  14.904  1.00  0.00     0.055 A 
ATOM     89  C   UNL     1      13.259  10.481  14.821  1.00  0.00     0.041 A 
ATOM     90  F   UNL     1      12.980   8.452  13.687  1.00  0.00    -0.206 F 
ATOM     91  C   UNL     1      12.770  11.723  15.214  1.00  0.00     0.022 A 
BRANCH  88  92
ATOM     92  S   UNL     1      10.844  13.739  15.246  1.00  0.00     0.124 S 
ATOM     93  O   UNL     1      10.439  14.193  13.920  1.00  0.00    -0.237 OA
ATOM     94  O   UNL     1       9.762  13.490  16.193  1.00  0.00    -0.237 OA
ATOM     95  O   UNL     1      12.012  14.420  15.804  1.00  0.00    -0.744 OA
ENDBRANCH  88  92
ENDBRANCH  62  85
ENDBRANCH  36  37
ENDBRANCH  29  31
ENDBRANCH  28  29
ENDBRANCH  27  28
ENDBRANCH  26  27
ENDBRANCH  25  26
ENDBRANCH   1  25
TORSDOF 23
