REMARK SMILES Cc1cnc(NC(=O)NC[C@H]2CC[C@H](C(=O)OCCOCCOC(=O)c3ccc(-c4c5nc(c(-c6cc(S(=O)(=O)[O-])ccc6F)c6ccc([nH]6)c(-c6cc(S(=O)(=O)[O-])ccc6F)c6nc(c(-c7cc(S(=O)(=O)[O-])ccc7F)c7ccc4[nH]7)C=C6)C=C5)cc3)O2)s1
REMARK SMILES IDX 20 1 19 2 18 3 17 4 15 5 16 6 14 7 11 8 12 9 89 10 13 11
REMARK SMILES IDX 10 12 9 13 6 14 7 15 8 17 5 19 1 20 2 21 3 22 90 23 4 24
REMARK SMILES IDX 21 25 22 26 23 27 24 28 25 29 26 30 27 31 88 32 28 33 87 34
REMARK SMILES IDX 29 35 30 36 31 37 81 38 32 39 86 40 80 41 82 42 33 43 85 44
REMARK SMILES IDX 79 45 78 46 34 48 66 49 46 50 65 51 47 52 50 53 64 54 83 55
REMARK SMILES IDX 48 56 49 57 63 59 84 60 51 61 35 62 36 63 44 64 37 65 43 66
REMARK SMILES IDX 45 67 42 68 38 69 39 70 40 71 41 72 67 73 68 74 76 75 69 76
REMARK SMILES IDX 75 77 77 78 74 79 70 80 71 81 72 82 73 83 52 84 53 85 61 86
REMARK SMILES IDX 54 87 60 88 62 89 59 90 55 91 56 92 57 93 58 94
REMARK H PARENT 6 16 9 18 82 47 50 58
REMARK Flexibility Score: inf
ROOT
ATOM      1  O   UNL     1      -3.619   3.205  -5.875  1.00  0.00    -0.374 OA
ENDROOT
BRANCH   1   2
ATOM      2  C   UNL     1      -4.269   3.046  -4.614  1.00  0.00     0.202 C 
BRANCH   2   3
ATOM      3  C   UNL     1      -3.710   1.956  -3.693  1.00  0.00     0.261 C 
BRANCH   3   4
ATOM      4  O   UNL     1      -2.385   2.284  -3.241  1.00  0.00    -0.461 OA
BRANCH   4   5
ATOM      5  C   UNL     1      -1.379   1.466  -3.661  1.00  0.00     0.335 C 
ATOM      6  O   UNL     1      -1.535   0.449  -4.327  1.00  0.00    -0.249 OA
BRANCH   5   7
ATOM      7  C   UNL     1      -0.000   1.964  -3.201  1.00  0.00     0.228 C 
ATOM      8  C   UNL     1       0.449   2.293  -0.934  1.00  0.00     0.138 C 
ATOM      9  C   UNL     1      -0.182   3.568  -1.480  1.00  0.00     0.037 C 
ATOM     10  O   UNL     1       0.382   1.311  -1.979  1.00  0.00    -0.361 OA
ATOM     11  C   UNL     1       0.117   3.462  -2.951  1.00  0.00     0.047 C 
BRANCH   8  12
ATOM     12  C   UNL     1       1.901   2.522  -0.472  1.00  0.00     0.149 C 
BRANCH  12  13
ATOM     13  N   UNL     1       2.939   1.865  -1.256  1.00  0.00    -0.335 N 
ATOM     14  N   UNL     1       4.343   3.451  -2.368  1.00  0.00    -0.284 N 
ATOM     15  C   UNL     1       3.972   2.210  -2.032  1.00  0.00     0.321 C 
ATOM     16  H   UNL     1       4.990   3.473  -3.109  1.00  0.00     0.174 HD
ATOM     17  O   UNL     1       4.574   1.279  -2.584  1.00  0.00    -0.248 OA
ATOM     18  H   UNL     1       2.856   0.886  -1.197  1.00  0.00     0.165 HD
BRANCH  14  19
ATOM     19  C   UNL     1       4.019   4.685  -1.907  1.00  0.00     0.190 A 
ATOM     20  C   UNL     1       2.233   7.193   0.326  1.00  0.00     0.058 C 
ATOM     21  C   UNL     1       3.083   6.476  -0.655  1.00  0.00     0.023 A 
ATOM     22  C   UNL     1       3.306   6.746  -1.991  1.00  0.00     0.128 A 
ATOM     23  S   UNL     1       3.960   5.055  -0.242  1.00  0.00    -0.102 S 
ATOM     24  N   UNL     1       3.910   5.726  -2.699  1.00  0.00    -0.228 NA
ENDBRANCH  14  19
ENDBRANCH  12  13
ENDBRANCH   8  12
ENDBRANCH   5   7
ENDBRANCH   4   5
ENDBRANCH   3   4
ENDBRANCH   2   3
ENDBRANCH   1   2
BRANCH   1  25
ATOM     25  C   UNL     1      -2.378   3.906  -5.891  1.00  0.00     0.202 C 
BRANCH  25  26
ATOM     26  C   UNL     1      -2.435   5.435  -5.757  1.00  0.00     0.261 C 
BRANCH  26  27
ATOM     27  O   UNL     1      -2.998   5.873  -4.506  1.00  0.00    -0.460 OA
BRANCH  27  28
ATOM     28  C   UNL     1      -4.208   6.474  -4.624  1.00  0.00     0.338 C 
ATOM     29  O   UNL     1      -4.800   6.730  -5.666  1.00  0.00    -0.246 OA
BRANCH  28  30
ATOM     30  C   UNL     1      -4.846   6.641  -3.305  1.00  0.00     0.060 A 
ATOM     31  C   UNL     1      -6.122   6.087  -3.140  1.00  0.00     0.016 A 
ATOM     32  C   UNL     1      -4.272   7.410  -2.290  1.00  0.00     0.016 A 
ATOM     33  C   UNL     1      -6.852   6.347  -1.983  1.00  0.00     0.010 A 
ATOM     34  C   UNL     1      -5.012   7.673  -1.127  1.00  0.00     0.010 A 
ATOM     35  C   UNL     1      -6.321   7.175  -0.985  1.00  0.00    -0.014 A 
BRANCH  35  36
ATOM     36  C   UNL     1      -7.209   7.625   0.119  1.00  0.00     0.031 A 
ATOM     37  C   UNL     1      -7.825   8.998   0.054  1.00  0.00     0.074 A 
ATOM     38  C   UNL     1      -7.530   6.790   1.125  1.00  0.00     0.049 A 
ATOM     39  N   UNL     1      -8.650   9.580   0.887  1.00  0.00    -0.248 NA
ATOM     40  C   UNL     1      -7.462   9.823  -1.109  1.00  0.00     0.031 C 
ATOM     41  C   UNL     1      -7.033   5.423   1.276  1.00  0.00     0.029 A 
ATOM     42  N   UNL     1      -8.357   6.968   2.207  1.00  0.00    -0.354 N 
ATOM     43  C   UNL     1      -8.918  10.833   0.343  1.00  0.00     0.074 A 
ATOM     44  C   UNL     1      -8.123  10.944  -0.862  1.00  0.00     0.031 C 
ATOM     45  C   UNL     1      -7.562   4.887   2.389  1.00  0.00     0.029 A 
ATOM     46  C   UNL     1      -8.409   5.880   3.047  1.00  0.00     0.049 A 
ATOM     47  H   UNL     1      -8.865   7.796   2.367  1.00  0.00     0.167 HD
ATOM     48  C   UNL     1      -9.764  11.793   0.794  1.00  0.00     0.034 A 
ATOM     49  C   UNL     1      -9.052   5.710   4.221  1.00  0.00     0.034 A 
ATOM     50  C   UNL     1     -10.539  11.680   2.007  1.00  0.00     0.049 A 
ATOM     51  C   UNL     1      -9.922   6.827   4.749  1.00  0.00     0.074 A 
ATOM     52  C   UNL     1     -11.411  12.600   2.563  1.00  0.00     0.029 A 
ATOM     53  N   UNL     1     -10.531  10.581   2.857  1.00  0.00    -0.354 N 
ATOM     54  N   UNL     1     -10.164   8.006   4.223  1.00  0.00    -0.248 NA
ATOM     55  C   UNL     1     -10.618   6.582   6.019  1.00  0.00     0.031 C 
ATOM     56  C   UNL     1     -11.879  12.085   3.778  1.00  0.00     0.029 A 
ATOM     57  C   UNL     1     -11.361  10.811   3.944  1.00  0.00     0.049 A 
ATOM     58  H   UNL     1     -10.011   9.758   2.709  1.00  0.00     0.167 HD
ATOM     59  C   UNL     1     -11.063   8.629   5.086  1.00  0.00     0.074 A 
ATOM     60  C   UNL     1     -11.336   7.686   6.151  1.00  0.00     0.031 C 
ATOM     61  C   UNL     1     -11.614   9.868   5.008  1.00  0.00     0.034 A 
BRANCH  48  62
ATOM     62  C   UNL     1      -9.859  13.066  -0.013  1.00  0.00     0.023 A 
ATOM     63  C   UNL     1     -10.370  13.071  -1.323  1.00  0.00     0.031 A 
ATOM     64  C   UNL     1      -9.415  14.287   0.524  1.00  0.00     0.131 A 
ATOM     65  C   UNL     1     -10.363  14.257  -2.074  1.00  0.00     0.055 A 
ATOM     66  C   UNL     1      -9.483  15.479  -0.201  1.00  0.00     0.041 A 
ATOM     67  F   UNL     1      -8.895  14.341   1.760  1.00  0.00    -0.206 F 
ATOM     68  C   UNL     1      -9.947  15.466  -1.513  1.00  0.00     0.022 A 
BRANCH  65  69
ATOM     69  S   UNL     1     -10.779  14.170  -3.837  1.00  0.00     0.124 S 
ATOM     70  O   UNL     1      -9.765  13.243  -4.333  1.00  0.00    -0.237 OA
ATOM     71  O   UNL     1     -12.148  13.668  -3.814  1.00  0.00    -0.237 OA
ATOM     72  O   UNL     1     -10.628  15.550  -4.293  1.00  0.00    -0.744 OA
ENDBRANCH  65  69
ENDBRANCH  48  62
BRANCH  49  73
ATOM     73  C   UNL     1      -8.866   4.457   5.011  1.00  0.00     0.023 A 
ATOM     74  C   UNL     1      -9.943   3.605   5.300  1.00  0.00     0.031 A 
ATOM     75  C   UNL     1      -7.607   4.133   5.550  1.00  0.00     0.131 A 
ATOM     76  C   UNL     1      -9.754   2.503   6.151  1.00  0.00     0.055 A 
ATOM     77  C   UNL     1      -7.412   3.004   6.346  1.00  0.00     0.041 A 
ATOM     78  F   UNL     1      -6.542   4.913   5.306  1.00  0.00    -0.206 F 
ATOM     79  C   UNL     1      -8.494   2.190   6.665  1.00  0.00     0.022 A 
BRANCH  76  80
ATOM     80  S   UNL     1     -11.205   1.542   6.664  1.00  0.00     0.124 S 
ATOM     81  O   UNL     1     -12.049   2.573   7.258  1.00  0.00    -0.237 OA
ATOM     82  O   UNL     1     -11.664   0.990   5.394  1.00  0.00    -0.237 OA
ATOM     83  O   UNL     1     -10.652   0.568   7.603  1.00  0.00    -0.744 OA
ENDBRANCH  76  80
ENDBRANCH  49  73
BRANCH  61  84
ATOM     84  C   UNL     1     -12.599  10.250   6.089  1.00  0.00     0.023 A 
ATOM     85  C   UNL     1     -12.203  10.400   7.430  1.00  0.00     0.031 A 
ATOM     86  C   UNL     1     -13.957  10.442   5.776  1.00  0.00     0.131 A 
ATOM     87  C   UNL     1     -13.165  10.664   8.418  1.00  0.00     0.055 A 
ATOM     88  C   UNL     1     -14.898  10.768   6.754  1.00  0.00     0.041 A 
ATOM     89  F   UNL     1     -14.392  10.312   4.513  1.00  0.00    -0.206 F 
ATOM     90  C   UNL     1     -14.507  10.864   8.086  1.00  0.00     0.022 A 
BRANCH  87  91
ATOM     91  S   UNL     1     -12.654  10.633  10.159  1.00  0.00     0.124 S 
ATOM     92  O   UNL     1     -12.091   9.293  10.286  1.00  0.00    -0.237 OA
ATOM     93  O   UNL     1     -11.700  11.735  10.223  1.00  0.00    -0.237 OA
ATOM     94  O   UNL     1     -13.903  10.852  10.886  1.00  0.00    -0.744 OA
ENDBRANCH  87  91
ENDBRANCH  61  84
ENDBRANCH  35  36
ENDBRANCH  28  30
ENDBRANCH  27  28
ENDBRANCH  26  27
ENDBRANCH  25  26
ENDBRANCH   1  25
TORSDOF 20
