REMARK SMILES Cc1ccccc1C(=O)Nc1ccc(N2CCC(n3c(C)nc4cccnc43)CC2)c(C(=O)OCCOCCOC(=O)c2ccc(-c3c4nc(c(-c5cc(S(=O)(=O)[O-])ccc5F)c5ccc([nH]5)c(-c5cc(S(=O)(=O)[O-])ccc5F)c5nc(c(-c6cc(S(=O)(=O)[O-])ccc6F)c6ccc3[nH]6)C=C5)C=C4)cc2)c1
REMARK SMILES IDX 38 1 37 2 36 3 35 4 34 5 32 6 33 7 31 8 11 9 12 10 106 11
REMARK SMILES IDX 13 12 14 13 10 14 8 15 9 16 7 18 1 19 2 20 3 21 4 22 6 23
REMARK SMILES IDX 5 24 15 25 16 26 30 27 17 28 29 29 18 30 19 31 20 32 28 33
REMARK SMILES IDX 21 34 22 35 23 36 27 37 24 38 26 39 25 40 39 41 40 42 41 43
REMARK SMILES IDX 42 44 43 45 44 46 105 47 45 48 104 49 46 50 47 51 48 52
REMARK SMILES IDX 98 53 49 54 103 55 97 56 99 57 50 58 102 59 96 60 95 61
REMARK SMILES IDX 51 63 83 64 63 65 82 66 64 67 67 68 81 69 100 70 65 71 66 72
REMARK SMILES IDX 80 74 101 75 68 76 52 77 53 78 61 79 54 80 60 81 62 82 59 83
REMARK SMILES IDX 55 84 56 85 57 86 58 87 84 88 85 89 93 90 86 91 92 92 94 93
REMARK SMILES IDX 91 94 87 95 88 96 89 97 90 98 69 99 70 100 78 101 71 102
REMARK SMILES IDX 77 103 79 104 76 105 72 106 73 107 74 108 75 109
REMARK H PARENT 10 17 99 62 67 73
REMARK Flexibility Score: inf
ROOT
ATOM      1  C   UNL     1       8.589   1.591   0.158  1.00  0.00     0.202 C 
ENDROOT
BRANCH   1   2
ATOM      2  O   UNL     1       8.110   0.432   0.791  1.00  0.00    -0.374 OA
BRANCH   2   3
ATOM      3  C   UNL     1       8.338  -0.797   0.109  1.00  0.00     0.202 C 
BRANCH   3   4
ATOM      4  C   UNL     1       7.600  -1.810   0.917  1.00  0.00     0.261 C 
BRANCH   4   5
ATOM      5  O   UNL     1       6.202  -1.625   0.695  1.00  0.00    -0.460 OA
BRANCH   5   6
ATOM      6  C   UNL     1       5.538  -0.515   1.052  1.00  0.00     0.340 C 
ATOM      7  O   UNL     1       5.672   0.140   2.061  1.00  0.00    -0.246 OA
BRANCH   6   8
ATOM      8  C   UNL     1       4.626  -0.177  -0.070  1.00  0.00     0.085 A 
ATOM      9  C   UNL     1       3.022   1.470  -0.768  1.00  0.00     0.042 A 
ATOM     10  C   UNL     1       2.734   0.721  -1.900  1.00  0.00     0.028 A 
ATOM     11  C   UNL     1       4.094   1.121   0.037  1.00  0.00     0.044 A 
ATOM     12  C   UNL     1       3.376  -0.505  -2.099  1.00  0.00     0.029 A 
ATOM     13  C   UNL     1       4.206  -1.059  -1.108  1.00  0.00     0.051 A 
BRANCH   9  14
ATOM     14  N   UNL     1       2.187   2.483  -0.296  1.00  0.00    -0.322 N 
ATOM     15  C   UNL     1       0.836   2.426  -0.002  1.00  0.00     0.255 C 
ATOM     16  O   UNL     1       0.282   3.486   0.306  1.00  0.00    -0.269 OA
ATOM     17  H   UNL     1       2.617   3.356  -0.153  1.00  0.00     0.170 HD
BRANCH  15  18
ATOM     18  C   UNL     1       0.008   1.168  -0.008  1.00  0.00     0.043 A 
ATOM     19  C   UNL     1       1.589  -0.421   1.279  1.00  0.00     0.045 C 
ATOM     20  C   UNL     1       0.366  -0.105   0.478  1.00  0.00    -0.038 A 
ATOM     21  C   UNL     1      -0.513  -1.195   0.301  1.00  0.00     0.004 A 
ATOM     22  C   UNL     1      -1.808  -1.004  -0.160  1.00  0.00     0.000 A 
ATOM     23  C   UNL     1      -1.327   1.346  -0.421  1.00  0.00     0.014 A 
ATOM     24  C   UNL     1      -2.232   0.280  -0.470  1.00  0.00     0.001 A 
ENDBRANCH  15  18
ENDBRANCH   9  14
BRANCH  13  25
ATOM     25  N   UNL     1       4.320  -2.457  -1.139  1.00  0.00    -0.371 N 
ATOM     26  C   UNL     1       5.247  -3.088  -2.088  1.00  0.00     0.118 C 
ATOM     27  C   UNL     1       4.109  -3.201   0.096  1.00  0.00     0.118 C 
ATOM     28  C   UNL     1       4.850  -4.570  -2.344  1.00  0.00     0.047 C 
ATOM     29  C   UNL     1       3.595  -4.585  -0.198  1.00  0.00     0.047 C 
ATOM     30  C   UNL     1       4.625  -5.362  -1.025  1.00  0.00     0.094 C 
BRANCH  30  31
ATOM     31  N   UNL     1       4.377  -6.811  -1.110  1.00  0.00    -0.310 N 
ATOM     32  C   UNL     1       3.553  -7.628  -0.323  1.00  0.00     0.108 A 
ATOM     33  C   UNL     1       5.239  -7.697  -1.742  1.00  0.00     0.160 A 
ATOM     34  C   UNL     1       2.799  -7.258   0.905  1.00  0.00     0.088 C 
ATOM     35  N   UNL     1       3.632  -8.894  -0.692  1.00  0.00    -0.232 NA
ATOM     36  C   UNL     1       4.750  -8.964  -1.456  1.00  0.00     0.108 A 
ATOM     37  N   UNL     1       6.369  -7.418  -2.414  1.00  0.00    -0.237 NA
ATOM     38  C   UNL     1       5.470 -10.083  -1.888  1.00  0.00     0.034 A 
ATOM     39  C   UNL     1       7.091  -8.524  -2.720  1.00  0.00     0.113 A 
ATOM     40  C   UNL     1       6.693  -9.842  -2.508  1.00  0.00     0.022 A 
ENDBRANCH  30  31
ENDBRANCH  13  25
ENDBRANCH   6   8
ENDBRANCH   5   6
ENDBRANCH   4   5
ENDBRANCH   3   4
ENDBRANCH   2   3
ENDBRANCH   1   2
BRANCH   1  41
ATOM     41  C   UNL     1      10.102   1.526  -0.057  1.00  0.00     0.261 C 
BRANCH  41  42
ATOM     42  O   UNL     1      10.798   1.535   1.212  1.00  0.00    -0.460 OA
BRANCH  42  43
ATOM     43  C   UNL     1      11.166   0.317   1.710  1.00  0.00     0.338 C 
ATOM     44  O   UNL     1      11.995  -0.416   1.201  1.00  0.00    -0.246 OA
BRANCH  43  45
ATOM     45  C   UNL     1      10.345  -0.026   2.909  1.00  0.00     0.060 A 
ATOM     46  C   UNL     1      10.343  -1.330   3.439  1.00  0.00     0.016 A 
ATOM     47  C   UNL     1       9.380   0.891   3.316  1.00  0.00     0.016 A 
ATOM     48  C   UNL     1       9.288  -1.744   4.262  1.00  0.00     0.010 A 
ATOM     49  C   UNL     1       8.266   0.427   3.971  1.00  0.00     0.010 A 
ATOM     50  C   UNL     1       8.207  -0.889   4.439  1.00  0.00    -0.014 A 
BRANCH  50  51
ATOM     51  C   UNL     1       6.934  -1.244   5.055  1.00  0.00     0.031 A 
ATOM     52  C   UNL     1       6.593  -0.585   6.324  1.00  0.00     0.074 A 
ATOM     53  C   UNL     1       6.022  -1.965   4.365  1.00  0.00     0.049 A 
ATOM     54  N   UNL     1       5.731  -1.036   7.163  1.00  0.00    -0.248 NA
ATOM     55  C   UNL     1       7.280   0.612   6.816  1.00  0.00     0.031 C 
ATOM     56  C   UNL     1       4.577  -2.068   4.546  1.00  0.00     0.029 A 
ATOM     57  N   UNL     1       6.262  -2.844   3.308  1.00  0.00    -0.354 N 
ATOM     58  C   UNL     1       5.453   0.005   8.020  1.00  0.00     0.074 A 
ATOM     59  C   UNL     1       6.592   0.872   7.928  1.00  0.00     0.031 C 
ATOM     60  C   UNL     1       4.125  -3.148   3.876  1.00  0.00     0.029 A 
ATOM     61  C   UNL     1       5.300  -3.850   3.363  1.00  0.00     0.049 A 
ATOM     62  H   UNL     1       6.983  -2.767   2.643  1.00  0.00     0.167 HD
ATOM     63  C   UNL     1       4.185   0.130   8.499  1.00  0.00     0.034 A 
ATOM     64  C   UNL     1       5.660  -5.148   3.564  1.00  0.00     0.034 A 
ATOM     65  C   UNL     1       3.345  -0.980   8.016  1.00  0.00     0.049 A 
ATOM     66  C   UNL     1       4.952  -5.573   4.824  1.00  0.00     0.074 A 
ATOM     67  C   UNL     1       2.271  -1.051   7.142  1.00  0.00     0.029 A 
ATOM     68  N   UNL     1       3.760  -2.293   8.224  1.00  0.00    -0.354 N 
ATOM     69  N   UNL     1       4.797  -4.780   5.854  1.00  0.00    -0.248 NA
ATOM     70  C   UNL     1       4.157  -6.795   4.907  1.00  0.00     0.031 C 
ATOM     71  C   UNL     1       2.060  -2.422   6.818  1.00  0.00     0.029 A 
ATOM     72  C   UNL     1       3.008  -3.180   7.489  1.00  0.00     0.049 A 
ATOM     73  H   UNL     1       4.498  -2.553   8.822  1.00  0.00     0.167 HD
ATOM     74  C   UNL     1       3.805  -5.293   6.645  1.00  0.00     0.074 A 
ATOM     75  C   UNL     1       3.474  -6.578   6.044  1.00  0.00     0.031 C 
ATOM     76  C   UNL     1       3.196  -4.608   7.656  1.00  0.00     0.034 A 
BRANCH  63  77
ATOM     77  C   UNL     1       3.593   1.369   9.152  1.00  0.00     0.023 A 
ATOM     78  C   UNL     1       2.199   1.394   9.361  1.00  0.00     0.031 A 
ATOM     79  C   UNL     1       4.265   2.540   9.562  1.00  0.00     0.131 A 
ATOM     80  C   UNL     1       1.539   2.524   9.876  1.00  0.00     0.055 A 
ATOM     81  C   UNL     1       3.611   3.669  10.075  1.00  0.00     0.041 A 
ATOM     82  F   UNL     1       5.592   2.673   9.525  1.00  0.00    -0.206 F 
ATOM     83  C   UNL     1       2.238   3.669  10.231  1.00  0.00     0.022 A 
BRANCH  80  84
ATOM     84  S   UNL     1      -0.257   2.460  10.079  1.00  0.00     0.124 S 
ATOM     85  O   UNL     1      -0.715   2.382   8.696  1.00  0.00    -0.237 OA
ATOM     86  O   UNL     1      -0.436   1.260  10.889  1.00  0.00    -0.237 OA
ATOM     87  O   UNL     1      -0.562   3.716  10.763  1.00  0.00    -0.744 OA
ENDBRANCH  80  84
ENDBRANCH  63  77
BRANCH  64  88
ATOM     88  C   UNL     1       7.066  -5.471   3.123  1.00  0.00     0.023 A 
ATOM     89  C   UNL     1       7.383  -5.499   1.739  1.00  0.00     0.031 A 
ATOM     90  C   UNL     1       8.154  -5.390   3.997  1.00  0.00     0.131 A 
ATOM     91  C   UNL     1       8.704  -5.344   1.263  1.00  0.00     0.055 A 
ATOM     92  C   UNL     1       9.471  -5.235   3.528  1.00  0.00     0.041 A 
ATOM     93  F   UNL     1       7.960  -5.345   5.322  1.00  0.00    -0.206 F 
ATOM     94  C   UNL     1       9.746  -5.165   2.163  1.00  0.00     0.022 A 
BRANCH  91  95
ATOM     95  S   UNL     1       9.079  -5.147  -0.523  1.00  0.00     0.124 S 
ATOM     96  O   UNL     1       9.412  -6.505  -0.930  1.00  0.00    -0.237 OA
ATOM     97  O   UNL     1       7.844  -4.596  -1.067  1.00  0.00    -0.237 OA
ATOM     98  O   UNL     1      10.191  -4.198  -0.524  1.00  0.00    -0.744 OA
ENDBRANCH  91  95
ENDBRANCH  64  88
BRANCH  76  99
ATOM     99  C   UNL     1       2.691  -5.274   8.909  1.00  0.00     0.023 A 
ATOM    100  C   UNL     1       2.815  -6.649   9.119  1.00  0.00     0.031 A 
ATOM    101  C   UNL     1       2.208  -4.524  10.009  1.00  0.00     0.131 A 
ATOM    102  C   UNL     1       2.404  -7.242  10.318  1.00  0.00     0.055 A 
ATOM    103  C   UNL     1       1.883  -5.104  11.236  1.00  0.00     0.041 A 
ATOM    104  F   UNL     1       2.070  -3.192   9.966  1.00  0.00    -0.206 F 
ATOM    105  C   UNL     1       1.964  -6.478  11.393  1.00  0.00     0.022 A 
BRANCH 102 106
ATOM    106  S   UNL     1       2.409  -9.045  10.384  1.00  0.00     0.124 S 
ATOM    107  O   UNL     1       1.458  -9.381   9.326  1.00  0.00    -0.237 OA
ATOM    108  O   UNL     1       3.804  -9.367  10.102  1.00  0.00    -0.237 OA
ATOM    109  O   UNL     1       1.961  -9.339  11.742  1.00  0.00    -0.744 OA
ENDBRANCH 102 106
ENDBRANCH  76  99
ENDBRANCH  50  51
ENDBRANCH  43  45
ENDBRANCH  42  43
ENDBRANCH  41  42
ENDBRANCH   1  41
TORSDOF 21
