REMARK SMILES O=CN[C@@H](CCSC1CCO[C@]2(CCOC2)C1)C(=O)OCCOCCOC(=O)c1ccc(-c2c3nc(c(-c4cc(S(=O)(=O)[O-])ccc4F)c4ccc([nH]4)c(-c4cc(S(=O)(=O)[O-])ccc4F)c4nc(c(-c5cc(S(=O)(=O)[O-])ccc5F)c5ccc2[nH]5)C=C4)C=C3)cc1
REMARK SMILES IDX 22 1 21 2 20 3 18 4 19 5 4 6 3 7 1 8 2 9 5 11 6 12 7 13 8 14
REMARK SMILES IDX 9 15 17 16 10 17 12 18 11 19 13 20 16 21 14 22 15 23 23 24
REMARK SMILES IDX 24 25 25 26 26 27 27 28 28 29 29 30 30 31 91 32 31 33 90 34
REMARK SMILES IDX 32 35 33 36 34 37 84 38 35 39 89 40 83 41 85 42 36 43 88 44
REMARK SMILES IDX 82 45 81 46 37 48 69 49 49 50 68 51 50 52 53 53 67 54 86 55
REMARK SMILES IDX 51 56 52 57 66 59 87 60 54 61 38 62 39 63 47 64 40 65 46 66
REMARK SMILES IDX 48 67 45 68 41 69 42 70 43 71 44 72 70 73 71 74 79 75 72 76
REMARK SMILES IDX 78 77 80 78 77 79 73 80 74 81 75 82 76 83 55 84 56 85 64 86
REMARK SMILES IDX 57 87 63 88 65 89 62 90 58 91 59 92 60 93 61 94
REMARK H PARENT 3 10 85 47 53 58
REMARK Flexibility Score: inf
ROOT
ATOM      1  C   UNL     1       4.959  -5.447   1.040  1.00  0.00     0.202 C 
ENDROOT
BRANCH   1   2
ATOM      2  C   UNL     1       5.864  -4.774   2.215  1.00  0.00     0.261 C 
BRANCH   2   3
ATOM      3  O   UNL     1       5.380  -3.424   2.703  1.00  0.00    -0.462 OA
BRANCH   3   4
ATOM      4  C   UNL     1       5.950  -2.209   3.035  1.00  0.00     0.328 C 
ATOM      5  O   UNL     1       7.159  -2.009   3.073  1.00  0.00    -0.250 OA
BRANCH   4   6
ATOM      6  C   UNL     1       4.841  -1.029   3.410  1.00  0.00     0.192 C 
BRANCH   6   7
ATOM      7  N   UNL     1       3.800  -0.424   2.519  1.00  0.00    -0.345 N 
ATOM      8  O   UNL     1       1.832   0.604   2.137  1.00  0.00    -0.279 OA
ATOM      9  C   UNL     1       2.941   0.621   2.662  1.00  0.00     0.337 C 
ATOM     10  H   UNL     1       3.722  -0.877   1.648  1.00  0.00     0.164 HD
ENDBRANCH   6   7
BRANCH   6  11
ATOM     11  C   UNL     1       3.982  -1.717   4.431  1.00  0.00     0.048 C 
BRANCH  11  12
ATOM     12  C   UNL     1       3.196  -2.848   3.719  1.00  0.00     0.072 C 
BRANCH  12  13
ATOM     13  S   UNL     1       2.896  -2.884   1.701  1.00  0.00    -0.158 SA
BRANCH  13  14
ATOM     14  C   UNL     1       4.520  -2.158   0.485  1.00  0.00     0.052 C 
ATOM     15  C   UNL     1       6.040  -2.517   0.155  1.00  0.00     0.043 C 
ATOM     16  C   UNL     1       4.094  -0.913  -0.310  1.00  0.00     0.052 C 
ATOM     17  C   UNL     1       6.968  -1.499  -0.470  1.00  0.00     0.162 C 
ATOM     18  C   UNL     1       5.238   0.066  -0.637  1.00  0.00     0.095 C 
ATOM     19  O   UNL     1       6.253  -0.644  -1.345  1.00  0.00    -0.372 OA
ATOM     20  C   UNL     1       5.888   0.877   0.475  1.00  0.00     0.066 C 
ATOM     21  C   UNL     1       4.666   1.181  -1.502  1.00  0.00     0.195 C 
ATOM     22  C   UNL     1       5.109   2.159   0.551  1.00  0.00     0.163 C 
ATOM     23  O   UNL     1       4.270   2.226  -0.602  1.00  0.00    -0.378 OA
ENDBRANCH  13  14
ENDBRANCH  12  13
ENDBRANCH  11  12
ENDBRANCH   6  11
ENDBRANCH   4   6
ENDBRANCH   3   4
ENDBRANCH   2   3
ENDBRANCH   1   2
BRANCH   1  24
ATOM     24  O   UNL     1       5.330  -5.039  -0.279  1.00  0.00    -0.374 OA
BRANCH  24  25
ATOM     25  C   UNL     1       4.517  -5.092  -1.478  1.00  0.00     0.202 C 
BRANCH  25  26
ATOM     26  C   UNL     1       3.061  -4.553  -1.596  1.00  0.00     0.261 C 
BRANCH  26  27
ATOM     27  O   UNL     1       2.208  -5.035  -0.576  1.00  0.00    -0.460 OA
BRANCH  27  28
ATOM     28  C   UNL     1       1.959  -6.346  -0.707  1.00  0.00     0.338 C 
ATOM     29  O   UNL     1       2.175  -7.042  -1.693  1.00  0.00    -0.246 OA
BRANCH  28  30
ATOM     30  C   UNL     1       1.713  -6.864   0.634  1.00  0.00     0.060 A 
ATOM     31  C   UNL     1       2.481  -7.971   0.997  1.00  0.00     0.016 A 
ATOM     32  C   UNL     1       0.786  -6.288   1.511  1.00  0.00     0.016 A 
ATOM     33  C   UNL     1       2.229  -8.599   2.197  1.00  0.00     0.010 A 
ATOM     34  C   UNL     1       0.525  -6.927   2.720  1.00  0.00     0.010 A 
ATOM     35  C   UNL     1       1.189  -8.131   3.010  1.00  0.00    -0.014 A 
BRANCH  35  36
ATOM     36  C   UNL     1       0.610  -9.118   3.940  1.00  0.00     0.031 A 
ATOM     37  C   UNL     1      -0.573  -9.912   3.451  1.00  0.00     0.074 A 
ATOM     38  C   UNL     1       1.249  -9.427   5.078  1.00  0.00     0.049 A 
ATOM     39  N   UNL     1      -1.175 -10.931   4.003  1.00  0.00    -0.248 NA
ATOM     40  C   UNL     1      -1.144  -9.510   2.153  1.00  0.00     0.031 C 
ATOM     41  C   UNL     1       2.458  -8.766   5.571  1.00  0.00     0.029 A 
ATOM     42  N   UNL     1       0.993 -10.403   6.000  1.00  0.00    -0.354 N 
ATOM     43  C   UNL     1      -2.187 -11.291   3.118  1.00  0.00     0.074 A 
ATOM     44  C   UNL     1      -2.152 -10.354   2.021  1.00  0.00     0.031 C 
ATOM     45  C   UNL     1       2.849  -9.371   6.706  1.00  0.00     0.029 A 
ATOM     46  C   UNL     1       1.900 -10.433   7.031  1.00  0.00     0.049 A 
ATOM     47  H   UNL     1       0.233 -11.024   5.932  1.00  0.00     0.167 HD
ATOM     48  C   UNL     1      -3.057 -12.325   3.210  1.00  0.00     0.034 A 
ATOM     49  C   UNL     1       1.941 -11.229   8.117  1.00  0.00     0.034 A 
ATOM     50  C   UNL     1      -3.073 -13.237   4.324  1.00  0.00     0.049 A 
ATOM     51  C   UNL     1       0.899 -12.314   8.245  1.00  0.00     0.074 A 
ATOM     52  C   UNL     1      -3.924 -14.300   4.557  1.00  0.00     0.029 A 
ATOM     53  N   UNL     1      -2.194 -13.184   5.401  1.00  0.00    -0.354 N 
ATOM     54  N   UNL     1      -0.074 -12.631   7.419  1.00  0.00    -0.248 NA
ATOM     55  C   UNL     1       0.975 -13.160   9.440  1.00  0.00     0.031 C 
ATOM     56  C   UNL     1      -3.610 -14.841   5.809  1.00  0.00     0.029 A 
ATOM     57  C   UNL     1      -2.501 -14.180   6.314  1.00  0.00     0.049 A 
ATOM     58  H   UNL     1      -1.461 -12.534   5.500  1.00  0.00     0.167 HD
ATOM     59  C   UNL     1      -0.701 -13.743   7.979  1.00  0.00     0.074 A 
ATOM     60  C   UNL     1       0.020 -14.045   9.200  1.00  0.00     0.031 C 
ATOM     61  C   UNL     1      -1.767 -14.455   7.528  1.00  0.00     0.034 A 
BRANCH  48  62
ATOM     62  C   UNL     1      -4.093 -12.458   2.119  1.00  0.00     0.023 A 
ATOM     63  C   UNL     1      -3.743 -12.714   0.780  1.00  0.00     0.031 A 
ATOM     64  C   UNL     1      -5.453 -12.269   2.418  1.00  0.00     0.131 A 
ATOM     65  C   UNL     1      -4.733 -12.705  -0.216  1.00  0.00     0.055 A 
ATOM     66  C   UNL     1      -6.442 -12.345   1.435  1.00  0.00     0.041 A 
ATOM     67  F   UNL     1      -5.845 -11.985   3.670  1.00  0.00    -0.206 F 
ATOM     68  C   UNL     1      -6.083 -12.550   0.107  1.00  0.00     0.022 A 
BRANCH  65  69
ATOM     69  S   UNL     1      -4.219 -12.748  -1.956  1.00  0.00     0.124 S 
ATOM     70  O   UNL     1      -3.384 -11.553  -2.046  1.00  0.00    -0.237 OA
ATOM     71  O   UNL     1      -3.521 -14.025  -2.048  1.00  0.00    -0.237 OA
ATOM     72  O   UNL     1      -5.482 -12.674  -2.688  1.00  0.00    -0.744 OA
ENDBRANCH  65  69
ENDBRANCH  48  62
BRANCH  49  73
ATOM     73  C   UNL     1       2.969 -11.013   9.174  1.00  0.00     0.023 A 
ATOM     74  C   UNL     1       3.894 -12.011   9.515  1.00  0.00     0.031 A 
ATOM     75  C   UNL     1       2.997  -9.811   9.906  1.00  0.00     0.131 A 
ATOM     76  C   UNL     1       4.768 -11.813  10.596  1.00  0.00     0.055 A 
ATOM     77  C   UNL     1       3.909  -9.595  10.940  1.00  0.00     0.041 A 
ATOM     78  F   UNL     1       2.136  -8.821   9.622  1.00  0.00    -0.206 F 
ATOM     79  C   UNL     1       4.791 -10.607  11.301  1.00  0.00     0.022 A 
BRANCH  76  80
ATOM     80  S   UNL     1       5.808 -13.197  11.137  1.00  0.00     0.124 S 
ATOM     81  O   UNL     1       4.812 -14.225  11.412  1.00  0.00    -0.237 OA
ATOM     82  O   UNL     1       6.651 -13.415   9.966  1.00  0.00    -0.237 OA
ATOM     83  O   UNL     1       6.499 -12.664  12.309  1.00  0.00    -0.744 OA
ENDBRANCH  76  80
ENDBRANCH  49  73
BRANCH  61  84
ATOM     84  C   UNL     1      -2.168 -15.668   8.334  1.00  0.00     0.023 A 
ATOM     85  C   UNL     1      -2.632 -15.562   9.656  1.00  0.00     0.031 A 
ATOM     86  C   UNL     1      -2.053 -16.953   7.775  1.00  0.00     0.131 A 
ATOM     87  C   UNL     1      -2.882 -16.722  10.402  1.00  0.00     0.055 A 
ATOM     88  C   UNL     1      -2.382 -18.101   8.496  1.00  0.00     0.041 A 
ATOM     89  F   UNL     1      -1.615 -17.116   6.516  1.00  0.00    -0.206 F 
ATOM     90  C   UNL     1      -2.780 -17.991   9.825  1.00  0.00     0.022 A 
BRANCH  87  91
ATOM     91  S   UNL     1      -3.204 -16.557  12.179  1.00  0.00     0.124 S 
ATOM     92  O   UNL     1      -2.037 -15.804  12.629  1.00  0.00    -0.237 OA
ATOM     93  O   UNL     1      -4.473 -15.837  12.200  1.00  0.00    -0.237 OA
ATOM     94  O   UNL     1      -3.268 -17.941  12.646  1.00  0.00    -0.744 OA
ENDBRANCH  87  91
ENDBRANCH  61  84
ENDBRANCH  35  36
ENDBRANCH  28  30
ENDBRANCH  27  28
ENDBRANCH  26  27
ENDBRANCH  25  26
ENDBRANCH  24  25
ENDBRANCH   1  24
TORSDOF 22
