REMARK SMILES NC(=O)C[C@H](NC(=O)C1(c2ccccc2)CCN(C(=O)[C@@H]2CCC[NH2+]2)CC1)C(=O)OCCOCCOC(=O)c1ccc(-c2c3nc(c(-c4cc(S(=O)(=O)[O-])ccc4F)c4ccc([nH]4)c(-c4cc(S(=O)(=O)[O-])ccc4F)c4nc(c(-c5cc(S(=O)(=O)[O-])ccc5F)c5ccc2[nH]5)C=C4)C=C3)cc1
REMARK SMILES IDX 33 1 32 2 31 3 30 4 28 5 29 6 5 7 4 8 2 9 1 10 3 13 6 14
REMARK SMILES IDX 7 15 8 17 9 18 16 19 27 20 17 21 26 22 18 23 19 24 20 25
REMARK SMILES IDX 10 26 11 27 15 28 12 29 14 30 13 31 21 32 22 33 25 34 23 35
REMARK SMILES IDX 24 36 34 39 35 40 36 41 37 42 38 43 39 44 40 45 101 46 41 47
REMARK SMILES IDX 100 48 42 49 43 50 44 51 94 52 45 53 99 54 93 55 95 56 46 57
REMARK SMILES IDX 98 58 92 59 91 60 47 62 79 63 59 64 78 65 60 66 63 67 77 68
REMARK SMILES IDX 96 69 61 70 62 71 76 73 97 74 64 75 48 76 49 77 57 78 50 79
REMARK SMILES IDX 56 80 58 81 55 82 51 83 52 84 53 85 54 86 80 87 81 88 89 89
REMARK SMILES IDX 82 90 88 91 90 92 87 93 83 94 84 95 85 96 86 97 65 98 66 99
REMARK SMILES IDX 74 100 67 101 73 102 75 103 72 104 68 105 69 106 70 107
REMARK SMILES IDX 71 108
REMARK H PARENT 1 11 1 12 6 16 25 37 25 38 95 61 63 72
REMARK Flexibility Score: inf
ROOT
ATOM      1  O   UNL     1       2.949  -4.029  -6.182  1.00  0.00    -0.374 OA
ENDROOT
BRANCH   1   2
ATOM      2  C   UNL     1       4.058  -4.280  -5.317  1.00  0.00     0.202 C 
BRANCH   2   3
ATOM      3  C   UNL     1       4.592  -3.105  -4.501  1.00  0.00     0.261 C 
BRANCH   3   4
ATOM      4  O   UNL     1       3.581  -2.598  -3.613  1.00  0.00    -0.462 OA
BRANCH   4   5
ATOM      5  C   UNL     1       3.552  -1.246  -3.534  1.00  0.00     0.329 C 
ATOM      6  O   UNL     1       4.391  -0.485  -4.004  1.00  0.00    -0.250 OA
BRANCH   5   7
ATOM      7  C   UNL     1       2.312  -0.715  -2.804  1.00  0.00     0.201 C 
BRANCH   7   8
ATOM      8  C   UNL     1       2.781  -0.024  -1.517  1.00  0.00     0.136 C 
BRANCH   8   9
ATOM      9  C   UNL     1       3.578  -0.969  -0.650  1.00  0.00     0.220 C 
ATOM     10  N   UNL     1       2.863  -1.715   0.233  1.00  0.00    -0.370 N 
ATOM     11  H   UNL     1       3.323  -2.350   0.827  1.00  0.00     0.159 HD
ATOM     12  H   UNL     1       1.884  -1.620   0.278  1.00  0.00     0.159 HD
ATOM     13  O   UNL     1       4.791  -1.101  -0.751  1.00  0.00    -0.275 OA
ENDBRANCH   8   9
ENDBRANCH   7   8
BRANCH   7  14
ATOM     14  N   UNL     1       1.174  -1.616  -2.534  1.00  0.00    -0.342 N 
ATOM     15  C   UNL     1      -0.158  -1.364  -2.348  1.00  0.00     0.231 C 
ATOM     16  H   UNL     1       1.417  -2.569  -2.478  1.00  0.00     0.164 HD
ATOM     17  O   UNL     1      -0.677  -2.038  -1.445  1.00  0.00    -0.274 OA
BRANCH  15  18
ATOM     18  C   UNL     1      -1.076  -0.424  -3.233  1.00  0.00     0.077 C 
ATOM     19  C   UNL     1      -0.392   0.581  -4.186  1.00  0.00     0.043 C 
ATOM     20  C   UNL     1      -1.998   0.399  -2.275  1.00  0.00     0.043 C 
ATOM     21  C   UNL     1       0.196   1.823  -3.522  1.00  0.00     0.121 C 
ATOM     22  C   UNL     1      -1.310   1.586  -1.620  1.00  0.00     0.121 C 
ATOM     23  N   UNL     1      -0.734   2.473  -2.625  1.00  0.00    -0.337 N 
ATOM     24  C   UNL     1      -0.761   3.864  -2.658  1.00  0.00     0.280 C 
ATOM     25  O   UNL     1       0.009   4.492  -3.397  1.00  0.00    -0.268 OA
BRANCH  18  26
ATOM     26  C   UNL     1      -1.972  -1.367  -4.122  1.00  0.00    -0.032 A 
ATOM     27  C   UNL     1      -3.336  -1.617  -3.866  1.00  0.00     0.005 A 
ATOM     28  C   UNL     1      -1.419  -2.004  -5.246  1.00  0.00     0.005 A 
ATOM     29  C   UNL     1      -4.099  -2.448  -4.697  1.00  0.00     0.000 A 
ATOM     30  C   UNL     1      -2.169  -2.864  -6.056  1.00  0.00     0.000 A 
ATOM     31  C   UNL     1      -3.513  -3.082  -5.785  1.00  0.00     0.000 A 
ENDBRANCH  18  26
BRANCH  24  32
ATOM     32  C   UNL     1      -1.738   4.666  -1.792  1.00  0.00     0.272 C 
ATOM     33  C   UNL     1      -1.469   4.646  -0.301  1.00  0.00     0.081 C 
ATOM     34  N   UNL     1      -3.151   4.278  -2.001  1.00  0.00    -0.336 N 
ATOM     35  C   UNL     1      -2.837   4.941   0.279  1.00  0.00     0.068 C 
ATOM     36  C   UNL     1      -3.807   4.290  -0.694  1.00  0.00     0.261 C 
ATOM     37  H   UNL     1      -3.199   3.343  -2.406  1.00  0.00     0.346 HD
ATOM     38  H   UNL     1      -3.611   4.926  -2.640  1.00  0.00     0.346 HD
ENDBRANCH  24  32
ENDBRANCH  15  18
ENDBRANCH   7  14
ENDBRANCH   5   7
ENDBRANCH   4   5
ENDBRANCH   3   4
ENDBRANCH   2   3
ENDBRANCH   1   2
BRANCH   1  39
ATOM     39  C   UNL     1       1.735  -3.563  -5.608  1.00  0.00     0.202 C 
BRANCH  39  40
ATOM     40  C   UNL     1       0.904  -4.512  -4.727  1.00  0.00     0.261 C 
BRANCH  40  41
ATOM     41  O   UNL     1       1.668  -5.280  -3.798  1.00  0.00    -0.460 OA
BRANCH  41  42
ATOM     42  C   UNL     1       1.786  -6.585  -4.142  1.00  0.00     0.338 C 
ATOM     43  O   UNL     1       1.261  -7.155  -5.090  1.00  0.00    -0.246 OA
BRANCH  42  44
ATOM     44  C   UNL     1       2.826  -7.201  -3.312  1.00  0.00     0.060 A 
ATOM     45  C   UNL     1       3.947  -7.711  -3.974  1.00  0.00     0.016 A 
ATOM     46  C   UNL     1       2.700  -7.291  -1.923  1.00  0.00     0.016 A 
ATOM     47  C   UNL     1       4.943  -8.345  -3.247  1.00  0.00     0.010 A 
ATOM     48  C   UNL     1       3.696  -7.944  -1.195  1.00  0.00     0.010 A 
ATOM     49  C   UNL     1       4.804  -8.497  -1.861  1.00  0.00    -0.014 A 
BRANCH  49  50
ATOM     50  C   UNL     1       5.763  -9.376  -1.161  1.00  0.00     0.031 A 
ATOM     51  C   UNL     1       5.388 -10.814  -0.943  1.00  0.00     0.074 A 
ATOM     52  C   UNL     1       6.978  -8.912  -0.825  1.00  0.00     0.049 A 
ATOM     53  N   UNL     1       6.100 -11.791  -0.448  1.00  0.00    -0.248 NA
ATOM     54  C   UNL     1       4.026 -11.201  -1.343  1.00  0.00     0.031 C 
ATOM     55  C   UNL     1       7.441  -7.540  -1.036  1.00  0.00     0.029 A 
ATOM     56  N   UNL     1       8.050  -9.545  -0.255  1.00  0.00    -0.354 N 
ATOM     57  C   UNL     1       5.280 -12.913  -0.490  1.00  0.00     0.074 A 
ATOM     58  C   UNL     1       4.001 -12.483  -1.013  1.00  0.00     0.031 C 
ATOM     59  C   UNL     1       8.711  -7.438  -0.610  1.00  0.00     0.029 A 
ATOM     60  C   UNL     1       9.140  -8.728  -0.074  1.00  0.00     0.049 A 
ATOM     61  H   UNL     1       8.041 -10.496  -0.000  1.00  0.00     0.167 HD
ATOM     62  C   UNL     1       5.578 -14.187  -0.137  1.00  0.00     0.034 A 
ATOM     63  C   UNL     1      10.343  -8.996   0.470  1.00  0.00     0.034 A 
ATOM     64  C   UNL     1       6.855 -14.581   0.405  1.00  0.00     0.049 A 
ATOM     65  C   UNL     1      10.622 -10.406   0.930  1.00  0.00     0.074 A 
ATOM     66  C   UNL     1       7.277 -15.837   0.803  1.00  0.00     0.029 A 
ATOM     67  N   UNL     1       7.917 -13.713   0.642  1.00  0.00    -0.354 N 
ATOM     68  N   UNL     1       9.846 -11.466   0.868  1.00  0.00    -0.248 NA
ATOM     69  C   UNL     1      11.942 -10.658   1.518  1.00  0.00     0.031 C 
ATOM     70  C   UNL     1       8.562 -15.716   1.344  1.00  0.00     0.029 A 
ATOM     71  C   UNL     1       8.977 -14.399   1.214  1.00  0.00     0.049 A 
ATOM     72  H   UNL     1       7.915 -12.751   0.433  1.00  0.00     0.167 HD
ATOM     73  C   UNL     1      10.595 -12.515   1.393  1.00  0.00     0.074 A 
ATOM     74  C   UNL     1      11.891 -11.963   1.738  1.00  0.00     0.031 C 
ATOM     75  C   UNL     1      10.249 -13.817   1.575  1.00  0.00     0.034 A 
BRANCH  62  76
ATOM     76  C   UNL     1       4.481 -15.216  -0.274  1.00  0.00     0.023 A 
ATOM     77  C   UNL     1       3.938 -15.561  -1.525  1.00  0.00     0.031 A 
ATOM     78  C   UNL     1       3.937 -15.828   0.869  1.00  0.00     0.131 A 
ATOM     79  C   UNL     1       2.842 -16.436  -1.597  1.00  0.00     0.055 A 
ATOM     80  C   UNL     1       2.898 -16.756   0.784  1.00  0.00     0.041 A 
ATOM     81  F   UNL     1       4.395 -15.519   2.093  1.00  0.00    -0.206 F 
ATOM     82  C   UNL     1       2.334 -17.054  -0.452  1.00  0.00     0.022 A 
BRANCH  79  83
ATOM     83  S   UNL     1       1.997 -16.645  -3.189  1.00  0.00     0.124 S 
ATOM     84  O   UNL     1       1.592 -15.274  -3.491  1.00  0.00    -0.237 OA
ATOM     85  O   UNL     1       3.048 -17.201  -4.033  1.00  0.00    -0.237 OA
ATOM     86  O   UNL     1       0.899 -17.557  -2.878  1.00  0.00    -0.744 OA
ENDBRANCH  79  83
ENDBRANCH  62  76
BRANCH  63  87
ATOM     87  C   UNL     1      11.356  -7.915   0.637  1.00  0.00     0.023 A 
ATOM     88  C   UNL     1      12.596  -7.966  -0.019  1.00  0.00     0.031 A 
ATOM     89  C   UNL     1      11.111  -6.830   1.498  1.00  0.00     0.131 A 
ATOM     90  C   UNL     1      13.559  -6.974   0.228  1.00  0.00     0.055 A 
ATOM     91  C   UNL     1      12.051  -5.819   1.700  1.00  0.00     0.041 A 
ATOM     92  F   UNL     1       9.942  -6.732   2.152  1.00  0.00    -0.206 F 
ATOM     93  C   UNL     1      13.290  -5.894   1.072  1.00  0.00     0.022 A 
BRANCH  90  94
ATOM     94  S   UNL     1      15.207  -7.159  -0.509  1.00  0.00     0.124 S 
ATOM     95  O   UNL     1      15.622  -8.457   0.009  1.00  0.00    -0.237 OA
ATOM     96  O   UNL     1      14.908  -7.103  -1.936  1.00  0.00    -0.237 OA
ATOM     97  O   UNL     1      15.945  -6.012   0.016  1.00  0.00    -0.744 OA
ENDBRANCH  90  94
ENDBRANCH  63  87
BRANCH  75  98
ATOM     98  C   UNL     1      11.308 -14.721   2.158  1.00  0.00     0.023 A 
ATOM     99  C   UNL     1      11.779 -14.548   3.471  1.00  0.00     0.031 A 
ATOM    100  C   UNL     1      11.874 -15.747   1.381  1.00  0.00     0.131 A 
ATOM    101  C   UNL     1      12.835 -15.341   3.944  1.00  0.00     0.055 A 
ATOM    102  C   UNL     1      12.878 -16.578   1.881  1.00  0.00     0.041 A 
ATOM    103  F   UNL     1      11.463 -15.957   0.120  1.00  0.00    -0.206 F 
ATOM    104  C   UNL     1      13.376 -16.366   3.164  1.00  0.00     0.022 A 
BRANCH 101 105
ATOM    105  S   UNL     1      13.569 -14.937   5.553  1.00  0.00     0.124 S 
ATOM    106  O   UNL     1      13.977 -13.549   5.360  1.00  0.00    -0.237 OA
ATOM    107  O   UNL     1      12.453 -15.153   6.468  1.00  0.00    -0.237 OA
ATOM    108  O   UNL     1      14.667 -15.894   5.678  1.00  0.00    -0.744 OA
ENDBRANCH 101 105
ENDBRANCH  75  98
ENDBRANCH  49  50
ENDBRANCH  42  44
ENDBRANCH  41  42
ENDBRANCH  40  41
ENDBRANCH  39  40
ENDBRANCH   1  39
TORSDOF 23
