REMARK SMILES C[C@@H](NC(=O)CN1C(=O)/C(=C/c2ccccc2F)SC1=S)C(=O)OCCOCCOC(=O)c1ccc(-c2c3nc(c(-c4cc(S(=O)(=O)[O-])ccc4F)c4ccc([nH]4)c(-c4cc(S(=O)(=O)[O-])ccc4F)c4nc(c(-c5cc(S(=O)(=O)[O-])ccc5F)c5ccc2[nH]5)C=C4)C=C3)cc1
REMARK SMILES IDX 26 1 25 2 24 3 22 4 23 5 2 6 1 7 3 8 4 9 5 11 6 12 7 13 8 14
REMARK SMILES IDX 20 15 9 16 10 17 19 18 21 19 11 20 12 21 13 22 17 23 14 24
REMARK SMILES IDX 16 25 18 26 15 27 27 28 28 29 29 30 30 31 31 32 32 33 33 34
REMARK SMILES IDX 34 35 95 36 35 37 94 38 36 39 37 40 38 41 88 42 39 43 93 44
REMARK SMILES IDX 87 45 89 46 40 47 92 48 86 49 85 50 41 52 73 53 53 54 72 55
REMARK SMILES IDX 54 56 57 57 71 58 90 59 55 60 56 61 70 63 91 64 58 65 42 66
REMARK SMILES IDX 43 67 51 68 44 69 50 70 52 71 49 72 45 73 46 74 47 75 48 76
REMARK SMILES IDX 74 77 75 78 83 79 76 80 82 81 84 82 81 83 77 84 78 85 79 86
REMARK SMILES IDX 80 87 59 88 60 89 68 90 61 91 67 92 69 93 66 94 62 95 63 96
REMARK SMILES IDX 64 97 65 98
REMARK H PARENT 3 10 89 51 57 62
REMARK Flexibility Score: inf
ROOT
ATOM      1  C   UNL     1      -3.755   0.952   1.163  1.00  0.00     0.202 C 
ENDROOT
BRANCH   1   2
ATOM      2  C   UNL     1      -3.136   2.301   1.554  1.00  0.00     0.261 C 
BRANCH   2   3
ATOM      3  O   UNL     1      -1.751   2.442   1.171  1.00  0.00    -0.462 OA
BRANCH   3   4
ATOM      4  C   UNL     1      -0.765   2.114   2.030  1.00  0.00     0.328 C 
ATOM      5  O   UNL     1      -0.947   1.669   3.159  1.00  0.00    -0.250 OA
BRANCH   4   6
ATOM      6  C   UNL     1       0.648   2.282   1.414  1.00  0.00     0.189 C 
ATOM      7  C   UNL     1       1.366   0.945   1.166  1.00  0.00     0.043 C 
BRANCH   6   8
ATOM      8  N   UNL     1       0.967   3.252   0.340  1.00  0.00    -0.341 N 
ATOM      9  C   UNL     1       0.609   3.415  -0.961  1.00  0.00     0.240 C 
ATOM     10  H   UNL     1       1.591   3.950   0.643  1.00  0.00     0.164 HD
ATOM     11  O   UNL     1       1.480   3.899  -1.694  1.00  0.00    -0.273 OA
BRANCH   9  12
ATOM     12  C   UNL     1      -0.767   3.084  -1.539  1.00  0.00     0.227 C 
BRANCH  12  13
ATOM     13  N   UNL     1      -0.811   1.849  -2.316  1.00  0.00    -0.283 N 
ATOM     14  C   UNL     1      -0.709   0.652  -1.655  1.00  0.00     0.266 C 
ATOM     15  C   UNL     1      -1.169   1.748  -3.641  1.00  0.00     0.148 C 
ATOM     16  O   UNL     1      -0.762   0.500  -0.445  1.00  0.00    -0.268 OA
ATOM     17  C   UNL     1      -0.663  -0.492  -2.590  1.00  0.00     0.081 C 
ATOM     18  S   UNL     1      -1.150   0.051  -4.134  1.00  0.00    -0.054 SA
ATOM     19  S   UNL     1      -1.625   2.976  -4.670  1.00  0.00    -0.052 S 
ATOM     20  C   UNL     1      -0.359  -1.706  -2.102  1.00  0.00     0.032 C 
BRANCH  20  21
ATOM     21  C   UNL     1      -0.514  -3.037  -2.710  1.00  0.00     0.012 A 
ATOM     22  C   UNL     1      -1.026  -4.055  -1.878  1.00  0.00     0.011 A 
ATOM     23  C   UNL     1      -0.293  -3.341  -4.052  1.00  0.00     0.130 A 
ATOM     24  C   UNL     1      -1.450  -5.275  -2.411  1.00  0.00     0.001 A 
ATOM     25  C   UNL     1      -0.707  -4.561  -4.588  1.00  0.00     0.040 A 
ATOM     26  F   UNL     1       0.313  -2.464  -4.863  1.00  0.00    -0.206 F 
ATOM     27  C   UNL     1      -1.317  -5.515  -3.774  1.00  0.00     0.003 A 
ENDBRANCH  20  21
ENDBRANCH  12  13
ENDBRANCH   9  12
ENDBRANCH   6   8
ENDBRANCH   4   6
ENDBRANCH   3   4
ENDBRANCH   2   3
ENDBRANCH   1   2
BRANCH   1  28
ATOM     28  O   UNL     1      -3.616  -0.042   2.178  1.00  0.00    -0.374 OA
BRANCH  28  29
ATOM     29  C   UNL     1      -2.469  -0.873   2.040  1.00  0.00     0.202 C 
BRANCH  29  30
ATOM     30  C   UNL     1      -2.700  -2.127   1.192  1.00  0.00     0.261 C 
BRANCH  30  31
ATOM     31  O   UNL     1      -3.055  -1.839  -0.173  1.00  0.00    -0.460 OA
BRANCH  31  32
ATOM     32  C   UNL     1      -4.379  -1.927  -0.471  1.00  0.00     0.338 C 
ATOM     33  O   UNL     1      -5.288  -2.179   0.296  1.00  0.00    -0.246 OA
BRANCH  32  34
ATOM     34  C   UNL     1      -4.582  -1.620  -1.905  1.00  0.00     0.060 A 
ATOM     35  C   UNL     1      -5.537  -0.688  -2.302  1.00  0.00     0.016 A 
ATOM     36  C   UNL     1      -3.878  -2.329  -2.873  1.00  0.00     0.016 A 
ATOM     37  C   UNL     1      -5.795  -0.496  -3.669  1.00  0.00     0.010 A 
ATOM     38  C   UNL     1      -4.068  -2.078  -4.230  1.00  0.00     0.010 A 
ATOM     39  C   UNL     1      -5.074  -1.201  -4.650  1.00  0.00    -0.014 A 
BRANCH  39  40
ATOM     40  C   UNL     1      -5.422  -1.128  -6.100  1.00  0.00     0.031 A 
ATOM     41  C   UNL     1      -5.873  -2.375  -6.831  1.00  0.00     0.074 A 
ATOM     42  C   UNL     1      -5.315   0.033  -6.778  1.00  0.00     0.049 A 
ATOM     43  N   UNL     1      -6.204  -2.523  -8.089  1.00  0.00    -0.248 NA
ATOM     44  C   UNL     1      -5.936  -3.624  -6.053  1.00  0.00     0.031 C 
ATOM     45  C   UNL     1      -4.854   1.298  -6.210  1.00  0.00     0.029 A 
ATOM     46  N   UNL     1      -5.580   0.338  -8.091  1.00  0.00    -0.354 N 
ATOM     47  C   UNL     1      -6.511  -3.871  -8.248  1.00  0.00     0.074 A 
ATOM     48  C   UNL     1      -6.247  -4.515  -6.982  1.00  0.00     0.031 C 
ATOM     49  C   UNL     1      -4.886   2.247  -7.160  1.00  0.00     0.029 A 
ATOM     50  C   UNL     1      -5.351   1.657  -8.411  1.00  0.00     0.049 A 
ATOM     51  H   UNL     1      -5.904  -0.325  -8.743  1.00  0.00     0.167 HD
ATOM     52  C   UNL     1      -7.011  -4.511  -9.332  1.00  0.00     0.034 A 
ATOM     53  C   UNL     1      -5.505   2.323  -9.574  1.00  0.00     0.034 A 
ATOM     54  C   UNL     1      -7.306  -3.860 -10.582  1.00  0.00     0.049 A 
ATOM     55  C   UNL     1      -6.040   1.591 -10.777  1.00  0.00     0.074 A 
ATOM     56  C   UNL     1      -7.883  -4.404 -11.717  1.00  0.00     0.029 A 
ATOM     57  N   UNL     1      -7.050  -2.526 -10.865  1.00  0.00    -0.354 N 
ATOM     58  N   UNL     1      -6.374   0.326 -10.888  1.00  0.00    -0.248 NA
ATOM     59  C   UNL     1      -6.237   2.375 -12.004  1.00  0.00     0.031 C 
ATOM     60  C   UNL     1      -7.913  -3.419 -12.707  1.00  0.00     0.029 A 
ATOM     61  C   UNL     1      -7.428  -2.239 -12.166  1.00  0.00     0.049 A 
ATOM     62  H   UNL     1      -6.658  -1.880 -10.234  1.00  0.00     0.167 HD
ATOM     63  C   UNL     1      -6.848   0.172 -12.187  1.00  0.00     0.074 A 
ATOM     64  C   UNL     1      -6.759   1.471 -12.822  1.00  0.00     0.031 C 
ATOM     65  C   UNL     1      -7.325  -0.944 -12.793  1.00  0.00     0.034 A 
BRANCH  52  66
ATOM     66  C   UNL     1      -7.288  -5.989  -9.216  1.00  0.00     0.023 A 
ATOM     67  C   UNL     1      -8.288  -6.481  -8.360  1.00  0.00     0.031 A 
ATOM     68  C   UNL     1      -6.574  -6.913  -9.998  1.00  0.00     0.131 A 
ATOM     69  C   UNL     1      -8.519  -7.862  -8.274  1.00  0.00     0.055 A 
ATOM     70  C   UNL     1      -6.856  -8.281  -9.959  1.00  0.00     0.041 A 
ATOM     71  F   UNL     1      -5.597  -6.502 -10.821  1.00  0.00    -0.206 F 
ATOM     72  C   UNL     1      -7.829  -8.763  -9.088  1.00  0.00     0.022 A 
BRANCH  69  73
ATOM     73  S   UNL     1      -9.684  -8.473  -7.026  1.00  0.00     0.124 S 
ATOM     74  O   UNL     1      -9.012  -8.091  -5.787  1.00  0.00    -0.237 OA
ATOM     75  O   UNL     1     -10.904  -7.740  -7.344  1.00  0.00    -0.237 OA
ATOM     76  O   UNL     1      -9.737  -9.911  -7.282  1.00  0.00    -0.744 OA
ENDBRANCH  69  73
ENDBRANCH  52  66
BRANCH  53  77
ATOM     77  C   UNL     1      -5.177   3.775  -9.645  1.00  0.00     0.023 A 
ATOM     78  C   UNL     1      -6.191   4.738  -9.774  1.00  0.00     0.031 A 
ATOM     79  C   UNL     1      -3.846   4.221  -9.564  1.00  0.00     0.131 A 
ATOM     80  C   UNL     1      -5.857   6.100  -9.834  1.00  0.00     0.055 A 
ATOM     81  C   UNL     1      -3.522   5.579  -9.586  1.00  0.00     0.041 A 
ATOM     82  F   UNL     1      -2.843   3.339  -9.437  1.00  0.00    -0.206 F 
ATOM     83  C   UNL     1      -4.531   6.527  -9.727  1.00  0.00     0.022 A 
BRANCH  80  84
ATOM     84  S   UNL     1      -7.184   7.313 -10.076  1.00  0.00     0.124 S 
ATOM     85  O   UNL     1      -7.685   6.946 -11.396  1.00  0.00    -0.237 OA
ATOM     86  O   UNL     1      -8.069   7.027  -8.951  1.00  0.00    -0.237 OA
ATOM     87  O   UNL     1      -6.490   8.597 -10.006  1.00  0.00    -0.744 OA
ENDBRANCH  80  84
ENDBRANCH  53  77
BRANCH  65  88
ATOM     88  C   UNL     1      -7.820  -0.817 -14.210  1.00  0.00     0.023 A 
ATOM     89  C   UNL     1      -6.936  -0.618 -15.282  1.00  0.00     0.031 A 
ATOM     90  C   UNL     1      -9.190  -0.965 -14.493  1.00  0.00     0.131 A 
ATOM     91  C   UNL     1      -7.435  -0.549 -16.591  1.00  0.00     0.055 A 
ATOM     92  C   UNL     1      -9.674  -0.944 -15.801  1.00  0.00     0.041 A 
ATOM     93  F   UNL     1     -10.075  -1.162 -13.502  1.00  0.00    -0.206 F 
ATOM     94  C   UNL     1      -8.795  -0.730 -16.858  1.00  0.00     0.022 A 
BRANCH  91  95
ATOM     95  S   UNL     1      -6.285  -0.188 -17.945  1.00  0.00     0.124 S 
ATOM     96  O   UNL     1      -5.834   1.159 -17.607  1.00  0.00    -0.237 OA
ATOM     97  O   UNL     1      -5.290  -1.247 -17.806  1.00  0.00    -0.237 OA
ATOM     98  O   UNL     1      -7.121  -0.280 -19.140  1.00  0.00    -0.744 OA
ENDBRANCH  91  95
ENDBRANCH  65  88
ENDBRANCH  39  40
ENDBRANCH  32  34
ENDBRANCH  31  32
ENDBRANCH  30  31
ENDBRANCH  29  30
ENDBRANCH  28  29
ENDBRANCH   1  28
TORSDOF 21
