REMARK SMILES CC1(C)O[C@](C)([C@H](O)C2CCCCC2)CC[C@H]1C(=O)OCCOCCOC(=O)c1ccc(-c2c3nc(c(-c4cc(S(=O)(=O)[O-])ccc4F)c4ccc([nH]4)c(-c4cc(S(=O)(=O)[O-])ccc4F)c4nc(c(-c5cc(S(=O)(=O)[O-])ccc5F)c5ccc2[nH]5)C=C4)C=C3)cc1
REMARK SMILES IDX 24 1 23 2 22 3 21 4 20 5 18 6 19 7 17 8 1 9 2 10 3 11 4 12
REMARK SMILES IDX 5 13 16 14 6 15 15 16 7 17 9 18 10 19 14 20 11 21 13 22
REMARK SMILES IDX 12 23 8 24 25 26 26 27 27 28 28 29 29 30 30 31 91 32 31 33
REMARK SMILES IDX 90 34 32 35 33 36 34 37 84 38 35 39 89 40 83 41 85 42 36 43
REMARK SMILES IDX 88 44 82 45 81 46 37 48 69 49 49 50 68 51 50 52 53 53 67 54
REMARK SMILES IDX 86 55 51 56 52 57 66 59 87 60 54 61 38 62 39 63 47 64 40 65
REMARK SMILES IDX 46 66 48 67 45 68 41 69 42 70 43 71 44 72 70 73 71 74 79 75
REMARK SMILES IDX 72 76 78 77 80 78 77 79 73 80 74 81 75 82 76 83 55 84 56 85
REMARK SMILES IDX 64 86 57 87 63 88 65 89 62 90 58 91 59 92 60 93 61 94
REMARK H PARENT 8 25 85 47 53 58
REMARK Flexibility Score: inf
ROOT
ATOM      1  C   UNL     1      -0.490  11.567  -0.295  1.00  0.00     0.202 C 
ENDROOT
BRANCH   1   2
ATOM      2  O   UNL     1      -1.813  11.876   0.136  1.00  0.00    -0.374 OA
BRANCH   2   3
ATOM      3  C   UNL     1      -2.332  11.127   1.235  1.00  0.00     0.202 C 
BRANCH   3   4
ATOM      4  C   UNL     1      -2.849   9.723   0.915  1.00  0.00     0.261 C 
BRANCH   4   5
ATOM      5  O   UNL     1      -1.784   8.787   0.649  1.00  0.00    -0.463 OA
BRANCH   5   6
ATOM      6  C   UNL     1      -1.584   8.461  -0.649  1.00  0.00     0.311 C 
ATOM      7  O   UNL     1      -2.209   8.937  -1.591  1.00  0.00    -0.252 OA
BRANCH   6   8
ATOM      8  C   UNL     1      -0.573   7.350  -0.847  1.00  0.00     0.131 C 
ATOM      9  C   UNL     1       0.569   7.480   1.521  1.00  0.00     0.043 C 
ATOM     10  C   UNL     1       0.725   7.307   0.004  1.00  0.00     0.077 C 
ATOM     11  C   UNL     1       1.709   8.396  -0.474  1.00  0.00     0.043 C 
ATOM     12  O   UNL     1       1.470   6.096  -0.252  1.00  0.00    -0.366 OA
ATOM     13  C   UNL     1       0.812   4.824  -0.293  1.00  0.00     0.092 C 
ATOM     14  C   UNL     1      -1.356   6.041  -0.818  1.00  0.00     0.021 C 
ATOM     15  C   UNL     1       0.387   4.346   1.107  1.00  0.00     0.045 C 
ATOM     16  C   UNL     1      -0.441   4.891  -1.193  1.00  0.00     0.039 C 
BRANCH  13  17
ATOM     17  C   UNL     1       1.832   3.840  -0.986  1.00  0.00     0.149 C 
BRANCH  17  18
ATOM     18  C   UNL     1       3.300   3.764  -0.448  1.00  0.00     0.021 C 
ATOM     19  C   UNL     1       3.525   3.481   1.042  1.00  0.00     0.006 C 
ATOM     20  C   UNL     1       4.155   2.753  -1.247  1.00  0.00     0.006 C 
ATOM     21  C   UNL     1       3.158   2.062   1.450  1.00  0.00     0.000 C 
ATOM     22  C   UNL     1       3.914   1.288  -0.869  1.00  0.00     0.000 C 
ATOM     23  C   UNL     1       3.936   1.033   0.637  1.00  0.00     0.000 C 
ENDBRANCH  17  18
BRANCH  17  24
ATOM     24  O   UNL     1       1.242   2.559  -1.203  1.00  0.00    -0.390 OA
ATOM     25  H   UNL     1       1.081   2.128  -0.349  1.00  0.00     0.211 HD
ENDBRANCH  17  24
ENDBRANCH  13  17
ENDBRANCH   6   8
ENDBRANCH   5   6
ENDBRANCH   4   5
ENDBRANCH   3   4
ENDBRANCH   2   3
ENDBRANCH   1   2
BRANCH   1  26
ATOM     26  C   UNL     1       0.649  12.119   0.570  1.00  0.00     0.261 C 
BRANCH  26  27
ATOM     27  O   UNL     1       0.672  11.506   1.873  1.00  0.00    -0.460 OA
BRANCH  27  28
ATOM     28  C   UNL     1       0.487  12.374   2.901  1.00  0.00     0.338 C 
ATOM     29  O   UNL     1       0.440  13.589   2.830  1.00  0.00    -0.246 OA
BRANCH  28  30
ATOM     30  C   UNL     1       0.145  11.641   4.136  1.00  0.00     0.060 A 
ATOM     31  C   UNL     1      -1.066  11.975   4.755  1.00  0.00     0.016 A 
ATOM     32  C   UNL     1       1.012  10.720   4.726  1.00  0.00     0.016 A 
ATOM     33  C   UNL     1      -1.392  11.427   5.993  1.00  0.00     0.010 A 
ATOM     34  C   UNL     1       0.686  10.177   5.976  1.00  0.00     0.010 A 
ATOM     35  C   UNL     1      -0.502  10.553   6.631  1.00  0.00    -0.014 A 
BRANCH  35  36
ATOM     36  C   UNL     1      -0.769  10.150   8.036  1.00  0.00     0.031 A 
ATOM     37  C   UNL     1      -0.071  10.873   9.156  1.00  0.00     0.074 A 
ATOM     38  C   UNL     1      -1.672   9.194   8.314  1.00  0.00     0.049 A 
ATOM     39  N   UNL     1      -0.173  10.700  10.449  1.00  0.00    -0.248 NA
ATOM     40  C   UNL     1       0.865  11.935   8.760  1.00  0.00     0.031 C 
ATOM     41  C   UNL     1      -2.456   8.463   7.321  1.00  0.00     0.029 A 
ATOM     42  N   UNL     1      -2.088   8.681   9.517  1.00  0.00    -0.354 N 
ATOM     43  C   UNL     1       0.679  11.637  11.025  1.00  0.00     0.074 A 
ATOM     44  C   UNL     1       1.324  12.339   9.934  1.00  0.00     0.031 C 
ATOM     45  C   UNL     1      -3.262   7.595   7.956  1.00  0.00     0.029 A 
ATOM     46  C   UNL     1      -3.023   7.681   9.396  1.00  0.00     0.049 A 
ATOM     47  H   UNL     1      -1.749   8.998  10.385  1.00  0.00     0.167 HD
ATOM     48  C   UNL     1       0.893  11.896  12.340  1.00  0.00     0.034 A 
ATOM     49  C   UNL     1      -3.604   6.908  10.335  1.00  0.00     0.034 A 
ATOM     50  C   UNL     1       0.261  11.171  13.417  1.00  0.00     0.049 A 
ATOM     51  C   UNL     1      -3.249   7.120  11.786  1.00  0.00     0.074 A 
ATOM     52  C   UNL     1       0.386  11.369  14.782  1.00  0.00     0.029 A 
ATOM     53  N   UNL     1      -0.598  10.091  13.253  1.00  0.00    -0.354 N 
ATOM     54  N   UNL     1      -2.453   8.017  12.320  1.00  0.00    -0.248 NA
ATOM     55  C   UNL     1      -3.869   6.210  12.759  1.00  0.00     0.031 C 
ATOM     56  C   UNL     1      -0.327  10.359  15.440  1.00  0.00     0.029 A 
ATOM     57  C   UNL     1      -0.965   9.578  14.489  1.00  0.00     0.049 A 
ATOM     58  H   UNL     1      -0.902   9.740  12.385  1.00  0.00     0.167 HD
ATOM     59  C   UNL     1      -2.492   7.791  13.694  1.00  0.00     0.074 A 
ATOM     60  C   UNL     1      -3.401   6.683  13.906  1.00  0.00     0.031 C 
ATOM     61  C   UNL     1      -1.842   8.447  14.690  1.00  0.00     0.034 A 
BRANCH  48  62
ATOM     62  C   UNL     1       1.900  12.973  12.673  1.00  0.00     0.023 A 
ATOM     63  C   UNL     1       1.707  14.312  12.287  1.00  0.00     0.031 A 
ATOM     64  C   UNL     1       3.095  12.648  13.338  1.00  0.00     0.131 A 
ATOM     65  C   UNL     1       2.729  15.253  12.487  1.00  0.00     0.055 A 
ATOM     66  C   UNL     1       4.072  13.608  13.611  1.00  0.00     0.041 A 
ATOM     67  F   UNL     1       3.347  11.384  13.713  1.00  0.00    -0.206 F 
ATOM     68  C   UNL     1       3.901  14.916  13.167  1.00  0.00     0.022 A 
BRANCH  65  69
ATOM     69  S   UNL     1       2.579  16.876  11.688  1.00  0.00     0.124 S 
ATOM     70  O   UNL     1       2.380  16.500  10.290  1.00  0.00    -0.237 OA
ATOM     71  O   UNL     1       1.424  17.454  12.366  1.00  0.00    -0.237 OA
ATOM     72  O   UNL     1       3.860  17.518  11.976  1.00  0.00    -0.744 OA
ENDBRANCH  65  69
ENDBRANCH  48  62
BRANCH  49  73
ATOM     73  C   UNL     1      -4.549   5.828   9.935  1.00  0.00     0.023 A 
ATOM     74  C   UNL     1      -5.903   5.875  10.299  1.00  0.00     0.031 A 
ATOM     75  C   UNL     1      -4.098   4.715   9.203  1.00  0.00     0.131 A 
ATOM     76  C   UNL     1      -6.755   4.814   9.953  1.00  0.00     0.055 A 
ATOM     77  C   UNL     1      -4.959   3.684   8.822  1.00  0.00     0.041 A 
ATOM     78  F   UNL     1      -2.811   4.622   8.831  1.00  0.00    -0.206 F 
ATOM     79  C   UNL     1      -6.295   3.727   9.205  1.00  0.00     0.022 A 
BRANCH  76  80
ATOM     80  S   UNL     1      -8.471   4.848  10.539  1.00  0.00     0.124 S 
ATOM     81  O   UNL     1      -8.290   4.843  11.986  1.00  0.00    -0.237 OA
ATOM     82  O   UNL     1      -8.965   6.092   9.958  1.00  0.00    -0.237 OA
ATOM     83  O   UNL     1      -9.047   3.629   9.976  1.00  0.00    -0.744 OA
ENDBRANCH  76  80
ENDBRANCH  49  73
BRANCH  61  84
ATOM     84  C   UNL     1      -2.106   7.983  16.104  1.00  0.00     0.023 A 
ATOM     85  C   UNL     1      -1.676   6.724  16.559  1.00  0.00     0.031 A 
ATOM     86  C   UNL     1      -2.803   8.808  17.005  1.00  0.00     0.131 A 
ATOM     87  C   UNL     1      -1.989   6.307  17.862  1.00  0.00     0.055 A 
ATOM     88  C   UNL     1      -3.060   8.411  18.318  1.00  0.00     0.041 A 
ATOM     89  F   UNL     1      -3.240  10.019  16.624  1.00  0.00    -0.206 F 
ATOM     90  C   UNL     1      -2.663   7.149  18.750  1.00  0.00     0.022 A 
BRANCH  87  91
ATOM     91  S   UNL     1      -1.573   4.612  18.360  1.00  0.00     0.124 S 
ATOM     92  O   UNL     1      -2.338   3.819  17.403  1.00  0.00    -0.237 OA
ATOM     93  O   UNL     1      -0.123   4.584  18.197  1.00  0.00    -0.237 OA
ATOM     94  O   UNL     1      -2.042   4.536  19.743  1.00  0.00    -0.744 OA
ENDBRANCH  87  91
ENDBRANCH  61  84
ENDBRANCH  35  36
ENDBRANCH  28  30
ENDBRANCH  27  28
ENDBRANCH  26  27
ENDBRANCH   1  26
TORSDOF 20
