REMARK SMILES C[NH2+][C@@]1(C(=O)OCCOCCOC(=O)c2ccc(-c3c4nc(c(-c5cc(S(=O)(=O)[O-])ccc5F)c5ccc([nH]5)c(-c5cc(S(=O)(=O)[O-])ccc5F)c5nc(c(-c6cc(S(=O)(=O)[O-])ccc6F)c6ccc3[nH]6)C=C5)C=C4)cc2)CC[C@H](n2ccc(C)n2)C1
REMARK SMILES IDX 10 1 9 2 8 3 7 4 6 5 4 6 5 7 3 8 78 9 87 10 79 11 80 12 2 13
REMARK SMILES IDX 1 14 81 17 82 18 86 19 83 20 84 21 85 22 11 23 12 24 13 25
REMARK SMILES IDX 14 26 15 27 16 28 77 29 17 30 76 31 18 32 19 33 20 34 70 35
REMARK SMILES IDX 21 36 75 37 69 38 71 39 22 40 74 41 68 42 67 43 23 45 55 46
REMARK SMILES IDX 35 47 54 48 36 49 39 50 53 51 72 52 37 53 38 54 52 56 73 57
REMARK SMILES IDX 40 58 24 59 25 60 33 61 26 62 32 63 34 64 31 65 27 66 28 67
REMARK SMILES IDX 29 68 30 69 56 70 57 71 65 72 58 73 64 74 66 75 63 76 59 77
REMARK SMILES IDX 60 78 61 79 62 80 41 81 42 82 50 83 43 84 49 85 51 86 48 87
REMARK SMILES IDX 44 88 45 89 46 90 47 91
REMARK H PARENT 2 15 2 16 71 44 39 55
REMARK Flexibility Score: inf
ROOT
ATOM      1  C   UNL     1      -0.726  -0.657   3.374  1.00  0.00     0.202 C 
ENDROOT
BRANCH   1   2
ATOM      2  O   UNL     1      -0.802   0.347   4.383  1.00  0.00    -0.374 OA
BRANCH   2   3
ATOM      3  C   UNL     1      -2.028   1.056   4.521  1.00  0.00     0.202 C 
BRANCH   3   4
ATOM      4  C   UNL     1      -2.404   2.084   3.446  1.00  0.00     0.261 C 
BRANCH   4   5
ATOM      5  O   UNL     1      -2.143   1.681   2.094  1.00  0.00    -0.459 OA
BRANCH   5   6
ATOM      6  C   UNL     1      -1.014   2.209   1.548  1.00  0.00     0.368 C 
ATOM      7  O   UNL     1      -0.224   2.939   2.146  1.00  0.00    -0.245 OA
BRANCH   6   8
ATOM      8  C   UNL     1      -0.852   1.885   0.028  1.00  0.00     0.196 C 
ATOM      9  C   UNL     1      -1.718   2.890  -0.746  1.00  0.00     0.083 C 
ATOM     10  C   UNL     1      -1.390   0.530  -0.442  1.00  0.00     0.108 C 
ATOM     11  C   UNL     1      -3.106   2.244  -0.754  1.00  0.00     0.034 C 
ATOM     12  C   UNL     1      -2.811   0.760  -0.992  1.00  0.00     0.114 C 
BRANCH   8  13
ATOM     13  N   UNL     1       0.593   2.067  -0.314  1.00  0.00    -0.334 N 
ATOM     14  C   UNL     1       1.415   0.910   0.046  1.00  0.00     0.331 C 
ATOM     15  H   UNL     1       0.672   2.223  -1.319  1.00  0.00     0.347 HD
ATOM     16  H   UNL     1       0.935   2.865   0.222  1.00  0.00     0.347 HD
ENDBRANCH   8  13
BRANCH  12  17
ATOM     17  N   UNL     1      -3.760  -0.213  -0.491  1.00  0.00    -0.269 N 
ATOM     18  C   UNL     1      -5.090  -0.062  -0.241  1.00  0.00     0.109 A 
ATOM     19  N   UNL     1      -3.341  -1.488  -0.348  1.00  0.00    -0.178 NA
ATOM     20  C   UNL     1      -5.550  -1.304   0.132  1.00  0.00     0.045 A 
ATOM     21  C   UNL     1      -4.421  -2.151   0.072  1.00  0.00     0.059 A 
ATOM     22  C   UNL     1      -4.305  -3.589   0.411  1.00  0.00     0.069 C 
ENDBRANCH  12  17
ENDBRANCH   6   8
ENDBRANCH   5   6
ENDBRANCH   4   5
ENDBRANCH   3   4
ENDBRANCH   2   3
ENDBRANCH   1   2
BRANCH   1  23
ATOM     23  C   UNL     1      -1.562  -1.932   3.537  1.00  0.00     0.261 C 
BRANCH  23  24
ATOM     24  O   UNL     1      -2.979  -1.701   3.537  1.00  0.00    -0.460 OA
BRANCH  24  25
ATOM     25  C   UNL     1      -3.602  -1.941   4.716  1.00  0.00     0.338 C 
ATOM     26  O   UNL     1      -3.075  -2.272   5.772  1.00  0.00    -0.246 OA
BRANCH  25  27
ATOM     27  C   UNL     1      -5.036  -1.623   4.603  1.00  0.00     0.060 A 
ATOM     28  C   UNL     1      -5.649  -0.872   5.611  1.00  0.00     0.016 A 
ATOM     29  C   UNL     1      -5.793  -2.133   3.549  1.00  0.00     0.016 A 
ATOM     30  C   UNL     1      -7.031  -0.670   5.583  1.00  0.00     0.010 A 
ATOM     31  C   UNL     1      -7.167  -1.905   3.503  1.00  0.00     0.010 A 
ATOM     32  C   UNL     1      -7.801  -1.211   4.543  1.00  0.00    -0.014 A 
BRANCH  32  33
ATOM     33  C   UNL     1      -9.283  -1.169   4.585  1.00  0.00     0.031 A 
ATOM     34  C   UNL     1     -10.044  -2.444   4.840  1.00  0.00     0.074 A 
ATOM     35  C   UNL     1      -9.933  -0.019   4.332  1.00  0.00     0.049 A 
ATOM     36  N   UNL     1     -11.335  -2.657   4.851  1.00  0.00    -0.248 NA
ATOM     37  C   UNL     1      -9.236  -3.651   5.073  1.00  0.00     0.031 C 
ATOM     38  C   UNL     1      -9.294   1.260   4.018  1.00  0.00     0.029 A 
ATOM     39  N   UNL     1     -11.275   0.255   4.278  1.00  0.00    -0.354 N 
ATOM     40  C   UNL     1     -11.492  -4.024   5.069  1.00  0.00     0.074 A 
ATOM     41  C   UNL     1     -10.164  -4.594   5.120  1.00  0.00     0.031 C 
ATOM     42  C   UNL     1     -10.245   2.183   3.804  1.00  0.00     0.029 A 
ATOM     43  C   UNL     1     -11.558   1.559   3.946  1.00  0.00     0.049 A 
ATOM     44  H   UNL     1     -11.970  -0.417   4.460  1.00  0.00     0.167 HD
ATOM     45  C   UNL     1     -12.639  -4.730   5.232  1.00  0.00     0.034 A 
ATOM     46  C   UNL     1     -12.744   2.175   3.775  1.00  0.00     0.034 A 
ATOM     47  C   UNL     1     -13.950  -4.127   5.200  1.00  0.00     0.049 A 
ATOM     48  C   UNL     1     -14.007   1.385   4.005  1.00  0.00     0.074 A 
ATOM     49  C   UNL     1     -15.181  -4.716   5.426  1.00  0.00     0.029 A 
ATOM     50  N   UNL     1     -14.198  -2.788   4.920  1.00  0.00    -0.354 N 
ATOM     51  N   UNL     1     -14.142   0.108   4.284  1.00  0.00    -0.248 NA
ATOM     52  C   UNL     1     -15.272   2.124   3.928  1.00  0.00     0.031 C 
ATOM     53  C   UNL     1     -16.174  -3.749   5.230  1.00  0.00     0.029 A 
ATOM     54  C   UNL     1     -15.561  -2.538   4.949  1.00  0.00     0.049 A 
ATOM     55  H   UNL     1     -13.505  -2.114   4.730  1.00  0.00     0.167 HD
ATOM     56  C   UNL     1     -15.508  -0.102   4.447  1.00  0.00     0.074 A 
ATOM     57  C   UNL     1     -16.149   1.184   4.248  1.00  0.00     0.031 C 
ATOM     58  C   UNL     1     -16.175  -1.248   4.739  1.00  0.00     0.034 A 
BRANCH  45  59
ATOM     59  C   UNL     1     -12.519  -6.224   5.437  1.00  0.00     0.023 A 
ATOM     60  C   UNL     1     -11.824  -6.768   6.532  1.00  0.00     0.031 A 
ATOM     61  C   UNL     1     -13.075  -7.121   4.507  1.00  0.00     0.131 A 
ATOM     62  C   UNL     1     -11.626  -8.155   6.622  1.00  0.00     0.055 A 
ATOM     63  C   UNL     1     -12.951  -8.506   4.651  1.00  0.00     0.041 A 
ATOM     64  F   UNL     1     -13.736  -6.668   3.430  1.00  0.00    -0.206 F 
ATOM     65  C   UNL     1     -12.207  -9.030   5.703  1.00  0.00     0.022 A 
BRANCH  62  66
ATOM     66  S   UNL     1     -10.470  -8.784   7.871  1.00  0.00     0.124 S 
ATOM     67  O   UNL     1      -9.225  -8.130   7.473  1.00  0.00    -0.237 OA
ATOM     68  O   UNL     1     -11.066  -8.318   9.117  1.00  0.00    -0.237 OA
ATOM     69  O   UNL     1     -10.498 -10.231   7.667  1.00  0.00    -0.744 OA
ENDBRANCH  62  66
ENDBRANCH  45  59
BRANCH  46  70
ATOM     70  C   UNL     1     -12.792   3.613   3.393  1.00  0.00     0.023 A 
ATOM     71  C   UNL     1     -13.260   4.582   4.293  1.00  0.00     0.031 A 
ATOM     72  C   UNL     1     -12.374   4.040   2.121  1.00  0.00     0.131 A 
ATOM     73  C   UNL     1     -13.333   5.927   3.898  1.00  0.00     0.055 A 
ATOM     74  C   UNL     1     -12.409   5.384   1.746  1.00  0.00     0.041 A 
ATOM     75  F   UNL     1     -11.903   3.154   1.228  1.00  0.00    -0.206 F 
ATOM     76  C   UNL     1     -12.902   6.336   2.635  1.00  0.00     0.022 A 
BRANCH  73  77
ATOM     77  S   UNL     1     -14.056   7.129   5.047  1.00  0.00     0.124 S 
ATOM     78  O   UNL     1     -15.378   6.560   5.283  1.00  0.00    -0.237 OA
ATOM     79  O   UNL     1     -13.123   7.072   6.168  1.00  0.00    -0.237 OA
ATOM     80  O   UNL     1     -14.039   8.377   4.288  1.00  0.00    -0.744 OA
ENDBRANCH  73  77
ENDBRANCH  46  70
BRANCH  58  81
ATOM     81  C   UNL     1     -17.670  -1.141   4.902  1.00  0.00     0.023 A 
ATOM     82  C   UNL     1     -18.511  -0.854   3.813  1.00  0.00     0.031 A 
ATOM     83  C   UNL     1     -18.256  -1.311   6.168  1.00  0.00     0.131 A 
ATOM     84  C   UNL     1     -19.887  -0.687   4.022  1.00  0.00     0.055 A 
ATOM     85  C   UNL     1     -19.633  -1.201   6.360  1.00  0.00     0.041 A 
ATOM     86  F   UNL     1     -17.496  -1.587   7.241  1.00  0.00    -0.206 F 
ATOM     87  C   UNL     1     -20.456  -0.873   5.286  1.00  0.00     0.022 A 
BRANCH  84  88
ATOM     88  S   UNL     1     -20.915  -0.129   2.636  1.00  0.00     0.124 S 
ATOM     89  O   UNL     1     -20.290   1.143   2.289  1.00  0.00    -0.237 OA
ATOM     90  O   UNL     1     -20.744  -1.208   1.668  1.00  0.00    -0.237 OA
ATOM     91  O   UNL     1     -22.251  -0.025   3.219  1.00  0.00    -0.744 OA
ENDBRANCH  84  88
ENDBRANCH  58  81
ENDBRANCH  32  33
ENDBRANCH  25  27
ENDBRANCH  24  25
ENDBRANCH  23  24
ENDBRANCH   1  23
TORSDOF 19
