REMARK SMILES C=CCN(CC(=O)OCCOCCOC(=O)c1ccc(-c2c3nc(c(-c4cc(S(=O)(=O)[O-])ccc4F)c4ccc([nH]4)c(-c4cc(S(=O)(=O)[O-])ccc4F)c4nc(c(-c5cc(S(=O)(=O)[O-])ccc5F)c5ccc2[nH]5)C=C4)C=C3)cc1)C(=O)c1cn(C2C[NH2+]C2)nn1
REMARK SMILES IDX 10 1 9 2 8 3 6 4 7 5 5 6 4 7 3 8 2 9 1 10 80 11 81 12 82 13
REMARK SMILES IDX 83 14 90 15 84 16 89 17 85 18 86 19 88 20 87 21 11 24 12 25
REMARK SMILES IDX 13 26 14 27 15 28 16 29 17 30 18 31 79 32 19 33 78 34 20 35
REMARK SMILES IDX 21 36 22 37 72 38 23 39 77 40 71 41 73 42 24 43 76 44 70 45
REMARK SMILES IDX 69 46 25 48 57 49 37 50 56 51 38 52 41 53 55 54 74 55 39 56
REMARK SMILES IDX 40 57 54 59 75 60 42 61 26 62 27 63 35 64 28 65 34 66 36 67
REMARK SMILES IDX 33 68 29 69 30 70 31 71 32 72 58 73 59 74 67 75 60 76 66 77
REMARK SMILES IDX 68 78 65 79 61 80 62 81 63 82 64 83 43 84 44 85 52 86 45 87
REMARK SMILES IDX 51 88 53 89 50 90 46 91 47 92 48 93 49 94
REMARK H PARENT 87 22 87 23 73 47 41 58
REMARK Flexibility Score: inf
ROOT
ATOM      1  C   UNL     1      -6.143   2.635   0.201  1.00  0.00     0.202 C 
ENDROOT
BRANCH   1   2
ATOM      2  C   UNL     1      -5.762   2.389  -1.280  1.00  0.00     0.261 C 
BRANCH   2   3
ATOM      3  O   UNL     1      -4.326   2.294  -1.482  1.00  0.00    -0.462 OA
BRANCH   3   4
ATOM      4  C   UNL     1      -3.752   3.277  -2.224  1.00  0.00     0.325 C 
ATOM      5  O   UNL     1      -4.373   3.971  -3.024  1.00  0.00    -0.250 OA
BRANCH   4   6
ATOM      6  C   UNL     1      -2.214   3.418  -2.054  1.00  0.00     0.242 C 
BRANCH   6   7
ATOM      7  N   UNL     1      -1.423   2.908  -0.901  1.00  0.00    -0.322 N 
BRANCH   7   8
ATOM      8  C   UNL     1      -1.241   1.459  -0.810  1.00  0.00     0.147 C 
BRANCH   8   9
ATOM      9  C   UNL     1       0.199   1.103  -1.048  1.00  0.00    -0.014 C 
ATOM     10  C   UNL     1       0.899   0.261  -0.273  1.00  0.00     0.006 C 
ENDBRANCH   8   9
ENDBRANCH   7   8
BRANCH   7  11
ATOM     11  C   UNL     1      -0.864   3.697   0.139  1.00  0.00     0.276 C 
ATOM     12  O   UNL     1      -0.218   3.190   1.056  1.00  0.00    -0.267 OA
BRANCH  11  13
ATOM     13  C   UNL     1      -1.198   5.122   0.217  1.00  0.00     0.170 A 
ATOM     14  C   UNL     1      -1.804   5.763   1.289  1.00  0.00     0.145 A 
ATOM     15  N   UNL     1      -1.004   6.045  -0.777  1.00  0.00    -0.125 NA
ATOM     16  N   UNL     1      -2.252   6.930   0.743  1.00  0.00    -0.237 N 
ATOM     17  N   UNL     1      -1.593   7.178  -0.408  1.00  0.00    -0.066 NA
BRANCH  16  18
ATOM     18  C   UNL     1      -3.441   7.656   1.087  1.00  0.00     0.218 C 
ATOM     19  C   UNL     1      -4.534   7.400   0.021  1.00  0.00     0.294 C 
ATOM     20  C   UNL     1      -4.470   7.059   2.065  1.00  0.00     0.294 C 
ATOM     21  N   UNL     1      -5.540   7.447   1.104  1.00  0.00    -0.342 N 
ATOM     22  H   UNL     1      -6.291   6.764   1.012  1.00  0.00     0.346 HD
ATOM     23  H   UNL     1      -6.111   8.278   1.258  1.00  0.00     0.346 HD
ENDBRANCH  16  18
ENDBRANCH  11  13
ENDBRANCH   7  11
ENDBRANCH   6   7
ENDBRANCH   4   6
ENDBRANCH   3   4
ENDBRANCH   2   3
ENDBRANCH   1   2
BRANCH   1  24
ATOM     24  O   UNL     1      -5.344   3.578   0.920  1.00  0.00    -0.374 OA
BRANCH  24  25
ATOM     25  C   UNL     1      -3.974   3.208   0.996  1.00  0.00     0.202 C 
BRANCH  25  26
ATOM     26  C   UNL     1      -3.356   3.154   2.380  1.00  0.00     0.261 C 
BRANCH  26  27
ATOM     27  O   UNL     1      -3.867   2.022   3.042  1.00  0.00    -0.460 OA
BRANCH  27  28
ATOM     28  C   UNL     1      -5.012   2.266   3.701  1.00  0.00     0.338 C 
ATOM     29  O   UNL     1      -5.494   3.342   4.010  1.00  0.00    -0.246 OA
BRANCH  28  30
ATOM     30  C   UNL     1      -5.662   0.965   3.780  1.00  0.00     0.060 A 
ATOM     31  C   UNL     1      -7.049   0.923   3.653  1.00  0.00     0.016 A 
ATOM     32  C   UNL     1      -4.882  -0.196   3.913  1.00  0.00     0.016 A 
ATOM     33  C   UNL     1      -7.680  -0.298   3.759  1.00  0.00     0.010 A 
ATOM     34  C   UNL     1      -5.508  -1.419   3.967  1.00  0.00     0.010 A 
ATOM     35  C   UNL     1      -6.906  -1.448   3.967  1.00  0.00    -0.014 A 
BRANCH  35  36
ATOM     36  C   UNL     1      -7.559  -2.667   4.438  1.00  0.00     0.031 A 
ATOM     37  C   UNL     1      -7.450  -2.982   5.898  1.00  0.00     0.074 A 
ATOM     38  C   UNL     1      -8.213  -3.429   3.554  1.00  0.00     0.049 A 
ATOM     39  N   UNL     1      -7.905  -4.009   6.556  1.00  0.00    -0.248 NA
ATOM     40  C   UNL     1      -6.698  -2.019   6.725  1.00  0.00     0.031 C 
ATOM     41  C   UNL     1      -8.334  -3.144   2.123  1.00  0.00     0.029 A 
ATOM     42  N   UNL     1      -8.897  -4.592   3.732  1.00  0.00    -0.354 N 
ATOM     43  C   UNL     1      -7.487  -3.820   7.869  1.00  0.00     0.074 A 
ATOM     44  C   UNL     1      -6.680  -2.625   7.899  1.00  0.00     0.031 C 
ATOM     45  C   UNL     1      -9.072  -4.109   1.552  1.00  0.00     0.029 A 
ATOM     46  C   UNL     1      -9.431  -5.088   2.571  1.00  0.00     0.049 A 
ATOM     47  H   UNL     1      -8.999  -5.032   4.607  1.00  0.00     0.167 HD
ATOM     48  C   UNL     1      -7.783  -4.578   8.950  1.00  0.00     0.034 A 
ATOM     49  C   UNL     1     -10.123  -6.223   2.377  1.00  0.00     0.034 A 
ATOM     50  C   UNL     1      -8.587  -5.769   8.847  1.00  0.00     0.049 A 
ATOM     51  C   UNL     1     -10.410  -7.072   3.588  1.00  0.00     0.074 A 
ATOM     52  C   UNL     1      -8.981  -6.638   9.845  1.00  0.00     0.029 A 
ATOM     53  N   UNL     1      -9.115  -6.260   7.654  1.00  0.00    -0.354 N 
ATOM     54  N   UNL     1     -10.036  -6.886   4.837  1.00  0.00    -0.248 NA
ATOM     55  C   UNL     1     -11.229  -8.265   3.371  1.00  0.00     0.031 C 
ATOM     56  C   UNL     1      -9.678  -7.693   9.245  1.00  0.00     0.029 A 
ATOM     57  C   UNL     1      -9.807  -7.434   7.886  1.00  0.00     0.049 A 
ATOM     58  H   UNL     1      -9.010  -5.832   6.774  1.00  0.00     0.167 HD
ATOM     59  C   UNL     1     -10.608  -7.923   5.564  1.00  0.00     0.074 A 
ATOM     60  C   UNL     1     -11.360  -8.719   4.609  1.00  0.00     0.031 C 
ATOM     61  C   UNL     1     -10.532  -8.198   6.894  1.00  0.00     0.034 A 
BRANCH  48  62
ATOM     62  C   UNL     1      -7.184  -4.162  10.272  1.00  0.00     0.023 A 
ATOM     63  C   UNL     1      -7.443  -2.901  10.844  1.00  0.00     0.031 A 
ATOM     64  C   UNL     1      -6.274  -5.004  10.934  1.00  0.00     0.131 A 
ATOM     65  C   UNL     1      -6.730  -2.484  11.979  1.00  0.00     0.055 A 
ATOM     66  C   UNL     1      -5.640  -4.620  12.118  1.00  0.00     0.041 A 
ATOM     67  F   UNL     1      -5.955  -6.203  10.422  1.00  0.00    -0.206 F 
ATOM     68  C   UNL     1      -5.852  -3.347  12.637  1.00  0.00     0.022 A 
BRANCH  65  69
ATOM     69  S   UNL     1      -6.831  -0.741  12.476  1.00  0.00     0.124 S 
ATOM     70  O   UNL     1      -6.359  -0.064  11.271  1.00  0.00    -0.237 OA
ATOM     71  O   UNL     1      -8.247  -0.582  12.786  1.00  0.00    -0.237 OA
ATOM     72  O   UNL     1      -5.927  -0.658  13.622  1.00  0.00    -0.744 OA
ENDBRANCH  65  69
ENDBRANCH  48  62
BRANCH  49  73
ATOM     73  C   UNL     1     -10.581  -6.592   1.013  1.00  0.00     0.023 A 
ATOM     74  C   UNL     1     -11.946  -6.661   0.701  1.00  0.00     0.031 A 
ATOM     75  C   UNL     1      -9.655  -6.873  -0.008  1.00  0.00     0.131 A 
ATOM     76  C   UNL     1     -12.349  -7.045  -0.587  1.00  0.00     0.055 A 
ATOM     77  C   UNL     1     -10.059  -7.202  -1.302  1.00  0.00     0.041 A 
ATOM     78  F   UNL     1      -8.335  -6.805   0.233  1.00  0.00    -0.206 F 
ATOM     79  C   UNL     1     -11.416  -7.301  -1.594  1.00  0.00     0.022 A 
BRANCH  76  80
ATOM     80  S   UNL     1     -14.118  -7.277  -0.905  1.00  0.00     0.124 S 
ATOM     81  O   UNL     1     -14.473  -8.271   0.101  1.00  0.00    -0.237 OA
ATOM     82  O   UNL     1     -14.642  -5.932  -0.692  1.00  0.00    -0.237 OA
ATOM     83  O   UNL     1     -14.154  -7.746  -2.289  1.00  0.00    -0.744 OA
ENDBRANCH  76  80
ENDBRANCH  49  73
BRANCH  61  84
ATOM     84  C   UNL     1     -11.334  -9.377   7.382  1.00  0.00     0.023 A 
ATOM     85  C   UNL     1     -11.045 -10.689   6.973  1.00  0.00     0.031 A 
ATOM     86  C   UNL     1     -12.415  -9.176   8.259  1.00  0.00     0.131 A 
ATOM     87  C   UNL     1     -11.878 -11.740   7.377  1.00  0.00     0.055 A 
ATOM     88  C   UNL     1     -13.188 -10.237   8.725  1.00  0.00     0.041 A 
ATOM     89  F   UNL     1     -12.734  -7.941   8.680  1.00  0.00    -0.206 F 
ATOM     90  C   UNL     1     -12.933 -11.527   8.268  1.00  0.00     0.022 A 
BRANCH  87  91
ATOM     91  S   UNL     1     -11.645 -13.367   6.613  1.00  0.00     0.124 S 
ATOM     92  O   UNL     1     -11.775 -13.054   5.193  1.00  0.00    -0.237 OA
ATOM     93  O   UNL     1     -10.308 -13.736   7.065  1.00  0.00    -0.237 OA
ATOM     94  O   UNL     1     -12.733 -14.166   7.174  1.00  0.00    -0.744 OA
ENDBRANCH  87  91
ENDBRANCH  61  84
ENDBRANCH  35  36
ENDBRANCH  28  30
ENDBRANCH  27  28
ENDBRANCH  26  27
ENDBRANCH  25  26
ENDBRANCH  24  25
ENDBRANCH   1  24
TORSDOF 23
