REMARK SMILES C=CC[N@@H+](CC(=O)OCCOCCOC(=O)c1ccc(-c2c3nc(c(-c4cc(S(=O)(=O)[O-])ccc4F)c4ccc([nH]4)c(-c4cc(S(=O)(=O)[O-])ccc4F)c4nc(c(-c5cc(S(=O)(=O)[O-])ccc5F)c5ccc2[nH]5)C=C4)C=C3)cc1)[C@@H]1CCC[C@H](C(C)(C)C)CC1
REMARK SMILES IDX 9 1 8 2 6 3 7 4 5 5 4 6 3 8 2 9 1 10 80 11 81 12 82 13 90 15
REMARK SMILES IDX 89 16 84 17 83 18 85 20 86 21 87 22 88 23 10 24 11 25 12 26
REMARK SMILES IDX 13 27 14 28 15 29 16 30 17 31 18 32 79 33 19 34 78 35 20 36
REMARK SMILES IDX 21 37 22 38 72 39 23 40 77 41 71 42 73 43 24 44 76 45 70 46
REMARK SMILES IDX 69 47 25 49 57 50 37 51 56 52 38 53 41 54 55 55 74 56 39 57
REMARK SMILES IDX 40 58 54 60 75 61 42 62 26 63 27 64 35 65 28 66 34 67 36 68
REMARK SMILES IDX 33 69 29 70 30 71 31 72 32 73 58 74 59 75 67 76 60 77 66 78
REMARK SMILES IDX 68 79 65 80 61 81 62 82 63 83 64 84 43 85 44 86 52 87 45 88
REMARK SMILES IDX 51 89 53 90 50 91 46 92 47 93 48 94 49 95
REMARK H PARENT 4 7 73 48 41 59
REMARK Flexibility Score: 80.00
ROOT
ATOM      1  C   UNL     1      -4.596   0.005  -1.006  1.00  0.00     0.261 C 
ENDROOT
BRANCH   1   2
ATOM      2  O   UNL     1      -3.588  -0.384  -0.043  1.00  0.00    -0.459 OA
BRANCH   2   3
ATOM      3  C   UNL     1      -3.944  -1.307   0.891  1.00  0.00     0.361 C 
ATOM      4  O   UNL     1      -5.031  -1.879   0.913  1.00  0.00    -0.245 OA
BRANCH   3   5
ATOM      5  C   UNL     1      -2.905  -1.510   2.000  1.00  0.00     0.387 C 
BRANCH   5   6
ATOM      6  N   UNL     1      -1.458  -1.491   1.632  1.00  0.00    -0.320 N 
ATOM      7  H   UNL     1      -0.911  -1.748   2.454  1.00  0.00     0.349 HD
BRANCH   6   8
ATOM      8  C   UNL     1      -1.040  -0.123   1.281  1.00  0.00     0.291 C 
BRANCH   8   9
ATOM      9  C   UNL     1       0.349   0.186   1.761  1.00  0.00     0.025 C 
ATOM     10  C   UNL     1       1.257   0.857   1.039  1.00  0.00     0.010 C 
ENDBRANCH   8   9
ENDBRANCH   6   8
BRANCH   6  11
ATOM     11  C   UNL     1      -1.069  -2.557   0.670  1.00  0.00     0.184 C 
BRANCH  11  12
ATOM     12  C   UNL     1      -1.323  -3.965   1.268  1.00  0.00     0.065 C 
BRANCH  12  13
ATOM     13  C   UNL     1      -0.683  -5.118   0.483  1.00  0.00     0.006 CG0
ATOM     14  G   UNL     1       0.742  -5.466   0.934  1.00  0.00     0.000 G0
ENDBRANCH  12  13
ENDBRANCH  11  12
BRANCH  11  15
ATOM     15  C   UNL     1       0.353  -2.478   0.081  1.00  0.00     0.065 C 
BRANCH  15  16
ATOM     16  C   UNL     1       1.450  -2.974   1.023  1.00  0.00     0.010 C 
BRANCH  16  17
ATOM     17  C   UNL     1       1.877  -4.428   0.711  1.00  0.00    -0.005 C 
BRANCH  17  18
ATOM     18  C   UNL     1       0.742  -5.466   0.934  1.00  0.00     0.004 CG0
ATOM     19  G   UNL     1      -0.683  -5.118   0.483  1.00  0.00     0.000 G0
ENDBRANCH  17  18
BRANCH  17  20
ATOM     20  C   UNL     1       3.223  -4.842   1.441  1.00  0.00    -0.035 C 
ATOM     21  C   UNL     1       3.709  -6.214   0.924  1.00  0.00     0.011 C 
ATOM     22  C   UNL     1       4.352  -3.827   1.148  1.00  0.00     0.011 C 
ATOM     23  C   UNL     1       3.061  -4.929   2.972  1.00  0.00     0.011 C 
ENDBRANCH  17  20
ENDBRANCH  16  17
ENDBRANCH  15  16
ENDBRANCH  11  15
ENDBRANCH   6  11
ENDBRANCH   5   6
ENDBRANCH   3   5
ENDBRANCH   2   3
ENDBRANCH   1   2
BRANCH   1  24
ATOM     24  C   UNL     1      -4.126  -0.207  -2.449  1.00  0.00     0.202 C 
BRANCH  24  25
ATOM     25  O   UNL     1      -4.256  -1.540  -2.952  1.00  0.00    -0.374 OA
BRANCH  25  26
ATOM     26  C   UNL     1      -3.343  -2.503  -2.438  1.00  0.00     0.202 C 
BRANCH  26  27
ATOM     27  C   UNL     1      -1.944  -2.489  -3.071  1.00  0.00     0.261 C 
BRANCH  27  28
ATOM     28  O   UNL     1      -1.270  -1.229  -2.889  1.00  0.00    -0.460 OA
BRANCH  28  29
ATOM     29  C   UNL     1      -1.003  -0.572  -4.048  1.00  0.00     0.338 C 
ATOM     30  O   UNL     1      -1.153  -1.000  -5.180  1.00  0.00    -0.246 OA
BRANCH  29  31
ATOM     31  C   UNL     1      -0.658   0.840  -3.787  1.00  0.00     0.060 A 
ATOM     32  C   UNL     1      -1.433   1.810  -4.433  1.00  0.00     0.016 A 
ATOM     33  C   UNL     1       0.458   1.214  -3.036  1.00  0.00     0.016 A 
ATOM     34  C   UNL     1      -1.059   3.152  -4.387  1.00  0.00     0.010 A 
ATOM     35  C   UNL     1       0.832   2.566  -2.990  1.00  0.00     0.010 A 
ATOM     36  C   UNL     1       0.102   3.537  -3.703  1.00  0.00    -0.014 A 
BRANCH  36  37
ATOM     37  C   UNL     1       0.635   4.914  -3.906  1.00  0.00     0.031 A 
ATOM     38  C   UNL     1       1.792   5.113  -4.854  1.00  0.00     0.074 A 
ATOM     39  C   UNL     1       0.051   5.982  -3.331  1.00  0.00     0.049 A 
ATOM     40  N   UNL     1       2.416   6.213  -5.189  1.00  0.00    -0.248 NA
ATOM     41  C   UNL     1       2.313   3.904  -5.511  1.00  0.00     0.031 C 
ATOM     42  C   UNL     1      -1.112   5.933  -2.445  1.00  0.00     0.029 A 
ATOM     43  N   UNL     1       0.349   7.321  -3.416  1.00  0.00    -0.354 N 
ATOM     44  C   UNL     1       3.403   5.831  -6.094  1.00  0.00     0.074 A 
ATOM     45  C   UNL     1       3.322   4.391  -6.217  1.00  0.00     0.031 C 
ATOM     46  C   UNL     1      -1.431   7.185  -2.073  1.00  0.00     0.029 A 
ATOM     47  C   UNL     1      -0.476   8.123  -2.661  1.00  0.00     0.049 A 
ATOM     48  H   UNL     1       1.085   7.674  -3.966  1.00  0.00     0.167 HD
ATOM     49  C   UNL     1       4.285   6.607  -6.772  1.00  0.00     0.034 A 
ATOM     50  C   UNL     1      -0.454   9.457  -2.454  1.00  0.00     0.034 A 
ATOM     51  C   UNL     1       4.359   8.042  -6.645  1.00  0.00     0.049 A 
ATOM     52  C   UNL     1       0.597  10.292  -3.151  1.00  0.00     0.074 A 
ATOM     53  C   UNL     1       5.221   8.921  -7.279  1.00  0.00     0.029 A 
ATOM     54  N   UNL     1       3.542   8.811  -5.826  1.00  0.00    -0.354 N 
ATOM     55  N   UNL     1       1.533   9.912  -3.991  1.00  0.00    -0.248 NA
ATOM     56  C   UNL     1       0.589  11.736  -2.878  1.00  0.00     0.031 C 
ATOM     57  C   UNL     1       4.968  10.210  -6.797  1.00  0.00     0.029 A 
ATOM     58  C   UNL     1       3.897  10.148  -5.920  1.00  0.00     0.049 A 
ATOM     59  H   UNL     1       2.817   8.458  -5.262  1.00  0.00     0.167 HD
ATOM     60  C   UNL     1       2.195  11.077  -4.374  1.00  0.00     0.074 A 
ATOM     61  C   UNL     1       1.548  12.171  -3.682  1.00  0.00     0.031 C 
ATOM     62  C   UNL     1       3.241  11.230  -5.226  1.00  0.00     0.034 A 
BRANCH  49  63
ATOM     63  C   UNL     1       5.271   5.907  -7.677  1.00  0.00     0.023 A 
ATOM     64  C   UNL     1       4.855   5.202  -8.820  1.00  0.00     0.031 A 
ATOM     65  C   UNL     1       6.644   5.924  -7.376  1.00  0.00     0.131 A 
ATOM     66  C   UNL     1       5.794   4.487  -9.581  1.00  0.00     0.055 A 
ATOM     67  C   UNL     1       7.583   5.276  -8.182  1.00  0.00     0.041 A 
ATOM     68  F   UNL     1       7.097   6.562  -6.286  1.00  0.00    -0.206 F 
ATOM     69  C   UNL     1       7.158   4.540  -9.284  1.00  0.00     0.022 A 
BRANCH  66  70
ATOM     70  S   UNL     1       5.192   3.378 -10.883  1.00  0.00     0.124 S 
ATOM     71  O   UNL     1       4.354   2.456 -10.120  1.00  0.00    -0.237 OA
ATOM     72  O   UNL     1       4.489   4.291 -11.777  1.00  0.00    -0.237 OA
ATOM     73  O   UNL     1       6.415   2.791 -11.426  1.00  0.00    -0.744 OA
ENDBRANCH  66  70
ENDBRANCH  49  63
BRANCH  50  74
ATOM     74  C   UNL     1      -1.423  10.100  -1.518  1.00  0.00     0.023 A 
ATOM     75  C   UNL     1      -2.334  11.072  -1.964  1.00  0.00     0.031 A 
ATOM     76  C   UNL     1      -1.396   9.808  -0.142  1.00  0.00     0.131 A 
ATOM     77  C   UNL     1      -3.140  11.755  -1.038  1.00  0.00     0.055 A 
ATOM     78  C   UNL     1      -2.240  10.449   0.767  1.00  0.00     0.041 A 
ATOM     79  F   UNL     1      -0.542   8.892   0.341  1.00  0.00    -0.206 F 
ATOM     80  C   UNL     1      -3.108  11.441   0.323  1.00  0.00     0.022 A 
BRANCH  77  81
ATOM     81  S   UNL     1      -4.158  13.138  -1.623  1.00  0.00     0.124 S 
ATOM     82  O   UNL     1      -3.156  14.007  -2.230  1.00  0.00    -0.237 OA
ATOM     83  O   UNL     1      -5.073  12.471  -2.543  1.00  0.00    -0.237 OA
ATOM     84  O   UNL     1      -4.771  13.651  -0.400  1.00  0.00    -0.744 OA
ENDBRANCH  77  81
ENDBRANCH  50  74
BRANCH  62  85
ATOM     85  C   UNL     1       3.706  12.639  -5.505  1.00  0.00     0.023 A 
ATOM     86  C   UNL     1       4.325  13.427  -4.519  1.00  0.00     0.031 A 
ATOM     87  C   UNL     1       3.524  13.200  -6.782  1.00  0.00     0.131 A 
ATOM     88  C   UNL     1       4.694  14.750  -4.811  1.00  0.00     0.055 A 
ATOM     89  C   UNL     1       3.943  14.497  -7.083  1.00  0.00     0.041 A 
ATOM     90  F   UNL     1       2.938  12.493  -7.761  1.00  0.00    -0.206 F 
ATOM     91  C   UNL     1       4.521  15.284  -6.091  1.00  0.00     0.022 A 
BRANCH  88  92
ATOM     92  S   UNL     1       5.330  15.795  -3.472  1.00  0.00     0.124 S 
ATOM     93  O   UNL     1       4.228  15.771  -2.517  1.00  0.00    -0.237 OA
ATOM     94  O   UNL     1       6.539  15.084  -3.068  1.00  0.00    -0.237 OA
ATOM     95  O   UNL     1       5.560  17.084  -4.122  1.00  0.00    -0.744 OA
ENDBRANCH  88  92
ENDBRANCH  62  85
ENDBRANCH  36  37
ENDBRANCH  29  31
ENDBRANCH  28  29
ENDBRANCH  27  28
ENDBRANCH  26  27
ENDBRANCH  25  26
ENDBRANCH  24  25
ENDBRANCH   1  24
TORSDOF 22
