REMARK SMILES O=C(OCCOCCOC(=O)[C@@H](Cc1ccccc1)N1C(=O)/C(=C/c2ccncc2)SC1=S)c1ccc(-c2c3nc(c(-c4cc(S(=O)(=O)[O-])ccc4F)c4ccc([nH]4)c(-c4cc(S(=O)(=O)[O-])ccc4F)c4nc(c(-c5cc(S(=O)(=O)[O-])ccc5F)c5ccc2[nH]5)C=C4)C=C3)cc1
REMARK SMILES IDX 5 1 4 2 3 3 2 4 1 5 34 6 35 7 96 8 36 9 95 10 37 11 38 12
REMARK SMILES IDX 39 13 89 14 40 15 94 16 88 17 90 18 41 19 93 20 87 21 86 22
REMARK SMILES IDX 42 24 74 25 54 26 73 27 55 28 58 29 72 30 91 31 56 32 57 33
REMARK SMILES IDX 71 35 92 36 59 37 43 38 44 39 52 40 45 41 51 42 53 43 50 44
REMARK SMILES IDX 46 45 47 46 48 47 49 48 75 49 76 50 84 51 77 52 83 53 85 54
REMARK SMILES IDX 82 55 78 56 79 57 80 58 81 59 60 60 61 61 69 62 62 63 68 64
REMARK SMILES IDX 70 65 67 66 63 67 64 68 65 69 66 70 6 71 7 72 8 73 9 74
REMARK SMILES IDX 10 75 11 76 12 77 13 78 14 79 15 80 19 81 16 82 18 83 17 84
REMARK SMILES IDX 20 85 21 86 32 87 22 88 23 89 31 90 33 91 24 92 25 93 26 94
REMARK SMILES IDX 30 95 27 96 29 97 28 98
REMARK H PARENT 90 23 58 34
REMARK Flexibility Score: inf
ROOT
ATOM      1  C   UNL     1       4.864  -1.034   0.283  1.00  0.00     0.202 C 
ENDROOT
BRANCH   1   2
ATOM      2  C   UNL     1       4.632   0.284   1.049  1.00  0.00     0.261 C 
BRANCH   2   3
ATOM      3  O   UNL     1       3.240   0.641   1.115  1.00  0.00    -0.460 OA
BRANCH   3   4
ATOM      4  C   UNL     1       2.520   1.421   0.273  1.00  0.00     0.338 C 
ATOM      5  O   UNL     1       1.330   1.606   0.529  1.00  0.00    -0.246 OA
BRANCH   4   6
ATOM      6  C   UNL     1       3.070   1.996  -0.993  1.00  0.00     0.060 A 
ATOM      7  C   UNL     1       4.276   1.613  -1.578  1.00  0.00     0.016 A 
ATOM      8  C   UNL     1       2.274   2.920  -1.688  1.00  0.00     0.016 A 
ATOM      9  C   UNL     1       4.665   2.039  -2.822  1.00  0.00     0.010 A 
ATOM     10  C   UNL     1       2.694   3.435  -2.917  1.00  0.00     0.010 A 
ATOM     11  C   UNL     1       3.894   2.982  -3.470  1.00  0.00    -0.014 A 
BRANCH  11  12
ATOM     12  C   UNL     1       4.570   3.643  -4.578  1.00  0.00     0.031 A 
ATOM     13  C   UNL     1       5.366   4.857  -4.237  1.00  0.00     0.074 A 
ATOM     14  C   UNL     1       4.649   3.015  -5.759  1.00  0.00     0.049 A 
ATOM     15  N   UNL     1       5.987   5.688  -5.019  1.00  0.00    -0.248 NA
ATOM     16  C   UNL     1       5.495   5.164  -2.799  1.00  0.00     0.031 C 
ATOM     17  C   UNL     1       4.093   1.688  -6.045  1.00  0.00     0.029 A 
ATOM     18  N   UNL     1       5.241   3.394  -6.926  1.00  0.00    -0.354 N 
ATOM     19  C   UNL     1       6.535   6.647  -4.176  1.00  0.00     0.074 A 
ATOM     20  C   UNL     1       6.197   6.281  -2.822  1.00  0.00     0.031 C 
ATOM     21  C   UNL     1       4.338   1.384  -7.329  1.00  0.00     0.029 A 
ATOM     22  C   UNL     1       4.981   2.530  -7.960  1.00  0.00     0.049 A 
ATOM     23  H   UNL     1       5.797   4.201  -7.017  1.00  0.00     0.167 HD
ATOM     24  C   UNL     1       7.223   7.753  -4.538  1.00  0.00     0.034 A 
ATOM     25  C   UNL     1       5.165   2.715  -9.279  1.00  0.00     0.034 A 
ATOM     26  C   UNL     1       7.469   8.055  -5.924  1.00  0.00     0.049 A 
ATOM     27  C   UNL     1       5.787   4.024  -9.691  1.00  0.00     0.074 A 
ATOM     28  C   UNL     1       8.041   9.175  -6.489  1.00  0.00     0.029 A 
ATOM     29  N   UNL     1       7.121   7.205  -6.977  1.00  0.00    -0.354 N 
ATOM     30  N   UNL     1       6.194   5.016  -8.924  1.00  0.00    -0.248 NA
ATOM     31  C   UNL     1       5.967   4.255 -11.124  1.00  0.00     0.031 C 
ATOM     32  C   UNL     1       7.965   9.037  -7.880  1.00  0.00     0.029 A 
ATOM     33  C   UNL     1       7.434   7.789  -8.188  1.00  0.00     0.049 A 
ATOM     34  H   UNL     1       6.710   6.317  -6.870  1.00  0.00     0.167 HD
ATOM     35  C   UNL     1       6.702   5.982  -9.780  1.00  0.00     0.074 A 
ATOM     36  C   UNL     1       6.548   5.449 -11.125  1.00  0.00     0.031 C 
ATOM     37  C   UNL     1       7.253   7.192  -9.496  1.00  0.00     0.034 A 
BRANCH  24  38
ATOM     38  C   UNL     1       7.557   8.729  -3.435  1.00  0.00     0.023 A 
ATOM     39  C   UNL     1       8.363   8.373  -2.337  1.00  0.00     0.031 A 
ATOM     40  C   UNL     1       6.909   9.977  -3.392  1.00  0.00     0.131 A 
ATOM     41  C   UNL     1       8.396   9.194  -1.197  1.00  0.00     0.055 A 
ATOM     42  C   UNL     1       7.030  10.835  -2.297  1.00  0.00     0.041 A 
ATOM     43  F   UNL     1       6.093  10.358  -4.387  1.00  0.00    -0.206 F 
ATOM     44  C   UNL     1       7.756  10.435  -1.180  1.00  0.00     0.022 A 
BRANCH  41  45
ATOM     45  S   UNL     1       9.087   8.515   0.341  1.00  0.00     0.124 S 
ATOM     46  O   UNL     1       8.253   7.332   0.542  1.00  0.00    -0.237 OA
ATOM     47  O   UNL     1      10.476   8.262  -0.021  1.00  0.00    -0.237 OA
ATOM     48  O   UNL     1       8.879   9.585   1.314  1.00  0.00    -0.744 OA
ENDBRANCH  41  45
ENDBRANCH  24  38
BRANCH  25  49
ATOM     49  C   UNL     1       4.646   1.713 -10.251  1.00  0.00     0.023 A 
ATOM     50  C   UNL     1       5.496   1.001 -11.107  1.00  0.00     0.031 A 
ATOM     51  C   UNL     1       3.265   1.429 -10.312  1.00  0.00     0.131 A 
ATOM     52  C   UNL     1       4.959   0.051 -11.993  1.00  0.00     0.055 A 
ATOM     53  C   UNL     1       2.743   0.451 -11.159  1.00  0.00     0.041 A 
ATOM     54  F   UNL     1       2.401   2.081  -9.517  1.00  0.00    -0.206 F 
ATOM     55  C   UNL     1       3.592  -0.241 -12.012  1.00  0.00     0.022 A 
BRANCH  52  56
ATOM     56  S   UNL     1       6.070  -0.774 -13.166  1.00  0.00     0.124 S 
ATOM     57  O   UNL     1       6.629   0.360 -13.893  1.00  0.00    -0.237 OA
ATOM     58  O   UNL     1       6.984  -1.479 -12.274  1.00  0.00    -0.237 OA
ATOM     59  O   UNL     1       5.174  -1.631 -13.941  1.00  0.00    -0.744 OA
ENDBRANCH  52  56
ENDBRANCH  25  49
BRANCH  37  60
ATOM     60  C   UNL     1       7.786   7.978 -10.660  1.00  0.00     0.023 A 
ATOM     61  C   UNL     1       6.935   8.589 -11.591  1.00  0.00     0.031 A 
ATOM     62  C   UNL     1       9.174   8.165 -10.788  1.00  0.00     0.131 A 
ATOM     63  C   UNL     1       7.486   9.343 -12.635  1.00  0.00     0.055 A 
ATOM     64  C   UNL     1       9.712   8.965 -11.792  1.00  0.00     0.041 A 
ATOM     65  F   UNL     1      10.023   7.596  -9.916  1.00  0.00    -0.206 F 
ATOM     66  C   UNL     1       8.866   9.554 -12.727  1.00  0.00     0.022 A 
BRANCH  63  67
ATOM     67  S   UNL     1       6.378  10.002 -13.908  1.00  0.00     0.124 S 
ATOM     68  O   UNL     1       5.808   8.783 -14.471  1.00  0.00    -0.237 OA
ATOM     69  O   UNL     1       5.465  10.833 -13.130  1.00  0.00    -0.237 OA
ATOM     70  O   UNL     1       7.278  10.735 -14.797  1.00  0.00    -0.744 OA
ENDBRANCH  63  67
ENDBRANCH  37  60
ENDBRANCH  11  12
ENDBRANCH   4   6
ENDBRANCH   3   4
ENDBRANCH   2   3
ENDBRANCH   1   2
BRANCH   1  71
ATOM     71  O   UNL     1       4.453  -1.107  -1.084  1.00  0.00    -0.374 OA
BRANCH  71  72
ATOM     72  C   UNL     1       3.060  -1.339  -1.342  1.00  0.00     0.202 C 
BRANCH  72  73
ATOM     73  C   UNL     1       2.816  -2.796  -1.661  1.00  0.00     0.261 C 
BRANCH  73  74
ATOM     74  O   UNL     1       3.095  -3.490  -0.444  1.00  0.00    -0.462 OA
BRANCH  74  75
ATOM     75  C   UNL     1       4.263  -4.161  -0.385  1.00  0.00     0.329 C 
ATOM     76  O   UNL     1       5.012  -4.379  -1.329  1.00  0.00    -0.250 OA
BRANCH  75  77
ATOM     77  C   UNL     1       4.462  -4.771   0.989  1.00  0.00     0.206 C 
BRANCH  77  78
ATOM     78  C   UNL     1       4.062  -4.050   2.300  1.00  0.00     0.073 C 
BRANCH  78  79
ATOM     79  C   UNL     1       2.611  -3.747   2.568  1.00  0.00    -0.045 A 
ATOM     80  C   UNL     1       2.108  -2.444   2.447  1.00  0.00     0.004 A 
ATOM     81  C   UNL     1       1.731  -4.759   2.957  1.00  0.00     0.004 A 
ATOM     82  C   UNL     1       0.746  -2.180   2.586  1.00  0.00     0.000 A 
ATOM     83  C   UNL     1       0.364  -4.503   3.080  1.00  0.00     0.000 A 
ATOM     84  C   UNL     1      -0.131  -3.218   2.875  1.00  0.00     0.000 A 
ENDBRANCH  78  79
ENDBRANCH  77  78
BRANCH  77  85
ATOM     85  N   UNL     1       4.124  -6.195   0.930  1.00  0.00    -0.278 N 
ATOM     86  C   UNL     1       5.123  -7.085   1.294  1.00  0.00     0.267 C 
ATOM     87  C   UNL     1       2.905  -6.751   0.576  1.00  0.00     0.149 C 
ATOM     88  O   UNL     1       6.247  -6.817   1.684  1.00  0.00    -0.268 OA
ATOM     89  C   UNL     1       4.617  -8.462   1.154  1.00  0.00     0.081 C 
ATOM     90  S   UNL     1       2.902  -8.437   1.039  1.00  0.00    -0.054 SA
ATOM     91  S   UNL     1       1.572  -6.142  -0.216  1.00  0.00    -0.052 S 
ATOM     92  C   UNL     1       5.409  -9.533   1.026  1.00  0.00     0.029 C 
BRANCH  92  93
ATOM     93  C   UNL     1       4.792 -10.831   0.764  1.00  0.00    -0.021 A 
ATOM     94  C   UNL     1       4.325 -11.126  -0.518  1.00  0.00     0.028 A 
ATOM     95  C   UNL     1       4.423 -11.635   1.839  1.00  0.00     0.028 A 
ATOM     96  C   UNL     1       3.464 -12.197  -0.661  1.00  0.00     0.111 A 
ATOM     97  C   UNL     1       3.566 -12.689   1.586  1.00  0.00     0.111 A 
ATOM     98  N   UNL     1       3.077 -12.989   0.362  1.00  0.00    -0.265 NA
ENDBRANCH  92  93
ENDBRANCH  77  85
ENDBRANCH  75  77
ENDBRANCH  74  75
ENDBRANCH  73  74
ENDBRANCH  72  73
ENDBRANCH  71  72
ENDBRANCH   1  71
TORSDOF 21
