REMARK SMILES CCc1ccc(N2C(=O)C[C@@H](SC[C@@H](NC(C)=O)C(=O)OCCOCCOC(=O)c3ccc(-c4c5nc(c(-c6cc(S(=O)(=O)[O-])ccc6F)c6ccc([nH]6)c(-c6cc(S(=O)(=O)[O-])ccc6F)c6nc(c(-c7cc(S(=O)(=O)[O-])ccc7F)c7ccc4[nH]7)C=C6)C=C5)cc3)C2=O)cc1
REMARK SMILES IDX 23 1 22 2 21 3 19 4 20 5 14 6 13 7 12 8 11 9 7 10 8 11 93 12
REMARK SMILES IDX 9 13 10 14 94 15 6 16 3 17 4 18 96 19 5 20 95 21 2 22 1 23
REMARK SMILES IDX 15 24 16 25 17 27 18 28 24 29 25 30 26 31 27 32 28 33 29 34
REMARK SMILES IDX 30 35 31 36 92 37 32 38 91 39 33 40 34 41 35 42 85 43 36 44
REMARK SMILES IDX 90 45 84 46 86 47 37 48 89 49 83 50 82 51 38 53 70 54 50 55
REMARK SMILES IDX 69 56 51 57 54 58 68 59 87 60 52 61 53 62 67 64 88 65 55 66
REMARK SMILES IDX 39 67 40 68 48 69 41 70 47 71 49 72 46 73 42 74 43 75 44 76
REMARK SMILES IDX 45 77 71 78 72 79 80 80 73 81 79 82 81 83 78 84 74 85 75 86
REMARK SMILES IDX 76 87 77 88 56 89 57 90 65 91 58 92 64 93 66 94 63 95 59 96
REMARK SMILES IDX 60 97 61 98 62 99
REMARK H PARENT 15 26 86 52 54 63
REMARK Flexibility Score: inf
ROOT
ATOM      1  C   UNL     1       9.334   9.366  -1.162  1.00  0.00     0.202 C 
ENDROOT
BRANCH   1   2
ATOM      2  C   UNL     1       7.911   9.774  -0.779  1.00  0.00     0.261 C 
BRANCH   2   3
ATOM      3  O   UNL     1       6.922   9.276  -1.684  1.00  0.00    -0.462 OA
BRANCH   3   4
ATOM      4  C   UNL     1       6.355  10.214  -2.489  1.00  0.00     0.329 C 
ATOM      5  O   UNL     1       6.697  11.392  -2.564  1.00  0.00    -0.250 OA
BRANCH   4   6
ATOM      6  C   UNL     1       5.134   9.669  -3.236  1.00  0.00     0.202 C 
BRANCH   6   7
ATOM      7  C   UNL     1       5.069   8.130  -3.363  1.00  0.00     0.107 C 
BRANCH   7   8
ATOM      8  S   UNL     1       4.005   7.601  -4.785  1.00  0.00    -0.145 SA
BRANCH   8   9
ATOM      9  C   UNL     1       2.425   7.091  -4.021  1.00  0.00     0.146 C 
ATOM     10  N   UNL     1       1.664   5.636  -2.345  1.00  0.00    -0.250 N 
ATOM     11  C   UNL     1       1.228   6.899  -2.010  1.00  0.00     0.235 C 
ATOM     12  C   UNL     1       2.389   5.662  -3.530  1.00  0.00     0.247 C 
ATOM     13  O   UNL     1       0.450   7.283  -1.148  1.00  0.00    -0.274 OA
ATOM     14  C   UNL     1       1.970   7.883  -2.837  1.00  0.00     0.125 C 
ATOM     15  O   UNL     1       2.817   4.725  -4.191  1.00  0.00    -0.273 OA
BRANCH  10  16
ATOM     16  C   UNL     1       1.369   4.460  -1.589  1.00  0.00     0.052 A 
ATOM     17  C   UNL     1       0.798   2.121  -0.053  1.00  0.00    -0.048 A 
ATOM     18  C   UNL     1       1.724   2.088  -1.097  1.00  0.00     0.006 A 
ATOM     19  C   UNL     1       0.184   3.340   0.236  1.00  0.00     0.006 A 
ATOM     20  C   UNL     1       1.999   3.236  -1.853  1.00  0.00     0.027 A 
ATOM     21  C   UNL     1       0.463   4.484  -0.518  1.00  0.00     0.027 A 
BRANCH  17  22
ATOM     22  C   UNL     1       0.459   0.929   0.808  1.00  0.00     0.032 C 
ATOM     23  C   UNL     1       0.869  -0.430   0.262  1.00  0.00     0.009 C 
ENDBRANCH  17  22
ENDBRANCH  10  16
ENDBRANCH   8   9
ENDBRANCH   7   8
ENDBRANCH   6   7
BRANCH   6  24
ATOM     24  N   UNL     1       3.940  10.322  -2.686  1.00  0.00    -0.342 N 
ATOM     25  C   UNL     1       3.632  10.238  -1.343  1.00  0.00     0.217 C 
ATOM     26  H   UNL     1       3.347  10.830  -3.286  1.00  0.00     0.164 HD
ATOM     27  C   UNL     1       2.332  10.881  -0.954  1.00  0.00     0.114 C 
ATOM     28  O   UNL     1       4.336   9.649  -0.532  1.00  0.00    -0.275 OA
ENDBRANCH   6  24
ENDBRANCH   4   6
ENDBRANCH   3   4
ENDBRANCH   2   3
ENDBRANCH   1   2
BRANCH   1  29
ATOM     29  O   UNL     1       9.725   9.517  -2.522  1.00  0.00    -0.374 OA
BRANCH  29  30
ATOM     30  C   UNL     1       9.181   8.622  -3.490  1.00  0.00     0.202 C 
BRANCH  30  31
ATOM     31  C   UNL     1       9.534   7.131  -3.400  1.00  0.00     0.261 C 
BRANCH  31  32
ATOM     32  O   UNL     1       9.065   6.495  -2.197  1.00  0.00    -0.460 OA
BRANCH  32  33
ATOM     33  C   UNL     1      10.058   6.045  -1.389  1.00  0.00     0.338 C 
ATOM     34  O   UNL     1      11.263   6.123  -1.601  1.00  0.00    -0.246 OA
BRANCH  33  35
ATOM     35  C   UNL     1       9.532   5.580  -0.096  1.00  0.00     0.060 A 
ATOM     36  C   UNL     1      10.018   6.206   1.059  1.00  0.00     0.016 A 
ATOM     37  C   UNL     1       8.717   4.449  -0.001  1.00  0.00     0.016 A 
ATOM     38  C   UNL     1       9.748   5.664   2.312  1.00  0.00     0.010 A 
ATOM     39  C   UNL     1       8.452   3.903   1.262  1.00  0.00     0.010 A 
ATOM     40  C   UNL     1       9.007   4.480   2.420  1.00  0.00    -0.014 A 
BRANCH  40  41
ATOM     41  C   UNL     1       8.983   3.767   3.724  1.00  0.00     0.031 A 
ATOM     42  C   UNL     1       9.908   2.595   3.930  1.00  0.00     0.074 A 
ATOM     43  C   UNL     1       8.219   4.212   4.739  1.00  0.00     0.049 A 
ATOM     44  N   UNL     1      10.062   1.831   4.981  1.00  0.00    -0.248 NA
ATOM     45  C   UNL     1      10.780   2.241   2.798  1.00  0.00     0.031 C 
ATOM     46  C   UNL     1       7.333   5.374   4.678  1.00  0.00     0.029 A 
ATOM     47  N   UNL     1       8.072   3.745   6.021  1.00  0.00    -0.354 N 
ATOM     48  C   UNL     1      11.056   0.917   4.644  1.00  0.00     0.074 A 
ATOM     49  C   UNL     1      11.430   1.189   3.273  1.00  0.00     0.031 C 
ATOM     50  C   UNL     1       6.731   5.526   5.870  1.00  0.00     0.029 A 
ATOM     51  C   UNL     1       7.157   4.453   6.766  1.00  0.00     0.049 A 
ATOM     52  H   UNL     1       8.575   2.976   6.375  1.00  0.00     0.167 HD
ATOM     53  C   UNL     1      11.618  -0.048   5.413  1.00  0.00     0.034 A 
ATOM     54  C   UNL     1       6.700   4.242   8.018  1.00  0.00     0.034 A 
ATOM     55  C   UNL     1      11.227  -0.320   6.774  1.00  0.00     0.049 A 
ATOM     56  C   UNL     1       7.266   3.091   8.818  1.00  0.00     0.074 A 
ATOM     57  C   UNL     1      11.709  -1.294   7.633  1.00  0.00     0.029 A 
ATOM     58  N   UNL     1      10.258   0.383   7.478  1.00  0.00    -0.354 N 
ATOM     59  N   UNL     1       8.194   2.224   8.479  1.00  0.00    -0.248 NA
ATOM     60  C   UNL     1       6.734   2.897  10.174  1.00  0.00     0.031 C 
ATOM     61  C   UNL     1      10.990  -1.219   8.831  1.00  0.00     0.029 A 
ATOM     62  C   UNL     1      10.113  -0.149   8.749  1.00  0.00     0.049 A 
ATOM     63  H   UNL     1       9.748   1.148   7.125  1.00  0.00     0.167 HD
ATOM     64  C   UNL     1       8.380   1.411   9.595  1.00  0.00     0.074 A 
ATOM     65  C   UNL     1       7.483   1.901  10.620  1.00  0.00     0.031 C 
ATOM     66  C   UNL     1       9.216   0.354   9.762  1.00  0.00     0.034 A 
BRANCH  53  67
ATOM     67  C   UNL     1      12.692  -0.902   4.784  1.00  0.00     0.023 A 
ATOM     68  C   UNL     1      13.931  -0.362   4.398  1.00  0.00     0.031 A 
ATOM     69  C   UNL     1      12.474  -2.274   4.562  1.00  0.00     0.131 A 
ATOM     70  C   UNL     1      14.883  -1.175   3.765  1.00  0.00     0.055 A 
ATOM     71  C   UNL     1      13.453  -3.093   3.998  1.00  0.00     0.041 A 
ATOM     72  F   UNL     1      11.301  -2.840   4.889  1.00  0.00    -0.206 F 
ATOM     73  C   UNL     1      14.662  -2.543   3.585  1.00  0.00     0.022 A 
BRANCH  70  74
ATOM     74  S   UNL     1      16.370  -0.399   3.075  1.00  0.00     0.124 S 
ATOM     75  O   UNL     1      15.796   0.522   2.098  1.00  0.00    -0.237 OA
ATOM     76  O   UNL     1      16.981   0.214   4.249  1.00  0.00    -0.237 OA
ATOM     77  O   UNL     1      17.110  -1.522   2.503  1.00  0.00    -0.744 OA
ENDBRANCH  70  74
ENDBRANCH  53  67
BRANCH  54  78
ATOM     78  C   UNL     1       5.615   5.096   8.589  1.00  0.00     0.023 A 
ATOM     79  C   UNL     1       5.808   5.832   9.768  1.00  0.00     0.031 A 
ATOM     80  C   UNL     1       4.331   5.107   8.012  1.00  0.00     0.131 A 
ATOM     81  C   UNL     1       4.722   6.488  10.370  1.00  0.00     0.055 A 
ATOM     82  C   UNL     1       3.272   5.818   8.577  1.00  0.00     0.041 A 
ATOM     83  F   UNL     1       4.085   4.415   6.888  1.00  0.00    -0.206 F 
ATOM     84  C   UNL     1       3.459   6.498   9.775  1.00  0.00     0.022 A 
BRANCH  81  85
ATOM     85  S   UNL     1       4.952   7.212  12.019  1.00  0.00     0.124 S 
ATOM     86  O   UNL     1       5.461   6.073  12.774  1.00  0.00    -0.237 OA
ATOM     87  O   UNL     1       5.907   8.281  11.748  1.00  0.00    -0.237 OA
ATOM     88  O   UNL     1       3.608   7.654  12.385  1.00  0.00    -0.744 OA
ENDBRANCH  81  85
ENDBRANCH  54  78
BRANCH  66  89
ATOM     89  C   UNL     1       9.239  -0.299  11.123  1.00  0.00     0.023 A 
ATOM     90  C   UNL     1       8.129  -0.998  11.629  1.00  0.00     0.031 A 
ATOM     91  C   UNL     1      10.388  -0.211  11.929  1.00  0.00     0.131 A 
ATOM     92  C   UNL     1       8.172  -1.531  12.927  1.00  0.00     0.055 A 
ATOM     93  C   UNL     1      10.447  -0.796  13.194  1.00  0.00     0.041 A 
ATOM     94  F   UNL     1      11.477   0.445  11.496  1.00  0.00    -0.206 F 
ATOM     95  C   UNL     1       9.329  -1.448  13.706  1.00  0.00     0.022 A 
BRANCH  92  96
ATOM     96  S   UNL     1       6.661  -2.256  13.621  1.00  0.00     0.124 S 
ATOM     97  O   UNL     1       5.726  -1.138  13.550  1.00  0.00    -0.237 OA
ATOM     98  O   UNL     1       6.399  -3.364  12.709  1.00  0.00    -0.237 OA
ATOM     99  O   UNL     1       7.057  -2.648  14.972  1.00  0.00    -0.744 OA
ENDBRANCH  92  96
ENDBRANCH  66  89
ENDBRANCH  40  41
ENDBRANCH  33  35
ENDBRANCH  32  33
ENDBRANCH  31  32
ENDBRANCH  30  31
ENDBRANCH  29  30
ENDBRANCH   1  29
TORSDOF 23
