REMARK SMILES CC[N@H+](CC(C)(C)C(=O)OCCOCCOC(=O)c1ccc(-c2c3nc(c(-c4cc(S(=O)(=O)[O-])ccc4F)c4ccc([nH]4)c(-c4cc(S(=O)(=O)[O-])ccc4F)c4nc(c(-c5cc(S(=O)(=O)[O-])ccc5F)c5ccc2[nH]5)C=C4)C=C3)cc1)[C@H]1CC[NH2+]C1
REMARK SMILES IDX 13 1 12 2 11 3 10 4 8 5 9 6 5 7 6 8 7 9 4 10 3 11 2 13 1 14
REMARK SMILES IDX 82 15 83 16 86 17 84 18 85 19 14 22 15 23 16 24 17 25 18 26
REMARK SMILES IDX 19 27 20 28 81 29 21 30 80 31 22 32 23 33 24 34 74 35 25 36
REMARK SMILES IDX 79 37 73 38 75 39 26 40 78 41 72 42 71 43 27 45 59 46 39 47
REMARK SMILES IDX 58 48 40 49 43 50 57 51 76 52 41 53 42 54 56 56 77 57 44 58
REMARK SMILES IDX 28 59 29 60 37 61 30 62 36 63 38 64 35 65 31 66 32 67 33 68
REMARK SMILES IDX 34 69 60 70 61 71 69 72 62 73 68 74 70 75 67 76 63 77 64 78
REMARK SMILES IDX 65 79 66 80 45 81 46 82 54 83 47 84 53 85 55 86 52 87 48 88
REMARK SMILES IDX 49 89 50 90 51 91
REMARK H PARENT 3 12 85 20 85 21 75 44 43 55
REMARK Flexibility Score: inf
ROOT
ATOM      1  O   UNL     1       5.907   1.488   1.523  1.00  0.00    -0.374 OA
ENDROOT
BRANCH   1   2
ATOM      2  C   UNL     1       5.916   1.874   2.892  1.00  0.00     0.202 C 
BRANCH   2   3
ATOM      3  C   UNL     1       5.281   0.955   3.951  1.00  0.00     0.261 C 
BRANCH   3   4
ATOM      4  O   UNL     1       5.232  -0.425   3.568  1.00  0.00    -0.463 OA
BRANCH   4   5
ATOM      5  C   UNL     1       4.058  -0.777   2.974  1.00  0.00     0.317 C 
ATOM      6  O   UNL     1       3.119   0.004   2.903  1.00  0.00    -0.251 OA
BRANCH   5   7
ATOM      7  C   UNL     1       4.029  -2.235   2.462  1.00  0.00     0.111 C 
ATOM      8  C   UNL     1       2.968  -2.971   3.289  1.00  0.00     0.029 C 
ATOM      9  C   UNL     1       5.387  -2.948   2.739  1.00  0.00     0.029 C 
BRANCH   7  10
ATOM     10  C   UNL     1       3.769  -2.364   0.907  1.00  0.00     0.280 C 
BRANCH  10  11
ATOM     11  N   UNL     1       2.459  -2.094   0.242  1.00  0.00    -0.327 N 
ATOM     12  H   UNL     1       1.806  -2.775   0.627  1.00  0.00     0.348 HD
BRANCH  11  13
ATOM     13  C   UNL     1       1.963  -0.741   0.562  1.00  0.00     0.259 C 
ATOM     14  C   UNL     1       0.720  -0.184  -0.130  1.00  0.00     0.071 C 
ENDBRANCH  11  13
BRANCH  11  15
ATOM     15  C   UNL     1       2.475  -2.333  -1.222  1.00  0.00     0.245 C 
ATOM     16  C   UNL     1       3.222  -1.325  -2.101  1.00  0.00     0.132 C 
ATOM     17  C   UNL     1       2.990  -3.684  -1.777  1.00  0.00     0.326 C 
ATOM     18  C   UNL     1       3.217  -2.029  -3.444  1.00  0.00     0.267 C 
ATOM     19  N   UNL     1       3.547  -3.423  -3.127  1.00  0.00    -0.341 N 
ATOM     20  H   UNL     1       4.559  -3.554  -3.124  1.00  0.00     0.346 HD
ATOM     21  H   UNL     1       3.160  -4.063  -3.820  1.00  0.00     0.346 HD
ENDBRANCH  11  15
ENDBRANCH  10  11
ENDBRANCH   7  10
ENDBRANCH   5   7
ENDBRANCH   4   5
ENDBRANCH   3   4
ENDBRANCH   2   3
ENDBRANCH   1   2
BRANCH   1  22
ATOM     22  C   UNL     1       6.614   0.319   1.121  1.00  0.00     0.202 C 
BRANCH  22  23
ATOM     23  C   UNL     1       8.091   0.134   1.482  1.00  0.00     0.261 C 
BRANCH  23  24
ATOM     24  O   UNL     1       8.318   0.070   2.898  1.00  0.00    -0.460 OA
BRANCH  24  25
ATOM     25  C   UNL     1       9.089   1.075   3.389  1.00  0.00     0.338 C 
ATOM     26  O   UNL     1       9.620   1.969   2.759  1.00  0.00    -0.246 OA
BRANCH  25  27
ATOM     27  C   UNL     1       9.010   1.067   4.859  1.00  0.00     0.060 A 
ATOM     28  C   UNL     1       8.487   2.202   5.495  1.00  0.00     0.016 A 
ATOM     29  C   UNL     1       9.501  -0.007   5.600  1.00  0.00     0.016 A 
ATOM     30  C   UNL     1       8.473   2.277   6.884  1.00  0.00     0.010 A 
ATOM     31  C   UNL     1       9.511   0.082   6.992  1.00  0.00     0.010 A 
ATOM     32  C   UNL     1       9.025   1.236   7.636  1.00  0.00    -0.014 A 
BRANCH  32  33
ATOM     33  C   UNL     1       9.276   1.428   9.082  1.00  0.00     0.031 A 
ATOM     34  C   UNL     1      10.665   1.798   9.516  1.00  0.00     0.074 A 
ATOM     35  C   UNL     1       8.289   1.278   9.981  1.00  0.00     0.049 A 
ATOM     36  N   UNL     1      11.164   1.888  10.720  1.00  0.00    -0.248 NA
ATOM     37  C   UNL     1      11.623   2.099   8.440  1.00  0.00     0.031 C 
ATOM     38  C   UNL     1       6.892   0.991   9.660  1.00  0.00     0.029 A 
ATOM     39  N   UNL     1       8.318   1.329  11.351  1.00  0.00    -0.354 N 
ATOM     40  C   UNL     1      12.499   2.238  10.548  1.00  0.00     0.074 A 
ATOM     41  C   UNL     1      12.737   2.312   9.123  1.00  0.00     0.031 C 
ATOM     42  C   UNL     1       6.200   0.870  10.806  1.00  0.00     0.029 A 
ATOM     43  C   UNL     1       7.115   1.016  11.937  1.00  0.00     0.049 A 
ATOM     44  H   UNL     1       9.123   1.568  11.865  1.00  0.00     0.167 HD
ATOM     45  C   UNL     1      13.435   2.475  11.498  1.00  0.00     0.034 A 
ATOM     46  C   UNL     1       6.804   0.826  13.235  1.00  0.00     0.034 A 
ATOM     47  C   UNL     1      13.172   2.381  12.913  1.00  0.00     0.049 A 
ATOM     48  C   UNL     1       7.891   0.988  14.273  1.00  0.00     0.074 A 
ATOM     49  C   UNL     1      14.038   2.607  13.967  1.00  0.00     0.029 A 
ATOM     50  N   UNL     1      11.952   2.018  13.471  1.00  0.00    -0.354 N 
ATOM     51  N   UNL     1       9.155   1.308  14.106  1.00  0.00    -0.248 NA
ATOM     52  C   UNL     1       7.510   0.766  15.674  1.00  0.00     0.031 C 
ATOM     53  C   UNL     1      13.369   2.298  15.155  1.00  0.00     0.029 A 
ATOM     54  C   UNL     1      12.056   1.974  14.852  1.00  0.00     0.049 A 
ATOM     55  H   UNL     1      11.134   1.820  12.960  1.00  0.00     0.167 HD
ATOM     56  C   UNL     1       9.706   1.364  15.384  1.00  0.00     0.074 A 
ATOM     57  C   UNL     1       8.638   1.050  16.310  1.00  0.00     0.031 C 
ATOM     58  C   UNL     1      10.977   1.657  15.761  1.00  0.00     0.034 A 
BRANCH  45  59
ATOM     59  C   UNL     1      14.835   2.792  11.032  1.00  0.00     0.023 A 
ATOM     60  C   UNL     1      15.125   3.940  10.275  1.00  0.00     0.031 A 
ATOM     61  C   UNL     1      15.894   1.913  11.325  1.00  0.00     0.131 A 
ATOM     62  C   UNL     1      16.422   4.141   9.777  1.00  0.00     0.055 A 
ATOM     63  C   UNL     1      17.199   2.164  10.900  1.00  0.00     0.041 A 
ATOM     64  F   UNL     1      15.674   0.785  12.019  1.00  0.00    -0.206 F 
ATOM     65  C   UNL     1      17.467   3.276  10.108  1.00  0.00     0.022 A 
BRANCH  62  66
ATOM     66  S   UNL     1      16.689   5.465   8.566  1.00  0.00     0.124 S 
ATOM     67  O   UNL     1      15.756   5.088   7.507  1.00  0.00    -0.237 OA
ATOM     68  O   UNL     1      16.345   6.661   9.325  1.00  0.00    -0.237 OA
ATOM     69  O   UNL     1      18.102   5.330   8.217  1.00  0.00    -0.744 OA
ENDBRANCH  62  66
ENDBRANCH  45  59
BRANCH  46  70
ATOM     70  C   UNL     1       5.428   0.411  13.630  1.00  0.00     0.023 A 
ATOM     71  C   UNL     1       4.638   1.220  14.461  1.00  0.00     0.031 A 
ATOM     72  C   UNL     1       4.901  -0.830  13.228  1.00  0.00     0.131 A 
ATOM     73  C   UNL     1       3.388   0.760  14.903  1.00  0.00     0.055 A 
ATOM     74  C   UNL     1       3.631  -1.257  13.620  1.00  0.00     0.041 A 
ATOM     75  F   UNL     1       5.615  -1.648  12.437  1.00  0.00    -0.206 F 
ATOM     76  C   UNL     1       2.872  -0.465  14.475  1.00  0.00     0.022 A 
BRANCH  73  77
ATOM     77  S   UNL     1       2.488   1.744  16.132  1.00  0.00     0.124 S 
ATOM     78  O   UNL     1       3.453   1.807  17.224  1.00  0.00    -0.237 OA
ATOM     79  O   UNL     1       2.254   2.990  15.409  1.00  0.00    -0.237 OA
ATOM     80  O   UNL     1       1.293   0.946  16.399  1.00  0.00    -0.744 OA
ENDBRANCH  73  77
ENDBRANCH  46  70
BRANCH  58  81
ATOM     81  C   UNL     1      11.267   1.717  17.242  1.00  0.00     0.023 A 
ATOM     82  C   UNL     1      11.226   0.573  18.058  1.00  0.00     0.031 A 
ATOM     83  C   UNL     1      11.611   2.943  17.839  1.00  0.00     0.131 A 
ATOM     84  C   UNL     1      11.479   0.688  19.433  1.00  0.00     0.055 A 
ATOM     85  C   UNL     1      11.926   3.040  19.195  1.00  0.00     0.041 A 
ATOM     86  F   UNL     1      11.663   4.069  17.108  1.00  0.00    -0.206 F 
ATOM     87  C   UNL     1      11.850   1.910  20.002  1.00  0.00     0.022 A 
BRANCH  84  88
ATOM     88  S   UNL     1      11.238  -0.766  20.490  1.00  0.00     0.124 S 
ATOM     89  O   UNL     1       9.831  -1.078  20.259  1.00  0.00    -0.237 OA
ATOM     90  O   UNL     1      12.200  -1.716  19.940  1.00  0.00    -0.237 OA
ATOM     91  O   UNL     1      11.552  -0.273  21.830  1.00  0.00    -0.744 OA
ENDBRANCH  84  88
ENDBRANCH  58  81
ENDBRANCH  32  33
ENDBRANCH  25  27
ENDBRANCH  24  25
ENDBRANCH  23  24
ENDBRANCH  22  23
ENDBRANCH   1  22
TORSDOF 21
