REMARK SMILES Cc1c(C[N@H+]2CC[C@@H](C(=O)OCCOCCOC(=O)c3ccc(-c4c5nc(c(-c6cc(S(=O)(=O)[O-])ccc6F)c6ccc([nH]6)c(-c6cc(S(=O)(=O)[O-])ccc6F)c6nc(c(-c7cc(S(=O)(=O)[O-])ccc7F)c7ccc4[nH]7)C=C6)C=C5)cc3)[C@@H]2C)cccc1[N+](=O)[O-]
REMARK SMILES IDX 14 1 13 2 12 3 11 4 9 5 10 6 8 7 5 8 6 9 83 10 7 12 84 13
REMARK SMILES IDX 4 14 3 15 1 16 2 17 88 18 85 19 87 20 86 21 89 22 90 23
REMARK SMILES IDX 91 24 15 25 16 26 17 27 18 28 19 29 20 30 21 31 82 32 22 33
REMARK SMILES IDX 81 34 23 35 24 36 25 37 75 38 26 39 80 40 74 41 76 42 27 43
REMARK SMILES IDX 79 44 73 45 72 46 28 48 60 49 40 50 59 51 41 52 44 53 58 54
REMARK SMILES IDX 77 55 42 56 43 57 57 59 78 60 45 61 29 62 30 63 38 64 31 65
REMARK SMILES IDX 37 66 39 67 36 68 32 69 33 70 34 71 35 72 61 73 62 74 70 75
REMARK SMILES IDX 63 76 69 77 71 78 68 79 64 80 65 81 66 82 67 83 46 84 47 85
REMARK SMILES IDX 55 86 48 87 54 88 56 89 53 90 49 91 50 92 51 93 52 94
REMARK H PARENT 5 11 76 47 44 58
REMARK Flexibility Score: inf
ROOT
ATOM      1  O   UNL     1      -4.382  -3.707   0.891  1.00  0.00    -0.374 OA
ENDROOT
BRANCH   1   2
ATOM      2  C   UNL     1      -3.446  -2.892   0.224  1.00  0.00     0.202 C 
BRANCH   2   3
ATOM      3  C   UNL     1      -3.154  -1.847   1.229  1.00  0.00     0.261 C 
BRANCH   3   4
ATOM      4  O   UNL     1      -1.896  -2.072   1.841  1.00  0.00    -0.463 OA
BRANCH   4   5
ATOM      5  C   UNL     1      -1.865  -2.865   2.933  1.00  0.00     0.315 C 
ATOM      6  O   UNL     1      -2.799  -3.108   3.680  1.00  0.00    -0.252 OA
BRANCH   5   7
ATOM      7  C   UNL     1      -0.495  -3.472   3.021  1.00  0.00     0.162 C 
ATOM      8  N   UNL     1       1.373  -3.193   1.512  1.00  0.00    -0.328 N 
ATOM      9  C   UNL     1       1.805  -2.841   2.854  1.00  0.00     0.263 C 
ATOM     10  C   UNL     1       0.037  -3.799   1.604  1.00  0.00     0.195 C 
ATOM     11  H   UNL     1       1.970  -3.920   1.118  1.00  0.00     0.348 HD
ATOM     12  C   UNL     1       0.538  -2.549   3.624  1.00  0.00     0.083 C 
ATOM     13  C   UNL     1      -0.028  -5.325   1.442  1.00  0.00     0.076 C 
BRANCH   8  14
ATOM     14  C   UNL     1       1.671  -2.194   0.448  1.00  0.00     0.299 C 
BRANCH  14  15
ATOM     15  C   UNL     1       1.053  -0.737   0.341  1.00  0.00     0.016 A 
ATOM     16  C   UNL     1       3.606   0.379  -0.007  1.00  0.00     0.052 C 
ATOM     17  C   UNL     1       2.120   0.665  -0.058  1.00  0.00     0.036 A 
ATOM     18  C   UNL     1       1.584   2.087  -1.011  1.00  0.00     0.272 A 
ATOM     19  C   UNL     1      -0.618  -0.767  -0.184  1.00  0.00     0.010 A 
ATOM     20  C   UNL     1      -0.112   2.131  -1.627  1.00  0.00     0.086 A 
ATOM     21  C   UNL     1      -1.310   0.600  -1.115  1.00  0.00     0.008 A 
BRANCH  18  22
ATOM     22  N   UNL     1       2.397   3.259  -1.256  1.00  0.00     0.062 N 
ATOM     23  O   UNL     1       1.821   4.252  -1.720  1.00  0.00    -0.258 OA
ATOM     24  O   UNL     1       3.591   3.224  -0.949  1.00  0.00    -0.258 OA
ENDBRANCH  18  22
ENDBRANCH  14  15
ENDBRANCH   8  14
ENDBRANCH   5   7
ENDBRANCH   4   5
ENDBRANCH   3   4
ENDBRANCH   2   3
ENDBRANCH   1   2
BRANCH   1  25
ATOM     25  C   UNL     1      -4.891  -4.734   0.078  1.00  0.00     0.202 C 
BRANCH  25  26
ATOM     26  C   UNL     1      -5.523  -4.199  -1.218  1.00  0.00     0.261 C 
BRANCH  26  27
ATOM     27  O   UNL     1      -6.489  -3.170  -0.881  1.00  0.00    -0.460 OA
BRANCH  27  28
ATOM     28  C   UNL     1      -6.301  -1.930  -1.427  1.00  0.00     0.338 C 
ATOM     29  O   UNL     1      -6.065  -1.709  -2.601  1.00  0.00    -0.246 OA
BRANCH  28  30
ATOM     30  C   UNL     1      -6.198  -0.904  -0.337  1.00  0.00     0.060 A 
ATOM     31  C   UNL     1      -5.551   0.331  -0.564  1.00  0.00     0.016 A 
ATOM     32  C   UNL     1      -6.457  -1.304   0.969  1.00  0.00     0.016 A 
ATOM     33  C   UNL     1      -5.002   1.063   0.509  1.00  0.00     0.010 A 
ATOM     34  C   UNL     1      -5.859  -0.614   2.007  1.00  0.00     0.010 A 
ATOM     35  C   UNL     1      -5.065   0.532   1.793  1.00  0.00    -0.014 A 
BRANCH  35  36
ATOM     36  C   UNL     1      -4.247   0.945   2.953  1.00  0.00     0.031 A 
ATOM     37  C   UNL     1      -4.968   1.378   4.161  1.00  0.00     0.074 A 
ATOM     38  C   UNL     1      -2.905   0.737   3.058  1.00  0.00     0.049 A 
ATOM     39  N   UNL     1      -4.473   2.187   5.034  1.00  0.00    -0.248 NA
ATOM     40  C   UNL     1      -6.361   1.030   4.450  1.00  0.00     0.031 C 
ATOM     41  C   UNL     1      -2.082   0.601   4.260  1.00  0.00     0.029 A 
ATOM     42  N   UNL     1      -1.967   0.570   2.048  1.00  0.00    -0.354 N 
ATOM     43  C   UNL     1      -5.243   2.011   6.157  1.00  0.00     0.074 A 
ATOM     44  C   UNL     1      -6.514   1.591   5.648  1.00  0.00     0.031 C 
ATOM     45  C   UNL     1      -0.775   0.623   3.927  1.00  0.00     0.029 A 
ATOM     46  C   UNL     1      -0.675   0.832   2.489  1.00  0.00     0.049 A 
ATOM     47  H   UNL     1      -2.191   0.298   1.129  1.00  0.00     0.167 HD
ATOM     48  C   UNL     1      -4.626   1.927   7.370  1.00  0.00     0.034 A 
ATOM     49  C   UNL     1       0.191   1.564   1.743  1.00  0.00     0.034 A 
ATOM     50  C   UNL     1      -3.173   2.240   7.261  1.00  0.00     0.049 A 
ATOM     51  C   UNL     1       0.240   2.893   2.599  1.00  0.00     0.074 A 
ATOM     52  C   UNL     1      -2.000   1.587   7.611  1.00  0.00     0.029 A 
ATOM     53  N   UNL     1      -2.756   3.313   6.462  1.00  0.00    -0.354 N 
ATOM     54  N   UNL     1      -0.430   3.038   3.723  1.00  0.00    -0.248 NA
ATOM     55  C   UNL     1       1.025   4.095   2.345  1.00  0.00     0.031 C 
ATOM     56  C   UNL     1      -0.897   2.277   7.010  1.00  0.00     0.029 A 
ATOM     57  C   UNL     1      -1.385   3.361   6.297  1.00  0.00     0.049 A 
ATOM     58  H   UNL     1      -3.374   3.965   6.061  1.00  0.00     0.167 HD
ATOM     59  C   UNL     1      -0.190   4.218   4.354  1.00  0.00     0.074 A 
ATOM     60  C   UNL     1       0.711   4.872   3.409  1.00  0.00     0.031 C 
ATOM     61  C   UNL     1      -0.763   4.492   5.582  1.00  0.00     0.034 A 
BRANCH  48  62
ATOM     62  C   UNL     1      -5.272   1.314   8.618  1.00  0.00     0.023 A 
ATOM     63  C   UNL     1      -4.488   1.204   9.784  1.00  0.00     0.031 A 
ATOM     64  C   UNL     1      -6.583   0.789   8.758  1.00  0.00     0.131 A 
ATOM     65  C   UNL     1      -4.976   0.598  10.961  1.00  0.00     0.055 A 
ATOM     66  C   UNL     1      -7.079   0.213   9.938  1.00  0.00     0.041 A 
ATOM     67  F   UNL     1      -7.485   0.772   7.777  1.00  0.00    -0.206 F 
ATOM     68  C   UNL     1      -6.274   0.110  11.050  1.00  0.00     0.022 A 
BRANCH  65  69
ATOM     69  S   UNL     1      -3.879   0.460  12.393  1.00  0.00     0.124 S 
ATOM     70  O   UNL     1      -2.884  -0.496  11.918  1.00  0.00    -0.237 OA
ATOM     71  O   UNL     1      -3.425   1.835  12.569  1.00  0.00    -0.237 OA
ATOM     72  O   UNL     1      -4.761  -0.037  13.448  1.00  0.00    -0.744 OA
ENDBRANCH  65  69
ENDBRANCH  48  62
BRANCH  49  73
ATOM     73  C   UNL     1      -0.096   1.396   0.130  1.00  0.00     0.023 A 
ATOM     74  C   UNL     1       0.504   0.373  -1.511  1.00  0.00     0.031 A 
ATOM     75  C   UNL     1      -1.547   2.471  -0.119  1.00  0.00     0.131 A 
ATOM     76  C   UNL     1      -0.428   0.523  -3.051  1.00  0.00     0.055 A 
ATOM     77  C   UNL     1      -2.347   2.530  -1.685  1.00  0.00     0.041 A 
ATOM     78  F   UNL     1      -2.040   3.230   0.867  1.00  0.00    -0.206 F 
ATOM     79  C   UNL     1      -1.816   1.593  -3.085  1.00  0.00     0.022 A 
BRANCH  76  80
ATOM     80  S   UNL     1      -0.505  -0.966  -4.111  1.00  0.00     0.124 S 
ATOM     81  O   UNL     1       0.519  -0.687  -5.109  1.00  0.00    -0.237 OA
ATOM     82  O   UNL     1      -0.204  -2.047  -3.174  1.00  0.00    -0.237 OA
ATOM     83  O   UNL     1      -1.885  -0.947  -4.589  1.00  0.00    -0.744 OA
ENDBRANCH  76  80
ENDBRANCH  49  73
BRANCH  61  84
ATOM     84  C   UNL     1      -0.775   5.834   6.307  1.00  0.00     0.023 A 
ATOM     85  C   UNL     1      -0.012   6.924   5.895  1.00  0.00     0.031 A 
ATOM     86  C   UNL     1      -1.587   6.079   7.453  1.00  0.00     0.131 A 
ATOM     87  C   UNL     1      -0.085   8.168   6.547  1.00  0.00     0.055 A 
ATOM     88  C   UNL     1      -1.665   7.316   8.101  1.00  0.00     0.041 A 
ATOM     89  F   UNL     1      -2.366   5.143   8.009  1.00  0.00    -0.206 F 
ATOM     90  C   UNL     1      -0.912   8.378   7.644  1.00  0.00     0.022 A 
BRANCH  87  91
ATOM     91  S   UNL     1       0.948   9.502   5.902  1.00  0.00     0.124 S 
ATOM     92  O   UNL     1       2.284   8.917   5.981  1.00  0.00    -0.237 OA
ATOM     93  O   UNL     1       0.411   9.674   4.556  1.00  0.00    -0.237 OA
ATOM     94  O   UNL     1       0.696  10.608   6.822  1.00  0.00    -0.744 OA
ENDBRANCH  87  91
ENDBRANCH  61  84
ENDBRANCH  35  36
ENDBRANCH  28  30
ENDBRANCH  27  28
ENDBRANCH  26  27
ENDBRANCH  25  26
ENDBRANCH   1  25
TORSDOF 20
