REMARK SMILES O=C(OCCOCCOC(=O)c1ccc(-c2c3nc(c(-c4cc(S(=O)(=O)[O-])ccc4F)c4ccc([nH]4)c(-c4cc(S(=O)(=O)[O-])ccc4F)c4nc(c(-c5cc(S(=O)(=O)[O-])ccc5F)c5ccc2[nH]5)C=C4)C=C3)cc1)C1=Cc2cc(S(F)(F)(F)(F)F)ccc2O[C@H]1C(F)(F)F
REMARK SMILES IDX 7 1 6 2 5 3 4 4 3 5 2 6 1 7 75 8 76 9 90 10 77 11 89 12
REMARK SMILES IDX 78 13 88 14 79 15 87 16 86 17 91 18 92 19 93 20 94 21 80 22
REMARK SMILES IDX 81 23 82 24 83 25 84 26 85 27 8 28 9 29 10 30 11 31 12 32
REMARK SMILES IDX 13 33 74 34 14 35 73 36 15 37 16 38 17 39 67 40 18 41 72 42
REMARK SMILES IDX 66 43 68 44 19 45 71 46 65 47 64 48 20 50 52 51 32 52 51 53
REMARK SMILES IDX 33 54 36 55 50 56 69 57 34 58 35 59 49 61 70 62 37 63 21 64
REMARK SMILES IDX 22 65 30 66 23 67 29 68 31 69 28 70 24 71 25 72 26 73 27 74
REMARK SMILES IDX 53 75 54 76 62 77 55 78 61 79 63 80 60 81 56 82 57 83 58 84
REMARK SMILES IDX 59 85 38 86 39 87 47 88 40 89 46 90 48 91 45 92 41 93 42 94
REMARK SMILES IDX 43 95 44 96
REMARK H PARENT 68 49 36 60
REMARK Flexibility Score: inf
ROOT
ATOM      1  C   UNL     1       2.938  -1.500   0.405  1.00  0.00     0.202 C 
ENDROOT
BRANCH   1   2
ATOM      2  O   UNL     1       4.358  -1.500   0.405  1.00  0.00    -0.374 OA
BRANCH   2   3
ATOM      3  C   UNL     1       4.831  -0.485   1.279  1.00  0.00     0.202 C 
BRANCH   3   4
ATOM      4  C   UNL     1       4.324   0.868   0.806  1.00  0.00     0.261 C 
BRANCH   4   5
ATOM      5  O   UNL     1       2.904   0.868   0.806  1.00  0.00    -0.460 OA
BRANCH   5   6
ATOM      6  C   UNL     1       2.194  -0.064   0.004  1.00  0.00     0.338 C 
ATOM      7  O   UNL     1       0.923  -0.064   0.004  1.00  0.00    -0.246 OA
BRANCH   6   8
ATOM      8  C   UNL     1       2.954  -1.062  -0.855  1.00  0.00     0.087 C 
ATOM      9  C   UNL     1       4.315  -1.062  -0.855  1.00  0.00     0.027 C 
ATOM     10  C   UNL     1       2.194  -2.059  -1.714  1.00  0.00     0.316 C 
ATOM     11  C   UNL     1       5.075  -0.064   0.004  1.00  0.00     0.019 A 
ATOM     12  O   UNL     1       3.371  -0.422   1.621  1.00  0.00    -0.475 OA
ATOM     13  C   UNL     1       6.233   0.555  -0.437  1.00  0.00     0.036 A 
ATOM     14  C   UNL     1       4.641   0.093   1.249  1.00  0.00     0.128 A 
ATOM     15  C   UNL     1       7.026   1.094   0.603  1.00  0.00     0.107 A 
ATOM     16  C   UNL     1       5.409   0.749   2.180  1.00  0.00     0.048 A 
ATOM     17  C   UNL     1       6.594   1.334   1.827  1.00  0.00     0.028 A 
BRANCH  10  18
ATOM     18  C   UNL     1       0.700  -1.849  -1.533  1.00  0.00     0.430 C 
ATOM     19  F   UNL     1       0.451  -1.462  -0.285  1.00  0.00    -0.167 F 
ATOM     20  F   UNL     1       0.278  -0.913  -2.379  1.00  0.00    -0.167 F 
ATOM     21  F   UNL     1       0.062  -2.990  -1.779  1.00  0.00    -0.167 F 
ENDBRANCH  10  18
BRANCH  15  22
ATOM     22  S   UNL     1       8.755   1.480   0.229  1.00  0.00     0.310 S 
ATOM     23  F   UNL     1       9.151   1.500   1.765  1.00  0.00    -0.094 F 
ATOM     24  F   UNL     1       8.409   3.011   0.369  1.00  0.00    -0.094 F 
ATOM     25  F   UNL     1      10.238   1.816  -0.095  1.00  0.00    -0.094 F 
ATOM     26  F   UNL     1       9.112  -0.058   0.232  1.00  0.00    -0.094 F 
ATOM     27  F   UNL     1       7.279   1.123   0.669  1.00  0.00    -0.094 F 
ENDBRANCH  15  22
ENDBRANCH   6   8
ENDBRANCH   5   6
ENDBRANCH   4   5
ENDBRANCH   3   4
ENDBRANCH   2   3
ENDBRANCH   1   2
BRANCH   1  28
ATOM     28  C   UNL     1       2.431  -1.766   1.813  1.00  0.00     0.261 C 
BRANCH  28  29
ATOM     29  O   UNL     1       2.904  -0.752   2.687  1.00  0.00    -0.460 OA
BRANCH  29  30
ATOM     30  C   UNL     1       4.300  -0.555   2.856  1.00  0.00     0.338 C 
ATOM     31  O   UNL     1       5.126  -1.287   2.226  1.00  0.00    -0.246 OA
BRANCH  30  32
ATOM     32  C   UNL     1       4.807   0.531   3.791  1.00  0.00     0.060 A 
ATOM     33  C   UNL     1       5.941   1.264   3.484  1.00  0.00     0.016 A 
ATOM     34  C   UNL     1       4.223   0.631   4.979  1.00  0.00     0.016 A 
ATOM     35  C   UNL     1       6.556   1.867   4.607  1.00  0.00     0.010 A 
ATOM     36  C   UNL     1       4.814   1.349   5.991  1.00  0.00     0.010 A 
ATOM     37  C   UNL     1       5.967   2.051   5.774  1.00  0.00    -0.014 A 
BRANCH  37  38
ATOM     38  C   UNL     1       6.541   2.991   6.821  1.00  0.00     0.031 A 
ATOM     39  C   UNL     1       6.863   2.386   8.037  1.00  0.00     0.074 A 
ATOM     40  C   UNL     1       6.857   4.301   6.501  1.00  0.00     0.049 A 
ATOM     41  N   UNL     1       7.536   2.919   9.058  1.00  0.00    -0.248 NA
ATOM     42  C   UNL     1       6.499   1.006   8.393  1.00  0.00     0.031 C 
ATOM     43  C   UNL     1       6.542   4.916   5.274  1.00  0.00     0.029 A 
ATOM     44  N   UNL     1       7.512   5.227   7.281  1.00  0.00    -0.354 N 
ATOM     45  C   UNL     1       7.665   2.026  10.042  1.00  0.00     0.074 A 
ATOM     46  C   UNL     1       6.994   0.785   9.630  1.00  0.00     0.031 C 
ATOM     47  C   UNL     1       6.991   6.198   5.318  1.00  0.00     0.029 A 
ATOM     48  C   UNL     1       7.594   6.405   6.573  1.00  0.00     0.049 A 
ATOM     49  H   UNL     1       7.861   5.074   8.189  1.00  0.00     0.167 HD
ATOM     50  C   UNL     1       8.317   2.197  11.264  1.00  0.00     0.034 A 
ATOM     51  C   UNL     1       8.157   7.604   6.981  1.00  0.00     0.034 A 
ATOM     52  C   UNL     1       8.918   3.382  11.655  1.00  0.00     0.049 A 
ATOM     53  C   UNL     1       8.758   7.793   8.228  1.00  0.00     0.074 A 
ATOM     54  C   UNL     1       9.586   3.569  12.880  1.00  0.00     0.029 A 
ATOM     55  N   UNL     1       8.978   4.568  10.956  1.00  0.00    -0.354 N 
ATOM     56  N   UNL     1       8.922   6.888   9.195  1.00  0.00    -0.248 NA
ATOM     57  C   UNL     1       9.329   9.067   8.684  1.00  0.00     0.031 C 
ATOM     58  C   UNL     1      10.035   4.852  12.925  1.00  0.00     0.029 A 
ATOM     59  C   UNL     1       9.654   5.488  11.728  1.00  0.00     0.049 A 
ATOM     60  H   UNL     1       8.603   4.730  10.060  1.00  0.00     0.167 HD
ATOM     61  C   UNL     1       9.558   7.435  10.233  1.00  0.00     0.074 A 
ATOM     62  C   UNL     1       9.823   8.846   9.922  1.00  0.00     0.031 C 
ATOM     63  C   UNL     1       9.932   6.812  11.425  1.00  0.00     0.034 A 
BRANCH  50  64
ATOM     64  C   UNL     1       8.370   1.016  12.220  1.00  0.00     0.023 A 
ATOM     65  C   UNL     1       8.962  -0.178  11.842  1.00  0.00     0.031 A 
ATOM     66  C   UNL     1       7.819   1.162  13.419  1.00  0.00     0.131 A 
ATOM     67  C   UNL     1       8.665  -1.262  12.701  1.00  0.00     0.055 A 
ATOM     68  C   UNL     1       7.683   0.086  14.262  1.00  0.00     0.041 A 
ATOM     69  F   UNL     1       7.394   2.361  13.807  1.00  0.00    -0.206 F 
ATOM     70  C   UNL     1       8.192  -1.138  13.928  1.00  0.00     0.022 A 
BRANCH  67  71
ATOM     71  S   UNL     1       8.953  -2.936  12.075  1.00  0.00     0.124 S 
ATOM     72  O   UNL     1       8.098  -3.167  10.826  1.00  0.00    -0.237 OA
ATOM     73  O   UNL     1      10.432  -3.100  11.719  1.00  0.00    -0.237 OA
ATOM     74  O   UNL     1       8.526  -4.075  13.277  1.00  0.00    -0.744 OA
ENDBRANCH  67  71
ENDBRANCH  50  64
BRANCH  51  75
ATOM     75  C   UNL     1       8.118   8.780   6.019  1.00  0.00     0.023 A 
ATOM     76  C   UNL     1       9.322   9.329   5.607  1.00  0.00     0.031 A 
ATOM     77  C   UNL     1       6.958   9.258   5.584  1.00  0.00     0.131 A 
ATOM     78  C   UNL     1       9.188  10.576   4.953  1.00  0.00     0.055 A 
ATOM     79  C   UNL     1       6.913  10.408   4.834  1.00  0.00     0.041 A 
ATOM     80  F   UNL     1       5.830   8.617   5.877  1.00  0.00    -0.206 F 
ATOM     81  C   UNL     1       8.062  11.037   4.440  1.00  0.00     0.022 A 
BRANCH  78  82
ATOM     82  S   UNL     1      10.665  11.613   4.808  1.00  0.00     0.124 S 
ATOM     83  O   UNL     1      11.193  11.946   6.205  1.00  0.00    -0.237 OA
ATOM     84  O   UNL     1      11.742  10.861   4.022  1.00  0.00    -0.237 OA
ATOM     85  O   UNL     1      10.268  13.060   3.988  1.00  0.00    -0.744 OA
ENDBRANCH  78  82
ENDBRANCH  51  75
BRANCH  63  86
ATOM     86  C   UNL     1      10.690   7.635  12.453  1.00  0.00     0.023 A 
ATOM     87  C   UNL     1      10.201   8.846  12.916  1.00  0.00     0.031 A 
ATOM     88  C   UNL     1      11.900   7.206  12.792  1.00  0.00     0.131 A 
ATOM     89  C   UNL     1      11.186   9.674  13.505  1.00  0.00     0.055 A 
ATOM     90  C   UNL     1      12.762   8.020  13.486  1.00  0.00     0.041 A 
ATOM     91  F   UNL     1      12.281   5.977  12.456  1.00  0.00    -0.206 F 
ATOM     92  C   UNL     1      12.366   9.253  13.924  1.00  0.00     0.022 A 
BRANCH  89  93
ATOM     93  S   UNL     1      10.802  11.432  13.698  1.00  0.00     0.124 S 
ATOM     94  O   UNL     1      10.529  12.048  12.324  1.00  0.00    -0.237 OA
ATOM     95  O   UNL     1       9.563  11.590  14.583  1.00  0.00    -0.237 OA
ATOM     96  O   UNL     1      12.128  12.229  14.426  1.00  0.00    -0.744 OA
ENDBRANCH  89  93
ENDBRANCH  63  86
ENDBRANCH  37  38
ENDBRANCH  30  32
ENDBRANCH  29  30
ENDBRANCH  28  29
ENDBRANCH   1  28
TORSDOF 19
