REMARK SMILES COc1cccc([C@H]2CC(c3ccc(S(C)(=O)=O)cc3)=NN2c2ccc(C(=O)OCCOCCOC(=O)c3ccc(-c4c5nc(c(-c6cc(S(=O)(=O)[O-])ccc6F)c6ccc([nH]6)c(-c6cc(S(=O)(=O)[O-])ccc6F)c6nc(c(-c7cc(S(=O)(=O)[O-])ccc7F)c7ccc4[nH]7)C=C6)C=C5)cc3)cc2)c1
REMARK SMILES IDX 32 1 31 2 30 3 29 4 27 5 28 6 26 7 23 8 24 9 102 10 25 11
REMARK SMILES IDX 101 12 22 13 8 14 9 15 10 16 21 17 7 18 3 19 4 20 103 21
REMARK SMILES IDX 5 22 6 23 2 24 1 25 11 26 12 27 20 28 13 29 19 30 14 31
REMARK SMILES IDX 15 32 16 33 17 34 18 35 33 36 34 37 35 38 36 39 37 40 38 41
REMARK SMILES IDX 39 42 100 43 40 44 99 45 41 46 42 47 43 48 93 49 44 50 98 51
REMARK SMILES IDX 92 52 94 53 45 54 97 55 91 56 90 57 46 59 78 60 58 61 77 62
REMARK SMILES IDX 59 63 62 64 76 65 95 66 60 67 61 68 75 70 96 71 63 72 47 73
REMARK SMILES IDX 48 74 56 75 49 76 55 77 57 78 54 79 50 80 51 81 52 82 53 83
REMARK SMILES IDX 79 84 80 85 88 86 81 87 87 88 89 89 86 90 82 91 83 92 84 93
REMARK SMILES IDX 85 94 64 95 65 96 73 97 66 98 72 99 74 100 71 101 67 102
REMARK SMILES IDX 68 103 69 104 70 105
REMARK H PARENT 94 58 62 69
REMARK Flexibility Score: inf
ROOT
ATOM      1  O   UNL     1       5.042   8.531  -4.298  1.00  0.00    -0.374 OA
ENDROOT
BRANCH   1   2
ATOM      2  C   UNL     1       4.482   9.659  -3.623  1.00  0.00     0.202 C 
BRANCH   2   3
ATOM      3  C   UNL     1       3.260   9.378  -2.743  1.00  0.00     0.261 C 
BRANCH   3   4
ATOM      4  O   UNL     1       3.576   8.473  -1.673  1.00  0.00    -0.460 OA
BRANCH   4   5
ATOM      5  C   UNL     1       3.072   7.224  -1.818  1.00  0.00     0.338 C 
ATOM      6  O   UNL     1       2.291   6.842  -2.677  1.00  0.00    -0.246 OA
BRANCH   5   7
ATOM      7  C   UNL     1       3.716   6.297  -0.863  1.00  0.00     0.060 A 
ATOM      8  C   UNL     1       4.739   4.371   0.910  1.00  0.00     0.060 A 
ATOM      9  C   UNL     1       4.501   4.048  -0.431  1.00  0.00     0.029 A 
ATOM     10  C   UNL     1       4.548   5.700   1.323  1.00  0.00     0.029 A 
ATOM     11  C   UNL     1       3.964   4.993  -1.304  1.00  0.00     0.018 A 
ATOM     12  C   UNL     1       4.055   6.669   0.440  1.00  0.00     0.018 A 
BRANCH   8  13
ATOM     13  N   UNL     1       5.044   3.371   1.833  1.00  0.00    -0.257 N 
ATOM     14  C   UNL     1       4.135   3.065   2.948  1.00  0.00     0.144 C 
ATOM     15  C   UNL     1       4.662   1.719   3.455  1.00  0.00     0.091 C 
ATOM     16  C   UNL     1       5.734   1.453   2.437  1.00  0.00     0.071 C 
ATOM     17  N   UNL     1       5.906   2.362   1.529  1.00  0.00    -0.176 NA
BRANCH  14  18
ATOM     18  C   UNL     1       2.670   3.013   2.522  1.00  0.00    -0.019 A 
ATOM     19  C   UNL     1       0.869   2.111   1.142  1.00  0.00     0.119 A 
ATOM     20  C   UNL     1       0.003   3.077   1.654  1.00  0.00     0.046 A 
ATOM     21  C   UNL     1       2.200   2.086   1.567  1.00  0.00     0.052 A 
ATOM     22  C   UNL     1       0.449   3.998   2.600  1.00  0.00     0.004 A 
ATOM     23  C   UNL     1       1.773   3.964   3.034  1.00  0.00     0.006 A 
BRANCH  19  24
ATOM     24  O   UNL     1       0.309   1.281   0.209  1.00  0.00    -0.497 OA
ATOM     25  C   UNL     1       0.999   0.069  -0.059  1.00  0.00     0.278 C 
ENDBRANCH  19  24
ENDBRANCH  14  18
BRANCH  16  26
ATOM     26  C   UNL     1       6.573   0.253   2.536  1.00  0.00    -0.002 A 
ATOM     27  C   UNL     1       7.956   0.419   2.661  1.00  0.00     0.011 A 
ATOM     28  C   UNL     1       5.999  -1.021   2.546  1.00  0.00     0.011 A 
ATOM     29  C   UNL     1       8.776  -0.698   2.820  1.00  0.00     0.021 A 
ATOM     30  C   UNL     1       6.822  -2.143   2.677  1.00  0.00     0.021 A 
ATOM     31  C   UNL     1       8.205  -1.975   2.816  1.00  0.00     0.067 A 
BRANCH  31  32
ATOM     32  S   UNL     1       9.255  -3.394   3.026  1.00  0.00     0.175 S 
ATOM     33  C   UNL     1      10.372  -3.323   1.650  1.00  0.00     0.163 C 
ATOM     34  O   UNL     1      10.011  -3.180   4.244  1.00  0.00    -0.224 OA
ATOM     35  O   UNL     1       8.433  -4.578   2.857  1.00  0.00    -0.224 OA
ENDBRANCH  31  32
ENDBRANCH  16  26
ENDBRANCH   8  13
ENDBRANCH   5   7
ENDBRANCH   4   5
ENDBRANCH   3   4
ENDBRANCH   2   3
ENDBRANCH   1   2
BRANCH   1  36
ATOM     36  C   UNL     1       5.944   7.715  -3.547  1.00  0.00     0.202 C 
BRANCH  36  37
ATOM     37  C   UNL     1       7.378   8.238  -3.405  1.00  0.00     0.261 C 
BRANCH  37  38
ATOM     38  O   UNL     1       7.440   9.423  -2.591  1.00  0.00    -0.460 OA
BRANCH  38  39
ATOM     39  C   UNL     1       7.734  10.559  -3.267  1.00  0.00     0.338 C 
ATOM     40  O   UNL     1       8.037  10.651  -4.449  1.00  0.00    -0.246 OA
BRANCH  39  41
ATOM     41  C   UNL     1       7.458  11.739  -2.424  1.00  0.00     0.060 A 
ATOM     42  C   UNL     1       6.677  12.758  -2.982  1.00  0.00     0.016 A 
ATOM     43  C   UNL     1       7.995  11.881  -1.142  1.00  0.00     0.016 A 
ATOM     44  C   UNL     1       6.474  13.946  -2.285  1.00  0.00     0.010 A 
ATOM     45  C   UNL     1       7.796  13.080  -0.444  1.00  0.00     0.010 A 
ATOM     46  C   UNL     1       7.065  14.131  -1.028  1.00  0.00    -0.014 A 
BRANCH  46  47
ATOM     47  C   UNL     1       7.036  15.480  -0.406  1.00  0.00     0.031 A 
ATOM     48  C   UNL     1       8.248  16.365  -0.531  1.00  0.00     0.074 A 
ATOM     49  C   UNL     1       5.929  15.930   0.212  1.00  0.00     0.049 A 
ATOM     50  N   UNL     1       8.441  17.578  -0.080  1.00  0.00    -0.248 NA
ATOM     51  C   UNL     1       9.394  15.803  -1.261  1.00  0.00     0.031 C 
ATOM     52  C   UNL     1       4.683  15.179   0.359  1.00  0.00     0.029 A 
ATOM     53  N   UNL     1       5.674  17.129   0.828  1.00  0.00    -0.354 N 
ATOM     54  C   UNL     1       9.729  17.927  -0.473  1.00  0.00     0.074 A 
ATOM     55  C   UNL     1      10.284  16.779  -1.159  1.00  0.00     0.031 C 
ATOM     56  C   UNL     1       3.795  15.936   1.027  1.00  0.00     0.029 A 
ATOM     57  C   UNL     1       4.419  17.209   1.383  1.00  0.00     0.049 A 
ATOM     58  H   UNL     1       6.329  17.863   0.870  1.00  0.00     0.167 HD
ATOM     59  C   UNL     1      10.384  19.101  -0.290  1.00  0.00     0.034 A 
ATOM     60  C   UNL     1       3.846  18.190   2.111  1.00  0.00     0.034 A 
ATOM     61  C   UNL     1       9.822  20.233   0.407  1.00  0.00     0.049 A 
ATOM     62  C   UNL     1       4.626  19.456   2.376  1.00  0.00     0.074 A 
ATOM     63  C   UNL     1      10.391  21.475   0.633  1.00  0.00     0.029 A 
ATOM     64  N   UNL     1       8.568  20.259   1.004  1.00  0.00    -0.354 N 
ATOM     65  N   UNL     1       5.836  19.781   1.982  1.00  0.00    -0.248 NA
ATOM     66  C   UNL     1       3.956  20.491   3.174  1.00  0.00     0.031 C 
ATOM     67  C   UNL     1       9.513  22.222   1.427  1.00  0.00     0.029 A 
ATOM     68  C   UNL     1       8.361  21.479   1.630  1.00  0.00     0.049 A 
ATOM     69  H   UNL     1       7.920  19.518   0.985  1.00  0.00     0.167 HD
ATOM     70  C   UNL     1       6.060  21.069   2.463  1.00  0.00     0.074 A 
ATOM     71  C   UNL     1       4.853  21.466   3.159  1.00  0.00     0.031 C 
ATOM     72  C   UNL     1       7.159  21.856   2.337  1.00  0.00     0.034 A 
BRANCH  59  73
ATOM     73  C   UNL     1      11.799  19.193  -0.809  1.00  0.00     0.023 A 
ATOM     74  C   UNL     1      12.093  19.110  -2.182  1.00  0.00     0.031 A 
ATOM     75  C   UNL     1      12.874  19.335   0.086  1.00  0.00     0.131 A 
ATOM     76  C   UNL     1      13.428  19.100  -2.613  1.00  0.00     0.055 A 
ATOM     77  C   UNL     1      14.197  19.402  -0.355  1.00  0.00     0.041 A 
ATOM     78  F   UNL     1      12.658  19.396   1.410  1.00  0.00    -0.206 F 
ATOM     79  C   UNL     1      14.481  19.270  -1.711  1.00  0.00     0.022 A 
BRANCH  76  80
ATOM     80  S   UNL     1      13.777  18.718  -4.352  1.00  0.00     0.124 S 
ATOM     81  O   UNL     1      13.162  17.400  -4.494  1.00  0.00    -0.237 OA
ATOM     82  O   UNL     1      13.114  19.812  -5.053  1.00  0.00    -0.237 OA
ATOM     83  O   UNL     1      15.237  18.727  -4.419  1.00  0.00    -0.744 OA
ENDBRANCH  76  80
ENDBRANCH  59  73
BRANCH  60  84
ATOM     84  C   UNL     1       2.479  18.010   2.679  1.00  0.00     0.023 A 
ATOM     85  C   UNL     1       1.413  18.838   2.294  1.00  0.00     0.031 A 
ATOM     86  C   UNL     1       2.234  17.038   3.666  1.00  0.00     0.131 A 
ATOM     87  C   UNL     1       0.165  18.711   2.925  1.00  0.00     0.055 A 
ATOM     88  C   UNL     1       0.978  16.880   4.253  1.00  0.00     0.041 A 
ATOM     89  F   UNL     1       3.219  16.221   4.073  1.00  0.00    -0.206 F 
ATOM     90  C   UNL     1      -0.063  17.730   3.892  1.00  0.00     0.022 A 
BRANCH  87  91
ATOM     91  S   UNL     1      -1.137  19.909   2.525  1.00  0.00     0.124 S 
ATOM     92  O   UNL     1      -0.497  21.172   2.876  1.00  0.00    -0.237 OA
ATOM     93  O   UNL     1      -1.344  19.667   1.101  1.00  0.00    -0.237 OA
ATOM     94  O   UNL     1      -2.245  19.508   3.390  1.00  0.00    -0.744 OA
ENDBRANCH  87  91
ENDBRANCH  60  84
BRANCH  72  95
ATOM     95  C   UNL     1       7.086  23.240   2.937  1.00  0.00     0.023 A 
ATOM     96  C   UNL     1       6.999  23.443   4.325  1.00  0.00     0.031 A 
ATOM     97  C   UNL     1       7.088  24.374   2.103  1.00  0.00     0.131 A 
ATOM     98  C   UNL     1       6.860  24.742   4.836  1.00  0.00     0.055 A 
ATOM     99  C   UNL     1       7.011  25.668   2.621  1.00  0.00     0.041 A 
ATOM    100  F   UNL     1       7.167  24.241   0.769  1.00  0.00    -0.206 F 
ATOM    101  C   UNL     1       6.883  25.857   3.994  1.00  0.00     0.022 A 
BRANCH  98 102
ATOM    102  S   UNL     1       6.553  24.954   6.611  1.00  0.00     0.124 S 
ATOM    103  O   UNL     1       5.329  24.182   6.802  1.00  0.00    -0.237 OA
ATOM    104  O   UNL     1       7.760  24.390   7.206  1.00  0.00    -0.237 OA
ATOM    105  O   UNL     1       6.404  26.400   6.764  1.00  0.00    -0.744 OA
ENDBRANCH  98 102
ENDBRANCH  72  95
ENDBRANCH  46  47
ENDBRANCH  39  41
ENDBRANCH  38  39
ENDBRANCH  37  38
ENDBRANCH  36  37
ENDBRANCH   1  36
TORSDOF 22
