REMARK SMILES COCC[C@H](NC(=O)c1ccc(Br)nc1)C(=O)OCCOCCOC(=O)c1ccc(-c2c3nc(c(-c4cc(S(=O)(=O)[O-])ccc4F)c4ccc([nH]4)c(-c4cc(S(=O)(=O)[O-])ccc4F)c4nc(c(-c5cc(S(=O)(=O)[O-])ccc5F)c5ccc2[nH]5)C=C4)C=C3)cc1
REMARK SMILES IDX 21 1 20 2 19 3 18 4 16 5 17 6 5 7 4 8 3 9 2 10 1 11 6 12
REMARK SMILES IDX 7 13 8 15 9 16 10 17 15 18 11 19 14 20 12 21 13 22 22 23
REMARK SMILES IDX 23 24 24 25 25 26 26 27 27 28 28 29 89 30 29 31 88 32 30 33
REMARK SMILES IDX 31 34 32 35 82 36 33 37 87 38 81 39 83 40 34 41 86 42 80 43
REMARK SMILES IDX 79 44 35 46 67 47 47 48 66 49 48 50 51 51 65 52 84 53 49 54
REMARK SMILES IDX 50 55 64 57 85 58 52 59 36 60 37 61 45 62 38 63 44 64 46 65
REMARK SMILES IDX 43 66 39 67 40 68 41 69 42 70 68 71 69 72 77 73 70 74 76 75
REMARK SMILES IDX 78 76 75 77 71 78 72 79 73 80 74 81 53 82 54 83 62 84 55 85
REMARK SMILES IDX 61 86 63 87 60 88 56 89 57 90 58 91 59 92
REMARK H PARENT 6 14 83 45 51 56
REMARK Flexibility Score: inf
ROOT
ATOM      1  O   UNL     1      -1.727  -2.581   4.654  1.00  0.00    -0.374 OA
ENDROOT
BRANCH   1   2
ATOM      2  C   UNL     1      -0.894  -2.476   5.810  1.00  0.00     0.202 C 
BRANCH   2   3
ATOM      3  C   UNL     1       0.617  -2.416   5.560  1.00  0.00     0.261 C 
BRANCH   3   4
ATOM      4  O   UNL     1       0.967  -1.314   4.706  1.00  0.00    -0.462 OA
BRANCH   4   5
ATOM      5  C   UNL     1       1.698  -1.639   3.605  1.00  0.00     0.328 C 
ATOM      6  O   UNL     1       2.223  -2.729   3.407  1.00  0.00    -0.250 OA
BRANCH   5   7
ATOM      7  C   UNL     1       1.624  -0.547   2.517  1.00  0.00     0.194 C 
BRANCH   7   8
ATOM      8  C   UNL     1       2.874  -0.560   1.628  1.00  0.00     0.065 C 
BRANCH   8   9
ATOM      9  C   UNL     1       2.814  -1.651   0.551  1.00  0.00     0.162 C 
BRANCH   9  10
ATOM     10  O   UNL     1       2.473  -1.116  -0.730  1.00  0.00    -0.385 OA
ATOM     11  C   UNL     1       1.109  -0.743  -0.858  1.00  0.00     0.194 C 
ENDBRANCH   9  10
ENDBRANCH   8   9
ENDBRANCH   7   8
BRANCH   7  12
ATOM     12  N   UNL     1       1.179   0.798   2.918  1.00  0.00    -0.338 N 
ATOM     13  C   UNL     1       1.761   1.764   3.692  1.00  0.00     0.253 C 
ATOM     14  H   UNL     1       0.296   1.050   2.563  1.00  0.00     0.164 HD
ATOM     15  O   UNL     1       1.186   2.829   3.883  1.00  0.00    -0.269 OA
BRANCH  13  16
ATOM     16  C   UNL     1       3.054   1.522   4.330  1.00  0.00     0.058 A 
ATOM     17  C   UNL     1       4.246   1.549   3.613  1.00  0.00     0.018 A 
ATOM     18  C   UNL     1       3.101   1.328   5.700  1.00  0.00     0.126 A 
ATOM     19  C   UNL     1       5.439   1.279   4.280  1.00  0.00     0.037 A 
ATOM     20  N   UNL     1       4.248   1.067   6.369  1.00  0.00    -0.249 NA
ATOM     21  C   UNL     1       5.391   1.038   5.647  1.00  0.00     0.106 A 
ATOM     22  Br  UNL     1       7.003   0.635   6.557  1.00  0.00    -0.029 Br
ENDBRANCH  13  16
ENDBRANCH   7  12
ENDBRANCH   5   7
ENDBRANCH   4   5
ENDBRANCH   3   4
ENDBRANCH   2   3
ENDBRANCH   1   2
BRANCH   1  23
ATOM     23  C   UNL     1      -1.877  -1.429   3.826  1.00  0.00     0.202 C 
BRANCH  23  24
ATOM     24  C   UNL     1      -2.612  -0.213   4.404  1.00  0.00     0.261 C 
BRANCH  24  25
ATOM     25  O   UNL     1      -1.911   0.392   5.504  1.00  0.00    -0.460 OA
BRANCH  25  26
ATOM     26  C   UNL     1      -2.604   0.390   6.670  1.00  0.00     0.338 C 
ATOM     27  O   UNL     1      -3.746  -0.019   6.838  1.00  0.00    -0.246 OA
BRANCH  26  28
ATOM     28  C   UNL     1      -1.738   0.769   7.799  1.00  0.00     0.060 A 
ATOM     29  C   UNL     1      -1.648  -0.136   8.864  1.00  0.00     0.016 A 
ATOM     30  C   UNL     1      -1.134   2.026   7.881  1.00  0.00     0.016 A 
ATOM     31  C   UNL     1      -1.015   0.238  10.045  1.00  0.00     0.010 A 
ATOM     32  C   UNL     1      -0.506   2.404   9.075  1.00  0.00     0.010 A 
ATOM     33  C   UNL     1      -0.487   1.529  10.178  1.00  0.00    -0.014 A 
BRANCH  33  34
ATOM     34  C   UNL     1      -0.099   1.996  11.533  1.00  0.00     0.031 A 
ATOM     35  C   UNL     1      -1.086   2.807  12.332  1.00  0.00     0.074 A 
ATOM     36  C   UNL     1       1.073   1.625  12.079  1.00  0.00     0.049 A 
ATOM     37  N   UNL     1      -0.993   3.263  13.555  1.00  0.00    -0.248 NA
ATOM     38  C   UNL     1      -2.348   3.147  11.658  1.00  0.00     0.031 C 
ATOM     39  C   UNL     1       2.089   0.807  11.417  1.00  0.00     0.029 A 
ATOM     40  N   UNL     1       1.600   1.877  13.320  1.00  0.00    -0.354 N 
ATOM     41  C   UNL     1      -2.184   3.938  13.801  1.00  0.00     0.074 A 
ATOM     42  C   UNL     1      -2.963   3.870  12.582  1.00  0.00     0.031 C 
ATOM     43  C   UNL     1       3.118   0.624  12.263  1.00  0.00     0.029 A 
ATOM     44  C   UNL     1       2.846   1.329  13.513  1.00  0.00     0.049 A 
ATOM     45  H   UNL     1       1.129   2.402  14.008  1.00  0.00     0.167 HD
ATOM     46  C   UNL     1      -2.597   4.549  14.940  1.00  0.00     0.034 A 
ATOM     47  C   UNL     1       3.675   1.400  14.575  1.00  0.00     0.034 A 
ATOM     48  C   UNL     1      -1.803   4.624  16.143  1.00  0.00     0.049 A 
ATOM     49  C   UNL     1       3.223   2.143  15.808  1.00  0.00     0.074 A 
ATOM     50  C   UNL     1      -2.121   5.217  17.352  1.00  0.00     0.029 A 
ATOM     51  N   UNL     1      -0.524   4.099  16.285  1.00  0.00    -0.354 N 
ATOM     52  N   UNL     1       2.088   2.767  16.032  1.00  0.00    -0.248 NA
ATOM     53  C   UNL     1       4.159   2.176  16.939  1.00  0.00     0.031 C 
ATOM     54  C   UNL     1      -1.013   5.109  18.201  1.00  0.00     0.029 A 
ATOM     55  C   UNL     1      -0.030   4.380  17.550  1.00  0.00     0.049 A 
ATOM     56  H   UNL     1      -0.039   3.601  15.589  1.00  0.00     0.167 HD
ATOM     57  C   UNL     1       2.166   3.241  17.339  1.00  0.00     0.074 A 
ATOM     58  C   UNL     1       3.449   2.813  17.858  1.00  0.00     0.031 C 
ATOM     59  C   UNL     1       1.259   3.960  18.050  1.00  0.00     0.034 A 
BRANCH  46  60
ATOM     60  C   UNL     1      -3.947   5.228  14.909  1.00  0.00     0.023 A 
ATOM     61  C   UNL     1      -5.138   4.502  14.729  1.00  0.00     0.031 A 
ATOM     62  C   UNL     1      -4.040   6.626  15.022  1.00  0.00     0.131 A 
ATOM     63  C   UNL     1      -6.359   5.182  14.595  1.00  0.00     0.055 A 
ATOM     64  C   UNL     1      -5.266   7.290  14.965  1.00  0.00     0.041 A 
ATOM     65  F   UNL     1      -2.935   7.374  15.172  1.00  0.00    -0.206 F 
ATOM     66  C   UNL     1      -6.434   6.569  14.736  1.00  0.00     0.022 A 
BRANCH  63  67
ATOM     67  S   UNL     1      -7.828   4.242  14.092  1.00  0.00     0.124 S 
ATOM     68  O   UNL     1      -7.396   3.680  12.815  1.00  0.00    -0.237 OA
ATOM     69  O   UNL     1      -7.986   3.293  15.188  1.00  0.00    -0.237 OA
ATOM     70  O   UNL     1      -8.871   5.262  13.995  1.00  0.00    -0.744 OA
ENDBRANCH  63  67
ENDBRANCH  46  60
BRANCH  47  71
ATOM     71  C   UNL     1       5.029   0.778  14.517  1.00  0.00     0.023 A 
ATOM     72  C   UNL     1       5.387  -0.277  15.372  1.00  0.00     0.031 A 
ATOM     73  C   UNL     1       6.008   1.276  13.638  1.00  0.00     0.131 A 
ATOM     74  C   UNL     1       6.702  -0.770  15.361  1.00  0.00     0.055 A 
ATOM     75  C   UNL     1       7.299   0.748  13.595  1.00  0.00     0.041 A 
ATOM     76  F   UNL     1       5.718   2.286  12.802  1.00  0.00    -0.206 F 
ATOM     77  C   UNL     1       7.656  -0.273  14.470  1.00  0.00     0.022 A 
BRANCH  74  78
ATOM     78  S   UNL     1       7.173  -2.017  16.591  1.00  0.00     0.124 S 
ATOM     79  O   UNL     1       6.882  -1.328  17.843  1.00  0.00    -0.237 OA
ATOM     80  O   UNL     1       6.291  -3.128  16.250  1.00  0.00    -0.237 OA
ATOM     81  O   UNL     1       8.591  -2.245  16.319  1.00  0.00    -0.744 OA
ENDBRANCH  74  78
ENDBRANCH  47  71
BRANCH  59  82
ATOM     82  C   UNL     1       1.616   4.287  19.482  1.00  0.00     0.023 A 
ATOM     83  C   UNL     1       2.689   5.137  19.803  1.00  0.00     0.031 A 
ATOM     84  C   UNL     1       0.889   3.713  20.540  1.00  0.00     0.131 A 
ATOM     85  C   UNL     1       3.048   5.334  21.145  1.00  0.00     0.055 A 
ATOM     86  C   UNL     1       1.210   3.965  21.875  1.00  0.00     0.041 A 
ATOM     87  F   UNL     1      -0.145   2.893  20.294  1.00  0.00    -0.206 F 
ATOM     88  C   UNL     1       2.306   4.766  22.183  1.00  0.00     0.022 A 
BRANCH  85  89
ATOM     89  S   UNL     1       4.568   6.253  21.515  1.00  0.00     0.124 S 
ATOM     90  O   UNL     1       5.569   5.500  20.767  1.00  0.00    -0.237 OA
ATOM     91  O   UNL     1       4.259   7.585  21.005  1.00  0.00    -0.237 OA
ATOM     92  O   UNL     1       4.681   6.158  22.970  1.00  0.00    -0.744 OA
ENDBRANCH  85  89
ENDBRANCH  59  82
ENDBRANCH  33  34
ENDBRANCH  26  28
ENDBRANCH  25  26
ENDBRANCH  24  25
ENDBRANCH  23  24
ENDBRANCH   1  23
TORSDOF 22
