REMARK SMILES COC(=O)[C@H]1CC[C@]2(C)[C@H](CC[C@]3(C)[C@H]2CC=C2[C@H]4CC(C)(C)CC[C@]4(C(=O)OCCOCCOC(=O)c4ccc(-c5c6nc(c(-c7cc(S(=O)(=O)[O-])ccc7F)c7ccc([nH]7)c(-c7cc(S(=O)(=O)[O-])ccc7F)c7nc(c(-c8cc(S(=O)(=O)[O-])ccc8F)c8ccc5[nH]8)C=C7)C=C6)cc4)CC[C@@]23C)C1(C)C
REMARK SMILES IDX 33 1 32 2 31 3 30 4 29 5 27 6 28 7 26 8 5 9 6 10 105 11 7 12
REMARK SMILES IDX 10 13 106 14 107 15 8 16 11 17 15 18 9 19 12 20 16 21 13 22
REMARK SMILES IDX 17 23 103 24 14 25 18 26 102 27 104 28 19 29 101 30 20 31
REMARK SMILES IDX 21 32 25 33 24 34 22 35 23 36 3 37 4 38 2 39 1 40 34 41
REMARK SMILES IDX 35 42 36 43 37 44 38 45 39 46 100 47 40 48 99 49 41 50 42 51
REMARK SMILES IDX 43 52 93 53 44 54 98 55 92 56 94 57 45 58 97 59 91 60 90 61
REMARK SMILES IDX 46 63 78 64 58 65 77 66 59 67 62 68 76 69 95 70 60 71 61 72
REMARK SMILES IDX 75 74 96 75 63 76 47 77 48 78 56 79 49 80 55 81 57 82 54 83
REMARK SMILES IDX 50 84 51 85 52 86 53 87 79 88 80 89 88 90 81 91 87 92 89 93
REMARK SMILES IDX 86 94 82 95 83 96 84 97 85 98 64 99 65 100 73 101 66 102
REMARK SMILES IDX 72 103 74 104 71 105 67 106 68 107 69 108 70 109
REMARK H PARENT 94 62 62 73
REMARK Flexibility Score: inf
ROOT
ATOM      1  C   UNL     1      -4.312   2.837  -3.489  1.00  0.00     0.202 C 
ENDROOT
BRANCH   1   2
ATOM      2  O   UNL     1      -5.418   3.630  -3.142  1.00  0.00    -0.374 OA
BRANCH   2   3
ATOM      3  C   UNL     1      -6.740   3.165  -3.336  1.00  0.00     0.202 C 
BRANCH   3   4
ATOM      4  C   UNL     1      -7.196   2.240  -4.502  1.00  0.00     0.261 C 
BRANCH   4   5
ATOM      5  O   UNL     1      -6.478   2.329  -5.753  1.00  0.00    -0.463 OA
BRANCH   5   6
ATOM      6  C   UNL     1      -6.917   1.491  -6.757  1.00  0.00     0.312 C 
ATOM      7  O   UNL     1      -8.100   1.198  -6.902  1.00  0.00    -0.252 OA
BRANCH   6   8
ATOM      8  C   UNL     1      -5.764   0.813  -7.584  1.00  0.00     0.075 C 
ATOM      9  C   UNL     1       1.927   1.169  -4.487  1.00  0.00     0.105 C 
ATOM     10  C   UNL     1       2.154   2.665  -4.893  1.00  0.00     0.016 C 
ATOM     11  C   UNL     1       0.648   0.410  -5.030  1.00  0.00    -0.019 C 
ATOM     12  C   UNL     1       1.276   3.280  -6.016  1.00  0.00     0.008 C 
ATOM     13  C   UNL     1       0.010   1.240  -6.198  1.00  0.00     0.002 C 
ATOM     14  C   UNL     1      -0.318   0.077  -3.860  1.00  0.00     0.012 C 
ATOM     15  C   UNL     1       0.994  -1.014  -5.580  1.00  0.00     0.012 C 
ATOM     16  C   UNL     1      -0.193   2.769  -5.955  1.00  0.00    -0.026 C 
ATOM     17  C   UNL     1      -1.229   0.642  -6.811  1.00  0.00     0.005 C 
ATOM     18  C   UNL     1      -1.207   3.520  -7.038  1.00  0.00     0.006 C 
ATOM     19  C   UNL     1      -0.646   3.134  -4.534  1.00  0.00     0.012 C 
ATOM     20  C   UNL     1      -1.387   1.160  -8.234  1.00  0.00     0.008 C 
ATOM     21  C   UNL     1      -2.423   4.314  -6.364  1.00  0.00     0.032 C 
ATOM     22  C   UNL     1      -1.772   2.655  -8.337  1.00  0.00    -0.020 C 
ATOM     23  C   UNL     1      -3.691   3.492  -6.281  1.00  0.00    -0.027 C 
ATOM     24  C   UNL     1      -3.387   2.812  -8.496  1.00  0.00    -0.006 C 
ATOM     25  C   UNL     1      -1.067   3.203  -9.601  1.00  0.00     0.012 C 
ATOM     26  C   UNL     1      -3.881   2.451  -7.100  1.00  0.00    -0.063 C 
ATOM     27  C   UNL     1      -4.251   1.985  -9.512  1.00  0.00     0.013 C 
ATOM     28  C   UNL     1      -3.716   4.302  -8.965  1.00  0.00     0.017 C 
ATOM     29  C   UNL     1      -4.440   0.993  -6.870  1.00  0.00     0.033 C 
ATOM     30  C   UNL     1      -5.596   1.313  -9.051  1.00  0.00     0.020 C 
ATOM     31  C   UNL     1      -4.443   0.199  -5.501  1.00  0.00     0.015 C 
ATOM     32  C   UNL     1      -4.754  -1.324  -5.592  1.00  0.00    -0.035 C 
ATOM     33  C   UNL     1      -6.091  -0.723  -7.697  1.00  0.00     0.020 C 
ATOM     34  C   UNL     1      -6.040  -1.535  -6.408  1.00  0.00     0.007 C 
ATOM     35  C   UNL     1      -5.005  -1.897  -4.174  1.00  0.00     0.011 C 
ATOM     36  C   UNL     1      -3.565  -2.102  -6.181  1.00  0.00     0.011 C 
BRANCH   9  37
ATOM     37  C   UNL     1       3.208   0.399  -4.774  1.00  0.00     0.309 C 
ATOM     38  O   UNL     1       3.805   0.413  -5.843  1.00  0.00    -0.252 OA
BRANCH  37  39
ATOM     39  O   UNL     1       3.532  -0.376  -3.700  1.00  0.00    -0.469 OA
ATOM     40  C   UNL     1       4.599  -1.294  -3.933  1.00  0.00     0.282 C 
ENDBRANCH  37  39
ENDBRANCH   9  37
ENDBRANCH   6   8
ENDBRANCH   5   6
ENDBRANCH   4   5
ENDBRANCH   3   4
ENDBRANCH   2   3
ENDBRANCH   1   2
BRANCH   1  41
ATOM     41  C   UNL     1      -3.679   1.972  -2.457  1.00  0.00     0.261 C 
BRANCH  41  42
ATOM     42  O   UNL     1      -3.463   2.798  -1.329  1.00  0.00    -0.460 OA
BRANCH  42  43
ATOM     43  C   UNL     1      -2.288   3.491  -1.288  1.00  0.00     0.338 C 
ATOM     44  O   UNL     1      -1.726   4.132  -2.140  1.00  0.00    -0.246 OA
BRANCH  43  45
ATOM     45  C   UNL     1      -1.710   2.909  -0.078  1.00  0.00     0.060 A 
ATOM     46  C   UNL     1      -2.538   3.075   1.036  1.00  0.00     0.016 A 
ATOM     47  C   UNL     1      -1.036   1.710  -0.362  1.00  0.00     0.016 A 
ATOM     48  C   UNL     1      -2.872   1.949   1.749  1.00  0.00     0.010 A 
ATOM     49  C   UNL     1      -1.429   0.572   0.311  1.00  0.00     0.010 A 
ATOM     50  C   UNL     1      -2.339   0.704   1.370  1.00  0.00    -0.014 A 
BRANCH  50  51
ATOM     51  C   UNL     1      -2.519  -0.380   2.334  1.00  0.00     0.031 A 
ATOM     52  C   UNL     1      -1.384  -0.544   3.291  1.00  0.00     0.074 A 
ATOM     53  C   UNL     1      -3.714  -0.984   2.438  1.00  0.00     0.049 A 
ATOM     54  N   UNL     1      -1.342  -1.182   4.421  1.00  0.00    -0.248 NA
ATOM     55  C   UNL     1      -0.115   0.119   2.928  1.00  0.00     0.031 C 
ATOM     56  C   UNL     1      -4.833  -0.828   1.501  1.00  0.00     0.029 A 
ATOM     57  N   UNL     1      -4.211  -1.794   3.418  1.00  0.00    -0.354 N 
ATOM     58  C   UNL     1      -0.058  -0.970   4.907  1.00  0.00     0.074 A 
ATOM     59  C   UNL     1       0.684  -0.252   3.907  1.00  0.00     0.031 C 
ATOM     60  C   UNL     1      -5.905  -1.478   1.988  1.00  0.00     0.029 A 
ATOM     61  C   UNL     1      -5.548  -2.085   3.265  1.00  0.00     0.049 A 
ATOM     62  H   UNL     1      -3.666  -2.138   4.162  1.00  0.00     0.167 HD
ATOM     63  C   UNL     1       0.429  -1.295   6.122  1.00  0.00     0.034 A 
ATOM     64  C   UNL     1      -6.377  -2.736   4.107  1.00  0.00     0.034 A 
ATOM     65  C   UNL     1      -0.373  -1.999   7.079  1.00  0.00     0.049 A 
ATOM     66  C   UNL     1      -5.792  -3.141   5.441  1.00  0.00     0.074 A 
ATOM     67  C   UNL     1      -0.031  -2.458   8.332  1.00  0.00     0.029 A 
ATOM     68  N   UNL     1      -1.705  -2.349   6.862  1.00  0.00    -0.354 N 
ATOM     69  N   UNL     1      -4.579  -2.922   5.910  1.00  0.00    -0.248 NA
ATOM     70  C   UNL     1      -6.676  -3.853   6.366  1.00  0.00     0.031 C 
ATOM     71  C   UNL     1      -1.141  -3.137   8.849  1.00  0.00     0.029 A 
ATOM     72  C   UNL     1      -2.196  -3.042   7.949  1.00  0.00     0.049 A 
ATOM     73  H   UNL     1      -2.220  -2.134   6.051  1.00  0.00     0.167 HD
ATOM     74  C   UNL     1      -4.559  -3.461   7.191  1.00  0.00     0.074 A 
ATOM     75  C   UNL     1      -5.894  -3.983   7.428  1.00  0.00     0.031 C 
ATOM     76  C   UNL     1      -3.546  -3.538   8.095  1.00  0.00     0.034 A 
BRANCH  63  77
ATOM     77  C   UNL     1       1.869  -0.937   6.389  1.00  0.00     0.023 A 
ATOM     78  C   UNL     1       2.315   0.401   6.376  1.00  0.00     0.031 A 
ATOM     79  C   UNL     1       2.834  -1.950   6.495  1.00  0.00     0.131 A 
ATOM     80  C   UNL     1       3.691   0.680   6.362  1.00  0.00     0.055 A 
ATOM     81  C   UNL     1       4.197  -1.660   6.576  1.00  0.00     0.041 A 
ATOM     82  F   UNL     1       2.472  -3.242   6.467  1.00  0.00    -0.206 F 
ATOM     83  C   UNL     1       4.635  -0.341   6.489  1.00  0.00     0.022 A 
BRANCH  80  84
ATOM     84  S   UNL     1       4.235   2.372   5.985  1.00  0.00     0.124 S 
ATOM     85  O   UNL     1       3.725   2.549   4.627  1.00  0.00    -0.237 OA
ATOM     86  O   UNL     1       3.576   3.156   7.022  1.00  0.00    -0.237 OA
ATOM     87  O   UNL     1       5.691   2.295   6.091  1.00  0.00    -0.744 OA
ENDBRANCH  80  84
ENDBRANCH  63  77
BRANCH  64  88
ATOM     88  C   UNL     1      -7.797  -3.022   3.734  1.00  0.00     0.023 A 
ATOM     89  C   UNL     1      -8.881  -2.531   4.482  1.00  0.00     0.031 A 
ATOM     90  C   UNL     1      -8.092  -3.832   2.620  1.00  0.00     0.131 A 
ATOM     91  C   UNL     1     -10.198  -2.882   4.131  1.00  0.00     0.055 A 
ATOM     92  C   UNL     1      -9.404  -4.142   2.249  1.00  0.00     0.041 A 
ATOM     93  F   UNL     1      -7.103  -4.333   1.863  1.00  0.00    -0.206 F 
ATOM     94  C   UNL     1     -10.466  -3.675   3.014  1.00  0.00     0.022 A 
BRANCH  91  95
ATOM     95  S   UNL     1     -11.566  -2.354   5.204  1.00  0.00     0.124 S 
ATOM     96  O   UNL     1     -11.145  -2.868   6.503  1.00  0.00    -0.237 OA
ATOM     97  O   UNL     1     -11.531  -0.904   5.044  1.00  0.00    -0.237 OA
ATOM     98  O   UNL     1     -12.732  -3.015   4.621  1.00  0.00    -0.744 OA
ENDBRANCH  91  95
ENDBRANCH  64  88
BRANCH  76  99
ATOM     99  C   UNL     1      -3.871  -4.208   9.399  1.00  0.00     0.023 A 
ATOM    100  C   UNL     1      -4.116  -5.588   9.456  1.00  0.00     0.031 A 
ATOM    101  C   UNL     1      -3.902  -3.466  10.591  1.00  0.00     0.131 A 
ATOM    102  C   UNL     1      -4.437  -6.181  10.681  1.00  0.00     0.055 A 
ATOM    103  C   UNL     1      -4.156  -4.075  11.818  1.00  0.00     0.041 A 
ATOM    104  F   UNL     1      -3.665  -2.144  10.580  1.00  0.00    -0.206 F 
ATOM    105  C   UNL     1      -4.438  -5.438  11.865  1.00  0.00     0.022 A 
BRANCH 102 106
ATOM    106  S   UNL     1      -4.936  -7.921  10.687  1.00  0.00     0.124 S 
ATOM    107  O   UNL     1      -6.111  -7.900   9.820  1.00  0.00    -0.237 OA
ATOM    108  O   UNL     1      -3.756  -8.587  10.144  1.00  0.00    -0.237 OA
ATOM    109  O   UNL     1      -5.208  -8.193  12.096  1.00  0.00    -0.744 OA
ENDBRANCH 102 106
ENDBRANCH  76  99
ENDBRANCH  50  51
ENDBRANCH  43  45
ENDBRANCH  42  43
ENDBRANCH  41  42
ENDBRANCH   1  41
TORSDOF 19
