REMARK SMILES CCOc1cc(/C=C2/C(=O)N(c3cccc(C(=O)OCCOCCOC(=O)c4ccc(-c5c6nc(c(-c7cc(S(=O)(=O)[O-])ccc7F)c7ccc([nH]7)c(-c7cc(S(=O)(=O)[O-])ccc7F)c7nc(c(-c8cc(S(=O)(=O)[O-])ccc8F)c8ccc5[nH]8)C=C7)C=C6)cc4)c3)N=C2C)cc(Cl)c1OC
REMARK SMILES IDX 21 1 20 2 19 3 17 4 18 5 16 6 12 7 13 8 91 9 14 10 15 11
REMARK SMILES IDX 11 12 7 13 8 14 9 15 93 16 10 17 92 18 94 19 6 20 4 21 5 22
REMARK SMILES IDX 98 23 96 24 95 25 97 26 3 27 2 28 1 29 99 30 100 31 22 32
REMARK SMILES IDX 23 33 24 34 25 35 26 36 27 37 28 38 29 39 90 40 30 41 89 42
REMARK SMILES IDX 31 43 32 44 33 45 83 46 34 47 88 48 82 49 84 50 35 51 87 52
REMARK SMILES IDX 81 53 80 54 36 56 68 57 48 58 67 59 49 60 52 61 66 62 85 63
REMARK SMILES IDX 50 64 51 65 65 67 86 68 53 69 37 70 38 71 46 72 39 73 45 74
REMARK SMILES IDX 47 75 44 76 40 77 41 78 42 79 43 80 69 81 70 82 78 83 71 84
REMARK SMILES IDX 77 85 79 86 76 87 72 88 73 89 74 90 75 91 54 92 55 93 63 94
REMARK SMILES IDX 56 95 62 96 64 97 61 98 57 99 58 100 59 101 60 102
REMARK H PARENT 84 55 52 66
REMARK Flexibility Score: inf
ROOT
ATOM      1  C   UNL     1      14.508  -1.960  -2.466  1.00  0.00     0.202 C 
ENDROOT
BRANCH   1   2
ATOM      2  C   UNL     1      13.338  -2.890  -2.813  1.00  0.00     0.261 C 
BRANCH   2   3
ATOM      3  O   UNL     1      12.223  -2.700  -1.928  1.00  0.00    -0.460 OA
BRANCH   3   4
ATOM      4  C   UNL     1      11.986  -3.716  -1.060  1.00  0.00     0.338 C 
ATOM      5  O   UNL     1      12.531  -4.806  -1.030  1.00  0.00    -0.246 OA
BRANCH   4   6
ATOM      6  C   UNL     1      11.102  -3.227   0.024  1.00  0.00     0.062 A 
ATOM      7  C   UNL     1       9.315  -1.810   0.845  1.00  0.00     0.070 A 
ATOM      8  C   UNL     1       9.673  -2.157   2.157  1.00  0.00     0.028 A 
ATOM      9  C   UNL     1      10.042  -2.350  -0.224  1.00  0.00     0.044 A 
ATOM     10  C   UNL     1      10.706  -3.062   2.403  1.00  0.00     0.003 A 
ATOM     11  C   UNL     1      11.420  -3.600   1.336  1.00  0.00     0.016 A 
BRANCH   7  12
ATOM     12  N   UNL     1       8.255  -0.909   0.617  1.00  0.00    -0.196 N 
ATOM     13  C   UNL     1       5.716   0.789  -1.148  1.00  0.00     0.024 C 
ATOM     14  C   UNL     1       6.619   0.368  -0.253  1.00  0.00     0.065 C 
ATOM     15  C   UNL     1       7.510  -0.774  -0.558  1.00  0.00     0.280 C 
ATOM     16  C   UNL     1       6.992   0.764   1.120  1.00  0.00     0.071 C 
ATOM     17  O   UNL     1       7.511  -1.424  -1.591  1.00  0.00    -0.267 OA
ATOM     18  N   UNL     1       7.920  -0.008   1.620  1.00  0.00    -0.169 NA
ATOM     19  C   UNL     1       6.427   1.920   1.877  1.00  0.00     0.069 C 
BRANCH  13  20
ATOM     20  C   UNL     1       4.784   1.890  -0.948  1.00  0.00    -0.019 A 
ATOM     21  C   UNL     1       2.536   2.669  -0.544  1.00  0.00     0.163 A 
ATOM     22  C   UNL     1       3.423   1.633  -0.846  1.00  0.00     0.058 A 
ATOM     23  C   UNL     1       2.982   4.002  -0.383  1.00  0.00     0.179 A 
ATOM     24  C   UNL     1       4.355   4.255  -0.552  1.00  0.00     0.087 A 
ATOM     25  C   UNL     1       5.236   3.204  -0.854  1.00  0.00     0.032 A 
ATOM     26  Cl  UNL     1       5.141   5.784  -0.360  1.00  0.00    -0.080 Cl
BRANCH  21  27
ATOM     27  O   UNL     1       1.186   2.398  -0.538  1.00  0.00    -0.490 OA
BRANCH  27  28
ATOM     28  C   UNL     1       0.752   1.611   0.578  1.00  0.00     0.226 C 
ATOM     29  C   UNL     1       0.732   0.123   0.255  1.00  0.00     0.049 C 
ENDBRANCH  27  28
ENDBRANCH  21  27
BRANCH  23  30
ATOM     30  O   UNL     1       1.980   4.872  -0.041  1.00  0.00    -0.491 OA
ATOM     31  C   UNL     1       2.206   6.270  -0.062  1.00  0.00     0.278 C 
ENDBRANCH  23  30
ENDBRANCH  13  20
ENDBRANCH   7  12
ENDBRANCH   4   6
ENDBRANCH   3   4
ENDBRANCH   2   3
ENDBRANCH   1   2
BRANCH   1  32
ATOM     32  O   UNL     1      15.084  -2.092  -1.166  1.00  0.00    -0.374 OA
BRANCH  32  33
ATOM     33  C   UNL     1      14.393  -1.482  -0.077  1.00  0.00     0.202 C 
BRANCH  33  34
ATOM     34  C   UNL     1      14.504   0.041   0.083  1.00  0.00     0.261 C 
BRANCH  34  35
ATOM     35  O   UNL     1      13.928   0.765  -1.016  1.00  0.00    -0.460 OA
BRANCH  35  36
ATOM     36  C   UNL     1      14.835   1.319  -1.859  1.00  0.00     0.338 C 
ATOM     37  O   UNL     1      16.049   1.299  -1.747  1.00  0.00    -0.246 OA
BRANCH  36  38
ATOM     38  C   UNL     1      14.153   1.811  -3.071  1.00  0.00     0.060 A 
ATOM     39  C   UNL     1      14.617   1.351  -4.310  1.00  0.00     0.016 A 
ATOM     40  C   UNL     1      13.126   2.754  -3.003  1.00  0.00     0.016 A 
ATOM     41  C   UNL     1      14.086   1.867  -5.490  1.00  0.00     0.010 A 
ATOM     42  C   UNL     1      12.598   3.275  -4.189  1.00  0.00     0.010 A 
ATOM     43  C   UNL     1      13.097   2.859  -5.438  1.00  0.00    -0.014 A 
BRANCH  43  44
ATOM     44  C   UNL     1      12.684   3.557  -6.681  1.00  0.00     0.031 A 
ATOM     45  C   UNL     1      13.201   4.945  -6.946  1.00  0.00     0.074 A 
ATOM     46  C   UNL     1      11.876   2.954  -7.572  1.00  0.00     0.049 A 
ATOM     47  N   UNL     1      12.929   5.760  -7.933  1.00  0.00    -0.248 NA
ATOM     48  C   UNL     1      14.144   5.488  -5.958  1.00  0.00     0.031 C 
ATOM     49  C   UNL     1      11.355   1.592  -7.450  1.00  0.00     0.029 A 
ATOM     50  N   UNL     1      11.349   3.410  -8.754  1.00  0.00    -0.354 N 
ATOM     51  C   UNL     1      13.656   6.919  -7.678  1.00  0.00     0.074 A 
ATOM     52  C   UNL     1      14.348   6.711  -6.423  1.00  0.00     0.031 C 
ATOM     53  C   UNL     1      10.586   1.323  -8.518  1.00  0.00     0.029 A 
ATOM     54  C   UNL     1      10.517   2.507  -9.373  1.00  0.00     0.049 A 
ATOM     55  H   UNL     1      11.548   4.301  -9.124  1.00  0.00     0.167 HD
ATOM     56  C   UNL     1      13.740   8.048  -8.426  1.00  0.00     0.034 A 
ATOM     57  C   UNL     1       9.767   2.631 -10.487  1.00  0.00     0.034 A 
ATOM     58  C   UNL     1      13.038   8.236  -9.673  1.00  0.00     0.049 A 
ATOM     59  C   UNL     1       9.800   3.935 -11.250  1.00  0.00     0.074 A 
ATOM     60  C   UNL     1      13.076   9.325 -10.527  1.00  0.00     0.029 A 
ATOM     61  N   UNL     1      12.154   7.324 -10.237  1.00  0.00    -0.354 N 
ATOM     62  N   UNL     1      10.501   5.020 -11.008  1.00  0.00    -0.248 NA
ATOM     63  C   UNL     1       8.943   4.027 -12.439  1.00  0.00     0.031 C 
ATOM     64  C   UNL     1      12.150   9.112 -11.553  1.00  0.00     0.029 A 
ATOM     65  C   UNL     1      11.606   7.847 -11.400  1.00  0.00     0.049 A 
ATOM     66  H   UNL     1      11.947   6.436  -9.867  1.00  0.00     0.167 HD
ATOM     67  C   UNL     1      10.198   5.906 -12.040  1.00  0.00     0.074 A 
ATOM     68  C   UNL     1       9.261   5.225 -12.908  1.00  0.00     0.031 C 
ATOM     69  C   UNL     1      10.662   7.165 -12.255  1.00  0.00     0.034 A 
BRANCH  56  70
ATOM     70  C   UNL     1      14.570   9.186  -7.879  1.00  0.00     0.023 A 
ATOM     71  C   UNL     1      15.953   9.063  -7.654  1.00  0.00     0.031 A 
ATOM     72  C   UNL     1      13.959  10.409  -7.546  1.00  0.00     0.131 A 
ATOM     73  C   UNL     1      16.659  10.110  -7.041  1.00  0.00     0.055 A 
ATOM     74  C   UNL     1      14.685  11.479  -7.020  1.00  0.00     0.041 A 
ATOM     75  F   UNL     1      12.638  10.581  -7.712  1.00  0.00    -0.206 F 
ATOM     76  C   UNL     1      16.041  11.327  -6.748  1.00  0.00     0.022 A 
BRANCH  73  77
ATOM     77  S   UNL     1      18.356   9.798  -6.479  1.00  0.00     0.124 S 
ATOM     78  O   UNL     1      18.168   8.647  -5.598  1.00  0.00    -0.237 OA
ATOM     79  O   UNL     1      19.059   9.538  -7.730  1.00  0.00    -0.237 OA
ATOM     80  O   UNL     1      18.725  11.038  -5.800  1.00  0.00    -0.744 OA
ENDBRANCH  73  77
ENDBRANCH  56  70
BRANCH  57  81
ATOM     81  C   UNL     1       8.895   1.510 -10.942  1.00  0.00     0.023 A 
ATOM     82  C   UNL     1       9.097   0.901 -12.191  1.00  0.00     0.031 A 
ATOM     83  C   UNL     1       7.810   1.070 -10.163  1.00  0.00     0.131 A 
ATOM     84  C   UNL     1       8.199  -0.077 -12.646  1.00  0.00     0.055 A 
ATOM     85  C   UNL     1       6.957   0.052 -10.593  1.00  0.00     0.041 A 
ATOM     86  F   UNL     1       7.566   1.622  -8.963  1.00  0.00    -0.206 F 
ATOM     87  C   UNL     1       7.141  -0.518 -11.848  1.00  0.00     0.022 A 
BRANCH  84  88
ATOM     88  S   UNL     1       8.377  -0.695 -14.342  1.00  0.00     0.124 S 
ATOM     89  O   UNL     1       8.251   0.533 -15.118  1.00  0.00    -0.237 OA
ATOM     90  O   UNL     1       9.705  -1.299 -14.306  1.00  0.00    -0.237 OA
ATOM     91  O   UNL     1       7.269  -1.638 -14.478  1.00  0.00    -0.744 OA
ENDBRANCH  84  88
ENDBRANCH  57  81
BRANCH  69  92
ATOM     92  C   UNL     1      10.201   7.866 -13.513  1.00  0.00     0.023 A 
ATOM     93  C   UNL     1       8.857   8.219 -13.722  1.00  0.00     0.031 A 
ATOM     94  C   UNL     1      11.129   8.180 -14.524  1.00  0.00     0.131 A 
ATOM     95  C   UNL     1       8.468   8.809 -14.935  1.00  0.00     0.055 A 
ATOM     96  C   UNL     1      10.748   8.831 -15.698  1.00  0.00     0.041 A 
ATOM     97  F   UNL     1      12.426   7.863 -14.385  1.00  0.00    -0.206 F 
ATOM     98  C   UNL     1       9.408   9.137 -15.915  1.00  0.00     0.022 A 
BRANCH  95  99
ATOM     99  S   UNL     1       6.700   9.049 -15.262  1.00  0.00     0.124 S 
ATOM    100  O   UNL     1       6.183   7.690 -15.143  1.00  0.00    -0.237 OA
ATOM    101  O   UNL     1       6.309   9.975 -14.204  1.00  0.00    -0.237 OA
ATOM    102  O   UNL     1       6.672   9.606 -16.613  1.00  0.00    -0.744 OA
ENDBRANCH  95  99
ENDBRANCH  69  92
ENDBRANCH  43  44
ENDBRANCH  36  38
ENDBRANCH  35  36
ENDBRANCH  34  35
ENDBRANCH  33  34
ENDBRANCH  32  33
ENDBRANCH   1  32
TORSDOF 22
