REMARK SMILES O=C(OCCOCCOC(=O)c1cc(-n2cccc2)ccc1O)c1ccc(-c2c3nc(c(-c4cc(S(=O)(=O)[O-])ccc4F)c4ccc([nH]4)c(-c4cc(S(=O)(=O)[O-])ccc4F)c4nc(c(-c5cc(S(=O)(=O)[O-])ccc5F)c5ccc2[nH]5)C=C4)C=C3)cc1
REMARK SMILES IDX 5 1 4 2 3 3 2 4 1 5 24 6 25 7 86 8 26 9 85 10 27 11 28 12
REMARK SMILES IDX 29 13 79 14 30 15 84 16 78 17 80 18 31 19 83 20 77 21 76 22
REMARK SMILES IDX 32 24 64 25 44 26 63 27 45 28 48 29 62 30 81 31 46 32 47 33
REMARK SMILES IDX 61 35 82 36 49 37 33 38 34 39 42 40 35 41 41 42 43 43 40 44
REMARK SMILES IDX 36 45 37 46 38 47 39 48 65 49 66 50 74 51 67 52 73 53 75 54
REMARK SMILES IDX 72 55 68 56 69 57 70 58 71 59 50 60 51 61 59 62 52 63 58 64
REMARK SMILES IDX 60 65 57 66 53 67 54 68 55 69 56 70 6 71 7 72 8 73 9 74
REMARK SMILES IDX 10 75 11 76 12 77 13 78 22 79 14 80 21 81 20 82 23 83 15 85
REMARK SMILES IDX 16 86 19 87 17 88 18 89
REMARK H PARENT 80 23 48 34 23 84
REMARK Flexibility Score: inf
ROOT
ATOM      1  C   UNL     1       4.850  -0.164  -0.699  1.00  0.00     0.202 C 
ENDROOT
BRANCH   1   2
ATOM      2  C   UNL     1       4.225  -1.197   0.244  1.00  0.00     0.261 C 
BRANCH   2   3
ATOM      3  O   UNL     1       2.792  -1.202   0.165  1.00  0.00    -0.460 OA
BRANCH   3   4
ATOM      4  C   UNL     1       1.965  -0.377   0.860  1.00  0.00     0.338 C 
ATOM      5  O   UNL     1       0.830  -0.141   0.459  1.00  0.00    -0.246 OA
BRANCH   4   6
ATOM      6  C   UNL     1       2.364   0.056   2.209  1.00  0.00     0.060 A 
ATOM      7  C   UNL     1       3.631   0.550   2.519  1.00  0.00     0.016 A 
ATOM      8  C   UNL     1       1.394  -0.089   3.210  1.00  0.00     0.016 A 
ATOM      9  C   UNL     1       4.018   0.644   3.839  1.00  0.00     0.010 A 
ATOM     10  C   UNL     1       1.739   0.111   4.535  1.00  0.00     0.010 A 
ATOM     11  C   UNL     1       3.065   0.431   4.840  1.00  0.00    -0.014 A 
BRANCH  11  12
ATOM     12  C   UNL     1       3.427   0.927   6.175  1.00  0.00     0.031 A 
ATOM     13  C   UNL     1       3.467   2.487   6.108  1.00  0.00     0.074 A 
ATOM     14  C   UNL     1       3.702  -0.029   7.120  1.00  0.00     0.049 A 
ATOM     15  N   UNL     1       4.244   3.344   6.694  1.00  0.00    -0.248 NA
ATOM     16  C   UNL     1       2.600   3.191   5.102  1.00  0.00     0.031 C 
ATOM     17  C   UNL     1       3.592  -1.501   6.927  1.00  0.00     0.029 A 
ATOM     18  N   UNL     1       4.128   0.018   8.429  1.00  0.00    -0.354 N 
ATOM     19  C   UNL     1       3.744   4.636   6.387  1.00  0.00     0.074 A 
ATOM     20  C   UNL     1       2.911   4.480   5.243  1.00  0.00     0.031 C 
ATOM     21  C   UNL     1       4.016  -2.181   8.023  1.00  0.00     0.029 A 
ATOM     22  C   UNL     1       4.415  -1.240   9.052  1.00  0.00     0.049 A 
ATOM     23  H   UNL     1       4.229   0.870   8.911  1.00  0.00     0.167 HD
ATOM     24  C   UNL     1       3.839   5.695   7.247  1.00  0.00     0.034 A 
ATOM     25  C   UNL     1       4.971  -1.472  10.290  1.00  0.00     0.034 A 
ATOM     26  C   UNL     1       4.563   5.278   8.403  1.00  0.00     0.049 A 
ATOM     27  C   UNL     1       4.991  -0.128  10.892  1.00  0.00     0.074 A 
ATOM     28  C   UNL     1       5.867   4.921   8.608  1.00  0.00     0.029 A 
ATOM     29  N   UNL     1       3.803   4.842   9.468  1.00  0.00    -0.354 N 
ATOM     30  N   UNL     1       3.943   0.511  11.314  1.00  0.00    -0.248 NA
ATOM     31  C   UNL     1       6.263   0.607  10.920  1.00  0.00     0.031 C 
ATOM     32  C   UNL     1       5.744   3.822   9.481  1.00  0.00     0.029 A 
ATOM     33  C   UNL     1       4.439   3.749   9.989  1.00  0.00     0.049 A 
ATOM     34  H   UNL     1       2.963   5.242   9.792  1.00  0.00     0.167 HD
ATOM     35  C   UNL     1       4.382   1.809  11.348  1.00  0.00     0.074 A 
ATOM     36  C   UNL     1       5.827   1.750  11.440  1.00  0.00     0.031 C 
ATOM     37  C   UNL     1       3.658   2.784  10.736  1.00  0.00     0.034 A 
BRANCH  24  38
ATOM     38  C   UNL     1       3.056   6.986   7.384  1.00  0.00     0.023 A 
ATOM     39  C   UNL     1       3.449   7.794   8.479  1.00  0.00     0.031 A 
ATOM     40  C   UNL     1       1.790   7.251   6.847  1.00  0.00     0.131 A 
ATOM     41  C   UNL     1       2.519   8.574   9.171  1.00  0.00     0.055 A 
ATOM     42  C   UNL     1       0.899   8.140   7.469  1.00  0.00     0.041 A 
ATOM     43  F   UNL     1       1.328   6.614   5.765  1.00  0.00    -0.206 F 
ATOM     44  C   UNL     1       1.236   8.754   8.674  1.00  0.00     0.022 A 
BRANCH  41  45
ATOM     45  S   UNL     1       2.955   9.080  10.860  1.00  0.00     0.124 S 
ATOM     46  O   UNL     1       3.155   7.789  11.507  1.00  0.00    -0.237 OA
ATOM     47  O   UNL     1       4.158   9.878  10.640  1.00  0.00    -0.237 OA
ATOM     48  O   UNL     1       1.783   9.831  11.299  1.00  0.00    -0.744 OA
ENDBRANCH  41  45
ENDBRANCH  24  38
BRANCH  25  49
ATOM     49  C   UNL     1       5.602  -2.574  11.154  1.00  0.00     0.023 A 
ATOM     50  C   UNL     1       5.628  -3.962  10.920  1.00  0.00     0.031 A 
ATOM     51  C   UNL     1       6.338  -2.173  12.322  1.00  0.00     0.131 A 
ATOM     52  C   UNL     1       6.427  -4.817  11.751  1.00  0.00     0.055 A 
ATOM     53  C   UNL     1       7.201  -2.989  13.051  1.00  0.00     0.041 A 
ATOM     54  F   UNL     1       6.252  -0.941  12.838  1.00  0.00    -0.206 F 
ATOM     55  C   UNL     1       7.266  -4.323  12.754  1.00  0.00     0.022 A 
BRANCH  52  56
ATOM     56  S   UNL     1       6.412  -6.633  11.584  1.00  0.00     0.124 S 
ATOM     57  O   UNL     1       5.321  -7.009  12.477  1.00  0.00    -0.237 OA
ATOM     58  O   UNL     1       6.176  -6.830  10.158  1.00  0.00    -0.237 OA
ATOM     59  O   UNL     1       7.746  -7.023  12.043  1.00  0.00    -0.744 OA
ENDBRANCH  52  56
ENDBRANCH  25  49
BRANCH  37  60
ATOM     60  C   UNL     1       2.162   2.490  10.583  1.00  0.00     0.023 A 
ATOM     61  C   UNL     1       1.379   2.160  11.707  1.00  0.00     0.031 A 
ATOM     62  C   UNL     1       1.497   2.426   9.345  1.00  0.00     0.131 A 
ATOM     63  C   UNL     1       0.032   1.760  11.567  1.00  0.00     0.055 A 
ATOM     64  C   UNL     1       0.163   2.018   9.198  1.00  0.00     0.041 A 
ATOM     65  F   UNL     1       2.123   2.758   8.219  1.00  0.00    -0.206 F 
ATOM     66  C   UNL     1      -0.579   1.678  10.316  1.00  0.00     0.022 A 
BRANCH  63  67
ATOM     67  S   UNL     1      -0.940   1.367  13.049  1.00  0.00     0.124 S 
ATOM     68  O   UNL     1      -0.313   0.142  13.530  1.00  0.00    -0.237 OA
ATOM     69  O   UNL     1      -0.747   2.553  13.878  1.00  0.00    -0.237 OA
ATOM     70  O   UNL     1      -2.300   1.199  12.534  1.00  0.00    -0.744 OA
ENDBRANCH  63  67
ENDBRANCH  37  60
ENDBRANCH  11  12
ENDBRANCH   4   6
ENDBRANCH   3   4
ENDBRANCH   2   3
ENDBRANCH   1   2
BRANCH   1  71
ATOM     71  O   UNL     1       4.251   1.121  -0.805  1.00  0.00    -0.374 OA
BRANCH  71  72
ATOM     72  C   UNL     1       3.101   1.246  -1.655  1.00  0.00     0.202 C 
BRANCH  72  73
ATOM     73  C   UNL     1       3.268   1.033  -3.168  1.00  0.00     0.261 C 
BRANCH  73  74
ATOM     74  O   UNL     1       3.554  -0.340  -3.502  1.00  0.00    -0.460 OA
BRANCH  74  75
ATOM     75  C   UNL     1       4.796  -0.573  -4.010  1.00  0.00     0.342 C 
ATOM     76  O   UNL     1       5.656   0.242  -4.250  1.00  0.00    -0.246 OA
BRANCH  75  77
ATOM     77  C   UNL     1       5.067  -2.027  -3.985  1.00  0.00     0.103 A 
ATOM     78  C   UNL     1       6.026  -2.503  -3.076  1.00  0.00     0.046 A 
ATOM     79  C   UNL     1       4.456  -2.904  -4.878  1.00  0.00     0.130 A 
ATOM     80  C   UNL     1       6.389  -3.850  -3.097  1.00  0.00     0.046 A 
ATOM     81  C   UNL     1       4.846  -4.246  -4.913  1.00  0.00     0.049 A 
ATOM     82  C   UNL     1       5.834  -4.717  -4.041  1.00  0.00     0.030 A 
BRANCH  79  83
ATOM     83  O   UNL     1       3.500  -2.448  -5.739  1.00  0.00    -0.507 OA
ATOM     84  H   UNL     1       3.239  -1.549  -5.716  1.00  0.00     0.293 HD
ENDBRANCH  79  83
BRANCH  80  85
ATOM     85  N   UNL     1       7.327  -4.333  -2.160  1.00  0.00    -0.324 N 
ATOM     86  C   UNL     1       8.469  -5.043  -2.454  1.00  0.00     0.091 A 
ATOM     87  C   UNL     1       7.249  -4.187  -0.792  1.00  0.00     0.091 A 
ATOM     88  C   UNL     1       9.124  -5.329  -1.275  1.00  0.00     0.020 A 
ATOM     89  C   UNL     1       8.330  -4.824  -0.220  1.00  0.00     0.020 A 
ENDBRANCH  80  85
ENDBRANCH  75  77
ENDBRANCH  74  75
ENDBRANCH  73  74
ENDBRANCH  72  73
ENDBRANCH  71  72
ENDBRANCH   1  71
TORSDOF 19
