REMARK SMILES CCOc1ccccc1-c1cc(C(=O)OCCOCCOC(=O)c2ccc(-c3c4nc(c(-c5cc(S(=O)(=O)[O-])ccc5F)c5ccc([nH]5)c(-c5cc(S(=O)(=O)[O-])ccc5F)c5nc(c(-c6cc(S(=O)(=O)[O-])ccc6F)c6ccc3[nH]6)C=C5)C=C4)cc2)c2cc(C)cc(C)c2n1
REMARK SMILES IDX 18 1 17 2 16 3 15 4 13 5 14 6 12 7 10 8 11 9 95 10 94 11
REMARK SMILES IDX 87 12 92 13 88 14 91 15 93 16 89 17 90 18 9 19 4 20 5 21
REMARK SMILES IDX 6 22 8 23 7 24 3 25 2 26 1 27 19 28 20 29 21 30 22 31 23 32
REMARK SMILES IDX 24 33 25 34 86 35 26 36 85 37 27 38 28 39 29 40 79 41 30 42
REMARK SMILES IDX 84 43 78 44 80 45 31 46 83 47 77 48 76 49 32 51 64 52 44 53
REMARK SMILES IDX 63 54 45 55 48 56 62 57 81 58 46 59 47 60 61 62 82 63 49 64
REMARK SMILES IDX 33 65 34 66 42 67 35 68 41 69 43 70 40 71 36 72 37 73 38 74
REMARK SMILES IDX 39 75 65 76 66 77 74 78 67 79 73 80 75 81 72 82 68 83 69 84
REMARK SMILES IDX 70 85 71 86 50 87 51 88 59 89 52 90 58 91 60 92 57 93 53 94
REMARK SMILES IDX 54 95 55 96 56 97
REMARK H PARENT 80 50 48 61
REMARK Flexibility Score: inf
ROOT
ATOM      1  O   UNL     1      -3.128  -1.760   1.175  1.00  0.00    -0.374 OA
ENDROOT
BRANCH   1   2
ATOM      2  C   UNL     1      -3.380  -1.270  -0.143  1.00  0.00     0.202 C 
BRANCH   2   3
ATOM      3  C   UNL     1      -3.097   0.220  -0.326  1.00  0.00     0.261 C 
BRANCH   3   4
ATOM      4  O   UNL     1      -1.736   0.547   0.015  1.00  0.00    -0.460 OA
BRANCH   4   5
ATOM      5  C   UNL     1      -1.609   1.156   1.218  1.00  0.00     0.338 C 
ATOM      6  O   UNL     1      -2.524   1.466   1.966  1.00  0.00    -0.246 OA
BRANCH   5   7
ATOM      7  C   UNL     1      -0.200   1.440   1.566  1.00  0.00     0.071 A 
ATOM      8  C   UNL     1       2.051   1.937   1.123  1.00  0.00     0.076 A 
ATOM      9  C   UNL     1       0.815   1.584   0.618  1.00  0.00     0.045 A 
ATOM     10  N   UNL     1       2.076   2.673   2.255  1.00  0.00    -0.247 NA
ATOM     11  C   UNL     1       1.315   2.200   3.241  1.00  0.00     0.075 A 
ATOM     12  C   UNL     1       0.160   1.478   2.930  1.00  0.00     0.015 A 
ATOM     13  C   UNL     1       1.774   2.255   4.557  1.00  0.00    -0.024 A 
ATOM     14  C   UNL     1      -0.439   0.680   3.927  1.00  0.00     0.014 A 
ATOM     15  C   UNL     1       1.219   1.393   5.514  1.00  0.00     0.009 A 
ATOM     16  C   UNL     1       2.980   3.075   4.923  1.00  0.00     0.047 C 
ATOM     17  C   UNL     1       0.151   0.557   5.186  1.00  0.00    -0.050 A 
ATOM     18  C   UNL     1      -0.237  -0.585   6.077  1.00  0.00     0.044 C 
BRANCH   8  19
ATOM     19  C   UNL     1       3.219   0.991   1.189  1.00  0.00     0.042 A 
ATOM     20  C   UNL     1       3.048  -0.336   1.653  1.00  0.00     0.128 A 
ATOM     21  C   UNL     1       4.030  -0.956   2.436  1.00  0.00     0.047 A 
ATOM     22  C   UNL     1       5.250  -0.326   2.655  1.00  0.00     0.004 A 
ATOM     23  C   UNL     1       4.507   1.551   1.320  1.00  0.00     0.014 A 
ATOM     24  C   UNL     1       5.509   0.901   2.051  1.00  0.00     0.001 A 
BRANCH  20  25
ATOM     25  O   UNL     1       1.833  -0.969   1.539  1.00  0.00    -0.493 OA
BRANCH  25  26
ATOM     26  C   UNL     1       1.915  -2.116   0.685  1.00  0.00     0.226 C 
ATOM     27  C   UNL     1       1.583  -1.730  -0.745  1.00  0.00     0.049 C 
ENDBRANCH  25  26
ENDBRANCH  20  25
ENDBRANCH   8  19
ENDBRANCH   5   7
ENDBRANCH   4   5
ENDBRANCH   3   4
ENDBRANCH   2   3
ENDBRANCH   1   2
BRANCH   1  28
ATOM     28  C   UNL     1      -1.828  -2.328   1.368  1.00  0.00     0.202 C 
BRANCH  28  29
ATOM     29  C   UNL     1      -1.712  -3.782   0.890  1.00  0.00     0.261 C 
BRANCH  29  30
ATOM     30  O   UNL     1      -1.675  -3.841  -0.550  1.00  0.00    -0.460 OA
BRANCH  30  31
ATOM     31  C   UNL     1      -2.732  -4.474  -1.119  1.00  0.00     0.338 C 
ATOM     32  O   UNL     1      -3.581  -5.133  -0.546  1.00  0.00    -0.246 OA
BRANCH  31  33
ATOM     33  C   UNL     1      -2.843  -4.092  -2.544  1.00  0.00     0.060 A 
ATOM     34  C   UNL     1      -4.106  -3.689  -2.996  1.00  0.00     0.016 A 
ATOM     35  C   UNL     1      -1.767  -4.165  -3.432  1.00  0.00     0.016 A 
ATOM     36  C   UNL     1      -4.312  -3.416  -4.346  1.00  0.00     0.010 A 
ATOM     37  C   UNL     1      -1.978  -3.896  -4.792  1.00  0.00     0.010 A 
ATOM     38  C   UNL     1      -3.261  -3.557  -5.261  1.00  0.00    -0.014 A 
BRANCH  38  39
ATOM     39  C   UNL     1      -3.557  -3.500  -6.716  1.00  0.00     0.031 A 
ATOM     40  C   UNL     1      -3.716  -4.789  -7.478  1.00  0.00     0.074 A 
ATOM     41  C   UNL     1      -3.757  -2.322  -7.335  1.00  0.00     0.049 A 
ATOM     42  N   UNL     1      -3.972  -4.978  -8.746  1.00  0.00    -0.248 NA
ATOM     43  C   UNL     1      -3.570  -6.030  -6.701  1.00  0.00     0.031 C 
ATOM     44  C   UNL     1      -3.690  -1.010  -6.691  1.00  0.00     0.029 A 
ATOM     45  N   UNL     1      -4.066  -2.039  -8.642  1.00  0.00    -0.354 N 
ATOM     46  C   UNL     1      -4.024  -6.357  -8.921  1.00  0.00     0.074 A 
ATOM     47  C   UNL     1      -3.733  -6.955  -7.635  1.00  0.00     0.031 C 
ATOM     48  C   UNL     1      -3.953  -0.062  -7.607  1.00  0.00     0.029 A 
ATOM     49  C   UNL     1      -4.171  -0.694  -8.908  1.00  0.00     0.049 A 
ATOM     50  H   UNL     1      -4.201  -2.735  -9.326  1.00  0.00     0.167 HD
ATOM     51  C   UNL     1      -4.301  -7.061 -10.047  1.00  0.00     0.034 A 
ATOM     52  C   UNL     1      -4.397  -0.046 -10.068  1.00  0.00     0.034 A 
ATOM     53  C   UNL     1      -4.578  -6.455 -11.326  1.00  0.00     0.049 A 
ATOM     54  C   UNL     1      -4.618  -0.847 -11.327  1.00  0.00     0.074 A 
ATOM     55  C   UNL     1      -4.850  -7.077 -12.533  1.00  0.00     0.029 A 
ATOM     56  N   UNL     1      -4.614  -5.088 -11.569  1.00  0.00    -0.354 N 
ATOM     57  N   UNL     1      -4.627  -2.151 -11.486  1.00  0.00    -0.248 NA
ATOM     58  C   UNL     1      -4.868  -0.090 -12.561  1.00  0.00     0.031 C 
ATOM     59  C   UNL     1      -4.987  -6.090 -13.515  1.00  0.00     0.029 A 
ATOM     60  C   UNL     1      -4.880  -4.849 -12.909  1.00  0.00     0.049 A 
ATOM     61  H   UNL     1      -4.473  -4.391 -10.889  1.00  0.00     0.167 HD
ATOM     62  C   UNL     1      -4.907  -2.368 -12.833  1.00  0.00     0.074 A 
ATOM     63  C   UNL     1      -5.072  -1.062 -13.438  1.00  0.00     0.031 C 
ATOM     64  C   UNL     1      -5.024  -3.542 -13.507  1.00  0.00     0.034 A 
BRANCH  51  65
ATOM     65  C   UNL     1      -4.268  -8.566  -9.949  1.00  0.00     0.023 A 
ATOM     66  C   UNL     1      -5.205  -9.279  -9.180  1.00  0.00     0.031 A 
ATOM     67  C   UNL     1      -3.278  -9.298 -10.627  1.00  0.00     0.131 A 
ATOM     68  C   UNL     1      -5.099 -10.674  -9.066  1.00  0.00     0.055 A 
ATOM     69  C   UNL     1      -3.221 -10.692 -10.567  1.00  0.00     0.041 A 
ATOM     70  F   UNL     1      -2.343  -8.669 -11.357  1.00  0.00    -0.206 F 
ATOM     71  C   UNL     1      -4.129 -11.387  -9.774  1.00  0.00     0.022 A 
BRANCH  68  72
ATOM     72  S   UNL     1      -6.178 -11.535  -7.889  1.00  0.00     0.124 S 
ATOM     73  O   UNL     1      -5.782 -10.921  -6.624  1.00  0.00    -0.237 OA
ATOM     74  O   UNL     1      -7.510 -11.197  -8.375  1.00  0.00    -0.237 OA
ATOM     75  O   UNL     1      -5.796 -12.938  -8.039  1.00  0.00    -0.744 OA
ENDBRANCH  68  72
ENDBRANCH  51  65
BRANCH  52  76
ATOM     76  C   UNL     1      -4.386   1.444 -10.106  1.00  0.00     0.023 A 
ATOM     77  C   UNL     1      -5.545   2.178 -10.401  1.00  0.00     0.031 A 
ATOM     78  C   UNL     1      -3.195   2.156  -9.872  1.00  0.00     0.131 A 
ATOM     79  C   UNL     1      -5.483   3.579 -10.482  1.00  0.00     0.055 A 
ATOM     80  C   UNL     1      -3.148   3.550  -9.909  1.00  0.00     0.041 A 
ATOM     81  F   UNL     1      -2.059   1.500  -9.586  1.00  0.00    -0.206 F 
ATOM     82  C   UNL     1      -4.296   4.269 -10.225  1.00  0.00     0.022 A 
BRANCH  79  83
ATOM     83  S   UNL     1      -6.970   4.490 -10.981  1.00  0.00     0.124 S 
ATOM     84  O   UNL     1      -7.209   3.960 -12.319  1.00  0.00    -0.237 OA
ATOM     85  O   UNL     1      -7.927   4.096  -9.953  1.00  0.00    -0.237 OA
ATOM     86  O   UNL     1      -6.545   5.888 -10.929  1.00  0.00    -0.744 OA
ENDBRANCH  79  83
ENDBRANCH  52  76
BRANCH  64  87
ATOM     87  C   UNL     1      -5.383  -3.465 -14.971  1.00  0.00     0.023 A 
ATOM     88  C   UNL     1      -4.497  -2.937 -15.925  1.00  0.00     0.031 A 
ATOM     89  C   UNL     1      -6.633  -3.933 -15.416  1.00  0.00     0.131 A 
ATOM     90  C   UNL     1      -4.892  -2.842 -17.268  1.00  0.00     0.055 A 
ATOM     91  C   UNL     1      -6.998  -3.889 -16.762  1.00  0.00     0.041 A 
ATOM     92  F   UNL     1      -7.519  -4.447 -14.548  1.00  0.00    -0.206 F 
ATOM     93  C   UNL     1      -6.130  -3.330 -17.695  1.00  0.00     0.022 A 
BRANCH  90  94
ATOM     94  S   UNL     1      -3.798  -1.994 -18.441  1.00  0.00     0.124 S 
ATOM     95  O   UNL     1      -3.675  -0.670 -17.839  1.00  0.00    -0.237 OA
ATOM     96  O   UNL     1      -2.599  -2.824 -18.406  1.00  0.00    -0.237 OA
ATOM     97  O   UNL     1      -4.543  -2.036 -19.698  1.00  0.00    -0.744 OA
ENDBRANCH  90  94
ENDBRANCH  64  87
ENDBRANCH  38  39
ENDBRANCH  31  33
ENDBRANCH  30  31
ENDBRANCH  29  30
ENDBRANCH  28  29
ENDBRANCH   1  28
TORSDOF 20
