REMARK SMILES COc1ccc2c(C[NH2+]Cc3cccs3)c(C(=O)OCCOCCOC(=O)c3ccc(-c4c5nc(c(-c6cc(S(=O)(=O)[O-])ccc6F)c6ccc([nH]6)c(-c6cc(S(=O)(=O)[O-])ccc6F)c6nc(c(-c7cc(S(=O)(=O)[O-])ccc7F)c7ccc4[nH]7)C=C6)C=C5)cc3)[nH]c2c1
REMARK SMILES IDX 21 1 20 2 19 3 17 4 18 5 16 6 3 7 4 8 93 9 5 10 92 11 6 12
REMARK SMILES IDX 91 13 7 14 2 16 1 17 8 18 9 19 10 22 11 23 12 24 15 25 13 26
REMARK SMILES IDX 14 27 22 28 23 29 24 30 25 31 26 32 27 33 28 34 29 35 90 36
REMARK SMILES IDX 30 37 89 38 31 39 32 40 33 41 83 42 34 43 88 44 82 45 84 46
REMARK SMILES IDX 35 47 87 48 81 49 80 50 36 52 68 53 48 54 67 55 49 56 52 57
REMARK SMILES IDX 66 58 85 59 50 60 51 61 65 63 86 64 53 65 37 66 38 67 46 68
REMARK SMILES IDX 39 69 45 70 47 71 44 72 40 73 41 74 42 75 43 76 69 77 70 78
REMARK SMILES IDX 78 79 71 80 77 81 79 82 76 83 72 84 73 85 74 86 75 87 54 88
REMARK SMILES IDX 55 89 63 90 56 91 62 92 64 93 61 94 57 95 58 96 59 97 60 98
REMARK H PARENT 91 15 9 20 9 21 84 51 52 62
REMARK Flexibility Score: inf
ROOT
ATOM      1  C   UNL     1      -1.099 -10.650   0.980  1.00  0.00     0.202 C 
ENDROOT
BRANCH   1   2
ATOM      2  C   UNL     1      -0.928  -9.950   2.330  1.00  0.00     0.261 C 
BRANCH   2   3
ATOM      3  O   UNL     1      -0.774  -8.535   2.139  1.00  0.00    -0.459 OA
BRANCH   3   4
ATOM      4  C   UNL     1       0.300  -7.990   2.770  1.00  0.00     0.355 C 
ATOM      5  O   UNL     1       0.917  -8.507   3.691  1.00  0.00    -0.244 OA
BRANCH   4   6
ATOM      6  C   UNL     1       0.606  -6.717   2.165  1.00  0.00     0.134 A 
ATOM      7  C   UNL     1       0.792  -2.241   1.040  1.00  0.00     0.120 A 
ATOM      8  C   UNL     1       2.072  -2.604   0.626  1.00  0.00     0.047 A 
ATOM      9  C   UNL     1      -0.077  -3.200   1.576  1.00  0.00     0.073 A 
ATOM     10  C   UNL     1       2.500  -3.935   0.711  1.00  0.00     0.015 A 
ATOM     11  C   UNL     1       0.373  -4.523   1.674  1.00  0.00     0.050 A 
ATOM     12  C   UNL     1       1.640  -4.915   1.250  1.00  0.00     0.009 A 
ATOM     13  N   UNL     1      -0.256  -5.645   2.160  1.00  0.00    -0.349 N 
ATOM     14  C   UNL     1       1.759  -6.323   1.488  1.00  0.00     0.046 A 
ATOM     15  H   UNL     1      -1.192  -5.676   2.462  1.00  0.00     0.167 HD
BRANCH   7  16
ATOM     16  O   UNL     1       0.285  -0.968   1.001  1.00  0.00    -0.497 OA
ATOM     17  C   UNL     1       0.914  -0.072   0.093  1.00  0.00     0.278 C 
ENDBRANCH   7  16
BRANCH  14  18
ATOM     18  C   UNL     1       2.910  -7.181   1.056  1.00  0.00     0.300 C 
BRANCH  18  19
ATOM     19  N   UNL     1       3.456  -7.876   2.204  1.00  0.00    -0.338 N 
ATOM     20  H   UNL     1       2.762  -8.543   2.539  1.00  0.00     0.346 HD
ATOM     21  H   UNL     1       3.681  -7.170   2.905  1.00  0.00     0.346 HD
BRANCH  19  22
ATOM     22  C   UNL     1       4.687  -8.598   1.908  1.00  0.00     0.308 C 
BRANCH  22  23
ATOM     23  C   UNL     1       5.885  -7.707   1.699  1.00  0.00     0.059 A 
ATOM     24  C   UNL     1       6.070  -6.371   2.011  1.00  0.00     0.021 A 
ATOM     25  S   UNL     1       7.298  -8.372   0.982  1.00  0.00    -0.143 S 
ATOM     26  C   UNL     1       7.355  -5.891   1.630  1.00  0.00     0.012 A 
ATOM     27  C   UNL     1       8.126  -6.880   1.065  1.00  0.00     0.065 A 
ENDBRANCH  22  23
ENDBRANCH  19  22
ENDBRANCH  18  19
ENDBRANCH  14  18
ENDBRANCH   4   6
ENDBRANCH   3   4
ENDBRANCH   2   3
ENDBRANCH   1   2
BRANCH   1  28
ATOM     28  O   UNL     1       0.025 -10.575   0.099  1.00  0.00    -0.374 OA
BRANCH  28  29
ATOM     29  C   UNL     1       0.205  -9.353  -0.618  1.00  0.00     0.202 C 
BRANCH  29  30
ATOM     30  C   UNL     1      -0.665  -9.153  -1.863  1.00  0.00     0.261 C 
BRANCH  30  31
ATOM     31  O   UNL     1      -2.061  -9.050  -1.536  1.00  0.00    -0.460 OA
BRANCH  31  32
ATOM     32  C   UNL     1      -2.806 -10.118  -1.917  1.00  0.00     0.338 C 
ATOM     33  O   UNL     1      -2.435 -11.074  -2.576  1.00  0.00    -0.246 OA
BRANCH  32  34
ATOM     34  C   UNL     1      -4.124 -10.066  -1.254  1.00  0.00     0.060 A 
ATOM     35  C   UNL     1      -4.557 -11.225  -0.597  1.00  0.00     0.016 A 
ATOM     36  C   UNL     1      -4.942  -8.935  -1.311  1.00  0.00     0.016 A 
ATOM     37  C   UNL     1      -5.830 -11.274  -0.034  1.00  0.00     0.010 A 
ATOM     38  C   UNL     1      -6.225  -8.990  -0.755  1.00  0.00     0.010 A 
ATOM     39  C   UNL     1      -6.685 -10.171  -0.144  1.00  0.00    -0.014 A 
BRANCH  39  40
ATOM     40  C   UNL     1      -8.111 -10.316   0.238  1.00  0.00     0.031 A 
ATOM     41  C   UNL     1      -9.118 -10.621  -0.837  1.00  0.00     0.074 A 
ATOM     42  C   UNL     1      -8.494 -10.213   1.523  1.00  0.00     0.049 A 
ATOM     43  N   UNL     1     -10.414 -10.765  -0.744  1.00  0.00    -0.248 NA
ATOM     44  C   UNL     1      -8.589 -10.784  -2.200  1.00  0.00     0.031 C 
ATOM     45  C   UNL     1      -7.599  -9.965   2.653  1.00  0.00     0.029 A 
ATOM     46  N   UNL     1      -9.739 -10.300   2.094  1.00  0.00    -0.354 N 
ATOM     47  C   UNL     1     -10.858 -11.036  -2.034  1.00  0.00     0.074 A 
ATOM     48  C   UNL     1      -9.695 -11.001  -2.896  1.00  0.00     0.031 C 
ATOM     49  C   UNL     1      -8.328  -9.906   3.781  1.00  0.00     0.029 A 
ATOM     50  C   UNL     1      -9.741 -10.080   3.451  1.00  0.00     0.049 A 
ATOM     51  H   UNL     1     -10.554 -10.502   1.579  1.00  0.00     0.167 HD
ATOM     52  C   UNL     1     -12.119 -11.295  -2.459  1.00  0.00     0.034 A 
ATOM     53  C   UNL     1     -10.770 -10.003   4.320  1.00  0.00     0.034 A 
ATOM     54  C   UNL     1     -13.270 -11.314  -1.591  1.00  0.00     0.049 A 
ATOM     55  C   UNL     1     -12.175 -10.216   3.808  1.00  0.00     0.074 A 
ATOM     56  C   UNL     1     -14.590 -11.576  -1.913  1.00  0.00     0.029 A 
ATOM     57  N   UNL     1     -13.240 -11.048  -0.228  1.00  0.00    -0.354 N 
ATOM     58  N   UNL     1     -12.580 -10.482   2.587  1.00  0.00    -0.248 NA
ATOM     59  C   UNL     1     -13.261 -10.128   4.794  1.00  0.00     0.031 C 
ATOM     60  C   UNL     1     -15.365 -11.405  -0.761  1.00  0.00     0.029 A 
ATOM     61  C   UNL     1     -14.521 -11.107   0.297  1.00  0.00     0.049 A 
ATOM     62  H   UNL     1     -12.427 -10.846   0.289  1.00  0.00     0.167 HD
ATOM     63  C   UNL     1     -13.963 -10.624   2.668  1.00  0.00     0.074 A 
ATOM     64  C   UNL     1     -14.321 -10.426   4.057  1.00  0.00     0.031 C 
ATOM     65  C   UNL     1     -14.859 -10.899   1.685  1.00  0.00     0.034 A 
BRANCH  52  66
ATOM     66  C   UNL     1     -12.318 -11.525  -3.936  1.00  0.00     0.023 A 
ATOM     67  C   UNL     1     -11.780 -12.646  -4.591  1.00  0.00     0.031 A 
ATOM     68  C   UNL     1     -13.040 -10.594  -4.705  1.00  0.00     0.131 A 
ATOM     69  C   UNL     1     -11.922 -12.778  -5.981  1.00  0.00     0.055 A 
ATOM     70  C   UNL     1     -13.237 -10.768  -6.076  1.00  0.00     0.041 A 
ATOM     71  F   UNL     1     -13.556  -9.493  -4.136  1.00  0.00    -0.206 F 
ATOM     72  C   UNL     1     -12.666 -11.858  -6.724  1.00  0.00     0.022 A 
BRANCH  69  73
ATOM     73  S   UNL     1     -11.018 -14.105  -6.826  1.00  0.00     0.124 S 
ATOM     74  O   UNL     1      -9.634 -13.772  -6.502  1.00  0.00    -0.237 OA
ATOM     75  O   UNL     1     -11.553 -15.305  -6.191  1.00  0.00    -0.237 OA
ATOM     76  O   UNL     1     -11.383 -13.928  -8.230  1.00  0.00    -0.744 OA
ENDBRANCH  69  73
ENDBRANCH  52  66
BRANCH  53  77
ATOM     77  C   UNL     1     -10.530  -9.666   5.752  1.00  0.00     0.023 A 
ATOM     78  C   UNL     1     -10.849 -10.571   6.777  1.00  0.00     0.031 A 
ATOM     79  C   UNL     1     -10.042  -8.399   6.120  1.00  0.00     0.131 A 
ATOM     80  C   UNL     1     -10.725 -10.179   8.120  1.00  0.00     0.055 A 
ATOM     81  C   UNL     1      -9.870  -8.033   7.456  1.00  0.00     0.041 A 
ATOM     82  F   UNL     1      -9.722  -7.495   5.180  1.00  0.00    -0.206 F 
ATOM     83  C   UNL     1     -10.227  -8.920   8.466  1.00  0.00     0.022 A 
BRANCH  80  84
ATOM     84  S   UNL     1     -11.316 -11.306   9.412  1.00  0.00     0.124 S 
ATOM     85  O   UNL     1     -12.707 -11.504   9.020  1.00  0.00    -0.237 OA
ATOM     86  O   UNL     1     -10.431 -12.453   9.240  1.00  0.00    -0.237 OA
ATOM     87  O   UNL     1     -11.116 -10.546  10.644  1.00  0.00    -0.744 OA
ENDBRANCH  80  84
ENDBRANCH  53  77
BRANCH  65  88
ATOM     88  C   UNL     1     -16.303 -11.049   2.096  1.00  0.00     0.023 A 
ATOM     89  C   UNL     1     -17.060  -9.957   2.553  1.00  0.00     0.031 A 
ATOM     90  C   UNL     1     -16.926 -12.309   2.035  1.00  0.00     0.131 A 
ATOM     91  C   UNL     1     -18.382 -10.155   2.981  1.00  0.00     0.055 A 
ATOM     92  C   UNL     1     -18.258 -12.489   2.410  1.00  0.00     0.041 A 
ATOM     93  F   UNL     1     -16.248 -13.386   1.607  1.00  0.00    -0.206 F 
ATOM     94  C   UNL     1     -18.990 -11.410   2.899  1.00  0.00     0.022 A 
BRANCH  91  95
ATOM     95  S   UNL     1     -19.274  -8.763   3.728  1.00  0.00     0.124 S 
ATOM     96  O   UNL     1     -18.415  -8.422   4.858  1.00  0.00    -0.237 OA
ATOM     97  O   UNL     1     -19.307  -7.793   2.638  1.00  0.00    -0.237 OA
ATOM     98  O   UNL     1     -20.570  -9.337   4.085  1.00  0.00    -0.744 OA
ENDBRANCH  91  95
ENDBRANCH  65  88
ENDBRANCH  39  40
ENDBRANCH  32  34
ENDBRANCH  31  32
ENDBRANCH  30  31
ENDBRANCH  29  30
ENDBRANCH  28  29
ENDBRANCH   1  28
TORSDOF 22
