REMARK SMILES COc1ccc([C@H](C(=O)OCCOCCOC(=O)c2ccc(-c3c4nc(c(-c5cc(S(=O)(=O)[O-])ccc5F)c5ccc([nH]5)c(-c5cc(S(=O)(=O)[O-])ccc5F)c5nc(c(-c6cc(S(=O)(=O)[O-])ccc6F)c6ccc3[nH]6)C=C5)C=C4)cc2)c2ccc(O)nn2)cc1
REMARK SMILES IDX 14 1 13 2 12 3 11 4 10 5 8 6 9 7 7 8 6 9 3 10 4 11 90 12
REMARK SMILES IDX 5 13 89 14 2 15 1 16 82 17 83 18 88 19 84 20 87 21 85 22
REMARK SMILES IDX 86 23 15 25 16 26 17 27 18 28 19 29 20 30 81 31 21 32 80 33
REMARK SMILES IDX 22 34 23 35 24 36 74 37 25 38 79 39 73 40 75 41 26 42 78 43
REMARK SMILES IDX 72 44 71 45 27 47 59 48 39 49 58 50 40 51 43 52 57 53 76 54
REMARK SMILES IDX 41 55 42 56 56 58 77 59 44 60 28 61 29 62 37 63 30 64 36 65
REMARK SMILES IDX 38 66 35 67 31 68 32 69 33 70 34 71 60 72 61 73 69 74 62 75
REMARK SMILES IDX 68 76 70 77 67 78 63 79 64 80 65 81 66 82 45 83 46 84 54 85
REMARK SMILES IDX 47 86 53 87 55 88 52 89 48 90 49 91 50 92 51 93
REMARK H PARENT 86 24 75 46 43 57
REMARK Flexibility Score: inf
ROOT
ATOM      1  C   UNL     1       2.018  -0.725   3.739  1.00  0.00     0.202 C 
ENDROOT
BRANCH   1   2
ATOM      2  O   UNL     1       1.212  -0.357   2.619  1.00  0.00    -0.374 OA
BRANCH   2   3
ATOM      3  C   UNL     1       1.484   0.886   1.975  1.00  0.00     0.202 C 
BRANCH   3   4
ATOM      4  C   UNL     1       1.017   2.147   2.703  1.00  0.00     0.261 C 
BRANCH   4   5
ATOM      5  O   UNL     1       1.629   2.256   3.996  1.00  0.00    -0.462 OA
BRANCH   5   6
ATOM      6  C   UNL     1       0.772   2.224   5.058  1.00  0.00     0.319 C 
ATOM      7  O   UNL     1      -0.450   2.274   4.970  1.00  0.00    -0.251 OA
BRANCH   6   8
ATOM      8  C   UNL     1       1.550   2.174   6.378  1.00  0.00     0.180 C 
BRANCH   8   9
ATOM      9  C   UNL     1       1.775   3.563   6.976  1.00  0.00    -0.027 A 
ATOM     10  C   UNL     1       2.057   6.138   8.095  1.00  0.00     0.118 A 
ATOM     11  C   UNL     1       2.302   5.003   8.867  1.00  0.00     0.047 A 
ATOM     12  C   UNL     1       1.773   5.993   6.742  1.00  0.00     0.047 A 
ATOM     13  C   UNL     1       2.172   3.725   8.313  1.00  0.00     0.009 A 
ATOM     14  C   UNL     1       1.638   4.720   6.189  1.00  0.00     0.009 A 
BRANCH  10  15
ATOM     15  O   UNL     1       2.140   7.338   8.746  1.00  0.00    -0.497 OA
ATOM     16  C   UNL     1       1.344   8.378   8.179  1.00  0.00     0.278 C 
ENDBRANCH  10  15
ENDBRANCH   8   9
BRANCH   8  17
ATOM     17  C   UNL     1       0.819   1.173   7.265  1.00  0.00     0.082 A 
ATOM     18  C   UNL     1      -0.326   1.513   7.986  1.00  0.00     0.032 A 
ATOM     19  N   UNL     1       1.241  -0.118   7.199  1.00  0.00    -0.151 NA
ATOM     20  C   UNL     1      -1.048   0.510   8.618  1.00  0.00     0.072 A 
ATOM     21  N   UNL     1       0.524  -1.106   7.809  1.00  0.00    -0.112 NA
ATOM     22  C   UNL     1      -0.592  -0.777   8.481  1.00  0.00     0.230 A 
BRANCH  22  23
ATOM     23  O   UNL     1      -1.293  -1.817   9.005  1.00  0.00    -0.492 OA
ATOM     24  H   UNL     1      -2.082  -1.656   9.486  1.00  0.00     0.295 HD
ENDBRANCH  22  23
ENDBRANCH   8  17
ENDBRANCH   6   8
ENDBRANCH   5   6
ENDBRANCH   4   5
ENDBRANCH   3   4
ENDBRANCH   2   3
ENDBRANCH   1   2
BRANCH   1  25
ATOM     25  C   UNL     1       3.469  -1.143   3.466  1.00  0.00     0.261 C 
BRANCH  25  26
ATOM     26  O   UNL     1       4.289  -0.061   2.988  1.00  0.00    -0.460 OA
BRANCH  26  27
ATOM     27  C   UNL     1       4.673  -0.171   1.694  1.00  0.00     0.338 C 
ATOM     28  O   UNL     1       4.399  -1.082   0.921  1.00  0.00    -0.246 OA
BRANCH  27  29
ATOM     29  C   UNL     1       5.343   1.064   1.250  1.00  0.00     0.060 A 
ATOM     30  C   UNL     1       4.835   1.718   0.120  1.00  0.00     0.016 A 
ATOM     31  C   UNL     1       6.514   1.512   1.863  1.00  0.00     0.016 A 
ATOM     32  C   UNL     1       5.523   2.797  -0.433  1.00  0.00     0.010 A 
ATOM     33  C   UNL     1       7.210   2.586   1.299  1.00  0.00     0.010 A 
ATOM     34  C   UNL     1       6.738   3.209   0.128  1.00  0.00    -0.014 A 
BRANCH  34  35
ATOM     35  C   UNL     1       7.610   4.162  -0.602  1.00  0.00     0.031 A 
ATOM     36  C   UNL     1       8.754   3.613  -1.411  1.00  0.00     0.074 A 
ATOM     37  C   UNL     1       7.392   5.488  -0.547  1.00  0.00     0.049 A 
ATOM     38  N   UNL     1       9.720   4.245  -2.023  1.00  0.00    -0.248 NA
ATOM     39  C   UNL     1       8.814   2.148  -1.539  1.00  0.00     0.031 C 
ATOM     40  C   UNL     1       6.278   6.131   0.147  1.00  0.00     0.029 A 
ATOM     41  N   UNL     1       8.109   6.533  -1.074  1.00  0.00    -0.354 N 
ATOM     42  C   UNL     1      10.512   3.257  -2.600  1.00  0.00     0.074 A 
ATOM     43  C   UNL     1       9.926   1.984  -2.238  1.00  0.00     0.031 C 
ATOM     44  C   UNL     1       6.399   7.464   0.022  1.00  0.00     0.029 A 
ATOM     45  C   UNL     1       7.622   7.769  -0.718  1.00  0.00     0.049 A 
ATOM     46  H   UNL     1       8.896   6.409  -1.652  1.00  0.00     0.167 HD
ATOM     47  C   UNL     1      11.623   3.401  -3.363  1.00  0.00     0.034 A 
ATOM     48  C   UNL     1       8.130   9.001  -0.932  1.00  0.00     0.034 A 
ATOM     49  C   UNL     1      12.199   4.679  -3.703  1.00  0.00     0.049 A 
ATOM     50  C   UNL     1       9.427   9.136  -1.696  1.00  0.00     0.074 A 
ATOM     51  C   UNL     1      13.325   4.944  -4.464  1.00  0.00     0.029 A 
ATOM     52  N   UNL     1      11.698   5.909  -3.294  1.00  0.00    -0.354 N 
ATOM     53  N   UNL     1      10.180   8.195  -2.220  1.00  0.00    -0.248 NA
ATOM     54  C   UNL     1       9.942  10.497  -1.900  1.00  0.00     0.031 C 
ATOM     55  C   UNL     1      13.541   6.326  -4.459  1.00  0.00     0.029 A 
ATOM     56  C   UNL     1      12.507   6.931  -3.763  1.00  0.00     0.049 A 
ATOM     57  H   UNL     1      10.887   6.035  -2.750  1.00  0.00     0.167 HD
ATOM     58  C   UNL     1      11.232   8.856  -2.850  1.00  0.00     0.074 A 
ATOM     59  C   UNL     1      11.019  10.272  -2.639  1.00  0.00     0.031 C 
ATOM     60  C   UNL     1      12.274   8.340  -3.550  1.00  0.00     0.034 A 
BRANCH  47  61
ATOM     61  C   UNL     1      12.314   2.143  -3.827  1.00  0.00     0.023 A 
ATOM     62  C   UNL     1      11.696   1.240  -4.710  1.00  0.00     0.031 A 
ATOM     63  C   UNL     1      13.600   1.825  -3.355  1.00  0.00     0.131 A 
ATOM     64  C   UNL     1      12.335   0.035  -5.039  1.00  0.00     0.055 A 
ATOM     65  C   UNL     1      14.263   0.661  -3.748  1.00  0.00     0.041 A 
ATOM     66  F   UNL     1      14.231   2.637  -2.491  1.00  0.00    -0.206 F 
ATOM     67  C   UNL     1      13.624  -0.250  -4.583  1.00  0.00     0.022 A 
BRANCH  64  68
ATOM     68  S   UNL     1      11.400  -1.219  -5.959  1.00  0.00     0.124 S 
ATOM     69  O   UNL     1      10.269  -1.457  -5.066  1.00  0.00    -0.237 OA
ATOM     70  O   UNL     1      11.095  -0.531  -7.208  1.00  0.00    -0.237 OA
ATOM     71  O   UNL     1      12.340  -2.332  -6.072  1.00  0.00    -0.744 OA
ENDBRANCH  64  68
ENDBRANCH  47  61
BRANCH  48  72
ATOM     72  C   UNL     1       7.451  10.207  -0.376  1.00  0.00     0.023 A 
ATOM     73  C   UNL     1       6.940  11.206  -1.218  1.00  0.00     0.031 A 
ATOM     74  C   UNL     1       7.358  10.406   1.014  1.00  0.00     0.131 A 
ATOM     75  C   UNL     1       6.403  12.380  -0.666  1.00  0.00     0.055 A 
ATOM     76  C   UNL     1       6.774  11.551   1.559  1.00  0.00     0.041 A 
ATOM     77  F   UNL     1       7.833   9.484   1.867  1.00  0.00    -0.206 F 
ATOM     78  C   UNL     1       6.305  12.553   0.716  1.00  0.00     0.022 A 
BRANCH  75  79
ATOM     79  S   UNL     1       5.918  13.723  -1.785  1.00  0.00     0.124 S 
ATOM     80  O   UNL     1       7.167  13.986  -2.491  1.00  0.00    -0.237 OA
ATOM     81  O   UNL     1       4.857  13.095  -2.567  1.00  0.00    -0.237 OA
ATOM     82  O   UNL     1       5.478  14.780  -0.877  1.00  0.00    -0.744 OA
ENDBRANCH  75  79
ENDBRANCH  48  72
BRANCH  60  83
ATOM     83  C   UNL     1      13.223   9.315  -4.204  1.00  0.00     0.023 A 
ATOM     84  C   UNL     1      14.105  10.114  -3.458  1.00  0.00     0.031 A 
ATOM     85  C   UNL     1      13.255   9.421  -5.606  1.00  0.00     0.131 A 
ATOM     86  C   UNL     1      14.958  11.012  -4.118  1.00  0.00     0.055 A 
ATOM     87  C   UNL     1      14.141  10.278  -6.259  1.00  0.00     0.041 A 
ATOM     88  F   UNL     1      12.432   8.679  -6.366  1.00  0.00    -0.206 F 
ATOM     89  C   UNL     1      14.993  11.086  -5.513  1.00  0.00     0.022 A 
BRANCH  86  90
ATOM     90  S   UNL     1      15.987  12.130  -3.127  1.00  0.00     0.124 S 
ATOM     91  O   UNL     1      14.984  12.893  -2.390  1.00  0.00    -0.237 OA
ATOM     92  O   UNL     1      16.789  11.201  -2.337  1.00  0.00    -0.237 OA
ATOM     93  O   UNL     1      16.731  12.891  -4.129  1.00  0.00    -0.744 OA
ENDBRANCH  86  90
ENDBRANCH  60  83
ENDBRANCH  34  35
ENDBRANCH  27  29
ENDBRANCH  26  27
ENDBRANCH  25  26
ENDBRANCH   1  25
TORSDOF 21
