REMARK SMILES CS(=O)(=O)c1ccc(/C=C(/C(=O)OCCOCCOC(=O)c2ccc(-c3c4nc(c(-c5cc(S(=O)(=O)[O-])ccc5F)c5ccc([nH]5)c(-c5cc(S(=O)(=O)[O-])ccc5F)c5nc(c(-c6cc(S(=O)(=O)[O-])ccc6F)c6ccc3[nH]6)C=C5)C=C4)cc2)c2ccccc2)cc1
REMARK SMILES IDX 17 1 16 2 15 3 14 4 13 5 11 6 12 7 10 8 9 9 8 10 5 11 6 12
REMARK SMILES IDX 92 13 7 14 91 15 2 16 1 17 3 18 4 19 85 20 86 21 90 22 87 23
REMARK SMILES IDX 89 24 88 25 18 26 19 27 20 28 21 29 22 30 23 31 84 32 24 33
REMARK SMILES IDX 83 34 25 35 26 36 27 37 77 38 28 39 82 40 76 41 78 42 29 43
REMARK SMILES IDX 81 44 75 45 74 46 30 48 62 49 42 50 61 51 43 52 46 53 60 54
REMARK SMILES IDX 79 55 44 56 45 57 59 59 80 60 47 61 31 62 32 63 40 64 33 65
REMARK SMILES IDX 39 66 41 67 38 68 34 69 35 70 36 71 37 72 63 73 64 74 72 75
REMARK SMILES IDX 65 76 71 77 73 78 70 79 66 80 67 81 68 82 69 83 48 84 49 85
REMARK SMILES IDX 57 86 50 87 56 88 58 89 55 90 51 91 52 92 53 93 54 94
REMARK H PARENT 78 47 46 58
REMARK Flexibility Score: inf
ROOT
ATOM      1  C   UNL     1       0.173  -7.427   7.281  1.00  0.00     0.202 C 
ENDROOT
BRANCH   1   2
ATOM      2  O   UNL     1       1.105  -8.217   8.012  1.00  0.00    -0.374 OA
BRANCH   2   3
ATOM      3  C   UNL     1       2.094  -7.526   8.779  1.00  0.00     0.202 C 
BRANCH   3   4
ATOM      4  C   UNL     1       3.228  -6.855   7.997  1.00  0.00     0.261 C 
BRANCH   4   5
ATOM      5  O   UNL     1       2.733  -5.784   7.170  1.00  0.00    -0.460 OA
BRANCH   5   6
ATOM      6  C   UNL     1       2.988  -5.918   5.844  1.00  0.00     0.338 C 
ATOM      7  O   UNL     1       3.725  -6.755   5.340  1.00  0.00    -0.246 OA
BRANCH   6   8
ATOM      8  C   UNL     1       2.156  -4.985   5.016  1.00  0.00     0.067 C 
ATOM      9  C   UNL     1       1.922  -3.719   5.437  1.00  0.00     0.024 C 
BRANCH   9  10
ATOM     10  C   UNL     1       1.343  -2.594   4.659  1.00  0.00    -0.025 A 
ATOM     11  C   UNL     1       0.656  -0.453   2.973  1.00  0.00     0.067 A 
ATOM     12  C   UNL     1       0.032  -1.688   2.812  1.00  0.00     0.021 A 
ATOM     13  C   UNL     1       1.526  -0.237   4.040  1.00  0.00     0.021 A 
ATOM     14  C   UNL     1       0.358  -2.740   3.672  1.00  0.00     0.009 A 
ATOM     15  C   UNL     1       1.865  -1.308   4.877  1.00  0.00     0.009 A 
BRANCH  11  16
ATOM     16  S   UNL     1       0.355   0.818   1.772  1.00  0.00     0.175 S 
ATOM     17  C   UNL     1       1.140   0.191   0.306  1.00  0.00     0.163 C 
ATOM     18  O   UNL     1       1.094   2.005   2.182  1.00  0.00    -0.224 OA
ATOM     19  O   UNL     1      -1.068   0.870   1.539  1.00  0.00    -0.224 OA
ENDBRANCH  11  16
ENDBRANCH   9  10
BRANCH   8  20
ATOM     20  C   UNL     1       1.705  -5.506   3.711  1.00  0.00    -0.011 A 
ATOM     21  C   UNL     1       0.534  -6.280   3.640  1.00  0.00     0.009 A 
ATOM     22  C   UNL     1       2.397  -5.205   2.534  1.00  0.00     0.009 A 
ATOM     23  C   UNL     1       0.050  -6.721   2.410  1.00  0.00     0.001 A 
ATOM     24  C   UNL     1       1.909  -5.646   1.304  1.00  0.00     0.001 A 
ATOM     25  C   UNL     1       0.734  -6.398   1.242  1.00  0.00     0.000 A 
ENDBRANCH   8  20
ENDBRANCH   6   8
ENDBRANCH   5   6
ENDBRANCH   4   5
ENDBRANCH   3   4
ENDBRANCH   2   3
ENDBRANCH   1   2
BRANCH   1  26
ATOM     26  C   UNL     1      -0.997  -6.797   8.046  1.00  0.00     0.261 C 
BRANCH  26  27
ATOM     27  O   UNL     1      -0.577  -6.003   9.163  1.00  0.00    -0.460 OA
BRANCH  27  28
ATOM     28  C   UNL     1      -0.729  -6.627  10.357  1.00  0.00     0.338 C 
ATOM     29  O   UNL     1      -1.248  -7.717  10.550  1.00  0.00    -0.246 OA
BRANCH  28  30
ATOM     30  C   UNL     1      -0.011  -5.894  11.415  1.00  0.00     0.060 A 
ATOM     31  C   UNL     1       0.816  -6.648  12.257  1.00  0.00     0.016 A 
ATOM     32  C   UNL     1      -0.190  -4.525  11.632  1.00  0.00     0.016 A 
ATOM     33  C   UNL     1       1.405  -6.053  13.366  1.00  0.00     0.010 A 
ATOM     34  C   UNL     1       0.402  -3.929  12.752  1.00  0.00     0.010 A 
ATOM     35  C   UNL     1       1.160  -4.703  13.649  1.00  0.00    -0.014 A 
BRANCH  35  36
ATOM     36  C   UNL     1       1.543  -4.181  14.985  1.00  0.00     0.031 A 
ATOM     37  C   UNL     1       0.486  -4.093  16.055  1.00  0.00     0.074 A 
ATOM     38  C   UNL     1       2.823  -3.877  15.264  1.00  0.00     0.049 A 
ATOM     39  N   UNL     1       0.597  -3.728  17.305  1.00  0.00    -0.248 NA
ATOM     40  C   UNL     1      -0.879  -4.468  15.656  1.00  0.00     0.031 C 
ATOM     41  C   UNL     1       3.934  -3.965  14.318  1.00  0.00     0.029 A 
ATOM     42  N   UNL     1       3.405  -3.447  16.428  1.00  0.00    -0.354 N 
ATOM     43  C   UNL     1      -0.681  -3.833  17.845  1.00  0.00     0.074 A 
ATOM     44  C   UNL     1      -1.558  -4.247  16.770  1.00  0.00     0.031 C 
ATOM     45  C   UNL     1       5.068  -3.603  14.943  1.00  0.00     0.029 A 
ATOM     46  C   UNL     1       4.759  -3.233  16.323  1.00  0.00     0.049 A 
ATOM     47  H   UNL     1       2.900  -3.304  17.262  1.00  0.00     0.167 HD
ATOM     48  C   UNL     1      -1.084  -3.619  19.122  1.00  0.00     0.034 A 
ATOM     49  C   UNL     1       5.643  -2.782  17.235  1.00  0.00     0.034 A 
ATOM     50  C   UNL     1      -0.198  -3.195  20.180  1.00  0.00     0.049 A 
ATOM     51  C   UNL     1       5.159  -2.484  18.634  1.00  0.00     0.074 A 
ATOM     52  C   UNL     1      -0.494  -2.951  21.509  1.00  0.00     0.029 A 
ATOM     53  N   UNL     1       1.159  -2.941  20.024  1.00  0.00    -0.354 N 
ATOM     54  N   UNL     1       3.950  -2.600  19.136  1.00  0.00    -0.248 NA
ATOM     55  C   UNL     1       6.165  -2.012  19.594  1.00  0.00     0.031 C 
ATOM     56  C   UNL     1       0.664  -2.483  22.139  1.00  0.00     0.029 A 
ATOM     57  C   UNL     1       1.706  -2.513  21.225  1.00  0.00     0.049 A 
ATOM     58  H   UNL     1       1.661  -3.048  19.184  1.00  0.00     0.167 HD
ATOM     59  C   UNL     1       4.060  -2.247  20.479  1.00  0.00     0.074 A 
ATOM     60  C   UNL     1       5.456  -1.933  20.709  1.00  0.00     0.031 C 
ATOM     61  C   UNL     1       3.098  -2.190  21.437  1.00  0.00     0.034 A 
BRANCH  48  62
ATOM     62  C   UNL     1      -2.555  -3.792  19.422  1.00  0.00     0.023 A 
ATOM     63  C   UNL     1      -3.199  -5.036  19.291  1.00  0.00     0.031 A 
ATOM     64  C   UNL     1      -3.335  -2.686  19.803  1.00  0.00     0.131 A 
ATOM     65  C   UNL     1      -4.588  -5.128  19.468  1.00  0.00     0.055 A 
ATOM     66  C   UNL     1      -4.703  -2.801  20.057  1.00  0.00     0.041 A 
ATOM     67  F   UNL     1      -2.783  -1.468  19.920  1.00  0.00    -0.206 F 
ATOM     68  C   UNL     1      -5.341  -4.024  19.875  1.00  0.00     0.022 A 
BRANCH  65  69
ATOM     69  S   UNL     1      -5.421  -6.675  19.014  1.00  0.00     0.124 S 
ATOM     70  O   UNL     1      -5.057  -6.803  17.605  1.00  0.00    -0.237 OA
ATOM     71  O   UNL     1      -4.812  -7.640  19.922  1.00  0.00    -0.237 OA
ATOM     72  O   UNL     1      -6.833  -6.389  19.261  1.00  0.00    -0.744 OA
ENDBRANCH  65  69
ENDBRANCH  48  62
BRANCH  49  73
ATOM     73  C   UNL     1       7.069  -2.558  16.859  1.00  0.00     0.023 A 
ATOM     74  C   UNL     1       8.108  -3.284  17.463  1.00  0.00     0.031 A 
ATOM     75  C   UNL     1       7.416  -1.565  15.925  1.00  0.00     0.131 A 
ATOM     76  C   UNL     1       9.444  -2.974  17.163  1.00  0.00     0.055 A 
ATOM     77  C   UNL     1       8.744  -1.297  15.591  1.00  0.00     0.041 A 
ATOM     78  F   UNL     1       6.462  -0.841  15.317  1.00  0.00    -0.206 F 
ATOM     79  C   UNL     1       9.768  -1.994  16.222  1.00  0.00     0.022 A 
BRANCH  76  80
ATOM     80  S   UNL     1      10.760  -3.813  18.088  1.00  0.00     0.124 S 
ATOM     81  O   UNL     1      10.431  -3.456  19.463  1.00  0.00    -0.237 OA
ATOM     82  O   UNL     1      10.547  -5.208  17.718  1.00  0.00    -0.237 OA
ATOM     83  O   UNL     1      11.983  -3.211  17.561  1.00  0.00    -0.744 OA
ENDBRANCH  76  80
ENDBRANCH  49  73
BRANCH  61  84
ATOM     84  C   UNL     1       3.544  -1.816  22.832  1.00  0.00     0.023 A 
ATOM     85  C   UNL     1       4.069  -0.545  23.127  1.00  0.00     0.031 A 
ATOM     86  C   UNL     1       3.469  -2.757  23.874  1.00  0.00     0.131 A 
ATOM     87  C   UNL     1       4.565  -0.275  24.412  1.00  0.00     0.055 A 
ATOM     88  C   UNL     1       3.900  -2.459  25.168  1.00  0.00     0.041 A 
ATOM     89  F   UNL     1       2.977  -3.987  23.651  1.00  0.00    -0.206 F 
ATOM     90  C   UNL     1       4.469  -1.218  25.438  1.00  0.00     0.022 A 
BRANCH  87  91
ATOM     91  S   UNL     1       5.449   1.284  24.692  1.00  0.00     0.124 S 
ATOM     92  O   UNL     1       6.497   1.226  23.678  1.00  0.00    -0.237 OA
ATOM     93  O   UNL     1       4.404   2.278  24.473  1.00  0.00    -0.237 OA
ATOM     94  O   UNL     1       5.916   1.170  26.073  1.00  0.00    -0.744 OA
ENDBRANCH  87  91
ENDBRANCH  61  84
ENDBRANCH  35  36
ENDBRANCH  28  30
ENDBRANCH  27  28
ENDBRANCH  26  27
ENDBRANCH   1  26
TORSDOF 20
