REMARK SMILES CCNC(=O)N1[C@@H](C(=O)OCCOCCOC(=O)c2ccc(-c3c4nc(c(-c5cc(S(=O)(=O)[O-])ccc5F)c5ccc([nH]5)c(-c5cc(S(=O)(=O)[O-])ccc5F)c5nc(c(-c6cc(S(=O)(=O)[O-])ccc6F)c6ccc3[nH]6)C=C5)C=C4)cc2)CC[C@@H]2CCCC[C@H]21
REMARK SMILES IDX 14 1 13 2 12 3 11 4 10 5 8 6 9 7 7 8 6 9 89 10 82 11 84 12
REMARK SMILES IDX 88 13 83 14 85 15 87 16 86 17 4 18 3 19 5 21 2 22 1 23 15 24
REMARK SMILES IDX 16 25 17 26 18 27 19 28 20 29 81 30 21 31 80 32 22 33 23 34
REMARK SMILES IDX 24 35 74 36 25 37 79 38 73 39 75 40 26 41 78 42 72 43 71 44
REMARK SMILES IDX 27 46 59 47 39 48 58 49 40 50 43 51 57 52 76 53 41 54 42 55
REMARK SMILES IDX 56 57 77 58 44 59 28 60 29 61 37 62 30 63 36 64 38 65 35 66
REMARK SMILES IDX 31 67 32 68 33 69 34 70 60 71 61 72 69 73 62 74 68 75 70 76
REMARK SMILES IDX 67 77 63 78 64 79 65 80 66 81 45 82 46 83 54 84 47 85 53 86
REMARK SMILES IDX 55 87 52 88 48 89 49 90 50 91 51 92
REMARK H PARENT 3 20 75 45 43 56
REMARK Flexibility Score: inf
ROOT
ATOM      1  C   UNL     1      -2.185   1.429   4.995  1.00  0.00     0.202 C 
ENDROOT
BRANCH   1   2
ATOM      2  O   UNL     1      -0.841   1.035   5.268  1.00  0.00    -0.374 OA
BRANCH   2   3
ATOM      3  C   UNL     1       0.185   1.993   5.013  1.00  0.00     0.202 C 
BRANCH   3   4
ATOM      4  C   UNL     1       0.681   2.094   3.571  1.00  0.00     0.261 C 
BRANCH   4   5
ATOM      5  O   UNL     1      -0.301   2.660   2.688  1.00  0.00    -0.462 OA
BRANCH   5   6
ATOM      6  C   UNL     1      -1.065   1.768   2.001  1.00  0.00     0.329 C 
ATOM      7  O   UNL     1      -1.042   0.551   2.154  1.00  0.00    -0.250 OA
BRANCH   6   8
ATOM      8  C   UNL     1      -1.972   2.463   0.982  1.00  0.00     0.197 C 
ATOM      9  N   UNL     1      -1.394   2.911  -0.304  1.00  0.00    -0.308 N 
ATOM     10  C   UNL     1      -2.381   3.500  -1.237  1.00  0.00     0.091 C 
ATOM     11  C   UNL     1      -2.801   3.562   1.661  1.00  0.00     0.038 C 
ATOM     12  C   UNL     1      -3.321   4.541  -0.575  1.00  0.00     0.012 C 
ATOM     13  C   UNL     1      -1.806   4.095  -2.538  1.00  0.00     0.025 C 
ATOM     14  C   UNL     1      -3.916   4.015   0.732  1.00  0.00     0.008 C 
ATOM     15  C   UNL     1      -4.455   4.924  -1.540  1.00  0.00     0.006 C 
ATOM     16  C   UNL     1      -2.919   4.504  -3.503  1.00  0.00     0.002 C 
ATOM     17  C   UNL     1      -3.911   5.468  -2.856  1.00  0.00     0.000 C 
BRANCH   9  18
ATOM     18  C   UNL     1      -0.072   3.294  -0.351  1.00  0.00     0.318 C 
ATOM     19  N   UNL     1       0.870   2.308  -0.261  1.00  0.00    -0.338 N 
ATOM     20  H   UNL     1       1.800   2.629  -0.277  1.00  0.00     0.165 HD
ATOM     21  O   UNL     1       0.299   4.444  -0.564  1.00  0.00    -0.249 OA
BRANCH  19  22
ATOM     22  C   UNL     1       0.728   0.865  -0.146  1.00  0.00     0.114 C 
ATOM     23  C   UNL     1       1.623   0.086  -1.087  1.00  0.00     0.027 C 
ENDBRANCH  19  22
ENDBRANCH   9  18
ENDBRANCH   6   8
ENDBRANCH   5   6
ENDBRANCH   4   5
ENDBRANCH   3   4
ENDBRANCH   2   3
ENDBRANCH   1   2
BRANCH   1  24
ATOM     24  C   UNL     1      -2.881   2.293   6.048  1.00  0.00     0.261 C 
BRANCH  24  25
ATOM     25  O   UNL     1      -2.312   3.613   6.103  1.00  0.00    -0.460 OA
BRANCH  25  26
ATOM     26  C   UNL     1      -1.505   3.820   7.169  1.00  0.00     0.338 C 
ATOM     27  O   UNL     1      -1.311   3.041   8.097  1.00  0.00    -0.246 OA
BRANCH  26  28
ATOM     28  C   UNL     1      -0.700   5.041   6.985  1.00  0.00     0.060 A 
ATOM     29  C   UNL     1       0.660   4.956   7.314  1.00  0.00     0.016 A 
ATOM     30  C   UNL     1      -1.259   6.257   6.584  1.00  0.00     0.016 A 
ATOM     31  C   UNL     1       1.442   6.104   7.349  1.00  0.00     0.010 A 
ATOM     32  C   UNL     1      -0.472   7.414   6.626  1.00  0.00     0.010 A 
ATOM     33  C   UNL     1       0.861   7.347   7.073  1.00  0.00    -0.014 A 
BRANCH  33  34
ATOM     34  C   UNL     1       1.575   8.572   7.509  1.00  0.00     0.031 A 
ATOM     35  C   UNL     1       1.178   9.192   8.824  1.00  0.00     0.074 A 
ATOM     36  C   UNL     1       2.603   9.069   6.800  1.00  0.00     0.049 A 
ATOM     37  N   UNL     1       1.639  10.262   9.415  1.00  0.00    -0.248 NA
ATOM     38  C   UNL     1       0.111   8.506   9.571  1.00  0.00     0.031 C 
ATOM     39  C   UNL     1       3.116   8.509   5.551  1.00  0.00     0.029 A 
ATOM     40  N   UNL     1       3.402  10.158   7.037  1.00  0.00    -0.354 N 
ATOM     41  C   UNL     1       0.914  10.384  10.597  1.00  0.00     0.074 A 
ATOM     42  C   UNL     1      -0.045   9.302  10.617  1.00  0.00     0.031 C 
ATOM     43  C   UNL     1       4.144   9.264   5.127  1.00  0.00     0.029 A 
ATOM     44  C   UNL     1       4.336  10.380   6.052  1.00  0.00     0.049 A 
ATOM     45  H   UNL     1       3.316  10.727   7.835  1.00  0.00     0.167 HD
ATOM     46  C   UNL     1       1.045  11.307  11.581  1.00  0.00     0.034 A 
ATOM     47  C   UNL     1       5.225  11.383   5.908  1.00  0.00     0.034 A 
ATOM     48  C   UNL     1       2.005  12.383  11.539  1.00  0.00     0.049 A 
ATOM     49  C   UNL     1       5.298  12.450   6.975  1.00  0.00     0.074 A 
ATOM     50  C   UNL     1       2.224  13.382  12.470  1.00  0.00     0.029 A 
ATOM     51  N   UNL     1       2.905  12.603  10.502  1.00  0.00    -0.354 N 
ATOM     52  N   UNL     1       4.598  12.565   8.081  1.00  0.00    -0.248 NA
ATOM     53  C   UNL     1       6.291  13.513   6.780  1.00  0.00     0.031 C 
ATOM     54  C   UNL     1       3.203  14.245  11.965  1.00  0.00     0.029 A 
ATOM     55  C   UNL     1       3.660  13.737  10.759  1.00  0.00     0.049 A 
ATOM     56  H   UNL     1       2.993  12.037   9.702  1.00  0.00     0.167 HD
ATOM     57  C   UNL     1       5.097  13.691   8.732  1.00  0.00     0.074 A 
ATOM     58  C   UNL     1       6.162  14.211   7.899  1.00  0.00     0.031 C 
ATOM     59  C   UNL     1       4.718  14.242   9.915  1.00  0.00     0.034 A 
BRANCH  46  60
ATOM     60  C   UNL     1       0.085  11.222  12.744  1.00  0.00     0.023 A 
ATOM     61  C   UNL     1       0.062  10.115  13.613  1.00  0.00     0.031 A 
ATOM     62  C   UNL     1      -0.854  12.246  12.962  1.00  0.00     0.131 A 
ATOM     63  C   UNL     1      -0.925  10.025  14.607  1.00  0.00     0.055 A 
ATOM     64  C   UNL     1      -1.779  12.189  14.006  1.00  0.00     0.041 A 
ATOM     65  F   UNL     1      -0.901  13.314  12.150  1.00  0.00    -0.206 F 
ATOM     66  C   UNL     1      -1.828  11.067  14.827  1.00  0.00     0.022 A 
BRANCH  63  67
ATOM     67  S   UNL     1      -1.108   8.463  15.511  1.00  0.00     0.124 S 
ATOM     68  O   UNL     1      -1.367   7.522  14.424  1.00  0.00    -0.237 OA
ATOM     69  O   UNL     1       0.182   8.331  16.178  1.00  0.00    -0.237 OA
ATOM     70  O   UNL     1      -2.246   8.710  16.395  1.00  0.00    -0.744 OA
ENDBRANCH  63  67
ENDBRANCH  46  60
BRANCH  47  71
ATOM     71  C   UNL     1       6.094  11.455   4.697  1.00  0.00     0.023 A 
ATOM     72  C   UNL     1       7.492  11.381   4.796  1.00  0.00     0.031 A 
ATOM     73  C   UNL     1       5.534  11.658   3.423  1.00  0.00     0.131 A 
ATOM     74  C   UNL     1       8.284  11.557   3.651  1.00  0.00     0.055 A 
ATOM     75  C   UNL     1       6.324  11.776   2.279  1.00  0.00     0.041 A 
ATOM     76  F   UNL     1       4.202  11.740   3.271  1.00  0.00    -0.206 F 
ATOM     77  C   UNL     1       7.710  11.740   2.391  1.00  0.00     0.022 A 
BRANCH  74  78
ATOM     78  S   UNL     1      10.086  11.637   3.845  1.00  0.00     0.124 S 
ATOM     79  O   UNL     1      10.236  12.752   4.773  1.00  0.00    -0.237 OA
ATOM     80  O   UNL     1      10.392  10.313   4.377  1.00  0.00    -0.237 OA
ATOM     81  O   UNL     1      10.565  11.886   2.486  1.00  0.00    -0.744 OA
ENDBRANCH  74  78
ENDBRANCH  47  71
BRANCH  59  82
ATOM     82  C   UNL     1       5.511  15.431  10.406  1.00  0.00     0.023 A 
ATOM     83  C   UNL     1       5.507  16.663   9.728  1.00  0.00     0.031 A 
ATOM     84  C   UNL     1       6.296  15.319  11.568  1.00  0.00     0.131 A 
ATOM     85  C   UNL     1       6.322  17.711  10.181  1.00  0.00     0.055 A 
ATOM     86  C   UNL     1       7.053  16.387  12.051  1.00  0.00     0.041 A 
ATOM     87  F   UNL     1       6.339  14.167  12.256  1.00  0.00    -0.206 F 
ATOM     88  C   UNL     1       7.082  17.587  11.347  1.00  0.00     0.022 A 
BRANCH  85  89
ATOM     89  S   UNL     1       6.465  19.206   9.162  1.00  0.00     0.124 S 
ATOM     90  O   UNL     1       6.913  18.661   7.884  1.00  0.00    -0.237 OA
ATOM     91  O   UNL     1       5.104  19.732   9.189  1.00  0.00    -0.237 OA
ATOM     92  O   UNL     1       7.455  20.012   9.873  1.00  0.00    -0.744 OA
ENDBRANCH  85  89
ENDBRANCH  59  82
ENDBRANCH  33  34
ENDBRANCH  26  28
ENDBRANCH  25  26
ENDBRANCH  24  25
ENDBRANCH   1  24
TORSDOF 19
