REMARK SMILES Nc1nccc(N2CCC[C@@](Cc3ccc(F)cc3F)(C(=O)OCCOCCOC(=O)c3ccc(-c4c5nc(c(-c6cc(S(=O)(=O)[O-])ccc6F)c6ccc([nH]6)c(-c6cc(S(=O)(=O)[O-])ccc6F)c6nc(c(-c7cc(S(=O)(=O)[O-])ccc7F)c7ccc4[nH]7)C=C6)C=C5)cc3)C2)n1
REMARK SMILES IDX 27 1 26 2 25 3 24 4 23 5 21 6 22 7 11 8 7 9 8 10 95 11 9 12
REMARK SMILES IDX 10 13 6 14 2 15 3 16 96 17 4 18 5 19 1 20 12 23 13 24 14 25
REMARK SMILES IDX 19 26 15 27 18 28 20 29 16 30 17 31 28 32 29 33 30 34 31 35
REMARK SMILES IDX 32 36 33 37 94 38 34 39 93 40 35 41 36 42 37 43 87 44 38 45
REMARK SMILES IDX 92 46 86 47 88 48 39 49 91 50 85 51 84 52 40 54 72 55 52 56
REMARK SMILES IDX 71 57 53 58 56 59 70 60 89 61 54 62 55 63 69 65 90 66 57 67
REMARK SMILES IDX 41 68 42 69 50 70 43 71 49 72 51 73 48 74 44 75 45 76 46 77
REMARK SMILES IDX 47 78 73 79 74 80 82 81 75 82 81 83 83 84 80 85 76 86 77 87
REMARK SMILES IDX 78 88 79 89 58 90 59 91 67 92 60 93 66 94 68 95 65 96 61 97
REMARK SMILES IDX 62 98 63 99 64 100
REMARK H PARENT 1 21 1 22 88 53 56 64
REMARK Flexibility Score: inf
ROOT
ATOM      1  C   UNL     1       0.938  -7.021  -2.168  1.00  0.00     0.202 C 
ENDROOT
BRANCH   1   2
ATOM      2  O   UNL     1       0.590  -7.084  -3.550  1.00  0.00    -0.374 OA
BRANCH   2   3
ATOM      3  C   UNL     1       1.645  -7.207  -4.497  1.00  0.00     0.202 C 
BRANCH   3   4
ATOM      4  C   UNL     1       2.556  -5.994  -4.716  1.00  0.00     0.261 C 
BRANCH   4   5
ATOM      5  O   UNL     1       2.980  -5.345  -3.506  1.00  0.00    -0.463 OA
BRANCH   5   6
ATOM      6  C   UNL     1       2.445  -4.111  -3.299  1.00  0.00     0.314 C 
ATOM      7  O   UNL     1       1.656  -3.567  -4.067  1.00  0.00    -0.252 OA
BRANCH   6   8
ATOM      8  C   UNL     1       2.972  -3.417  -2.045  1.00  0.00     0.090 C 
ATOM      9  N   UNL     1       2.083  -2.077  -0.196  1.00  0.00    -0.355 N 
ATOM     10  C   UNL     1       2.574  -2.917   0.884  1.00  0.00     0.118 C 
ATOM     11  C   UNL     1       1.711  -2.763  -1.430  1.00  0.00     0.137 C 
ATOM     12  C   UNL     1       3.810  -3.672   0.386  1.00  0.00     0.023 C 
ATOM     13  C   UNL     1       3.580  -4.359  -0.971  1.00  0.00     0.023 C 
BRANCH   9  14
ATOM     14  C   UNL     1       1.270  -1.000   0.135  1.00  0.00     0.134 A 
ATOM     15  C   UNL     1      -0.794  -0.018   0.236  1.00  0.00     0.221 A 
ATOM     16  N   UNL     1      -0.298   1.202   0.461  1.00  0.00    -0.222 NA
ATOM     17  N   UNL     1      -0.065  -1.124   0.060  1.00  0.00    -0.196 NA
ATOM     18  C   UNL     1       1.040   1.290   0.530  1.00  0.00     0.119 A 
ATOM     19  C   UNL     1       1.875   0.212   0.391  1.00  0.00     0.067 A 
BRANCH  15  20
ATOM     20  N   UNL     1      -2.152  -0.135   0.141  1.00  0.00    -0.368 N 
ATOM     21  H   UNL     1      -2.724   0.657   0.265  1.00  0.00     0.159 HD
ATOM     22  H   UNL     1      -2.559  -1.010  -0.052  1.00  0.00     0.159 HD
ENDBRANCH  15  20
ENDBRANCH   9  14
BRANCH   8  23
ATOM     23  C   UNL     1       3.956  -2.302  -2.511  1.00  0.00     0.059 C 
BRANCH  23  24
ATOM     24  C   UNL     1       5.276  -2.791  -3.065  1.00  0.00    -0.011 A 
ATOM     25  C   UNL     1       5.362  -3.324  -4.360  1.00  0.00     0.010 A 
ATOM     26  C   UNL     1       6.441  -2.740  -2.287  1.00  0.00     0.129 A 
ATOM     27  C   UNL     1       6.570  -3.844  -4.829  1.00  0.00     0.040 A 
ATOM     28  C   UNL     1       7.648  -3.245  -2.749  1.00  0.00     0.078 A 
ATOM     29  F   UNL     1       6.404  -2.196  -1.061  1.00  0.00    -0.207 F 
ATOM     30  C   UNL     1       7.697  -3.805  -4.016  1.00  0.00     0.126 A 
ATOM     31  F   UNL     1       8.851  -4.310  -4.468  1.00  0.00    -0.207 F 
ENDBRANCH  23  24
ENDBRANCH   8  23
ENDBRANCH   6   8
ENDBRANCH   5   6
ENDBRANCH   4   5
ENDBRANCH   3   4
ENDBRANCH   2   3
ENDBRANCH   1   2
BRANCH   1  32
ATOM     32  C   UNL     1       1.748  -8.179  -1.567  1.00  0.00     0.261 C 
BRANCH  32  33
ATOM     33  O   UNL     1       3.083  -8.279  -2.103  1.00  0.00    -0.460 OA
BRANCH  33  34
ATOM     34  C   UNL     1       3.396  -9.504  -2.599  1.00  0.00     0.338 C 
ATOM     35  O   UNL     1       2.683 -10.498  -2.592  1.00  0.00    -0.246 OA
BRANCH  34  36
ATOM     36  C   UNL     1       4.678  -9.474  -3.323  1.00  0.00     0.060 A 
ATOM     37  C   UNL     1       4.662  -9.762  -4.694  1.00  0.00     0.016 A 
ATOM     38  C   UNL     1       5.889  -9.330  -2.642  1.00  0.00     0.016 A 
ATOM     39  C   UNL     1       5.861  -9.953  -5.381  1.00  0.00     0.010 A 
ATOM     40  C   UNL     1       7.090  -9.531  -3.334  1.00  0.00     0.010 A 
ATOM     41  C   UNL     1       7.081  -9.880  -4.697  1.00  0.00    -0.014 A 
BRANCH  41  42
ATOM     42  C   UNL     1       8.328 -10.317  -5.377  1.00  0.00     0.031 A 
ATOM     43  C   UNL     1       8.850 -11.708  -5.135  1.00  0.00     0.074 A 
ATOM     44  C   UNL     1       8.969  -9.496  -6.228  1.00  0.00     0.049 A 
ATOM     45  N   UNL     1       9.928 -12.286  -5.600  1.00  0.00    -0.248 NA
ATOM     46  C   UNL     1       8.047 -12.557  -4.243  1.00  0.00     0.031 C 
ATOM     47  C   UNL     1       8.544  -8.139  -6.568  1.00  0.00     0.029 A 
ATOM     48  N   UNL     1      10.121  -9.682  -6.950  1.00  0.00    -0.354 N 
ATOM     49  C   UNL     1       9.932 -13.570  -5.064  1.00  0.00     0.074 A 
ATOM     50  C   UNL     1       8.771 -13.665  -4.202  1.00  0.00     0.031 C 
ATOM     51  C   UNL     1       9.437  -7.606  -7.420  1.00  0.00     0.029 A 
ATOM     52  C   UNL     1      10.510  -8.570  -7.659  1.00  0.00     0.049 A 
ATOM     53  H   UNL     1      10.620 -10.530  -6.960  1.00  0.00     0.167 HD
ATOM     54  C   UNL     1      10.814 -14.579  -5.279  1.00  0.00     0.034 A 
ATOM     55  C   UNL     1      11.621  -8.344  -8.389  1.00  0.00     0.034 A 
ATOM     56  C   UNL     1      11.982 -14.461  -6.119  1.00  0.00     0.049 A 
ATOM     57  C   UNL     1      12.637  -9.447  -8.546  1.00  0.00     0.074 A 
ATOM     58  C   UNL     1      12.937 -15.420  -6.412  1.00  0.00     0.029 A 
ATOM     59  N   UNL     1      12.366 -13.306  -6.789  1.00  0.00    -0.354 N 
ATOM     60  N   UNL     1      12.625 -10.660  -8.043  1.00  0.00    -0.248 NA
ATOM     61  C   UNL     1      13.813  -9.152  -9.375  1.00  0.00     0.031 C 
ATOM     62  C   UNL     1      13.931 -14.826  -7.200  1.00  0.00     0.029 A 
ATOM     63  C   UNL     1      13.560 -13.518  -7.463  1.00  0.00     0.049 A 
ATOM     64  H   UNL     1      11.864 -12.460  -6.786  1.00  0.00     0.167 HD
ATOM     65  C   UNL     1      13.783 -11.278  -8.511  1.00  0.00     0.074 A 
ATOM     66  C   UNL     1      14.460 -10.308  -9.348  1.00  0.00     0.031 C 
ATOM     67  C   UNL     1      14.241 -12.534  -8.274  1.00  0.00     0.034 A 
BRANCH  54  68
ATOM     68  C   UNL     1      10.564 -15.876  -4.545  1.00  0.00     0.023 A 
ATOM     69  C   UNL     1       9.412 -16.648  -4.781  1.00  0.00     0.031 A 
ATOM     70  C   UNL     1      11.462 -16.321  -3.559  1.00  0.00     0.131 A 
ATOM     71  C   UNL     1       9.147 -17.774  -3.987  1.00  0.00     0.055 A 
ATOM     72  C   UNL     1      11.233 -17.488  -2.827  1.00  0.00     0.041 A 
ATOM     73  F   UNL     1      12.569 -15.617  -3.273  1.00  0.00    -0.206 F 
ATOM     74  C   UNL     1      10.061 -18.212  -3.026  1.00  0.00     0.022 A 
BRANCH  71  75
ATOM     75  S   UNL     1       7.518 -18.561  -4.115  1.00  0.00     0.124 S 
ATOM     76  O   UNL     1       6.625 -17.440  -3.828  1.00  0.00    -0.237 OA
ATOM     77  O   UNL     1       7.511 -19.048  -5.489  1.00  0.00    -0.237 OA
ATOM     78  O   UNL     1       7.555 -19.596  -3.085  1.00  0.00    -0.744 OA
ENDBRANCH  71  75
ENDBRANCH  54  68
BRANCH  55  79
ATOM     79  C   UNL     1      11.860  -6.998  -8.981  1.00  0.00     0.023 A 
ATOM     80  C   UNL     1      11.873  -6.797 -10.369  1.00  0.00     0.031 A 
ATOM     81  C   UNL     1      12.108  -5.890  -8.149  1.00  0.00     0.131 A 
ATOM     82  C   UNL     1      12.160  -5.523 -10.886  1.00  0.00     0.055 A 
ATOM     83  C   UNL     1      12.347  -4.617  -8.666  1.00  0.00     0.041 A 
ATOM     84  F   UNL     1      12.107  -6.032  -6.814  1.00  0.00    -0.206 F 
ATOM     85  C   UNL     1      12.384  -4.431 -10.044  1.00  0.00     0.022 A 
BRANCH  82  86
ATOM     86  S   UNL     1      12.292  -5.323 -12.684  1.00  0.00     0.124 S 
ATOM     87  O   UNL     1      13.382  -6.237 -13.006  1.00  0.00    -0.237 OA
ATOM     88  O   UNL     1      10.963  -5.726 -13.132  1.00  0.00    -0.237 OA
ATOM     89  O   UNL     1      12.597  -3.903 -12.847  1.00  0.00    -0.744 OA
ENDBRANCH  82  86
ENDBRANCH  55  79
BRANCH  67  90
ATOM     90  C   UNL     1      15.525 -12.935  -8.959  1.00  0.00     0.023 A 
ATOM     91  C   UNL     1      16.760 -12.361  -8.611  1.00  0.00     0.031 A 
ATOM     92  C   UNL     1      15.510 -13.901  -9.982  1.00  0.00     0.131 A 
ATOM     93  C   UNL     1      17.922 -12.720  -9.314  1.00  0.00     0.055 A 
ATOM     94  C   UNL     1      16.676 -14.293 -10.640  1.00  0.00     0.041 A 
ATOM     95  F   UNL     1      14.358 -14.481 -10.357  1.00  0.00    -0.206 F 
ATOM     96  C   UNL     1      17.889 -13.693 -10.316  1.00  0.00     0.022 A 
BRANCH  93  97
ATOM     97  S   UNL     1      19.466 -11.838  -8.957  1.00  0.00     0.124 S 
ATOM     98  O   UNL     1      19.103 -10.456  -9.256  1.00  0.00    -0.237 OA
ATOM     99  O   UNL     1      19.686 -12.149  -7.549  1.00  0.00    -0.237 OA
ATOM    100  O   UNL     1      20.427 -12.440  -9.881  1.00  0.00    -0.744 OA
ENDBRANCH  93  97
ENDBRANCH  67  90
ENDBRANCH  41  42
ENDBRANCH  34  36
ENDBRANCH  33  34
ENDBRANCH  32  33
ENDBRANCH   1  32
TORSDOF 21
