REMARK SMILES O=C(OCCOCCOC(=O)c1ccc(-c2c3nc(c(-c4cc(S(=O)(=O)[O-])ccc4F)c4ccc([nH]4)c(-c4cc(S(=O)(=O)[O-])ccc4F)c4nc(c(-c5cc(S(=O)(=O)[O-])ccc5F)c5ccc2[nH]5)C=C4)C=C3)cc1)C1=Cc2cc(Cl)cc(-c3ccccc3)c2O[C@@H]1C(F)(F)F
REMARK SMILES IDX 7 1 6 2 5 3 4 4 3 5 2 6 1 7 75 8 76 9 91 10 77 11 90 12
REMARK SMILES IDX 78 13 89 14 79 15 82 16 80 17 81 18 92 19 93 20 94 21 95 22
REMARK SMILES IDX 83 23 84 24 88 25 85 26 87 27 86 28 8 29 9 30 10 31 11 32
REMARK SMILES IDX 12 33 13 34 74 35 14 36 73 37 15 38 16 39 17 40 67 41 18 42
REMARK SMILES IDX 72 43 66 44 68 45 19 46 71 47 65 48 64 49 20 51 52 52 32 53
REMARK SMILES IDX 51 54 33 55 36 56 50 57 69 58 34 59 35 60 49 62 70 63 37 64
REMARK SMILES IDX 21 65 22 66 30 67 23 68 29 69 31 70 28 71 24 72 25 73 26 74
REMARK SMILES IDX 27 75 53 76 54 77 62 78 55 79 61 80 63 81 60 82 56 83 57 84
REMARK SMILES IDX 58 85 59 86 38 87 39 88 47 89 40 90 46 91 48 92 45 93 41 94
REMARK SMILES IDX 42 95 43 96 44 97
REMARK H PARENT 68 50 36 61
REMARK Flexibility Score: inf
ROOT
ATOM      1  C   UNL     1       2.724   3.011  -0.856  1.00  0.00     0.202 C 
ENDROOT
BRANCH   1   2
ATOM      2  O   UNL     1       3.960   2.453  -0.347  1.00  0.00    -0.374 OA
BRANCH   2   3
ATOM      3  C   UNL     1       4.351   1.046   0.382  1.00  0.00     0.202 C 
BRANCH   3   4
ATOM      4  C   UNL     1       3.419  -0.916   0.250  1.00  0.00     0.261 C 
BRANCH   4   5
ATOM      5  O   UNL     1       2.438  -1.529   1.321  1.00  0.00    -0.460 OA
BRANCH   5   6
ATOM      6  C   UNL     1       2.598  -1.022   2.548  1.00  0.00     0.338 C 
ATOM      7  O   UNL     1       1.996  -1.210   3.573  1.00  0.00    -0.246 OA
BRANCH   6   8
ATOM      8  C   UNL     1       3.500   0.015   2.127  1.00  0.00     0.087 C 
ATOM      9  C   UNL     1       4.853  -0.528   1.955  1.00  0.00     0.027 C 
ATOM     10  C   UNL     1       2.414   0.757   0.705  1.00  0.00     0.316 C 
ATOM     11  C   UNL     1       5.626  -0.771   0.341  1.00  0.00     0.019 A 
ATOM     12  O   UNL     1       3.242   0.503  -1.043  1.00  0.00    -0.475 OA
ATOM     13  C   UNL     1       6.748  -1.555   0.361  1.00  0.00     0.032 A 
ATOM     14  C   UNL     1       4.860  -0.350  -1.178  1.00  0.00     0.135 A 
ATOM     15  C   UNL     1       7.139  -2.042  -0.881  1.00  0.00     0.042 A 
ATOM     16  C   UNL     1       5.428  -0.803  -2.404  1.00  0.00     0.026 A 
ATOM     17  Cl  UNL     1       8.504  -3.110  -0.913  1.00  0.00    -0.084 Cl
ATOM     18  C   UNL     1       6.500  -1.728  -2.141  1.00  0.00     0.033 A 
BRANCH  10  19
ATOM     19  C   UNL     1       1.935   2.045   1.533  1.00  0.00     0.430 C 
ATOM     20  F   UNL     1       0.957   2.768   0.951  1.00  0.00    -0.167 F 
ATOM     21  F   UNL     1       1.369   1.605   2.700  1.00  0.00    -0.167 F 
ATOM     22  F   UNL     1       2.922   2.876   1.935  1.00  0.00    -0.167 F 
ENDBRANCH  10  19
BRANCH  16  23
ATOM     23  C   UNL     1       5.106  -0.455  -3.946  1.00  0.00    -0.015 A 
ATOM     24  C   UNL     1       3.439  -1.111  -4.228  1.00  0.00     0.009 A 
ATOM     25  C   UNL     1       5.824   0.788  -5.388  1.00  0.00     0.009 A 
ATOM     26  C   UNL     1       2.553  -0.619  -5.672  1.00  0.00     0.001 A 
ATOM     27  C   UNL     1       4.795   1.203  -6.802  1.00  0.00     0.001 A 
ATOM     28  C   UNL     1       3.203   0.493  -6.894  1.00  0.00     0.000 A 
ENDBRANCH  16  23
ENDBRANCH   6   8
ENDBRANCH   5   6
ENDBRANCH   4   5
ENDBRANCH   3   4
ENDBRANCH   2   3
ENDBRANCH   1   2
BRANCH   1  29
ATOM     29  C   UNL     1       2.796   3.748  -2.191  1.00  0.00     0.261 C 
BRANCH  29  30
ATOM     30  O   UNL     1       3.437   2.936  -3.140  1.00  0.00    -0.460 OA
BRANCH  30  31
ATOM     31  C   UNL     1       4.772   2.899  -2.976  1.00  0.00     0.338 C 
ATOM     32  O   UNL     1       5.502   3.642  -2.351  1.00  0.00    -0.246 OA
BRANCH  31  33
ATOM     33  C   UNL     1       5.173   1.691  -3.650  1.00  0.00     0.060 A 
ATOM     34  C   UNL     1       6.823   1.058  -3.468  1.00  0.00     0.016 A 
ATOM     35  C   UNL     1       4.049   0.867  -4.807  1.00  0.00     0.016 A 
ATOM     36  C   UNL     1       7.434  -0.335  -4.411  1.00  0.00     0.010 A 
ATOM     37  C   UNL     1       4.786  -0.713  -5.826  1.00  0.00     0.010 A 
ATOM     38  C   UNL     1       6.472  -1.227  -5.578  1.00  0.00    -0.014 A 
BRANCH  38  39
ATOM     39  C   UNL     1       6.937  -2.195  -6.618  1.00  0.00     0.031 A 
ATOM     40  C   UNL     1       7.383  -1.703  -7.984  1.00  0.00     0.074 A 
ATOM     41  C   UNL     1       6.539  -3.476  -6.492  1.00  0.00     0.049 A 
ATOM     42  N   UNL     1       7.526  -2.367  -9.107  1.00  0.00    -0.248 NA
ATOM     43  C   UNL     1       7.641  -0.263  -8.123  1.00  0.00     0.031 C 
ATOM     44  C   UNL     1       5.910  -4.040  -5.300  1.00  0.00     0.029 A 
ATOM     45  N   UNL     1       6.510  -4.510  -7.400  1.00  0.00    -0.354 N 
ATOM     46  C   UNL     1       7.868  -1.426 -10.080  1.00  0.00     0.074 A 
ATOM     47  C   UNL     1       7.852  -0.137  -9.427  1.00  0.00     0.031 C 
ATOM     48  C   UNL     1       5.514  -5.296  -5.558  1.00  0.00     0.029 A 
ATOM     49  C   UNL     1       5.847  -5.628  -6.940  1.00  0.00     0.049 A 
ATOM     50  H   UNL     1       6.922  -4.456  -8.292  1.00  0.00     0.167 HD
ATOM     51  C   UNL     1       8.187  -1.617 -11.387  1.00  0.00     0.034 A 
ATOM     52  C   UNL     1       5.521  -6.782  -7.557  1.00  0.00     0.034 A 
ATOM     53  C   UNL     1       8.193  -2.910 -12.028  1.00  0.00     0.049 A 
ATOM     54  C   UNL     1       5.931  -6.994  -8.995  1.00  0.00     0.074 A 
ATOM     55  C   UNL     1       8.679  -3.250 -13.280  1.00  0.00     0.029 A 
ATOM     56  N   UNL     1       7.650  -4.065 -11.487  1.00  0.00    -0.354 N 
ATOM     57  N   UNL     1       6.490  -6.148  -9.827  1.00  0.00    -0.248 NA
ATOM     58  C   UNL     1       5.695  -8.328  -9.567  1.00  0.00     0.031 C 
ATOM     59  C   UNL     1       8.345  -4.584 -13.532  1.00  0.00     0.029 A 
ATOM     60  C   UNL     1       7.739  -5.103 -12.401  1.00  0.00     0.049 A 
ATOM     61  H   UNL     1       7.259  -4.137 -10.586  1.00  0.00     0.167 HD
ATOM     62  C   UNL     1       6.716  -6.865 -11.001  1.00  0.00     0.074 A 
ATOM     63  C   UNL     1       6.246  -8.211 -10.766  1.00  0.00     0.031 C 
ATOM     64  C   UNL     1       7.269  -6.446 -12.166  1.00  0.00     0.034 A 
BRANCH  51  65
ATOM     65  C   UNL     1       8.593  -0.422 -12.226  1.00  0.00     0.023 A 
ATOM     66  C   UNL     1       9.731   0.340 -11.912  1.00  0.00     0.031 A 
ATOM     67  C   UNL     1       7.894  -0.093 -13.403  1.00  0.00     0.131 A 
ATOM     68  C   UNL     1      10.113   1.412 -12.733  1.00  0.00     0.055 A 
ATOM     69  C   UNL     1       8.321   0.928 -14.257  1.00  0.00     0.041 A 
ATOM     70  F   UNL     1       6.791  -0.773 -13.757  1.00  0.00    -0.206 F 
ATOM     71  C   UNL     1       9.433   1.693 -13.920  1.00  0.00     0.022 A 
BRANCH  68  72
ATOM     72  S   UNL     1      11.461   2.490 -12.178  1.00  0.00     0.124 S 
ATOM     73  O   UNL     1      10.940   2.980 -10.904  1.00  0.00    -0.237 OA
ATOM     74  O   UNL     1      12.588   1.569 -12.093  1.00  0.00    -0.237 OA
ATOM     75  O   UNL     1      11.554   3.496 -13.233  1.00  0.00    -0.744 OA
ENDBRANCH  68  72
ENDBRANCH  51  65
BRANCH  52  76
ATOM     76  C   UNL     1       4.795  -7.858  -6.822  1.00  0.00     0.023 A 
ATOM     77  C   UNL     1       5.420  -9.091  -6.580  1.00  0.00     0.031 A 
ATOM     78  C   UNL     1       3.458  -7.708  -6.415  1.00  0.00     0.131 A 
ATOM     79  C   UNL     1       4.689 -10.154  -6.033  1.00  0.00     0.055 A 
ATOM     80  C   UNL     1       2.754  -8.749  -5.803  1.00  0.00     0.041 A 
ATOM     81  F   UNL     1       2.814  -6.545  -6.607  1.00  0.00    -0.206 F 
ATOM     82  C   UNL     1       3.363  -9.989  -5.629  1.00  0.00     0.022 A 
BRANCH  79  83
ATOM     83  S   UNL     1       5.461 -11.794  -5.994  1.00  0.00     0.124 S 
ATOM     84  O   UNL     1       5.825 -11.981  -7.394  1.00  0.00    -0.237 OA
ATOM     85  O   UNL     1       6.568 -11.584  -5.067  1.00  0.00    -0.237 OA
ATOM     86  O   UNL     1       4.392 -12.661  -5.504  1.00  0.00    -0.744 OA
ENDBRANCH  79  83
ENDBRANCH  52  76
BRANCH  64  87
ATOM     87  C   UNL     1       7.446  -7.466 -13.264  1.00  0.00     0.023 A 
ATOM     88  C   UNL     1       6.347  -8.064 -13.904  1.00  0.00     0.031 A 
ATOM     89  C   UNL     1       8.737  -7.835 -13.684  1.00  0.00     0.131 A 
ATOM     90  C   UNL     1       6.559  -9.033 -14.897  1.00  0.00     0.055 A 
ATOM     91  C   UNL     1       8.941  -8.748 -14.719  1.00  0.00     0.041 A 
ATOM     92  F   UNL     1       9.824  -7.302 -13.103  1.00  0.00    -0.206 F 
ATOM     93  C   UNL     1       7.848  -9.361 -15.324  1.00  0.00     0.022 A 
BRANCH  90  94
ATOM     94  S   UNL     1       5.127  -9.921 -15.566  1.00  0.00     0.124 S 
ATOM     95  O   UNL     1       4.580 -10.555 -14.371  1.00  0.00    -0.237 OA
ATOM     96  O   UNL     1       4.328  -8.843 -16.138  1.00  0.00    -0.237 OA
ATOM     97  O   UNL     1       5.717 -10.838 -16.540  1.00  0.00    -0.744 OA
ENDBRANCH  90  94
ENDBRANCH  64  87
ENDBRANCH  38  39
ENDBRANCH  31  33
ENDBRANCH  30  31
ENDBRANCH  29  30
ENDBRANCH   1  29
TORSDOF 19
