REMARK SMILES CC(C)C[C@@H](C(=O)OCCOCCOC(=O)c1ccc(-c2c3nc(c(-c4cc(S(=O)(=O)[O-])ccc4F)c4ccc([nH]4)c(-c4cc(S(=O)(=O)[O-])ccc4F)c4nc(c(-c5cc(S(=O)(=O)[O-])ccc5F)c5ccc2[nH]5)C=C4)C=C3)cc1)[C@@H]1CCC[C@@H](C)C1
REMARK SMILES IDX 12 1 11 2 10 3 9 4 8 5 6 6 7 7 5 8 4 9 2 10 1 11 3 12 80 13
REMARK SMILES IDX 81 14 86 15 82 16 84 17 83 18 85 19 13 20 14 21 15 22 16 23
REMARK SMILES IDX 17 24 18 25 79 26 19 27 78 28 20 29 21 30 22 31 72 32 23 33
REMARK SMILES IDX 77 34 71 35 73 36 24 37 76 38 70 39 69 40 25 42 57 43 37 44
REMARK SMILES IDX 56 45 38 46 41 47 55 48 74 49 39 50 40 51 54 53 75 54 42 55
REMARK SMILES IDX 26 56 27 57 35 58 28 59 34 60 36 61 33 62 29 63 30 64 31 65
REMARK SMILES IDX 32 66 58 67 59 68 67 69 60 70 66 71 68 72 65 73 61 74 62 75
REMARK SMILES IDX 63 76 64 77 43 78 44 79 52 80 45 81 51 82 53 83 50 84 46 85
REMARK SMILES IDX 47 86 48 87 49 88
REMARK H PARENT 73 41 41 52
REMARK Flexibility Score: inf
ROOT
ATOM      1  C   UNL     1      -6.878   2.067   1.396  1.00  0.00     0.202 C 
ENDROOT
BRANCH   1   2
ATOM      2  O   UNL     1      -6.480   1.430   2.612  1.00  0.00    -0.374 OA
BRANCH   2   3
ATOM      3  C   UNL     1      -5.297   1.927   3.223  1.00  0.00     0.202 C 
BRANCH   3   4
ATOM      4  C   UNL     1      -4.204   0.853   3.349  1.00  0.00     0.261 C 
BRANCH   4   5
ATOM      5  O   UNL     1      -3.743   0.239   2.122  1.00  0.00    -0.463 OA
BRANCH   5   6
ATOM      6  C   UNL     1      -4.494  -0.800   1.680  1.00  0.00     0.309 C 
ATOM      7  O   UNL     1      -5.626  -1.066   2.078  1.00  0.00    -0.252 OA
BRANCH   6   8
ATOM      8  C   UNL     1      -3.754  -1.794   0.799  1.00  0.00     0.102 C 
BRANCH   8   9
ATOM      9  C   UNL     1      -2.907  -2.699   1.742  1.00  0.00     0.018 C 
BRANCH   9  10
ATOM     10  C   UNL     1      -3.704  -3.579   2.728  1.00  0.00    -0.017 C 
ATOM     11  C   UNL     1      -4.501  -4.665   2.005  1.00  0.00     0.007 C 
ATOM     12  C   UNL     1      -2.743  -4.226   3.729  1.00  0.00     0.007 C 
ENDBRANCH   9  10
ENDBRANCH   8   9
BRANCH   8  13
ATOM     13  C   UNL     1      -2.881  -1.388  -0.434  1.00  0.00     0.003 C 
ATOM     14  C   UNL     1      -2.885   0.049  -0.987  1.00  0.00     0.004 C 
ATOM     15  C   UNL     1      -3.141  -2.415  -1.570  1.00  0.00     0.007 C 
ATOM     16  C   UNL     1      -3.848   0.385  -2.130  1.00  0.00     0.001 C 
ATOM     17  C   UNL     1      -4.366  -2.037  -2.413  1.00  0.00    -0.014 C 
ATOM     18  C   UNL     1      -4.057  -0.731  -3.141  1.00  0.00     0.003 C 
ATOM     19  C   UNL     1      -4.744  -3.141  -3.395  1.00  0.00     0.007 C 
ENDBRANCH   8  13
ENDBRANCH   6   8
ENDBRANCH   5   6
ENDBRANCH   4   5
ENDBRANCH   3   4
ENDBRANCH   2   3
ENDBRANCH   1   2
BRANCH   1  20
ATOM     20  C   UNL     1      -5.879   1.944   0.246  1.00  0.00     0.261 C 
BRANCH  20  21
ATOM     21  O   UNL     1      -4.645   2.644   0.490  1.00  0.00    -0.460 OA
BRANCH  21  22
ATOM     22  C   UNL     1      -4.599   3.934   0.104  1.00  0.00     0.338 C 
ATOM     23  O   UNL     1      -5.454   4.542  -0.528  1.00  0.00    -0.246 OA
BRANCH  22  24
ATOM     24  C   UNL     1      -3.407   4.556   0.706  1.00  0.00     0.060 A 
ATOM     25  C   UNL     1      -3.576   5.367   1.831  1.00  0.00     0.016 A 
ATOM     26  C   UNL     1      -2.136   4.378   0.147  1.00  0.00     0.016 A 
ATOM     27  C   UNL     1      -2.478   6.033   2.383  1.00  0.00     0.010 A 
ATOM     28  C   UNL     1      -1.037   5.046   0.706  1.00  0.00     0.010 A 
ATOM     29  C   UNL     1      -1.206   5.902   1.810  1.00  0.00    -0.014 A 
BRANCH  29  30
ATOM     30  C   UNL     1      -0.095   6.770   2.295  1.00  0.00     0.031 A 
ATOM     31  C   UNL     1       0.258   8.013   1.520  1.00  0.00     0.074 A 
ATOM     32  C   UNL     1       0.555   6.489   3.441  1.00  0.00     0.049 A 
ATOM     33  N   UNL     1       1.127   8.950   1.803  1.00  0.00    -0.248 NA
ATOM     34  C   UNL     1      -0.466   8.226   0.258  1.00  0.00     0.031 C 
ATOM     35  C   UNL     1       0.306   5.322   4.287  1.00  0.00     0.029 A 
ATOM     36  N   UNL     1       1.554   7.169   4.096  1.00  0.00    -0.354 N 
ATOM     37  C   UNL     1       1.048   9.870   0.761  1.00  0.00     0.074 A 
ATOM     38  C   UNL     1       0.080   9.350  -0.182  1.00  0.00     0.031 C 
ATOM     39  C   UNL     1       1.128   5.370   5.351  1.00  0.00     0.029 A 
ATOM     40  C   UNL     1       1.974   6.559   5.256  1.00  0.00     0.049 A 
ATOM     41  H   UNL     1       1.934   8.014   3.765  1.00  0.00     0.167 HD
ATOM     42  C   UNL     1       1.706  11.047   0.611  1.00  0.00     0.034 A 
ATOM     43  C   UNL     1       2.931   6.915   6.138  1.00  0.00     0.034 A 
ATOM     44  C   UNL     1       2.680  11.553   1.547  1.00  0.00     0.049 A 
ATOM     45  C   UNL     1       3.689   8.206   5.923  1.00  0.00     0.074 A 
ATOM     46  C   UNL     1       3.385  12.744   1.499  1.00  0.00     0.029 A 
ATOM     47  N   UNL     1       3.101  10.892   2.693  1.00  0.00    -0.354 N 
ATOM     48  N   UNL     1       3.564   9.088   4.958  1.00  0.00    -0.248 NA
ATOM     49  C   UNL     1       4.703   8.556   6.928  1.00  0.00     0.031 C 
ATOM     50  C   UNL     1       4.277  12.772   2.578  1.00  0.00     0.029 A 
ATOM     51  C   UNL     1       4.078  11.633   3.341  1.00  0.00     0.049 A 
ATOM     52  H   UNL     1       2.756  10.022   3.001  1.00  0.00     0.167 HD
ATOM     53  C   UNL     1       4.461  10.110   5.260  1.00  0.00     0.074 A 
ATOM     54  C   UNL     1       5.108   9.743   6.502  1.00  0.00     0.031 C 
ATOM     55  C   UNL     1       4.724  11.253   4.575  1.00  0.00     0.034 A 
BRANCH  42  56
ATOM     56  C   UNL     1       1.418  11.845  -0.637  1.00  0.00     0.023 A 
ATOM     57  C   UNL     1       0.154  12.413  -0.876  1.00  0.00     0.031 A 
ATOM     58  C   UNL     1       2.417  12.026  -1.610  1.00  0.00     0.131 A 
ATOM     59  C   UNL     1      -0.096  13.080  -2.085  1.00  0.00     0.055 A 
ATOM     60  C   UNL     1       2.182  12.751  -2.779  1.00  0.00     0.041 A 
ATOM     61  F   UNL     1       3.636  11.489  -1.444  1.00  0.00    -0.206 F 
ATOM     62  C   UNL     1       0.916  13.272  -3.029  1.00  0.00     0.022 A 
BRANCH  59  63
ATOM     63  S   UNL     1      -1.797  13.585  -2.464  1.00  0.00     0.124 S 
ATOM     64  O   UNL     1      -2.498  12.303  -2.438  1.00  0.00    -0.237 OA
ATOM     65  O   UNL     1      -2.103  14.503  -1.373  1.00  0.00    -0.237 OA
ATOM     66  O   UNL     1      -1.686  14.200  -3.785  1.00  0.00    -0.744 OA
ENDBRANCH  59  63
ENDBRANCH  42  56
BRANCH  43  67
ATOM     67  C   UNL     1       3.258   6.037   7.300  1.00  0.00     0.023 A 
ATOM     68  C   UNL     1       3.066   6.467   8.623  1.00  0.00     0.031 A 
ATOM     69  C   UNL     1       3.838   4.771   7.098  1.00  0.00     0.131 A 
ATOM     70  C   UNL     1       3.494   5.662   9.691  1.00  0.00     0.055 A 
ATOM     71  C   UNL     1       4.215   3.952   8.164  1.00  0.00     0.041 A 
ATOM     72  F   UNL     1       4.046   4.311   5.854  1.00  0.00    -0.206 F 
ATOM     73  C   UNL     1       4.057   4.402   9.470  1.00  0.00     0.022 A 
BRANCH  70  74
ATOM     74  S   UNL     1       3.388   6.322  11.378  1.00  0.00     0.124 S 
ATOM     75  O   UNL     1       4.173   7.546  11.268  1.00  0.00    -0.237 OA
ATOM     76  O   UNL     1       1.949   6.495  11.544  1.00  0.00    -0.237 OA
ATOM     77  O   UNL     1       3.986   5.268  12.194  1.00  0.00    -0.744 OA
ENDBRANCH  70  74
ENDBRANCH  43  67
BRANCH  55  78
ATOM     78  C   UNL     1       5.724  12.207   5.183  1.00  0.00     0.023 A 
ATOM     79  C   UNL     1       7.087  11.880   5.296  1.00  0.00     0.031 A 
ATOM     80  C   UNL     1       5.302  13.458   5.669  1.00  0.00     0.131 A 
ATOM     81  C   UNL     1       7.969  12.768   5.930  1.00  0.00     0.055 A 
ATOM     82  C   UNL     1       6.195  14.361   6.247  1.00  0.00     0.041 A 
ATOM     83  F   UNL     1       4.013  13.822   5.588  1.00  0.00    -0.206 F 
ATOM     84  C   UNL     1       7.534  14.013   6.393  1.00  0.00     0.022 A 
BRANCH  81  85
ATOM     85  S   UNL     1       9.679  12.238   6.225  1.00  0.00     0.124 S 
ATOM     86  O   UNL     1       9.490  11.023   7.011  1.00  0.00    -0.237 OA
ATOM     87  O   UNL     1      10.185  12.048   4.869  1.00  0.00    -0.237 OA
ATOM     88  O   UNL     1      10.267  13.362   6.953  1.00  0.00    -0.744 OA
ENDBRANCH  81  85
ENDBRANCH  55  78
ENDBRANCH  29  30
ENDBRANCH  22  24
ENDBRANCH  21  22
ENDBRANCH  20  21
ENDBRANCH   1  20
TORSDOF 20
