REMARK SMILES COc1ccc(-n2c(SCc3cn(-c4ccc(C(=O)OCCOCCOC(=O)c5ccc(-c6c7nc(c(-c8cc(S(=O)(=O)[O-])ccc8F)c8ccc([nH]8)c(-c8cc(S(=O)(=O)[O-])ccc8F)c8nc(c(-c9cc(S(=O)(=O)[O-])ccc9F)c9ccc6[nH]9)C=C8)C=C7)cc5)cc4)nn3)nc3ccccc3c2=O)cc1
REMARK SMILES IDX 21 1 20 2 18 3 19 4 17 5 14 6 15 7 93 8 16 9 92 10 13 11
REMARK SMILES IDX 11 12 12 13 95 14 94 15 10 16 9 17 8 18 7 19 103 20 96 21
REMARK SMILES IDX 102 22 104 23 97 24 101 25 98 26 100 27 99 28 6 29 3 30 4 31
REMARK SMILES IDX 106 32 5 33 105 34 2 35 1 36 22 37 23 38 24 39 25 40 26 41
REMARK SMILES IDX 27 42 28 43 29 44 30 45 91 46 31 47 90 48 32 49 33 50 34 51
REMARK SMILES IDX 84 52 35 53 89 54 83 55 85 56 36 57 88 58 82 59 81 60 37 62
REMARK SMILES IDX 69 63 49 64 68 65 50 66 53 67 67 68 86 69 51 70 52 71 66 73
REMARK SMILES IDX 87 74 54 75 38 76 39 77 47 78 40 79 46 80 48 81 45 82 41 83
REMARK SMILES IDX 42 84 43 85 44 86 70 87 71 88 79 89 72 90 78 91 80 92 77 93
REMARK SMILES IDX 73 94 74 95 75 96 76 97 55 98 56 99 64 100 57 101 63 102
REMARK SMILES IDX 65 103 62 104 58 105 59 106 60 107 61 108
REMARK H PARENT 85 61 53 72
REMARK Flexibility Score: inf
ROOT
ATOM      1  C   UNL     1      -2.633  -2.571   6.257  1.00  0.00     0.261 C 
ENDROOT
BRANCH   1   2
ATOM      2  O   UNL     1      -1.714  -1.718   5.574  1.00  0.00    -0.460 OA
BRANCH   2   3
ATOM      3  C   UNL     1      -2.114  -1.319   4.342  1.00  0.00     0.338 C 
ATOM      4  O   UNL     1      -3.097  -1.666   3.723  1.00  0.00    -0.246 OA
BRANCH   3   5
ATOM      5  C   UNL     1      -1.223  -0.229   3.911  1.00  0.00     0.060 A 
ATOM      6  C   UNL     1       0.398   1.790   3.005  1.00  0.00     0.066 A 
ATOM      7  C   UNL     1      -0.979   1.896   2.796  1.00  0.00     0.029 A 
ATOM      8  C   UNL     1       0.962   0.731   3.725  1.00  0.00     0.029 A 
ATOM      9  C   UNL     1      -1.790   0.857   3.228  1.00  0.00     0.018 A 
ATOM     10  C   UNL     1       0.142  -0.275   4.200  1.00  0.00     0.018 A 
BRANCH   6  11
ATOM     11  N   UNL     1       1.256   2.723   2.427  1.00  0.00    -0.220 N 
ATOM     12  C   UNL     1       2.963   3.704   1.547  1.00  0.00     0.093 A 
ATOM     13  C   UNL     1       2.536   2.489   2.005  1.00  0.00     0.141 A 
ATOM     14  N   UNL     1       1.945   4.609   1.685  1.00  0.00    -0.134 NA
ATOM     15  N   UNL     1       0.880   3.979   2.141  1.00  0.00    -0.062 NA
BRANCH  12  16
ATOM     16  C   UNL     1       4.260   4.029   0.941  1.00  0.00     0.138 C 
BRANCH  16  17
ATOM     17  S   UNL     1       4.627   5.766   0.934  1.00  0.00    -0.081 SA
BRANCH  17  18
ATOM     18  C   UNL     1       3.135   6.529   0.237  1.00  0.00     0.176 A 
ATOM     19  N   UNL     1       2.969   6.250  -1.109  1.00  0.00    -0.255 N 
ATOM     20  C   UNL     1       3.519   7.173  -1.991  1.00  0.00     0.266 A 
ATOM     21  N   UNL     1       2.921   7.747   0.643  1.00  0.00    -0.223 NA
ATOM     22  C   UNL     1       4.263   8.281  -1.301  1.00  0.00     0.066 A 
ATOM     23  O   UNL     1       3.481   7.126  -3.216  1.00  0.00    -0.268 OA
ATOM     24  C   UNL     1       3.853   8.593   0.011  1.00  0.00     0.079 A 
ATOM     25  C   UNL     1       5.480   8.751  -1.783  1.00  0.00     0.016 A 
ATOM     26  C   UNL     1       4.605   9.456   0.804  1.00  0.00     0.029 A 
ATOM     27  C   UNL     1       6.279   9.536  -0.943  1.00  0.00     0.001 A 
ATOM     28  C   UNL     1       5.834   9.908   0.332  1.00  0.00     0.002 A 
BRANCH  19  29
ATOM     29  C   UNL     1       2.176   5.145  -1.518  1.00  0.00     0.052 A 
ATOM     30  C   UNL     1       0.824   2.687  -1.626  1.00  0.00     0.119 A 
ATOM     31  C   UNL     1       0.144   3.833  -1.222  1.00  0.00     0.048 A 
ATOM     32  C   UNL     1       2.129   2.793  -2.108  1.00  0.00     0.048 A 
ATOM     33  C   UNL     1       0.828   5.054  -1.137  1.00  0.00     0.030 A 
ATOM     34  C   UNL     1       2.792   4.029  -2.090  1.00  0.00     0.030 A 
BRANCH  30  35
ATOM     35  O   UNL     1       0.154   1.495  -1.606  1.00  0.00    -0.497 OA
ATOM     36  C   UNL     1       0.753   0.527  -0.741  1.00  0.00     0.278 C 
ENDBRANCH  30  35
ENDBRANCH  19  29
ENDBRANCH  17  18
ENDBRANCH  16  17
ENDBRANCH  12  16
ENDBRANCH   6  11
ENDBRANCH   3   5
ENDBRANCH   2   3
ENDBRANCH   1   2
BRANCH   1  37
ATOM     37  C   UNL     1      -3.360  -1.832   7.378  1.00  0.00     0.202 C 
BRANCH  37  38
ATOM     38  O   UNL     1      -4.231  -0.761   7.015  1.00  0.00    -0.374 OA
BRANCH  38  39
ATOM     39  C   UNL     1      -3.688   0.492   6.609  1.00  0.00     0.202 C 
BRANCH  39  40
ATOM     40  C   UNL     1      -2.982   1.363   7.638  1.00  0.00     0.261 C 
BRANCH  40  41
ATOM     41  O   UNL     1      -1.853   0.720   8.206  1.00  0.00    -0.460 OA
BRANCH  41  42
ATOM     42  C   UNL     1      -2.085   0.241   9.453  1.00  0.00     0.338 C 
ATOM     43  O   UNL     1      -3.162  -0.035   9.943  1.00  0.00    -0.246 OA
BRANCH  42  44
ATOM     44  C   UNL     1      -0.825   0.272  10.199  1.00  0.00     0.060 A 
ATOM     45  C   UNL     1      -0.913  -0.039  11.556  1.00  0.00     0.016 A 
ATOM     46  C   UNL     1       0.300   0.900   9.644  1.00  0.00     0.016 A 
ATOM     47  C   UNL     1       0.028   0.498  12.402  1.00  0.00     0.010 A 
ATOM     48  C   UNL     1       1.226   1.451  10.493  1.00  0.00     0.010 A 
ATOM     49  C   UNL     1       1.028   1.317  11.864  1.00  0.00    -0.014 A 
BRANCH  49  50
ATOM     50  C   UNL     1       2.013   1.876  12.764  1.00  0.00     0.031 A 
ATOM     51  C   UNL     1       2.906   0.816  13.274  1.00  0.00     0.074 A 
ATOM     52  C   UNL     1       2.142   3.196  12.999  1.00  0.00     0.049 A 
ATOM     53  N   UNL     1       2.876   0.295  14.454  1.00  0.00    -0.248 NA
ATOM     54  C   UNL     1       3.714   0.050  12.307  1.00  0.00     0.031 C 
ATOM     55  C   UNL     1       1.411   4.305  12.385  1.00  0.00     0.029 A 
ATOM     56  N   UNL     1       3.035   3.838  13.799  1.00  0.00    -0.354 N 
ATOM     57  C   UNL     1       3.893  -0.646  14.455  1.00  0.00     0.074 A 
ATOM     58  C   UNL     1       4.153  -0.948  13.076  1.00  0.00     0.031 C 
ATOM     59  C   UNL     1       2.048   5.469  12.660  1.00  0.00     0.029 A 
ATOM     60  C   UNL     1       3.167   5.205  13.553  1.00  0.00     0.049 A 
ATOM     61  H   UNL     1       3.550   3.373  14.498  1.00  0.00     0.167 HD
ATOM     62  C   UNL     1       4.660  -0.811  15.565  1.00  0.00     0.034 A 
ATOM     63  C   UNL     1       4.159   6.028  14.005  1.00  0.00     0.034 A 
ATOM     64  C   UNL     1       3.994  -0.263  16.732  1.00  0.00     0.049 A 
ATOM     65  C   UNL     1       4.733   5.370  15.210  1.00  0.00     0.074 A 
ATOM     66  C   UNL     1       2.757  -0.470  17.318  1.00  0.00     0.029 A 
ATOM     67  N   UNL     1       4.438   0.946  17.224  1.00  0.00    -0.354 N 
ATOM     68  N   UNL     1       4.057   5.218  16.316  1.00  0.00    -0.248 NA
ATOM     69  C   UNL     1       5.816   4.412  15.017  1.00  0.00     0.031 C 
ATOM     70  C   UNL     1       2.315   0.827  17.713  1.00  0.00     0.029 A 
ATOM     71  C   UNL     1       3.340   1.739  17.456  1.00  0.00     0.049 A 
ATOM     72  H   UNL     1       5.377   1.197  17.381  1.00  0.00     0.167 HD
ATOM     73  C   UNL     1       4.303   3.911  16.710  1.00  0.00     0.074 A 
ATOM     74  C   UNL     1       5.465   3.492  15.923  1.00  0.00     0.031 C 
ATOM     75  C   UNL     1       3.363   3.190  17.393  1.00  0.00     0.034 A 
BRANCH  62  76
ATOM     76  C   UNL     1       6.156  -1.034  15.519  1.00  0.00     0.023 A 
ATOM     77  C   UNL     1       6.806  -1.140  16.760  1.00  0.00     0.031 A 
ATOM     78  C   UNL     1       6.999  -0.835  14.399  1.00  0.00     0.131 A 
ATOM     79  C   UNL     1       8.186  -0.908  16.870  1.00  0.00     0.055 A 
ATOM     80  C   UNL     1       8.382  -0.675  14.507  1.00  0.00     0.041 A 
ATOM     81  F   UNL     1       6.545  -0.692  13.150  1.00  0.00    -0.206 F 
ATOM     82  C   UNL     1       8.980  -0.672  15.752  1.00  0.00     0.022 A 
BRANCH  79  83
ATOM     83  S   UNL     1       8.880  -0.725  18.528  1.00  0.00     0.124 S 
ATOM     84  O   UNL     1       8.052   0.347  19.068  1.00  0.00    -0.237 OA
ATOM     85  O   UNL     1       8.664  -2.054  19.089  1.00  0.00    -0.237 OA
ATOM     86  O   UNL     1      10.274  -0.374  18.271  1.00  0.00    -0.744 OA
ENDBRANCH  79  83
ENDBRANCH  62  76
BRANCH  63  87
ATOM     87  C   UNL     1       4.837   7.147  13.273  1.00  0.00     0.023 A 
ATOM     88  C   UNL     1       5.687   8.095  13.898  1.00  0.00     0.031 A 
ATOM     89  C   UNL     1       4.848   7.145  11.859  1.00  0.00     0.131 A 
ATOM     90  C   UNL     1       6.489   8.971  13.118  1.00  0.00     0.055 A 
ATOM     91  C   UNL     1       5.640   8.008  11.097  1.00  0.00     0.041 A 
ATOM     92  F   UNL     1       4.152   6.238  11.157  1.00  0.00    -0.206 F 
ATOM     93  C   UNL     1       6.473   8.917  11.723  1.00  0.00     0.022 A 
BRANCH  90  94
ATOM     94  S   UNL     1       7.650  10.151  13.896  1.00  0.00     0.124 S 
ATOM     95  O   UNL     1       6.748  11.131  14.490  1.00  0.00    -0.237 OA
ATOM     96  O   UNL     1       8.392   9.304  14.822  1.00  0.00    -0.237 OA
ATOM     97  O   UNL     1       8.438  10.651  12.768  1.00  0.00    -0.744 OA
ENDBRANCH  90  94
ENDBRANCH  63  87
BRANCH  75  98
ATOM     98  C   UNL     1       2.164   3.925  17.967  1.00  0.00     0.023 A 
ATOM     99  C   UNL     1       1.263   4.727  17.227  1.00  0.00     0.031 A 
ATOM    100  C   UNL     1       1.873   3.710  19.326  1.00  0.00     0.131 A 
ATOM    101  C   UNL     1       0.137   5.293  17.860  1.00  0.00     0.055 A 
ATOM    102  C   UNL     1       0.745   4.248  19.941  1.00  0.00     0.041 A 
ATOM    103  F   UNL     1       2.673   2.937  20.079  1.00  0.00    -0.206 F 
ATOM    104  C   UNL     1      -0.124   5.051  19.212  1.00  0.00     0.022 A 
BRANCH 101 105
ATOM    105  S   UNL     1      -0.999   6.387  16.944  1.00  0.00     0.124 S 
ATOM    106  O   UNL     1      -0.103   7.303  16.248  1.00  0.00    -0.237 OA
ATOM    107  O   UNL     1      -1.732   5.447  16.101  1.00  0.00    -0.237 OA
ATOM    108  O   UNL     1      -1.801   7.006  18.002  1.00  0.00    -0.744 OA
ENDBRANCH 101 105
ENDBRANCH  75  98
ENDBRANCH  49  50
ENDBRANCH  42  44
ENDBRANCH  41  42
ENDBRANCH  40  41
ENDBRANCH  39  40
ENDBRANCH  38  39
ENDBRANCH  37  38
ENDBRANCH   1  37
TORSDOF 23
