REMARK SMILES O=C(Cn1nc(C(=O)OCCOCCOC(=O)c2ccc(-c3c4nc(c(-c5cc(S(=O)(=O)[O-])ccc5F)c5ccc([nH]5)c(-c5cc(S(=O)(=O)[O-])ccc5F)c5nc(c(-c6cc(S(=O)(=O)[O-])ccc6F)c6ccc3[nH]6)C=C5)C=C4)cc2)c2ccccc2c1=O)Nc1ccc2c(c1)C(=O)c1ccccc1C2=O
REMARK SMILES IDX 12 1 11 2 10 3 9 4 7 5 8 6 6 7 4 8 5 9 87 10 86 11 88 12
REMARK SMILES IDX 81 13 85 14 82 15 84 16 83 17 3 18 2 19 1 20 89 21 90 23
REMARK SMILES IDX 91 24 95 25 92 26 94 27 93 28 96 29 104 30 97 31 98 32
REMARK SMILES IDX 103 33 105 34 99 35 102 36 100 37 101 38 13 39 14 40 15 41
REMARK SMILES IDX 16 42 17 43 18 44 19 45 80 46 20 47 79 48 21 49 22 50 23 51
REMARK SMILES IDX 73 52 24 53 78 54 72 55 74 56 25 57 77 58 71 59 70 60 26 62
REMARK SMILES IDX 58 63 38 64 57 65 39 66 42 67 56 68 75 69 40 70 41 71 55 73
REMARK SMILES IDX 76 74 43 75 27 76 28 77 36 78 29 79 35 80 37 81 34 82 30 83
REMARK SMILES IDX 31 84 32 85 33 86 59 87 60 88 68 89 61 90 67 91 69 92 66 93
REMARK SMILES IDX 62 94 63 95 64 96 65 97 44 98 45 99 53 100 46 101 52 102
REMARK SMILES IDX 54 103 51 104 47 105 48 106 49 107 50 108
REMARK H PARENT 89 22 74 61 42 72
REMARK Flexibility Score: inf
ROOT
ATOM      1  O   UNL     1       6.995  -0.663  -6.941  1.00  0.00    -0.374 OA
ENDROOT
BRANCH   1   2
ATOM      2  C   UNL     1       7.460  -1.918  -6.443  1.00  0.00     0.202 C 
BRANCH   2   3
ATOM      3  C   UNL     1       7.872  -1.950  -4.967  1.00  0.00     0.261 C 
BRANCH   3   4
ATOM      4  O   UNL     1       6.811  -1.488  -4.118  1.00  0.00    -0.458 OA
BRANCH   4   5
ATOM      5  C   UNL     1       7.122  -0.468  -3.293  1.00  0.00     0.359 C 
ATOM      6  O   UNL     1       8.211   0.035  -3.082  1.00  0.00    -0.244 OA
BRANCH   5   7
ATOM      7  C   UNL     1       5.842   0.157  -2.759  1.00  0.00     0.176 A 
ATOM      8  N   UNL     1       3.914  -0.015  -1.475  1.00  0.00    -0.219 N 
ATOM      9  N   UNL     1       5.121  -0.536  -1.922  1.00  0.00    -0.161 NA
ATOM     10  C   UNL     1       3.401   1.188  -1.957  1.00  0.00     0.275 A 
ATOM     11  C   UNL     1       4.315   2.053  -2.716  1.00  0.00     0.051 A 
ATOM     12  O   UNL     1       2.251   1.567  -1.772  1.00  0.00    -0.267 OA
ATOM     13  C   UNL     1       5.494   1.517  -3.212  1.00  0.00     0.022 A 
ATOM     14  C   UNL     1       3.967   3.384  -2.988  1.00  0.00     0.014 A 
ATOM     15  C   UNL     1       6.282   2.280  -4.085  1.00  0.00     0.011 A 
ATOM     16  C   UNL     1       4.777   4.158  -3.818  1.00  0.00     0.001 A 
ATOM     17  C   UNL     1       5.915   3.595  -4.392  1.00  0.00     0.001 A 
BRANCH   8  18
ATOM     18  C   UNL     1       2.994  -0.976  -0.829  1.00  0.00     0.248 C 
BRANCH  18  19
ATOM     19  C   UNL     1       2.162  -0.452   0.360  1.00  0.00     0.246 C 
ATOM     20  O   UNL     1       1.090  -0.964   0.682  1.00  0.00    -0.273 OA
ATOM     21  N   UNL     1       2.782   0.528   1.108  1.00  0.00    -0.324 N 
ATOM     22  H   UNL     1       3.765   0.569   1.124  1.00  0.00     0.169 HD
BRANCH  21  23
ATOM     23  C   UNL     1       2.043   1.470   1.847  1.00  0.00     0.042 A 
ATOM     24  C   UNL     1       2.012   1.386   3.242  1.00  0.00     0.027 A 
ATOM     25  C   UNL     1       1.730   2.668   1.209  1.00  0.00     0.039 A 
ATOM     26  C   UNL     1       1.919   2.561   4.000  1.00  0.00     0.015 A 
ATOM     27  C   UNL     1       1.588   3.822   1.965  1.00  0.00     0.036 A 
ATOM     28  C   UNL     1       1.875   3.784   3.326  1.00  0.00     0.034 A 
ATOM     29  C   UNL     1       1.700   5.103   1.256  1.00  0.00     0.194 C 
ATOM     30  C   UNL     1       2.685   4.922   3.855  1.00  0.00     0.194 C 
ATOM     31  O   UNL     1       0.905   5.486   0.417  1.00  0.00    -0.289 OA
ATOM     32  C   UNL     1       2.970   5.776   1.533  1.00  0.00     0.034 A 
ATOM     33  C   UNL     1       3.494   5.644   2.823  1.00  0.00     0.034 A 
ATOM     34  O   UNL     1       2.825   5.131   5.049  1.00  0.00    -0.289 OA
ATOM     35  C   UNL     1       3.732   6.244   0.464  1.00  0.00     0.013 A 
ATOM     36  C   UNL     1       4.829   5.973   3.046  1.00  0.00     0.013 A 
ATOM     37  C   UNL     1       5.073   6.534   0.684  1.00  0.00     0.001 A 
ATOM     38  C   UNL     1       5.619   6.396   1.967  1.00  0.00     0.001 A 
ENDBRANCH  21  23
ENDBRANCH  18  19
ENDBRANCH   8  18
ENDBRANCH   5   7
ENDBRANCH   4   5
ENDBRANCH   3   4
ENDBRANCH   2   3
ENDBRANCH   1   2
BRANCH   1  39
ATOM     39  C   UNL     1       5.656  -0.278  -6.622  1.00  0.00     0.202 C 
BRANCH  39  40
ATOM     40  C   UNL     1       4.504  -1.022  -7.309  1.00  0.00     0.261 C 
BRANCH  40  41
ATOM     41  O   UNL     1       4.389  -2.382  -6.864  1.00  0.00    -0.460 OA
BRANCH  41  42
ATOM     42  C   UNL     1       4.685  -3.321  -7.798  1.00  0.00     0.338 C 
ATOM     43  O   UNL     1       4.997  -3.123  -8.962  1.00  0.00    -0.246 OA
BRANCH  42  44
ATOM     44  C   UNL     1       4.793  -4.638  -7.141  1.00  0.00     0.060 A 
ATOM     45  C   UNL     1       3.772  -5.132  -6.327  1.00  0.00     0.016 A 
ATOM     46  C   UNL     1       5.949  -5.396  -7.372  1.00  0.00     0.016 A 
ATOM     47  C   UNL     1       3.904  -6.402  -5.760  1.00  0.00     0.010 A 
ATOM     48  C   UNL     1       6.077  -6.664  -6.806  1.00  0.00     0.010 A 
ATOM     49  C   UNL     1       5.049  -7.184  -6.008  1.00  0.00    -0.014 A 
BRANCH  49  50
ATOM     50  C   UNL     1       5.100  -8.595  -5.551  1.00  0.00     0.031 A 
ATOM     51  C   UNL     1       5.970  -9.022  -4.409  1.00  0.00     0.074 A 
ATOM     52  C   UNL     1       4.355  -9.503  -6.211  1.00  0.00     0.049 A 
ATOM     53  N   UNL     1       6.054 -10.196  -3.840  1.00  0.00    -0.248 NA
ATOM     54  C   UNL     1       6.869  -8.009  -3.837  1.00  0.00     0.031 C 
ATOM     55  C   UNL     1       3.518  -9.201  -7.372  1.00  0.00     0.029 A 
ATOM     56  N   UNL     1       4.175 -10.847  -6.007  1.00  0.00    -0.354 N 
ATOM     57  C   UNL     1       6.997 -10.065  -2.829  1.00  0.00     0.074 A 
ATOM     58  C   UNL     1       7.499  -8.709  -2.900  1.00  0.00     0.031 C 
ATOM     59  C   UNL     1       2.889 -10.319  -7.759  1.00  0.00     0.029 A 
ATOM     60  C   UNL     1       3.301 -11.426  -6.898  1.00  0.00     0.049 A 
ATOM     61  H   UNL     1       4.628 -11.350  -5.292  1.00  0.00     0.167 HD
ATOM     62  C   UNL     1       7.385 -10.989  -1.916  1.00  0.00     0.034 A 
ATOM     63  C   UNL     1       2.871 -12.700  -7.010  1.00  0.00     0.034 A 
ATOM     64  C   UNL     1       6.879 -12.340  -1.878  1.00  0.00     0.049 A 
ATOM     65  C   UNL     1       3.328 -13.713  -5.992  1.00  0.00     0.074 A 
ATOM     66  C   UNL     1       7.168 -13.332  -0.958  1.00  0.00     0.029 A 
ATOM     67  N   UNL     1       5.997 -12.896  -2.795  1.00  0.00    -0.354 N 
ATOM     68  N   UNL     1       4.125 -13.543  -4.964  1.00  0.00    -0.248 NA
ATOM     69  C   UNL     1       2.817 -15.083  -6.132  1.00  0.00     0.031 C 
ATOM     70  C   UNL     1       6.533 -14.505  -1.363  1.00  0.00     0.029 A 
ATOM     71  C   UNL     1       5.765 -14.227  -2.484  1.00  0.00     0.049 A 
ATOM     72  H   UNL     1       5.596 -12.416  -3.555  1.00  0.00     0.167 HD
ATOM     73  C   UNL     1       4.189 -14.775  -4.318  1.00  0.00     0.074 A 
ATOM     74  C   UNL     1       3.330 -15.675  -5.060  1.00  0.00     0.031 C 
ATOM     75  C   UNL     1       4.897 -15.123  -3.214  1.00  0.00     0.034 A 
BRANCH  62  76
ATOM     76  C   UNL     1       8.385 -10.591  -0.856  1.00  0.00     0.023 A 
ATOM     77  C   UNL     1       9.612 -11.273  -0.749  1.00  0.00     0.031 A 
ATOM     78  C   UNL     1       8.059  -9.653   0.141  1.00  0.00     0.131 A 
ATOM     79  C   UNL     1      10.447 -11.039   0.352  1.00  0.00     0.055 A 
ATOM     80  C   UNL     1       8.915  -9.390   1.211  1.00  0.00     0.041 A 
ATOM     81  F   UNL     1       6.898  -8.980   0.090  1.00  0.00    -0.206 F 
ATOM     82  C   UNL     1      10.109 -10.096   1.328  1.00  0.00     0.022 A 
BRANCH  79  83
ATOM     83  S   UNL     1      11.962 -12.004   0.605  1.00  0.00     0.124 S 
ATOM     84  O   UNL     1      12.983 -10.958   0.610  1.00  0.00    -0.237 OA
ATOM     85  O   UNL     1      11.710 -12.635   1.897  1.00  0.00    -0.237 OA
ATOM     86  O   UNL     1      12.001 -12.904  -0.542  1.00  0.00    -0.744 OA
ENDBRANCH  79  83
ENDBRANCH  62  76
BRANCH  63  87
ATOM     87  C   UNL     1       1.896 -13.037  -8.087  1.00  0.00     0.023 A 
ATOM     88  C   UNL     1       2.232 -12.864  -9.443  1.00  0.00     0.031 A 
ATOM     89  C   UNL     1       0.576 -13.403  -7.776  1.00  0.00     0.131 A 
ATOM     90  C   UNL     1       1.242 -12.977 -10.427  1.00  0.00     0.055 A 
ATOM     91  C   UNL     1      -0.389 -13.593  -8.767  1.00  0.00     0.041 A 
ATOM     92  F   UNL     1       0.202 -13.564  -6.497  1.00  0.00    -0.206 F 
ATOM     93  C   UNL     1      -0.062 -13.359 -10.100  1.00  0.00     0.022 A 
BRANCH  90  94
ATOM     94  S   UNL     1       1.578 -12.486 -12.141  1.00  0.00     0.124 S 
ATOM     95  O   UNL     1       1.283 -13.713 -12.874  1.00  0.00    -0.237 OA
ATOM     96  O   UNL     1       0.625 -11.394 -12.328  1.00  0.00    -0.237 OA
ATOM     97  O   UNL     1       2.981 -12.087 -12.117  1.00  0.00    -0.744 OA
ENDBRANCH  90  94
ENDBRANCH  63  87
BRANCH  75  98
ATOM     98  C   UNL     1       4.795 -16.541  -2.697  1.00  0.00     0.023 A 
ATOM     99  C   UNL     1       4.321 -16.779  -1.391  1.00  0.00     0.031 A 
ATOM    100  C   UNL     1       5.320 -17.628  -3.418  1.00  0.00     0.131 A 
ATOM    101  C   UNL     1       4.434 -18.056  -0.828  1.00  0.00     0.055 A 
ATOM    102  C   UNL     1       5.377 -18.912  -2.872  1.00  0.00     0.041 A 
ATOM    103  F   UNL     1       5.797 -17.455  -4.661  1.00  0.00    -0.206 F 
ATOM    104  C   UNL     1       4.950 -19.126  -1.565  1.00  0.00     0.022 A 
BRANCH 101 105
ATOM    105  S   UNL     1       4.019 -18.351   0.914  1.00  0.00     0.124 S 
ATOM    106  O   UNL     1       2.966 -19.359   0.807  1.00  0.00    -0.237 OA
ATOM    107  O   UNL     1       5.288 -18.830   1.455  1.00  0.00    -0.237 OA
ATOM    108  O   UNL     1       3.582 -17.046   1.399  1.00  0.00    -0.744 OA
ENDBRANCH 101 105
ENDBRANCH  75  98
ENDBRANCH  49  50
ENDBRANCH  42  44
ENDBRANCH  41  42
ENDBRANCH  40  41
ENDBRANCH  39  40
ENDBRANCH   1  39
TORSDOF 20
