REMARK SMILES C[C@@H]1CCC[C@H](C)[N@H+]1Cc1cc2c(cc1Cl)C=C(C(=O)OCCOCCOC(=O)c1ccc(-c3c4nc(c(-c5cc(S(=O)(=O)[O-])ccc5F)c5ccc([nH]5)c(-c5cc(S(=O)(=O)[O-])ccc5F)c5nc(c(-c6cc(S(=O)(=O)[O-])ccc6F)c6ccc3[nH]6)C=C5)C=C4)cc1)[C@@H](C(F)(F)F)O2
REMARK SMILES IDX 25 1 24 2 23 3 22 4 21 5 19 6 20 7 18 8 10 9 11 10 15 11
REMARK SMILES IDX 12 12 14 13 16 14 13 15 98 16 17 17 93 18 9 19 8 20 7 21
REMARK SMILES IDX 6 22 5 23 4 24 2 25 3 27 1 28 94 29 95 30 96 31 97 32 26 33
REMARK SMILES IDX 27 34 28 35 29 36 30 37 31 38 92 39 32 40 91 41 33 42 34 43
REMARK SMILES IDX 35 44 85 45 36 46 90 47 84 48 86 49 37 50 89 51 83 52 82 53
REMARK SMILES IDX 38 55 70 56 50 57 69 58 51 59 54 60 68 61 87 62 52 63 53 64
REMARK SMILES IDX 67 66 88 67 55 68 39 69 40 70 48 71 41 72 47 73 49 74 46 75
REMARK SMILES IDX 42 76 43 77 44 78 45 79 71 80 72 81 80 82 73 83 79 84 81 85
REMARK SMILES IDX 78 86 74 87 75 88 76 89 77 90 56 91 57 92 65 93 58 94 64 95
REMARK SMILES IDX 66 96 63 97 59 98 60 99 61 100 62 101
REMARK H PARENT 8 26 86 54 54 65
REMARK Flexibility Score: inf
ROOT
ATOM      1  C   UNL     1      -4.297   6.940   3.878  1.00  0.00     0.202 C 
ENDROOT
BRANCH   1   2
ATOM      2  O   UNL     1      -5.351   7.588   4.587  1.00  0.00    -0.374 OA
BRANCH   2   3
ATOM      3  C   UNL     1      -5.131   7.961   5.945  1.00  0.00     0.202 C 
BRANCH   3   4
ATOM      4  C   UNL     1      -5.172   6.857   7.005  1.00  0.00     0.261 C 
BRANCH   4   5
ATOM      5  O   UNL     1      -4.267   5.781   6.711  1.00  0.00    -0.460 OA
BRANCH   5   6
ATOM      6  C   UNL     1      -4.888   4.651   6.305  1.00  0.00     0.338 C 
ATOM      7  O   UNL     1      -6.095   4.464   6.255  1.00  0.00    -0.246 OA
BRANCH   6   8
ATOM      8  C   UNL     1      -3.916   3.660   5.810  1.00  0.00     0.087 C 
ATOM      9  C   UNL     1      -1.980  -0.380   3.530  1.00  0.00     0.029 A 
ATOM     10  C   UNL     1      -1.434   0.633   4.353  1.00  0.00     0.058 A 
ATOM     11  C   UNL     1      -3.376  -0.418   3.375  1.00  0.00     0.050 A 
ATOM     12  C   UNL     1      -2.238   1.663   4.852  1.00  0.00     0.128 A 
ATOM     13  C   UNL     1      -4.159   0.651   3.800  1.00  0.00     0.033 A 
ATOM     14  Cl  UNL     1      -4.219  -1.746   2.658  1.00  0.00    -0.084 Cl
ATOM     15  C   UNL     1      -3.582   1.707   4.498  1.00  0.00     0.019 A 
ATOM     16  O   UNL     1      -1.650   2.632   5.621  1.00  0.00    -0.475 OA
ATOM     17  C   UNL     1      -4.399   2.837   4.873  1.00  0.00     0.027 C 
ATOM     18  C   UNL     1      -2.536   3.514   6.393  1.00  0.00     0.316 C 
BRANCH   9  19
ATOM     19  C   UNL     1      -1.058  -1.326   2.781  1.00  0.00     0.301 C 
BRANCH  19  20
ATOM     20  N   UNL     1      -0.611  -0.914   1.425  1.00  0.00    -0.327 N 
ATOM     21  C   UNL     1       1.417  -0.081   0.262  1.00  0.00     0.075 C 
ATOM     22  C   UNL     1       0.409   0.145   1.402  1.00  0.00     0.181 C 
ATOM     23  C   UNL     1      -0.171   1.566   1.321  1.00  0.00     0.065 C 
ATOM     24  C   UNL     1      -1.244   1.728   0.252  1.00  0.00     0.012 C 
ATOM     25  C   UNL     1      -1.674  -0.799   0.413  1.00  0.00     0.181 C 
ATOM     26  H   UNL     1      -0.096  -1.731   1.096  1.00  0.00     0.348 HD
ATOM     27  C   UNL     1      -2.279   0.610   0.291  1.00  0.00     0.065 C 
ATOM     28  C   UNL     1      -1.225  -1.307  -0.966  1.00  0.00     0.075 C 
ENDBRANCH  19  20
ENDBRANCH   9  19
BRANCH  18  29
ATOM     29  C   UNL     1      -2.603   3.056   7.857  1.00  0.00     0.430 C 
ATOM     30  F   UNL     1      -1.369   2.860   8.375  1.00  0.00    -0.167 F 
ATOM     31  F   UNL     1      -3.218   3.978   8.635  1.00  0.00    -0.167 F 
ATOM     32  F   UNL     1      -3.289   1.896   7.991  1.00  0.00    -0.167 F 
ENDBRANCH  18  29
ENDBRANCH   6   8
ENDBRANCH   5   6
ENDBRANCH   4   5
ENDBRANCH   3   4
ENDBRANCH   2   3
ENDBRANCH   1   2
BRANCH   1  33
ATOM     33  C   UNL     1      -3.056   7.758   3.494  1.00  0.00     0.261 C 
BRANCH  33  34
ATOM     34  O   UNL     1      -2.311   8.218   4.632  1.00  0.00    -0.460 OA
BRANCH  34  35
ATOM     35  C   UNL     1      -2.418   9.548   4.882  1.00  0.00     0.338 C 
ATOM     36  O   UNL     1      -3.055  10.366   4.233  1.00  0.00    -0.246 OA
BRANCH  35  37
ATOM     37  C   UNL     1      -1.822   9.846   6.198  1.00  0.00     0.060 A 
ATOM     38  C   UNL     1      -0.537   9.413   6.524  1.00  0.00     0.016 A 
ATOM     39  C   UNL     1      -2.572  10.601   7.111  1.00  0.00     0.016 A 
ATOM     40  C   UNL     1       0.009   9.766   7.759  1.00  0.00     0.010 A 
ATOM     41  C   UNL     1      -2.020  10.959   8.341  1.00  0.00     0.010 A 
ATOM     42  C   UNL     1      -0.717  10.561   8.667  1.00  0.00    -0.014 A 
BRANCH  42  43
ATOM     43  C   UNL     1      -0.042  11.096   9.877  1.00  0.00     0.031 A 
ATOM     44  C   UNL     1      -0.380  10.617  11.254  1.00  0.00     0.074 A 
ATOM     45  C   UNL     1       0.888  12.055   9.709  1.00  0.00     0.049 A 
ATOM     46  N   UNL     1       0.217  10.894  12.383  1.00  0.00    -0.248 NA
ATOM     47  C   UNL     1      -1.541   9.725  11.388  1.00  0.00     0.031 C 
ATOM     48  C   UNL     1       1.238  12.652   8.421  1.00  0.00     0.029 A 
ATOM     49  N   UNL     1       1.710  12.688  10.607  1.00  0.00    -0.354 N 
ATOM     50  C   UNL     1      -0.483  10.207  13.366  1.00  0.00     0.074 A 
ATOM     51  C   UNL     1      -1.584   9.540  12.702  1.00  0.00     0.031 C 
ATOM     52  C   UNL     1       2.231  13.532   8.603  1.00  0.00     0.029 A 
ATOM     53  C   UNL     1       2.565  13.594  10.025  1.00  0.00     0.049 A 
ATOM     54  H   UNL     1       1.689  12.511  11.576  1.00  0.00     0.167 HD
ATOM     55  C   UNL     1      -0.216  10.133  14.692  1.00  0.00     0.034 A 
ATOM     56  C   UNL     1       3.519  14.382  10.564  1.00  0.00     0.034 A 
ATOM     57  C   UNL     1       0.883  10.819  15.329  1.00  0.00     0.049 A 
ATOM     58  C   UNL     1       3.813  14.269  12.036  1.00  0.00     0.074 A 
ATOM     59  C   UNL     1       1.286  10.736  16.651  1.00  0.00     0.029 A 
ATOM     60  N   UNL     1       1.736  11.725  14.713  1.00  0.00    -0.354 N 
ATOM     61  N   UNL     1       3.240  13.499  12.931  1.00  0.00    -0.248 NA
ATOM     62  C   UNL     1       4.892  15.108  12.572  1.00  0.00     0.031 C 
ATOM     63  C   UNL     1       2.311  11.660  16.855  1.00  0.00     0.029 A 
ATOM     64  C   UNL     1       2.629  12.244  15.639  1.00  0.00     0.049 A 
ATOM     65  H   UNL     1       1.710  11.965  13.758  1.00  0.00     0.167 HD
ATOM     66  C   UNL     1       3.902  13.744  14.130  1.00  0.00     0.074 A 
ATOM     67  C   UNL     1       4.937  14.714  13.839  1.00  0.00     0.031 C 
ATOM     68  C   UNL     1       3.667  13.211  15.357  1.00  0.00     0.034 A 
BRANCH  55  69
ATOM     69  C   UNL     1      -1.102   9.277  15.567  1.00  0.00     0.023 A 
ATOM     70  C   UNL     1      -1.782   9.855  16.656  1.00  0.00     0.031 A 
ATOM     71  C   UNL     1      -1.156   7.879  15.421  1.00  0.00     0.131 A 
ATOM     72  C   UNL     1      -2.451   9.039  17.576  1.00  0.00     0.055 A 
ATOM     73  C   UNL     1      -1.869   7.074  16.312  1.00  0.00     0.041 A 
ATOM     74  F   UNL     1      -0.516   7.272  14.408  1.00  0.00    -0.206 F 
ATOM     75  C   UNL     1      -2.507   7.652  17.404  1.00  0.00     0.022 A 
BRANCH  72  76
ATOM     76  S   UNL     1      -3.197   9.733  19.077  1.00  0.00     0.124 S 
ATOM     77  O   UNL     1      -4.602   9.368  18.908  1.00  0.00    -0.237 OA
ATOM     78  O   UNL     1      -2.488   9.012  20.131  1.00  0.00    -0.237 OA
ATOM     79  O   UNL     1      -2.910  11.160  18.985  1.00  0.00    -0.744 OA
ENDBRANCH  72  76
ENDBRANCH  55  69
BRANCH  56  80
ATOM     80  C   UNL     1       4.298  15.273   9.656  1.00  0.00     0.023 A 
ATOM     81  C   UNL     1       3.648  16.277   8.915  1.00  0.00     0.031 A 
ATOM     82  C   UNL     1       5.656  15.030   9.394  1.00  0.00     0.131 A 
ATOM     83  C   UNL     1       4.331  16.931   7.883  1.00  0.00     0.055 A 
ATOM     84  C   UNL     1       6.356  15.745   8.420  1.00  0.00     0.041 A 
ATOM     85  F   UNL     1       6.314  14.071  10.063  1.00  0.00    -0.206 F 
ATOM     86  C   UNL     1       5.686  16.686   7.642  1.00  0.00     0.022 A 
BRANCH  83  87
ATOM     87  S   UNL     1       3.440  17.996   6.715  1.00  0.00     0.124 S 
ATOM     88  O   UNL     1       4.176  19.251   6.821  1.00  0.00    -0.237 OA
ATOM     89  O   UNL     1       3.612  17.266   5.461  1.00  0.00    -0.237 OA
ATOM     90  O   UNL     1       2.078  18.018   7.237  1.00  0.00    -0.744 OA
ENDBRANCH  83  87
ENDBRANCH  56  80
BRANCH  68  91
ATOM     91  C   UNL     1       4.534  13.643  16.520  1.00  0.00     0.023 A 
ATOM     92  C   UNL     1       5.279  12.682  17.233  1.00  0.00     0.031 A 
ATOM     93  C   UNL     1       4.496  14.955  17.024  1.00  0.00     0.131 A 
ATOM     94  C   UNL     1       5.907  13.032  18.435  1.00  0.00     0.055 A 
ATOM     95  C   UNL     1       5.176  15.314  18.190  1.00  0.00     0.041 A 
ATOM     96  F   UNL     1       3.792  15.908  16.393  1.00  0.00    -0.206 F 
ATOM     97  C   UNL     1       5.870  14.346  18.911  1.00  0.00     0.022 A 
BRANCH  94  98
ATOM     98  S   UNL     1       6.700  11.777  19.479  1.00  0.00     0.124 S 
ATOM     99  O   UNL     1       8.083  12.247  19.519  1.00  0.00    -0.237 OA
ATOM    100  O   UNL     1       5.961  11.907  20.731  1.00  0.00    -0.237 OA
ATOM    101  O   UNL     1       6.489  10.530  18.752  1.00  0.00    -0.744 OA
ENDBRANCH  94  98
ENDBRANCH  68  91
ENDBRANCH  42  43
ENDBRANCH  35  37
ENDBRANCH  34  35
ENDBRANCH  33  34
ENDBRANCH   1  33
TORSDOF 20
