REMARK SMILES CC(C)CSc1cc2c(cc1Cl)C=C(C(=O)OCCOCCOC(=O)c1ccc(-c3c4nc(c(-c5cc(S(=O)(=O)[O-])ccc5F)c5ccc([nH]5)c(-c5cc(S(=O)(=O)[O-])ccc5F)c5nc(c(-c6cc(S(=O)(=O)[O-])ccc6F)c6ccc3[nH]6)C=C5)C=C4)cc1)[C@@H](C(F)(F)F)O2
REMARK SMILES IDX 20 1 19 2 18 3 17 4 15 5 16 6 14 7 6 8 7 9 11 10 8 11 10 12
REMARK SMILES IDX 12 13 9 14 94 15 13 16 89 17 5 18 4 19 2 20 1 21 3 22 90 23
REMARK SMILES IDX 91 24 92 25 93 26 21 27 22 28 23 29 24 30 25 31 26 32 27 33
REMARK SMILES IDX 88 34 28 35 87 36 29 37 30 38 31 39 81 40 32 41 86 42 80 43
REMARK SMILES IDX 82 44 33 45 85 46 79 47 78 48 34 50 66 51 46 52 65 53 47 54
REMARK SMILES IDX 50 55 64 56 83 57 48 58 49 59 63 61 84 62 51 63 35 64 36 65
REMARK SMILES IDX 44 66 37 67 43 68 45 69 42 70 38 71 39 72 40 73 41 74 67 75
REMARK SMILES IDX 68 76 76 77 69 78 75 79 77 80 74 81 70 82 71 83 72 84 73 85
REMARK SMILES IDX 52 86 53 87 61 88 54 89 60 90 62 91 59 92 55 93 56 94 57 95
REMARK SMILES IDX 58 96
REMARK H PARENT 82 49 50 60
REMARK Flexibility Score: inf
ROOT
ATOM      1  O   UNL     1       1.782  -9.184   3.169  1.00  0.00    -0.374 OA
ENDROOT
BRANCH   1   2
ATOM      2  C   UNL     1       3.114  -9.245   2.663  1.00  0.00     0.202 C 
BRANCH   2   3
ATOM      3  C   UNL     1       3.421  -8.472   1.377  1.00  0.00     0.261 C 
BRANCH   3   4
ATOM      4  O   UNL     1       3.099  -7.080   1.505  1.00  0.00    -0.460 OA
BRANCH   4   5
ATOM      5  C   UNL     1       2.012  -6.684   0.804  1.00  0.00     0.338 C 
ATOM      6  O   UNL     1       1.380  -7.341  -0.008  1.00  0.00    -0.246 OA
BRANCH   5   7
ATOM      7  C   UNL     1       1.588  -5.349   1.270  1.00  0.00     0.087 C 
ATOM      8  C   UNL     1      -0.931  -1.104   1.942  1.00  0.00     0.030 A 
ATOM      9  C   UNL     1       0.358  -1.526   2.292  1.00  0.00     0.063 A 
ATOM     10  C   UNL     1      -1.878  -2.064   1.549  1.00  0.00     0.055 A 
ATOM     11  C   UNL     1       0.748  -2.846   2.077  1.00  0.00     0.129 A 
ATOM     12  C   UNL     1      -1.504  -3.404   1.408  1.00  0.00     0.033 A 
ATOM     13  Cl  UNL     1      -3.518  -1.656   1.179  1.00  0.00    -0.083 Cl
ATOM     14  C   UNL     1      -0.176  -3.783   1.617  1.00  0.00     0.019 A 
ATOM     15  O   UNL     1       2.064  -3.135   2.303  1.00  0.00    -0.475 OA
ATOM     16  C   UNL     1       0.267  -5.125   1.291  1.00  0.00     0.027 C 
ATOM     17  C   UNL     1       2.617  -4.326   1.671  1.00  0.00     0.316 C 
BRANCH   8  18
ATOM     18  S   UNL     1      -1.232   0.658   1.930  1.00  0.00    -0.124 SA
BRANCH  18  19
ATOM     19  C   UNL     1      -0.871   1.036   0.161  1.00  0.00     0.078 C 
BRANCH  19  20
ATOM     20  C   UNL     1       0.626   1.268  -0.141  1.00  0.00    -0.007 C 
ATOM     21  C   UNL     1       1.345   0.006  -0.624  1.00  0.00     0.008 C 
ATOM     22  C   UNL     1       0.788   2.332  -1.235  1.00  0.00     0.008 C 
ENDBRANCH  19  20
ENDBRANCH  18  19
ENDBRANCH   8  18
BRANCH  17  23
ATOM     23  C   UNL     1       3.512  -3.925   0.488  1.00  0.00     0.430 C 
ATOM     24  F   UNL     1       4.356  -2.921   0.822  1.00  0.00    -0.167 F 
ATOM     25  F   UNL     1       4.274  -4.962   0.070  1.00  0.00    -0.167 F 
ATOM     26  F   UNL     1       2.783  -3.504  -0.573  1.00  0.00    -0.167 F 
ENDBRANCH  17  23
ENDBRANCH   5   7
ENDBRANCH   4   5
ENDBRANCH   3   4
ENDBRANCH   2   3
ENDBRANCH   1   2
BRANCH   1  27
ATOM     27  C   UNL     1       1.365  -8.002   3.850  1.00  0.00     0.202 C 
BRANCH  27  28
ATOM     28  C   UNL     1       1.940  -7.708   5.242  1.00  0.00     0.261 C 
BRANCH  28  29
ATOM     29  O   UNL     1       3.356  -7.469   5.227  1.00  0.00    -0.460 OA
BRANCH  29  30
ATOM     30  C   UNL     1       4.105  -8.464   5.769  1.00  0.00     0.338 C 
ATOM     31  O   UNL     1       3.696  -9.499   6.271  1.00  0.00    -0.246 OA
BRANCH  30  32
ATOM     32  C   UNL     1       5.528  -8.213   5.474  1.00  0.00     0.060 A 
ATOM     33  C   UNL     1       6.143  -7.015   5.839  1.00  0.00     0.016 A 
ATOM     34  C   UNL     1       6.261  -9.227   4.843  1.00  0.00     0.016 A 
ATOM     35  C   UNL     1       7.507  -6.844   5.587  1.00  0.00     0.010 A 
ATOM     36  C   UNL     1       7.623  -9.053   4.593  1.00  0.00     0.010 A 
ATOM     37  C   UNL     1       8.261  -7.866   4.979  1.00  0.00    -0.014 A 
BRANCH  37  38
ATOM     38  C   UNL     1       9.737  -7.743   4.876  1.00  0.00     0.031 A 
ATOM     39  C   UNL     1      10.418  -7.514   3.560  1.00  0.00     0.074 A 
ATOM     40  C   UNL     1      10.467  -7.865   6.003  1.00  0.00     0.049 A 
ATOM     41  N   UNL     1      11.687  -7.309   3.322  1.00  0.00    -0.248 NA
ATOM     42  C   UNL     1       9.574  -7.523   2.356  1.00  0.00     0.031 C 
ATOM     43  C   UNL     1       9.908  -8.139   7.327  1.00  0.00     0.029 A 
ATOM     44  N   UNL     1      11.818  -7.770   6.223  1.00  0.00    -0.354 N 
ATOM     45  C   UNL     1      11.798  -7.146   1.947  1.00  0.00     0.074 A 
ATOM     46  C   UNL     1      10.471  -7.329   1.397  1.00  0.00     0.031 C 
ATOM     47  C   UNL     1      10.902  -8.155   8.226  1.00  0.00     0.029 A 
ATOM     48  C   UNL     1      12.175  -7.933   7.542  1.00  0.00     0.049 A 
ATOM     49  H   UNL     1      12.470  -7.601   5.505  1.00  0.00     0.167 HD
ATOM     50  C   UNL     1      12.903  -6.851   1.222  1.00  0.00     0.034 A 
ATOM     51  C   UNL     1      13.385  -7.906   8.138  1.00  0.00     0.034 A 
ATOM     52  C   UNL     1      14.217  -6.679   1.793  1.00  0.00     0.049 A 
ATOM     53  C   UNL     1      14.601  -7.598   7.302  1.00  0.00     0.074 A 
ATOM     54  C   UNL     1      15.386  -6.320   1.144  1.00  0.00     0.029 A 
ATOM     55  N   UNL     1      14.546  -6.860   3.129  1.00  0.00    -0.354 N 
ATOM     56  N   UNL     1      14.672  -7.323   6.021  1.00  0.00    -0.248 NA
ATOM     57  C   UNL     1      15.901  -7.579   7.988  1.00  0.00     0.031 C 
ATOM     58  C   UNL     1      16.431  -6.369   2.065  1.00  0.00     0.029 A 
ATOM     59  C   UNL     1      15.906  -6.661   3.313  1.00  0.00     0.049 A 
ATOM     60  H   UNL     1      13.908  -7.096   3.841  1.00  0.00     0.167 HD
ATOM     61  C   UNL     1      16.015  -7.068   5.755  1.00  0.00     0.074 A 
ATOM     62  C   UNL     1      16.717  -7.195   7.014  1.00  0.00     0.031 C 
ATOM     63  C   UNL     1      16.607  -6.763   4.573  1.00  0.00     0.034 A 
BRANCH  50  64
ATOM     64  C   UNL     1      12.773  -6.655  -0.270  1.00  0.00     0.023 A 
ATOM     65  C   UNL     1      13.506  -7.471  -1.154  1.00  0.00     0.031 A 
ATOM     66  C   UNL     1      12.081  -5.554  -0.803  1.00  0.00     0.131 A 
ATOM     67  C   UNL     1      13.576  -7.140  -2.513  1.00  0.00     0.055 A 
ATOM     68  C   UNL     1      12.114  -5.256  -2.167  1.00  0.00     0.041 A 
ATOM     69  F   UNL     1      11.374  -4.740  -0.003  1.00  0.00    -0.206 F 
ATOM     70  C   UNL     1      12.879  -6.041  -3.025  1.00  0.00     0.022 A 
BRANCH  67  71
ATOM     71  S   UNL     1      14.647  -8.062  -3.650  1.00  0.00     0.124 S 
ATOM     72  O   UNL     1      13.693  -8.515  -4.659  1.00  0.00    -0.237 OA
ATOM     73  O   UNL     1      15.581  -7.030  -4.093  1.00  0.00    -0.237 OA
ATOM     74  O   UNL     1      15.217  -9.116  -2.818  1.00  0.00    -0.744 OA
ENDBRANCH  67  71
ENDBRANCH  50  64
BRANCH  51  75
ATOM     75  C   UNL     1      13.474  -8.110   9.614  1.00  0.00     0.023 A 
ATOM     76  C   UNL     1      13.027  -9.305  10.207  1.00  0.00     0.031 A 
ATOM     77  C   UNL     1      13.910  -7.078  10.462  1.00  0.00     0.131 A 
ATOM     78  C   UNL     1      12.958  -9.410  11.602  1.00  0.00     0.055 A 
ATOM     79  C   UNL     1      13.916  -7.217  11.851  1.00  0.00     0.041 A 
ATOM     80  F   UNL     1      14.330  -5.912   9.947  1.00  0.00    -0.206 F 
ATOM     81  C   UNL     1      13.420  -8.382  12.428  1.00  0.00     0.022 A 
BRANCH  78  82
ATOM     82  S   UNL     1      12.134 -10.823  12.387  1.00  0.00     0.124 S 
ATOM     83  O   UNL     1      13.207 -11.388  13.200  1.00  0.00    -0.237 OA
ATOM     84  O   UNL     1      11.059 -10.167  13.127  1.00  0.00    -0.237 OA
ATOM     85  O   UNL     1      11.700 -11.640  11.259  1.00  0.00    -0.744 OA
ENDBRANCH  78  82
ENDBRANCH  51  75
BRANCH  63  86
ATOM     86  C   UNL     1      18.100  -6.522   4.542  1.00  0.00     0.023 A 
ATOM     87  C   UNL     1      18.601  -5.282   4.096  1.00  0.00     0.031 A 
ATOM     88  C   UNL     1      19.019  -7.558   4.782  1.00  0.00     0.131 A 
ATOM     89  C   UNL     1      19.971  -5.129   3.849  1.00  0.00     0.055 A 
ATOM     90  C   UNL     1      20.391  -7.381   4.593  1.00  0.00     0.041 A 
ATOM     91  F   UNL     1      18.596  -8.764   5.195  1.00  0.00    -0.206 F 
ATOM     92  C   UNL     1      20.870  -6.168   4.106  1.00  0.00     0.022 A 
BRANCH  89  93
ATOM     93  S   UNL     1      20.622  -3.618   3.083  1.00  0.00     0.124 S 
ATOM     94  O   UNL     1      21.565  -3.148   4.095  1.00  0.00    -0.237 OA
ATOM     95  O   UNL     1      21.227  -4.132   1.857  1.00  0.00    -0.237 OA
ATOM     96  O   UNL     1      19.442  -2.780   2.898  1.00  0.00    -0.744 OA
ENDBRANCH  89  93
ENDBRANCH  63  86
ENDBRANCH  37  38
ENDBRANCH  30  32
ENDBRANCH  29  30
ENDBRANCH  28  29
ENDBRANCH  27  28
ENDBRANCH   1  27
TORSDOF 21
