REMARK SMILES C[C@@H]1CCC[C@@]1(C[NH3+])C(=O)OCCOCCOC(=O)c1ccc(-c2c3nc(c(-c4cc(S(=O)(=O)[O-])ccc4F)c4ccc([nH]4)c(-c4cc(S(=O)(=O)[O-])ccc4F)c4nc(c(-c5cc(S(=O)(=O)[O-])ccc5F)c5ccc2[nH]5)C=C4)C=C3)cc1
REMARK SMILES IDX 15 1 14 2 13 3 12 4 11 5 9 6 10 7 6 8 1 9 2 10 3 11 4 12
REMARK SMILES IDX 5 13 7 14 8 15 16 19 17 20 18 21 19 22 20 23 21 24 82 25
REMARK SMILES IDX 22 26 81 27 23 28 24 29 25 30 75 31 26 32 80 33 74 34 76 35
REMARK SMILES IDX 27 36 79 37 73 38 72 39 28 41 60 42 40 43 59 44 41 45 44 46
REMARK SMILES IDX 58 47 77 48 42 49 43 50 57 52 78 53 45 54 29 55 30 56 38 57
REMARK SMILES IDX 31 58 37 59 39 60 36 61 32 62 33 63 34 64 35 65 61 66 62 67
REMARK SMILES IDX 70 68 63 69 69 70 71 71 68 72 64 73 65 74 66 75 67 76 46 77
REMARK SMILES IDX 47 78 55 79 48 80 54 81 56 82 53 83 49 84 50 85 51 86 52 87
REMARK H PARENT 8 16 8 17 8 18 76 40 44 51
REMARK Flexibility Score: inf
ROOT
ATOM      1  C   UNL     1      -2.707   2.650   2.193  1.00  0.00     0.202 C 
ENDROOT
BRANCH   1   2
ATOM      2  O   UNL     1      -2.702   2.277   3.570  1.00  0.00    -0.374 OA
BRANCH   2   3
ATOM      3  C   UNL     1      -1.507   2.542   4.306  1.00  0.00     0.202 C 
BRANCH   3   4
ATOM      4  C   UNL     1      -0.387   1.505   4.173  1.00  0.00     0.261 C 
BRANCH   4   5
ATOM      5  O   UNL     1       0.188   1.504   2.851  1.00  0.00    -0.463 OA
BRANCH   5   6
ATOM      6  C   UNL     1      -0.214   0.496   2.033  1.00  0.00     0.318 C 
ATOM      7  O   UNL     1      -0.928  -0.430   2.403  1.00  0.00    -0.251 OA
BRANCH   6   8
ATOM      8  C   UNL     1       0.294   0.652   0.572  1.00  0.00     0.119 C 
ATOM      9  C   UNL     1       2.187  -0.419  -0.908  1.00  0.00     0.009 C 
ATOM     10  C   UNL     1       1.242  -0.546   0.286  1.00  0.00     0.009 C 
ATOM     11  C   UNL     1       0.283  -1.725   0.049  1.00  0.00     0.005 C 
ATOM     12  C   UNL     1      -0.998  -1.130  -0.531  1.00  0.00     0.002 C 
ATOM     13  C   UNL     1      -0.903   0.388  -0.369  1.00  0.00     0.025 C 
BRANCH   8  14
ATOM     14  C   UNL     1       0.903   2.069   0.364  1.00  0.00     0.278 C 
BRANCH  14  15
ATOM     15  N   UNL     1       1.085   2.535  -1.015  1.00  0.00    -0.357 N 
ATOM     16  H   UNL     1       1.766   1.941  -1.487  1.00  0.00     0.344 HD
ATOM     17  H   UNL     1       1.423   3.498  -1.006  1.00  0.00     0.344 HD
ATOM     18  H   UNL     1       0.194   2.491  -1.509  1.00  0.00     0.344 HD
ENDBRANCH  14  15
ENDBRANCH   8  14
ENDBRANCH   6   8
ENDBRANCH   5   6
ENDBRANCH   4   5
ENDBRANCH   3   4
ENDBRANCH   2   3
ENDBRANCH   1   2
BRANCH   1  19
ATOM     19  C   UNL     1      -2.999   4.121   1.881  1.00  0.00     0.261 C 
BRANCH  19  20
ATOM     20  O   UNL     1      -1.942   4.978   2.346  1.00  0.00    -0.460 OA
BRANCH  20  21
ATOM     21  C   UNL     1      -2.256   5.713   3.438  1.00  0.00     0.338 C 
ATOM     22  O   UNL     1      -3.352   5.790   3.979  1.00  0.00    -0.246 OA
BRANCH  21  23
ATOM     23  C   UNL     1      -1.033   6.281   4.036  1.00  0.00     0.060 A 
ATOM     24  C   UNL     1      -0.873   6.134   5.419  1.00  0.00     0.016 A 
ATOM     25  C   UNL     1      -0.090   6.987   3.283  1.00  0.00     0.016 A 
ATOM     26  C   UNL     1       0.194   6.748   6.068  1.00  0.00     0.010 A 
ATOM     27  C   UNL     1       0.978   7.611   3.938  1.00  0.00     0.010 A 
ATOM     28  C   UNL     1       1.099   7.529   5.338  1.00  0.00    -0.014 A 
BRANCH  28  29
ATOM     29  C   UNL     1       2.049   8.403   6.070  1.00  0.00     0.031 A 
ATOM     30  C   UNL     1       1.686   9.850   6.269  1.00  0.00     0.074 A 
ATOM     31  C   UNL     1       3.179   7.904   6.602  1.00  0.00     0.049 A 
ATOM     32  N   UNL     1       2.356  10.802   6.865  1.00  0.00    -0.248 NA
ATOM     33  C   UNL     1       0.391  10.280   5.719  1.00  0.00     0.031 C 
ATOM     34  C   UNL     1       3.603   6.506   6.524  1.00  0.00     0.029 A 
ATOM     35  N   UNL     1       4.175   8.518   7.319  1.00  0.00    -0.354 N 
ATOM     36  C   UNL     1       1.564  11.941   6.768  1.00  0.00     0.074 A 
ATOM     37  C   UNL     1       0.384  11.570   6.016  1.00  0.00     0.031 C 
ATOM     38  C   UNL     1       4.778   6.371   7.164  1.00  0.00     0.029 A 
ATOM     39  C   UNL     1       5.206   7.676   7.665  1.00  0.00     0.049 A 
ATOM     40  H   UNL     1       4.154   9.471   7.562  1.00  0.00     0.167 HD
ATOM     41  C   UNL     1       1.794  13.180   7.269  1.00  0.00     0.034 A 
ATOM     42  C   UNL     1       6.369   7.936   8.296  1.00  0.00     0.034 A 
ATOM     43  C   UNL     1       2.982  13.538   8.003  1.00  0.00     0.049 A 
ATOM     44  C   UNL     1       6.647   9.347   8.761  1.00  0.00     0.074 A 
ATOM     45  C   UNL     1       3.324  14.764   8.548  1.00  0.00     0.029 A 
ATOM     46  N   UNL     1       4.030  12.672   8.289  1.00  0.00    -0.354 N 
ATOM     47  N   UNL     1       5.891  10.418   8.658  1.00  0.00    -0.248 NA
ATOM     48  C   UNL     1       7.930   9.582   9.437  1.00  0.00     0.031 C 
ATOM     49  C   UNL     1       4.603  14.656   9.104  1.00  0.00     0.029 A 
ATOM     50  C   UNL     1       5.029  13.343   8.976  1.00  0.00     0.049 A 
ATOM     51  H   UNL     1       4.059  11.720   8.040  1.00  0.00     0.167 HD
ATOM     52  C   UNL     1       6.594  11.441   9.289  1.00  0.00     0.074 A 
ATOM     53  C   UNL     1       7.825  10.857   9.780  1.00  0.00     0.031 C 
ATOM     54  C   UNL     1       6.253  12.745   9.455  1.00  0.00     0.034 A 
BRANCH  41  55
ATOM     55  C   UNL     1       0.759  14.242   6.989  1.00  0.00     0.023 A 
ATOM     56  C   UNL     1      -0.544  14.163   7.512  1.00  0.00     0.031 A 
ATOM     57  C   UNL     1       1.073  15.338   6.166  1.00  0.00     0.131 A 
ATOM     58  C   UNL     1      -1.501  15.125   7.154  1.00  0.00     0.055 A 
ATOM     59  C   UNL     1       0.137  16.332   5.875  1.00  0.00     0.041 A 
ATOM     60  F   UNL     1       2.293  15.454   5.618  1.00  0.00    -0.206 F 
ATOM     61  C   UNL     1      -1.163  16.222   6.359  1.00  0.00     0.022 A 
BRANCH  58  62
ATOM     62  S   UNL     1      -3.228  14.853   7.637  1.00  0.00     0.124 S 
ATOM     63  O   UNL     1      -3.522  13.582   6.979  1.00  0.00    -0.237 OA
ATOM     64  O   UNL     1      -3.148  14.817   9.092  1.00  0.00    -0.237 OA
ATOM     65  O   UNL     1      -3.926  16.010   7.079  1.00  0.00    -0.744 OA
ENDBRANCH  58  62
ENDBRANCH  41  55
BRANCH  42  66
ATOM     66  C   UNL     1       7.384   6.862   8.496  1.00  0.00     0.023 A 
ATOM     67  C   UNL     1       7.782   6.466   9.783  1.00  0.00     0.031 A 
ATOM     68  C   UNL     1       8.028   6.266   7.396  1.00  0.00     0.131 A 
ATOM     69  C   UNL     1       8.831   5.545   9.939  1.00  0.00     0.055 A 
ATOM     70  C   UNL     1       9.031   5.309   7.556  1.00  0.00     0.041 A 
ATOM     71  F   UNL     1       7.689   6.609   6.143  1.00  0.00    -0.206 F 
ATOM     72  C   UNL     1       9.450   4.955   8.835  1.00  0.00     0.022 A 
BRANCH  69  73
ATOM     73  S   UNL     1       9.448   5.207  11.611  1.00  0.00     0.124 S 
ATOM     74  O   UNL     1       9.812   6.543  12.070  1.00  0.00    -0.237 OA
ATOM     75  O   UNL     1       8.280   4.605  12.247  1.00  0.00    -0.237 OA
ATOM     76  O   UNL     1      10.569   4.298  11.383  1.00  0.00    -0.744 OA
ENDBRANCH  69  73
ENDBRANCH  42  66
BRANCH  54  77
ATOM     77  C   UNL     1       7.205  13.609  10.247  1.00  0.00     0.023 A 
ATOM     78  C   UNL     1       8.489  13.928   9.772  1.00  0.00     0.031 A 
ATOM     79  C   UNL     1       6.822  14.107  11.506  1.00  0.00     0.131 A 
ATOM     80  C   UNL     1       9.366  14.674  10.575  1.00  0.00     0.055 A 
ATOM     81  C   UNL     1       7.677  14.899  12.274  1.00  0.00     0.041 A 
ATOM     82  F   UNL     1       5.608  13.833  12.009  1.00  0.00    -0.206 F 
ATOM     83  C   UNL     1       8.962  15.175  11.816  1.00  0.00     0.022 A 
BRANCH  80  84
ATOM     84  S   UNL     1      11.077  14.902  10.018  1.00  0.00     0.124 S 
ATOM     85  O   UNL     1      11.535  13.524   9.872  1.00  0.00    -0.237 OA
ATOM     86  O   UNL     1      10.904  15.651   8.778  1.00  0.00    -0.237 OA
ATOM     87  O   UNL     1      11.697  15.649  11.111  1.00  0.00    -0.744 OA
ENDBRANCH  80  84
ENDBRANCH  54  77
ENDBRANCH  28  29
ENDBRANCH  21  23
ENDBRANCH  20  21
ENDBRANCH  19  20
ENDBRANCH   1  19
TORSDOF 19
