REMARK SMILES C[C@@H](CC[NH+](C)C)NC(=O)Cn1cccc1C(=O)OCCOCCOC(=O)c1ccc(-c2c3nc(c(-c4cc(S(=O)(=O)[O-])ccc4F)c4ccc([nH]4)c(-c4cc(S(=O)(=O)[O-])ccc4F)c4nc(c(-c5cc(S(=O)(=O)[O-])ccc5F)c5ccc2[nH]5)C=C4)C=C3)cc1
REMARK SMILES IDX 20 1 19 2 17 3 18 4 16 5 12 6 13 7 14 8 15 9 11 10 9 11 8 12
REMARK SMILES IDX 10 14 2 15 1 16 3 17 4 18 5 19 6 20 7 21 21 23 22 24 23 25
REMARK SMILES IDX 24 26 25 27 26 28 27 29 28 30 29 31 90 32 30 33 89 34 31 35
REMARK SMILES IDX 32 36 33 37 83 38 34 39 88 40 82 41 84 42 35 43 87 44 81 45
REMARK SMILES IDX 80 46 36 48 68 49 48 50 67 51 49 52 52 53 66 54 85 55 50 56
REMARK SMILES IDX 51 57 65 59 86 60 53 61 37 62 38 63 46 64 39 65 45 66 47 67
REMARK SMILES IDX 44 68 40 69 41 70 42 71 43 72 69 73 70 74 78 75 71 76 77 77
REMARK SMILES IDX 79 78 76 79 72 80 73 81 74 82 75 83 54 84 55 85 63 86 56 87
REMARK SMILES IDX 62 88 64 89 61 90 57 91 58 92 59 93 60 94
REMARK H PARENT 8 13 5 22 84 47 52 58
REMARK Flexibility Score: inf
ROOT
ATOM      1  C   UNL     1      -2.174  -5.533   4.977  1.00  0.00     0.261 C 
ENDROOT
BRANCH   1   2
ATOM      2  O   UNL     1      -1.332  -4.601   4.281  1.00  0.00    -0.459 OA
BRANCH   2   3
ATOM      3  C   UNL     1      -0.170  -5.140   3.833  1.00  0.00     0.355 C 
ATOM      4  O   UNL     1       0.266  -6.236   4.168  1.00  0.00    -0.244 OA
BRANCH   3   5
ATOM      5  C   UNL     1       0.412  -4.343   2.775  1.00  0.00     0.128 A 
ATOM      6  N   UNL     1       0.502  -2.972   2.609  1.00  0.00    -0.333 N 
ATOM      7  C   UNL     1       1.461  -2.740   1.648  1.00  0.00     0.087 A 
ATOM      8  C   UNL     1       1.638  -3.886   0.917  1.00  0.00     0.020 A 
ATOM      9  C   UNL     1       0.999  -4.902   1.641  1.00  0.00     0.035 A 
BRANCH   6  10
ATOM     10  C   UNL     1      -0.125  -1.901   3.377  1.00  0.00     0.222 C 
BRANCH  10  11
ATOM     11  C   UNL     1      -1.162  -1.107   2.588  1.00  0.00     0.240 C 
ATOM     12  N   UNL     1      -0.819   0.002   1.858  1.00  0.00    -0.352 N 
ATOM     13  H   UNL     1      -1.583   0.509   1.501  1.00  0.00     0.163 HD
ATOM     14  O   UNL     1      -2.357  -1.412   2.634  1.00  0.00    -0.273 OA
BRANCH  12  15
ATOM     15  C   UNL     1       0.490   0.556   1.522  1.00  0.00     0.084 C 
ATOM     16  C   UNL     1       0.940   0.170   0.108  1.00  0.00     0.031 C 
BRANCH  15  17
ATOM     17  C   UNL     1       0.592   2.062   1.806  1.00  0.00     0.086 C 
BRANCH  17  18
ATOM     18  C   UNL     1       0.173   3.076   0.724  1.00  0.00     0.263 C 
BRANCH  18  19
ATOM     19  N   UNL     1      -1.276   3.243   0.562  1.00  0.00    -0.340 N 
ATOM     20  C   UNL     1      -1.572   4.622   0.137  1.00  0.00     0.332 C 
ATOM     21  C   UNL     1      -1.875   2.345  -0.431  1.00  0.00     0.332 C 
ATOM     22  H   UNL     1      -1.679   3.019   1.472  1.00  0.00     0.347 HD
ENDBRANCH  18  19
ENDBRANCH  17  18
ENDBRANCH  15  17
ENDBRANCH  12  15
ENDBRANCH  10  11
ENDBRANCH   6  10
ENDBRANCH   3   5
ENDBRANCH   2   3
ENDBRANCH   1   2
BRANCH   1  23
ATOM     23  C   UNL     1      -3.317  -6.019   4.087  1.00  0.00     0.202 C 
BRANCH  23  24
ATOM     24  O   UNL     1      -2.975  -6.774   2.921  1.00  0.00    -0.374 OA
BRANCH  24  25
ATOM     25  C   UNL     1      -2.498  -6.094   1.758  1.00  0.00     0.202 C 
BRANCH  25  26
ATOM     26  C   UNL     1      -3.491  -5.378   0.854  1.00  0.00     0.261 C 
BRANCH  26  27
ATOM     27  O   UNL     1      -4.085  -4.303   1.556  1.00  0.00    -0.460 OA
BRANCH  27  28
ATOM     28  C   UNL     1      -5.234  -4.663   2.160  1.00  0.00     0.338 C 
ATOM     29  O   UNL     1      -5.730  -5.778   2.204  1.00  0.00    -0.246 OA
BRANCH  28  30
ATOM     30  C   UNL     1      -5.857  -3.468   2.750  1.00  0.00     0.060 A 
ATOM     31  C   UNL     1      -7.056  -3.802   3.383  1.00  0.00     0.016 A 
ATOM     32  C   UNL     1      -5.707  -2.324   1.958  1.00  0.00     0.016 A 
ATOM     33  C   UNL     1      -8.196  -3.277   2.840  1.00  0.00     0.010 A 
ATOM     34  C   UNL     1      -6.841  -1.832   1.373  1.00  0.00     0.010 A 
ATOM     35  C   UNL     1      -8.068  -2.362   1.786  1.00  0.00    -0.014 A 
BRANCH  35  36
ATOM     36  C   UNL     1      -9.297  -1.755   1.309  1.00  0.00     0.031 A 
ATOM     37  C   UNL     1      -9.634  -0.592   2.287  1.00  0.00     0.074 A 
ATOM     38  C   UNL     1      -9.852  -2.379   0.218  1.00  0.00     0.049 A 
ATOM     39  N   UNL     1     -10.770  -0.066   2.609  1.00  0.00    -0.248 NA
ATOM     40  C   UNL     1      -8.540   0.021   3.120  1.00  0.00     0.031 C 
ATOM     41  C   UNL     1      -9.275  -3.528  -0.543  1.00  0.00     0.029 A 
ATOM     42  N   UNL     1     -11.020  -2.194  -0.477  1.00  0.00    -0.354 N 
ATOM     43  C   UNL     1     -10.502   1.081   3.397  1.00  0.00     0.074 A 
ATOM     44  C   UNL     1      -9.142   0.992   3.805  1.00  0.00     0.031 C 
ATOM     45  C   UNL     1     -10.134  -3.979  -1.494  1.00  0.00     0.029 A 
ATOM     46  C   UNL     1     -11.336  -3.168  -1.477  1.00  0.00     0.049 A 
ATOM     47  H   UNL     1     -11.612  -1.429  -0.297  1.00  0.00     0.167 HD
ATOM     48  C   UNL     1     -11.386   2.111   3.527  1.00  0.00     0.034 A 
ATOM     49  C   UNL     1     -12.514  -3.303  -2.177  1.00  0.00     0.034 A 
ATOM     50  C   UNL     1     -12.588   1.781   2.838  1.00  0.00     0.049 A 
ATOM     51  C   UNL     1     -13.261  -2.104  -1.758  1.00  0.00     0.074 A 
ATOM     52  C   UNL     1     -13.565   0.865   3.121  1.00  0.00     0.029 A 
ATOM     53  N   UNL     1     -12.660   2.130   1.508  1.00  0.00    -0.354 N 
ATOM     54  N   UNL     1     -12.981  -0.891  -2.126  1.00  0.00    -0.248 NA
ATOM     55  C   UNL     1     -14.315  -2.256  -0.748  1.00  0.00     0.031 C 
ATOM     56  C   UNL     1     -13.812   0.289   1.860  1.00  0.00     0.029 A 
ATOM     57  C   UNL     1     -13.216   1.061   0.851  1.00  0.00     0.049 A 
ATOM     58  H   UNL     1     -12.369   2.981   1.107  1.00  0.00     0.167 HD
ATOM     59  C   UNL     1     -13.599  -0.134  -1.165  1.00  0.00     0.074 A 
ATOM     60  C   UNL     1     -14.630  -0.974  -0.585  1.00  0.00     0.031 C 
ATOM     61  C   UNL     1     -12.930   0.882  -0.557  1.00  0.00     0.034 A 
BRANCH  48  62
ATOM     62  C   UNL     1     -11.262   3.516   4.041  1.00  0.00     0.023 A 
ATOM     63  C   UNL     1     -12.484   4.202   4.243  1.00  0.00     0.031 A 
ATOM     64  C   UNL     1     -10.101   4.298   4.034  1.00  0.00     0.131 A 
ATOM     65  C   UNL     1     -12.547   5.597   4.270  1.00  0.00     0.055 A 
ATOM     66  C   UNL     1     -10.158   5.698   4.136  1.00  0.00     0.041 A 
ATOM     67  F   UNL     1      -8.889   3.759   3.844  1.00  0.00    -0.206 F 
ATOM     68  C   UNL     1     -11.386   6.357   4.212  1.00  0.00     0.022 A 
BRANCH  65  69
ATOM     69  S   UNL     1     -14.187   6.371   4.189  1.00  0.00     0.124 S 
ATOM     70  O   UNL     1     -14.767   5.746   3.005  1.00  0.00    -0.237 OA
ATOM     71  O   UNL     1     -14.771   5.977   5.468  1.00  0.00    -0.237 OA
ATOM     72  O   UNL     1     -13.883   7.794   4.056  1.00  0.00    -0.744 OA
ENDBRANCH  65  69
ENDBRANCH  48  62
BRANCH  49  73
ATOM     73  C   UNL     1     -13.289  -4.253  -3.098  1.00  0.00     0.023 A 
ATOM     74  C   UNL     1     -12.844  -5.451  -3.689  1.00  0.00     0.031 A 
ATOM     75  C   UNL     1     -14.675  -3.966  -3.343  1.00  0.00     0.131 A 
ATOM     76  C   UNL     1     -13.772  -6.304  -4.375  1.00  0.00     0.055 A 
ATOM     77  C   UNL     1     -15.591  -4.846  -3.918  1.00  0.00     0.041 A 
ATOM     78  F   UNL     1     -15.231  -2.789  -3.026  1.00  0.00    -0.206 F 
ATOM     79  C   UNL     1     -15.143  -6.037  -4.426  1.00  0.00     0.022 A 
BRANCH  76  80
ATOM     80  S   UNL     1     -13.237  -7.820  -5.237  1.00  0.00     0.124 S 
ATOM     81  O   UNL     1     -12.797  -7.296  -6.526  1.00  0.00    -0.237 OA
ATOM     82  O   UNL     1     -12.193  -8.340  -4.362  1.00  0.00    -0.237 OA
ATOM     83  O   UNL     1     -14.454  -8.632  -5.287  1.00  0.00    -0.744 OA
ENDBRANCH  76  80
ENDBRANCH  49  73
BRANCH  61  84
ATOM     84  C   UNL     1     -11.717   1.424  -1.325  1.00  0.00     0.023 A 
ATOM     85  C   UNL     1     -11.856   1.875  -2.651  1.00  0.00     0.031 A 
ATOM     86  C   UNL     1     -10.399   1.425  -0.829  1.00  0.00     0.131 A 
ATOM     87  C   UNL     1     -10.733   2.264  -3.414  1.00  0.00     0.055 A 
ATOM     88  C   UNL     1      -9.277   1.793  -1.585  1.00  0.00     0.041 A 
ATOM     89  F   UNL     1     -10.139   1.078   0.427  1.00  0.00    -0.206 F 
ATOM     90  C   UNL     1      -9.441   2.216  -2.892  1.00  0.00     0.022 A 
BRANCH  87  91
ATOM     91  S   UNL     1     -10.978   2.894  -5.096  1.00  0.00     0.124 S 
ATOM     92  O   UNL     1     -11.377   1.700  -5.831  1.00  0.00    -0.237 OA
ATOM     93  O   UNL     1     -12.013   3.906  -4.903  1.00  0.00    -0.237 OA
ATOM     94  O   UNL     1      -9.664   3.429  -5.455  1.00  0.00    -0.744 OA
ENDBRANCH  87  91
ENDBRANCH  61  84
ENDBRANCH  35  36
ENDBRANCH  28  30
ENDBRANCH  27  28
ENDBRANCH  26  27
ENDBRANCH  25  26
ENDBRANCH  24  25
ENDBRANCH  23  24
ENDBRANCH   1  23
TORSDOF 23
