REMARK SMILES C[C@@H]1Cc2ccccc2N1c1ccc(F)cc1C(=O)OCCOCCOC(=O)c1ccc(-c2c3nc(c(-c4cc(S(=O)(=O)[O-])ccc4F)c4ccc([nH]4)c(-c4cc(S(=O)(=O)[O-])ccc4F)c4nc(c(-c5cc(S(=O)(=O)[O-])ccc5F)c5ccc2[nH]5)C=C4)C=C3)cc1
REMARK SMILES IDX 24 1 23 2 22 3 21 4 20 5 18 6 19 7 17 8 11 9 12 10 13 11
REMARK SMILES IDX 16 12 14 13 15 14 10 15 1 16 2 17 3 18 4 19 9 20 5 21 8 22
REMARK SMILES IDX 6 23 7 24 25 25 26 26 27 27 28 28 29 29 30 30 91 31 31 32
REMARK SMILES IDX 90 33 32 34 33 35 34 36 84 37 35 38 89 39 83 40 85 41 36 42
REMARK SMILES IDX 88 43 82 44 81 45 37 47 69 48 49 49 68 50 50 51 53 52 67 53
REMARK SMILES IDX 86 54 51 55 52 56 66 58 87 59 54 60 38 61 39 62 47 63 40 64
REMARK SMILES IDX 46 65 48 66 45 67 41 68 42 69 43 70 44 71 70 72 71 73 79 74
REMARK SMILES IDX 72 75 78 76 80 77 77 78 73 79 74 80 75 81 76 82 55 83 56 84
REMARK SMILES IDX 64 85 57 86 63 87 65 88 62 89 58 90 59 91 60 92 61 93
REMARK H PARENT 85 46 53 57
REMARK Flexibility Score: inf
ROOT
ATOM      1  C   UNL     1      -4.643   2.845   1.855  1.00  0.00     0.202 C 
ENDROOT
BRANCH   1   2
ATOM      2  O   UNL     1      -4.918   1.868   2.858  1.00  0.00    -0.374 OA
BRANCH   2   3
ATOM      3  C   UNL     1      -3.823   1.338   3.598  1.00  0.00     0.202 C 
BRANCH   3   4
ATOM      4  C   UNL     1      -2.813   0.464   2.850  1.00  0.00     0.261 C 
BRANCH   4   5
ATOM      5  O   UNL     1      -2.306   1.080   1.659  1.00  0.00    -0.460 OA
BRANCH   5   6
ATOM      6  C   UNL     1      -2.566   0.414   0.509  1.00  0.00     0.340 C 
ATOM      7  O   UNL     1      -3.174  -0.643   0.407  1.00  0.00    -0.246 OA
BRANCH   6   8
ATOM      8  C   UNL     1      -2.145   1.164  -0.695  1.00  0.00     0.086 A 
ATOM      9  C   UNL     1      -0.922   1.848  -0.843  1.00  0.00     0.056 A 
ATOM     10  C   UNL     1      -0.646   2.407  -2.114  1.00  0.00     0.030 A 
ATOM     11  C   UNL     1      -1.576   2.377  -3.156  1.00  0.00     0.041 A 
ATOM     12  C   UNL     1      -3.081   1.138  -1.749  1.00  0.00     0.057 A 
ATOM     13  C   UNL     1      -2.797   1.762  -2.953  1.00  0.00     0.124 A 
ATOM     14  F   UNL     1      -3.714   1.769  -3.929  1.00  0.00    -0.207 F 
BRANCH   9  15
ATOM     15  N   UNL     1      -0.025   2.080   0.208  1.00  0.00    -0.337 N 
ATOM     16  C   UNL     1       0.544  -0.237   1.081  1.00  0.00     0.032 C 
ATOM     17  C   UNL     1       1.048   1.096   0.550  1.00  0.00     0.089 C 
ATOM     18  C   UNL     1       1.951   1.778   1.613  1.00  0.00     0.063 C 
ATOM     19  C   UNL     1       1.741   3.211   1.276  1.00  0.00    -0.022 A 
ATOM     20  C   UNL     1       0.581   3.339   0.511  1.00  0.00     0.045 A 
ATOM     21  C   UNL     1       2.494   4.310   1.653  1.00  0.00     0.006 A 
ATOM     22  C   UNL     1       0.148   4.599   0.119  1.00  0.00     0.026 A 
ATOM     23  C   UNL     1       2.076   5.574   1.232  1.00  0.00     0.000 A 
ATOM     24  C   UNL     1       0.910   5.719   0.468  1.00  0.00     0.002 A 
ENDBRANCH   9  15
ENDBRANCH   6   8
ENDBRANCH   5   6
ENDBRANCH   4   5
ENDBRANCH   3   4
ENDBRANCH   2   3
ENDBRANCH   1   2
BRANCH   1  25
ATOM     25  C   UNL     1      -4.025   4.184   2.281  1.00  0.00     0.261 C 
BRANCH  25  26
ATOM     26  O   UNL     1      -2.711   4.076   2.856  1.00  0.00    -0.460 OA
BRANCH  26  27
ATOM     27  C   UNL     1      -2.620   4.445   4.156  1.00  0.00     0.338 C 
ATOM     28  O   UNL     1      -3.538   4.817   4.881  1.00  0.00    -0.246 OA
BRANCH  27  29
ATOM     29  C   UNL     1      -1.260   4.211   4.666  1.00  0.00     0.060 A 
ATOM     30  C   UNL     1      -0.186   4.949   4.173  1.00  0.00     0.016 A 
ATOM     31  C   UNL     1      -1.080   3.331   5.741  1.00  0.00     0.016 A 
ATOM     32  C   UNL     1       1.069   4.818   4.774  1.00  0.00     0.010 A 
ATOM     33  C   UNL     1       0.178   3.199   6.335  1.00  0.00     0.010 A 
ATOM     34  C   UNL     1       1.262   3.952   5.865  1.00  0.00    -0.014 A 
BRANCH  34  35
ATOM     35  C   UNL     1       2.564   3.938   6.583  1.00  0.00     0.031 A 
ATOM     36  C   UNL     1       3.521   2.791   6.447  1.00  0.00     0.074 A 
ATOM     37  C   UNL     1       2.877   4.987   7.371  1.00  0.00     0.049 A 
ATOM     38  N   UNL     1       4.732   2.675   6.928  1.00  0.00    -0.248 NA
ATOM     39  C   UNL     1       3.066   1.623   5.677  1.00  0.00     0.031 C 
ATOM     40  C   UNL     1       2.010   6.143   7.599  1.00  0.00     0.029 A 
ATOM     41  N   UNL     1       3.999   5.260   8.113  1.00  0.00    -0.354 N 
ATOM     42  C   UNL     1       5.196   1.435   6.506  1.00  0.00     0.074 A 
ATOM     43  C   UNL     1       4.116   0.814   5.767  1.00  0.00     0.031 C 
ATOM     44  C   UNL     1       2.646   7.018   8.391  1.00  0.00     0.029 A 
ATOM     45  C   UNL     1       3.952   6.475   8.759  1.00  0.00     0.049 A 
ATOM     46  H   UNL     1       4.766   4.645   8.178  1.00  0.00     0.167 HD
ATOM     47  C   UNL     1       6.416   0.880   6.704  1.00  0.00     0.034 A 
ATOM     48  C   UNL     1       4.858   7.089   9.549  1.00  0.00     0.034 A 
ATOM     49  C   UNL     1       7.476   1.506   7.456  1.00  0.00     0.049 A 
ATOM     50  C   UNL     1       6.190   6.422   9.789  1.00  0.00     0.074 A 
ATOM     51  C   UNL     1       8.760   1.036   7.670  1.00  0.00     0.029 A 
ATOM     52  N   UNL     1       7.382   2.719   8.123  1.00  0.00    -0.354 N 
ATOM     53  N   UNL     1       6.654   5.302   9.288  1.00  0.00    -0.248 NA
ATOM     54  C   UNL     1       7.128   7.106  10.691  1.00  0.00     0.031 C 
ATOM     55  C   UNL     1       9.417   1.923   8.522  1.00  0.00     0.029 A 
ATOM     56  C   UNL     1       8.574   2.993   8.775  1.00  0.00     0.049 A 
ATOM     57  H   UNL     1       6.587   3.299   8.132  1.00  0.00     0.167 HD
ATOM     58  C   UNL     1       7.948   5.167   9.783  1.00  0.00     0.074 A 
ATOM     59  C   UNL     1       8.201   6.329  10.606  1.00  0.00     0.031 C 
ATOM     60  C   UNL     1       8.840   4.166   9.574  1.00  0.00     0.034 A 
BRANCH  47  61
ATOM     61  C   UNL     1       6.722  -0.459   6.079  1.00  0.00     0.023 A 
ATOM     62  C   UNL     1       7.046  -1.562   6.891  1.00  0.00     0.031 A 
ATOM     63  C   UNL     1       6.879  -0.588   4.687  1.00  0.00     0.131 A 
ATOM     64  C   UNL     1       7.564  -2.726   6.309  1.00  0.00     0.055 A 
ATOM     65  C   UNL     1       7.357  -1.765   4.110  1.00  0.00     0.041 A 
ATOM     66  F   UNL     1       6.583   0.436   3.870  1.00  0.00    -0.206 F 
ATOM     67  C   UNL     1       7.718  -2.834   4.923  1.00  0.00     0.022 A 
BRANCH  64  68
ATOM     68  S   UNL     1       8.130  -4.115   7.330  1.00  0.00     0.124 S 
ATOM     69  O   UNL     1       7.341  -5.222   6.793  1.00  0.00    -0.237 OA
ATOM     70  O   UNL     1       9.556  -4.157   7.022  1.00  0.00    -0.237 OA
ATOM     71  O   UNL     1       7.787  -3.713   8.690  1.00  0.00    -0.744 OA
ENDBRANCH  64  68
ENDBRANCH  47  61
BRANCH  48  72
ATOM     72  C   UNL     1       4.558   8.446  10.095  1.00  0.00     0.023 A 
ATOM     73  C   UNL     1       3.468   8.665  10.956  1.00  0.00     0.031 A 
ATOM     74  C   UNL     1       5.317   9.560   9.695  1.00  0.00     0.131 A 
ATOM     75  C   UNL     1       3.136   9.971  11.342  1.00  0.00     0.055 A 
ATOM     76  C   UNL     1       5.025  10.851  10.139  1.00  0.00     0.041 A 
ATOM     77  F   UNL     1       6.359   9.405   8.863  1.00  0.00    -0.206 F 
ATOM     78  C   UNL     1       3.919  11.062  10.955  1.00  0.00     0.022 A 
BRANCH  75  79
ATOM     79  S   UNL     1       1.606  10.310  12.257  1.00  0.00     0.124 S 
ATOM     80  O   UNL     1       2.115  10.882  13.499  1.00  0.00    -0.237 OA
ATOM     81  O   UNL     1       0.925  11.245  11.364  1.00  0.00    -0.237 OA
ATOM     82  O   UNL     1       0.979   8.998  12.376  1.00  0.00    -0.744 OA
ENDBRANCH  75  79
ENDBRANCH  48  72
BRANCH  60  83
ATOM     83  C   UNL     1      10.204   4.257  10.219  1.00  0.00     0.023 A 
ATOM     84  C   UNL     1      11.361   4.288   9.414  1.00  0.00     0.031 A 
ATOM     85  C   UNL     1      10.369   4.147  11.611  1.00  0.00     0.131 A 
ATOM     86  C   UNL     1      12.626   4.161  10.002  1.00  0.00     0.055 A 
ATOM     87  C   UNL     1      11.634   4.074  12.196  1.00  0.00     0.041 A 
ATOM     88  F   UNL     1       9.300   4.100  12.422  1.00  0.00    -0.206 F 
ATOM     89  C   UNL     1      12.769   4.064  11.389  1.00  0.00     0.022 A 
BRANCH  86  90
ATOM     90  S   UNL     1      14.122   4.016   8.985  1.00  0.00     0.124 S 
ATOM     91  O   UNL     1      14.898   5.173   9.423  1.00  0.00    -0.237 OA
ATOM     92  O   UNL     1      14.650   2.719   9.399  1.00  0.00    -0.237 OA
ATOM     93  O   UNL     1      13.625   4.083   7.615  1.00  0.00    -0.744 OA
ENDBRANCH  86  90
ENDBRANCH  60  83
ENDBRANCH  34  35
ENDBRANCH  27  29
ENDBRANCH  26  27
ENDBRANCH  25  26
ENDBRANCH   1  25
TORSDOF 18
