REMARK SMILES CCOc1ccccc1Nc1ccc(C(=O)OCCOCCOC(=O)c2ccc(-c3c4nc(c(-c5cc(S(=O)(=O)[O-])ccc5F)c5ccc([nH]5)c(-c5cc(S(=O)(=O)[O-])ccc5F)c5nc(c(-c6cc(S(=O)(=O)[O-])ccc6F)c6ccc3[nH]6)C=C5)C=C4)cc2)cc1N
REMARK SMILES IDX 19 1 18 2 17 3 15 4 16 5 14 6 11 7 12 8 90 9 13 10 89 11
REMARK SMILES IDX 10 12 9 14 4 15 5 16 6 17 8 18 7 19 3 20 2 21 1 22 91 23
REMARK SMILES IDX 20 26 21 27 22 28 23 29 24 30 25 31 26 32 27 33 88 34 28 35
REMARK SMILES IDX 87 36 29 37 30 38 31 39 81 40 32 41 86 42 80 43 82 44 33 45
REMARK SMILES IDX 85 46 79 47 78 48 34 50 66 51 46 52 65 53 47 54 50 55 64 56
REMARK SMILES IDX 83 57 48 58 49 59 63 61 84 62 51 63 35 64 36 65 44 66 37 67
REMARK SMILES IDX 43 68 45 69 42 70 38 71 39 72 40 73 41 74 67 75 68 76 76 77
REMARK SMILES IDX 69 78 75 79 77 80 74 81 70 82 71 83 72 84 73 85 52 86 53 87
REMARK SMILES IDX 61 88 54 89 60 90 62 91 59 92 55 93 56 94 57 95 58 96
REMARK H PARENT 10 13 91 24 91 25 82 49 50 60
REMARK Flexibility Score: inf
ROOT
ATOM      1  C   UNL     1       7.855   4.837  -4.439  1.00  0.00     0.202 C 
ENDROOT
BRANCH   1   2
ATOM      2  C   UNL     1       8.419   4.435  -3.074  1.00  0.00     0.261 C 
BRANCH   2   3
ATOM      3  O   UNL     1       7.574   3.477  -2.422  1.00  0.00    -0.460 OA
BRANCH   3   4
ATOM      4  C   UNL     1       6.828   3.986  -1.417  1.00  0.00     0.338 C 
ATOM      5  O   UNL     1       6.913   5.108  -0.936  1.00  0.00    -0.246 OA
BRANCH   4   6
ATOM      6  C   UNL     1       5.771   3.036  -1.009  1.00  0.00     0.062 A 
ATOM      7  C   UNL     1       3.816   1.363   0.071  1.00  0.00     0.062 A 
ATOM      8  C   UNL     1       3.654   2.752   0.117  1.00  0.00     0.029 A 
ATOM      9  C   UNL     1       4.914   0.806  -0.631  1.00  0.00     0.056 A 
ATOM     10  C   UNL     1       4.630   3.584  -0.414  1.00  0.00     0.018 A 
ATOM     11  C   UNL     1       5.880   1.652  -1.181  1.00  0.00     0.043 A 
BRANCH   7  12
ATOM     12  N   UNL     1       2.963   0.585   0.878  1.00  0.00    -0.351 N 
ATOM     13  H   UNL     1       2.000   0.714   0.720  1.00  0.00     0.167 HD
BRANCH  12  14
ATOM     14  C   UNL     1       3.290  -0.353   1.879  1.00  0.00     0.081 A 
ATOM     15  C   UNL     1       2.281  -1.171   2.413  1.00  0.00     0.142 A 
ATOM     16  C   UNL     1       2.567  -2.129   3.387  1.00  0.00     0.048 A 
ATOM     17  C   UNL     1       3.882  -2.308   3.817  1.00  0.00     0.004 A 
ATOM     18  C   UNL     1       4.603  -0.549   2.329  1.00  0.00     0.030 A 
ATOM     19  C   UNL     1       4.899  -1.517   3.290  1.00  0.00     0.002 A 
BRANCH  15  20
ATOM     20  O   UNL     1       0.972  -0.957   2.055  1.00  0.00    -0.492 OA
BRANCH  20  21
ATOM     21  C   UNL     1       0.595  -1.733   0.910  1.00  0.00     0.226 C 
ATOM     22  C   UNL     1       0.328  -0.816  -0.274  1.00  0.00     0.049 C 
ENDBRANCH  20  21
ENDBRANCH  15  20
ENDBRANCH  12  14
ENDBRANCH   7  12
BRANCH   9  23
ATOM     23  N   UNL     1       4.973  -0.564  -0.887  1.00  0.00    -0.397 N 
ATOM     24  H   UNL     1       4.295  -1.166  -0.502  1.00  0.00     0.156 HD
ATOM     25  H   UNL     1       5.692  -0.929  -1.452  1.00  0.00     0.156 HD
ENDBRANCH   9  23
ENDBRANCH   4   6
ENDBRANCH   3   4
ENDBRANCH   2   3
ENDBRANCH   1   2
BRANCH   1  26
ATOM     26  O   UNL     1       6.537   5.385  -4.447  1.00  0.00    -0.374 OA
BRANCH  26  27
ATOM     27  C   UNL     1       5.447   4.458  -4.443  1.00  0.00     0.202 C 
BRANCH  27  28
ATOM     28  C   UNL     1       5.135   3.755  -5.770  1.00  0.00     0.261 C 
BRANCH  28  29
ATOM     29  O   UNL     1       6.146   2.789  -6.115  1.00  0.00    -0.460 OA
BRANCH  29  30
ATOM     30  C   UNL     1       6.897   3.109  -7.195  1.00  0.00     0.338 C 
ATOM     31  O   UNL     1       6.746   4.071  -7.936  1.00  0.00    -0.246 OA
BRANCH  30  32
ATOM     32  C   UNL     1       8.086   2.237  -7.251  1.00  0.00     0.060 A 
ATOM     33  C   UNL     1       9.341   2.856  -7.320  1.00  0.00     0.016 A 
ATOM     34  C   UNL     1       7.978   0.845  -7.287  1.00  0.00     0.016 A 
ATOM     35  C   UNL     1      10.492   2.086  -7.464  1.00  0.00     0.010 A 
ATOM     36  C   UNL     1       9.136   0.074  -7.444  1.00  0.00     0.010 A 
ATOM     37  C   UNL     1      10.394   0.692  -7.563  1.00  0.00    -0.014 A 
BRANCH  37  38
ATOM     38  C   UNL     1      11.594  -0.102  -7.925  1.00  0.00     0.031 A 
ATOM     39  C   UNL     1      11.778  -0.532  -9.355  1.00  0.00     0.074 A 
ATOM     40  C   UNL     1      12.519  -0.410  -6.998  1.00  0.00     0.049 A 
ATOM     41  N   UNL     1      12.723  -1.261  -9.889  1.00  0.00    -0.248 NA
ATOM     42  C   UNL     1      10.753  -0.080 -10.308  1.00  0.00     0.031 C 
ATOM     43  C   UNL     1      12.471  -0.006  -5.594  1.00  0.00     0.029 A 
ATOM     44  N   UNL     1      13.678  -1.138  -7.100  1.00  0.00    -0.354 N 
ATOM     45  C   UNL     1      12.410  -1.357 -11.240  1.00  0.00     0.074 A 
ATOM     46  C   UNL     1      11.165  -0.643 -11.434  1.00  0.00     0.031 C 
ATOM     47  C   UNL     1      13.548  -0.503  -4.961  1.00  0.00     0.029 A 
ATOM     48  C   UNL     1      14.340  -1.290  -5.904  1.00  0.00     0.049 A 
ATOM     49  H   UNL     1      14.005  -1.515  -7.948  1.00  0.00     0.167 HD
ATOM     50  C   UNL     1      13.102  -1.976 -12.229  1.00  0.00     0.034 A 
ATOM     51  C   UNL     1      15.442  -2.006  -5.602  1.00  0.00     0.034 A 
ATOM     52  C   UNL     1      14.334  -2.697 -12.015  1.00  0.00     0.049 A 
ATOM     53  C   UNL     1      16.143  -2.768  -6.700  1.00  0.00     0.074 A 
ATOM     54  C   UNL     1      15.126  -3.347 -12.946  1.00  0.00     0.029 A 
ATOM     55  N   UNL     1      14.947  -2.876 -10.781  1.00  0.00    -0.354 N 
ATOM     56  N   UNL     1      15.843  -2.843  -7.977  1.00  0.00    -0.248 NA
ATOM     57  C   UNL     1      17.335  -3.536  -6.317  1.00  0.00     0.031 C 
ATOM     58  C   UNL     1      16.173  -3.980 -12.266  1.00  0.00     0.029 A 
ATOM     59  C   UNL     1      16.083  -3.659 -10.921  1.00  0.00     0.049 A 
ATOM     60  H   UNL     1      14.622  -2.502  -9.930  1.00  0.00     0.167 HD
ATOM     61  C   UNL     1      16.827  -3.644  -8.552  1.00  0.00     0.074 A 
ATOM     62  C   UNL     1      17.735  -4.014  -7.487  1.00  0.00     0.031 C 
ATOM     63  C   UNL     1      16.971  -4.035  -9.845  1.00  0.00     0.034 A 
BRANCH  50  64
ATOM     64  C   UNL     1      12.506  -1.945 -13.616  1.00  0.00     0.023 A 
ATOM     65  C   UNL     1      12.345  -0.744 -14.328  1.00  0.00     0.031 A 
ATOM     66  C   UNL     1      12.065  -3.134 -14.224  1.00  0.00     0.131 A 
ATOM     67  C   UNL     1      11.698  -0.749 -15.573  1.00  0.00     0.055 A 
ATOM     68  C   UNL     1      11.492  -3.142 -15.497  1.00  0.00     0.041 A 
ATOM     69  F   UNL     1      12.171  -4.309 -13.583  1.00  0.00    -0.206 F 
ATOM     70  C   UNL     1      11.292  -1.943 -16.173  1.00  0.00     0.022 A 
BRANCH  67  71
ATOM     71  S   UNL     1      11.268   0.841 -16.335  1.00  0.00     0.124 S 
ATOM     72  O   UNL     1      10.432   1.447 -15.301  1.00  0.00    -0.237 OA
ATOM     73  O   UNL     1      12.574   1.454 -16.543  1.00  0.00    -0.237 OA
ATOM     74  O   UNL     1      10.558   0.456 -17.553  1.00  0.00    -0.744 OA
ENDBRANCH  67  71
ENDBRANCH  50  64
BRANCH  51  75
ATOM     75  C   UNL     1      15.930  -2.082  -4.195  1.00  0.00     0.023 A 
ATOM     76  C   UNL     1      17.190  -1.582  -3.832  1.00  0.00     0.031 A 
ATOM     77  C   UNL     1      15.159  -2.712  -3.200  1.00  0.00     0.131 A 
ATOM     78  C   UNL     1      17.661  -1.758  -2.522  1.00  0.00     0.055 A 
ATOM     79  C   UNL     1      15.610  -2.837  -1.885  1.00  0.00     0.041 A 
ATOM     80  F   UNL     1      13.947  -3.210  -3.493  1.00  0.00    -0.206 F 
ATOM     81  C   UNL     1      16.875  -2.370  -1.543  1.00  0.00     0.022 A 
BRANCH  78  82
ATOM     82  S   UNL     1      19.359  -1.249  -2.133  1.00  0.00     0.124 S 
ATOM     83  O   UNL     1      20.131  -2.046  -3.078  1.00  0.00    -0.237 OA
ATOM     84  O   UNL     1      19.310   0.186  -2.392  1.00  0.00    -0.237 OA
ATOM     85  O   UNL     1      19.512  -1.621  -0.728  1.00  0.00    -0.744 OA
ENDBRANCH  78  82
ENDBRANCH  51  75
BRANCH  63  86
ATOM     86  C   UNL     1      18.180  -4.876 -10.177  1.00  0.00     0.023 A 
ATOM     87  C   UNL     1      18.329  -6.186  -9.688  1.00  0.00     0.031 A 
ATOM     88  C   UNL     1      19.204  -4.353 -10.988  1.00  0.00     0.131 A 
ATOM     89  C   UNL     1      19.499  -6.908  -9.968  1.00  0.00     0.055 A 
ATOM     90  C   UNL     1      20.338  -5.099 -11.312  1.00  0.00     0.041 A 
ATOM     91  F   UNL     1      19.116  -3.107 -11.481  1.00  0.00    -0.206 F 
ATOM     92  C   UNL     1      20.497  -6.379 -10.791  1.00  0.00     0.022 A 
BRANCH  89  93
ATOM     93  S   UNL     1      19.743  -8.518  -9.167  1.00  0.00     0.124 S 
ATOM     94  O   UNL     1      19.684  -8.165  -7.752  1.00  0.00    -0.237 OA
ATOM     95  O   UNL     1      18.619  -9.295  -9.678  1.00  0.00    -0.237 OA
ATOM     96  O   UNL     1      21.058  -8.943  -9.645  1.00  0.00    -0.744 OA
ENDBRANCH  89  93
ENDBRANCH  63  86
ENDBRANCH  37  38
ENDBRANCH  30  32
ENDBRANCH  29  30
ENDBRANCH  28  29
ENDBRANCH  27  28
ENDBRANCH  26  27
ENDBRANCH   1  26
TORSDOF 22
