REMARK SMILES C[N@@H+](CC(=O)OCCOCCOC(=O)c1ccc(-c2c3nc(c(-c4cc(S(=O)(=O)[O-])ccc4F)c4ccc([nH]4)c(-c4cc(S(=O)(=O)[O-])ccc4F)c4nc(c(-c5cc(S(=O)(=O)[O-])ccc5F)c5ccc2[nH]5)C=C4)C=C3)cc1)Cc1nccs1
REMARK SMILES IDX 9 1 8 2 7 3 6 4 4 5 5 6 3 7 2 8 1 9 78 11 79 12 80 13 83 14
REMARK SMILES IDX 81 15 82 16 10 17 11 18 12 19 13 20 14 21 15 22 16 23 77 24
REMARK SMILES IDX 17 25 76 26 18 27 19 28 20 29 70 30 21 31 75 32 69 33 71 34
REMARK SMILES IDX 22 35 74 36 68 37 67 38 23 40 55 41 35 42 54 43 36 44 39 45
REMARK SMILES IDX 53 46 72 47 37 48 38 49 52 51 73 52 40 53 24 54 25 55 33 56
REMARK SMILES IDX 26 57 32 58 34 59 31 60 27 61 28 62 29 63 30 64 56 65 57 66
REMARK SMILES IDX 65 67 58 68 64 69 66 70 63 71 59 72 60 73 61 74 62 75 41 76
REMARK SMILES IDX 42 77 50 78 43 79 49 80 51 81 48 82 44 83 45 84 46 85 47 86
REMARK H PARENT 2 10 71 39 39 50
REMARK Flexibility Score: inf
ROOT
ATOM      1  O   UNL     1      -2.318   0.272   3.823  1.00  0.00    -0.374 OA
ENDROOT
BRANCH   1   2
ATOM      2  C   UNL     1      -2.236  -1.081   3.325  1.00  0.00     0.202 C 
BRANCH   2   3
ATOM      3  C   UNL     1      -2.609  -1.355   1.871  1.00  0.00     0.261 C 
BRANCH   3   4
ATOM      4  O   UNL     1      -1.743  -0.714   0.932  1.00  0.00    -0.459 OA
BRANCH   4   5
ATOM      5  C   UNL     1      -2.188   0.461   0.433  1.00  0.00     0.361 C 
ATOM      6  O   UNL     1      -3.296   0.943   0.654  1.00  0.00    -0.245 OA
BRANCH   5   7
ATOM      7  C   UNL     1      -1.208   1.119  -0.525  1.00  0.00     0.386 C 
BRANCH   7   8
ATOM      8  N   UNL     1       0.236   1.061  -0.236  1.00  0.00    -0.322 N 
ATOM      9  C   UNL     1       0.852  -0.253  -0.286  1.00  0.00     0.333 C 
ATOM     10  H   UNL     1       0.597   1.530  -1.067  1.00  0.00     0.348 HD
BRANCH   8  11
ATOM     11  C   UNL     1       0.715   1.894   0.862  1.00  0.00     0.331 C 
BRANCH  11  12
ATOM     12  C   UNL     1       0.339   1.493   2.259  1.00  0.00     0.147 A 
ATOM     13  N   UNL     1       0.022   0.076   3.070  1.00  0.00    -0.244 NA
ATOM     14  S   UNL     1       0.050   3.282   3.675  1.00  0.00    -0.122 S 
ATOM     15  C   UNL     1      -0.378   0.251   4.946  1.00  0.00     0.123 A 
ATOM     16  C   UNL     1      -0.450   1.891   5.420  1.00  0.00     0.087 A 
ENDBRANCH  11  12
ENDBRANCH   8  11
ENDBRANCH   7   8
ENDBRANCH   5   7
ENDBRANCH   4   5
ENDBRANCH   3   4
ENDBRANCH   2   3
ENDBRANCH   1   2
BRANCH   1  17
ATOM     17  C   UNL     1      -1.161   1.376   3.568  1.00  0.00     0.202 C 
BRANCH  17  18
ATOM     18  C   UNL     1       1.010   1.283   4.093  1.00  0.00     0.261 C 
BRANCH  18  19
ATOM     19  O   UNL     1       1.965  -0.017   3.797  1.00  0.00    -0.460 OA
BRANCH  19  20
ATOM     20  C   UNL     1       2.090  -0.956   4.761  1.00  0.00     0.338 C 
ATOM     21  O   UNL     1       1.999  -0.772   5.966  1.00  0.00    -0.246 OA
BRANCH  20  22
ATOM     22  C   UNL     1       2.058  -2.309   4.170  1.00  0.00     0.060 A 
ATOM     23  C   UNL     1       1.058  -3.195   4.604  1.00  0.00     0.016 A 
ATOM     24  C   UNL     1       3.087  -2.752   3.343  1.00  0.00     0.016 A 
ATOM     25  C   UNL     1       1.161  -4.556   4.332  1.00  0.00     0.010 A 
ATOM     26  C   UNL     1       3.192  -4.118   3.073  1.00  0.00     0.010 A 
ATOM     27  C   UNL     1       2.276  -5.028   3.634  1.00  0.00    -0.014 A 
BRANCH  27  28
ATOM     28  C   UNL     1       2.610  -6.470   3.658  1.00  0.00     0.031 A 
ATOM     29  C   UNL     1       3.735  -6.933   4.545  1.00  0.00     0.074 A 
ATOM     30  C   UNL     1       1.928  -7.342   2.899  1.00  0.00     0.049 A 
ATOM     31  N   UNL     1       4.302  -8.108   4.625  1.00  0.00    -0.248 NA
ATOM     32  C   UNL     1       4.310  -5.926   5.452  1.00  0.00     0.031 C 
ATOM     33  C   UNL     1       0.781  -7.004   2.058  1.00  0.00     0.029 A 
ATOM     34  N   UNL     1       2.115  -8.684   2.696  1.00  0.00    -0.354 N 
ATOM     35  C   UNL     1       5.315  -7.977   5.570  1.00  0.00     0.074 A 
ATOM     36  C   UNL     1       5.305  -6.598   6.009  1.00  0.00     0.031 C 
ATOM     37  C   UNL     1       0.377  -8.109   1.412  1.00  0.00     0.029 A 
ATOM     38  C   UNL     1       1.273  -9.213   1.748  1.00  0.00     0.049 A 
ATOM     39  H   UNL     1       2.785  -9.217   3.182  1.00  0.00     0.167 HD
ATOM     40  C   UNL     1       6.171  -8.925   6.023  1.00  0.00     0.034 A 
ATOM     41  C   UNL     1       1.261 -10.435   1.182  1.00  0.00     0.034 A 
ATOM     42  C   UNL     1       6.162 -10.288   5.549  1.00  0.00     0.049 A 
ATOM     43  C   UNL     1       2.287 -11.448   1.627  1.00  0.00     0.074 A 
ATOM     44  C   UNL     1       6.965 -11.343   5.944  1.00  0.00     0.029 A 
ATOM     45  N   UNL     1       5.319 -10.781   4.559  1.00  0.00    -0.354 N 
ATOM     46  N   UNL     1       3.245 -11.319   2.518  1.00  0.00    -0.248 NA
ATOM     47  C   UNL     1       2.226 -12.772   0.998  1.00  0.00     0.031 C 
ATOM     48  C   UNL     1       6.680 -12.438   5.124  1.00  0.00     0.029 A 
ATOM     49  C   UNL     1       5.616 -12.109   4.299  1.00  0.00     0.049 A 
ATOM     50  H   UNL     1       4.614 -10.262   4.109  1.00  0.00     0.167 HD
ATOM     51  C   UNL     1       3.873 -12.560   2.584  1.00  0.00     0.074 A 
ATOM     52  C   UNL     1       3.179 -13.422   1.650  1.00  0.00     0.031 C 
ATOM     53  C   UNL     1       4.920 -12.954   3.355  1.00  0.00     0.034 A 
BRANCH  40  54
ATOM     54  C   UNL     1       7.223  -8.507   7.025  1.00  0.00     0.023 A 
ATOM     55  C   UNL     1       6.887  -7.994   8.290  1.00  0.00     0.031 A 
ATOM     56  C   UNL     1       8.589  -8.604   6.701  1.00  0.00     0.131 A 
ATOM     57  C   UNL     1       7.895  -7.529   9.149  1.00  0.00     0.055 A 
ATOM     58  C   UNL     1       9.591  -8.229   7.598  1.00  0.00     0.041 A 
ATOM     59  F   UNL     1       8.976  -9.058   5.498  1.00  0.00    -0.206 F 
ATOM     60  C   UNL     1       9.246  -7.672   8.825  1.00  0.00     0.022 A 
BRANCH  57  61
ATOM     61  S   UNL     1       7.412  -6.582  10.618  1.00  0.00     0.124 S 
ATOM     62  O   UNL     1       6.633  -5.497  10.026  1.00  0.00    -0.237 OA
ATOM     63  O   UNL     1       6.658  -7.561  11.392  1.00  0.00    -0.237 OA
ATOM     64  O   UNL     1       8.689  -6.175  11.200  1.00  0.00    -0.744 OA
ENDBRANCH  57  61
ENDBRANCH  40  54
BRANCH  41  65
ATOM     65  C   UNL     1       0.275 -10.755   0.113  1.00  0.00     0.023 A 
ATOM     66  C   UNL     1      -0.674 -11.772   0.289  1.00  0.00     0.031 A 
ATOM     67  C   UNL     1       0.288 -10.070  -1.117  1.00  0.00     0.131 A 
ATOM     68  C   UNL     1      -1.539 -12.109  -0.763  1.00  0.00     0.055 A 
ATOM     69  C   UNL     1      -0.623 -10.361  -2.133  1.00  0.00     0.041 A 
ATOM     70  F   UNL     1       1.181  -9.093  -1.342  1.00  0.00    -0.206 F 
ATOM     71  C   UNL     1      -1.535 -11.396  -1.964  1.00  0.00     0.022 A 
BRANCH  68  72
ATOM     72  S   UNL     1      -2.592 -13.573  -0.578  1.00  0.00     0.124 S 
ATOM     73  O   UNL     1      -1.603 -14.615  -0.322  1.00  0.00    -0.237 OA
ATOM     74  O   UNL     1      -3.437 -13.198   0.550  1.00  0.00    -0.237 OA
ATOM     75  O   UNL     1      -3.276 -13.664  -1.866  1.00  0.00    -0.744 OA
ENDBRANCH  68  72
ENDBRANCH  41  65
BRANCH  53  76
ATOM     76  C   UNL     1       5.336 -14.403   3.267  1.00  0.00     0.023 A 
ATOM     77  C   UNL     1       5.848 -14.963   2.085  1.00  0.00     0.031 A 
ATOM     78  C   UNL     1       5.211 -15.239   4.393  1.00  0.00     0.131 A 
ATOM     79  C   UNL     1       6.153 -16.331   2.037  1.00  0.00     0.055 A 
ATOM     80  C   UNL     1       5.598 -16.578   4.363  1.00  0.00     0.041 A 
ATOM     81  F   UNL     1       4.717 -14.762   5.547  1.00  0.00    -0.206 F 
ATOM     82  C   UNL     1       6.057 -17.136   3.175  1.00  0.00     0.022 A 
BRANCH  79  83
ATOM     83  S   UNL     1       6.550 -17.076   0.431  1.00  0.00     0.124 S 
ATOM     84  O   UNL     1       5.364 -16.749  -0.354  1.00  0.00    -0.237 OA
ATOM     85  O   UNL     1       7.776 -16.378   0.057  1.00  0.00    -0.237 OA
ATOM     86  O   UNL     1       6.715 -18.495   0.743  1.00  0.00    -0.744 OA
ENDBRANCH  79  83
ENDBRANCH  53  76
ENDBRANCH  27  28
ENDBRANCH  20  22
ENDBRANCH  19  20
ENDBRANCH  18  19
ENDBRANCH  17  18
ENDBRANCH   1  17
TORSDOF 20
