REMARK SMILES CCN1C[C@@H](C(=O)OCCOCCOC(=O)c2ccc(-c3c4nc(c(-c5cc(S(=O)(=O)[O-])ccc5F)c5ccc([nH]5)c(-c5cc(S(=O)(=O)[O-])ccc5F)c5nc(c(-c6cc(S(=O)(=O)[O-])ccc6F)c6ccc3[nH]6)C=C5)C=C4)cc2)CC1=O
REMARK SMILES IDX 12 1 11 2 10 3 9 4 8 5 6 6 7 7 5 8 3 9 4 10 81 11 80 12
REMARK SMILES IDX 82 13 2 14 1 15 13 16 14 17 15 18 16 19 17 20 18 21 79 22
REMARK SMILES IDX 19 23 78 24 20 25 21 26 22 27 72 28 23 29 77 30 71 31 73 32
REMARK SMILES IDX 24 33 76 34 70 35 69 36 25 38 57 39 37 40 56 41 38 42 41 43
REMARK SMILES IDX 55 44 74 45 39 46 40 47 54 49 75 50 42 51 26 52 27 53 35 54
REMARK SMILES IDX 28 55 34 56 36 57 33 58 29 59 30 60 31 61 32 62 58 63 59 64
REMARK SMILES IDX 67 65 60 66 66 67 68 68 65 69 61 70 62 71 63 72 64 73 43 74
REMARK SMILES IDX 44 75 52 76 45 77 51 78 53 79 50 80 46 81 47 82 48 83 49 84
REMARK H PARENT 73 37 41 48
REMARK Flexibility Score: inf
ROOT
ATOM      1  C   UNL     1       1.615   7.260  -2.779  1.00  0.00     0.202 C 
ENDROOT
BRANCH   1   2
ATOM      2  O   UNL     1       1.469   8.434  -1.981  1.00  0.00    -0.374 OA
BRANCH   2   3
ATOM      3  C   UNL     1       2.228   8.517  -0.774  1.00  0.00     0.202 C 
BRANCH   3   4
ATOM      4  C   UNL     1       1.715   7.690   0.407  1.00  0.00     0.261 C 
BRANCH   4   5
ATOM      5  O   UNL     1       1.680   6.291   0.081  1.00  0.00    -0.463 OA
BRANCH   5   6
ATOM      6  C   UNL     1       0.465   5.698   0.149  1.00  0.00     0.311 C 
ATOM      7  O   UNL     1      -0.547   6.205   0.619  1.00  0.00    -0.252 OA
BRANCH   6   8
ATOM      8  C   UNL     1       0.451   4.313  -0.435  1.00  0.00     0.128 C 
ATOM      9  N   UNL     1       0.793   2.084   0.106  1.00  0.00    -0.342 N 
ATOM     10  C   UNL     1       0.320   3.314   0.691  1.00  0.00     0.135 C 
ATOM     11  C   UNL     1       1.613   2.324  -0.988  1.00  0.00     0.223 C 
ATOM     12  C   UNL     1       1.674   3.818  -1.200  1.00  0.00     0.117 C 
ATOM     13  O   UNL     1       2.207   1.510  -1.675  1.00  0.00    -0.275 OA
BRANCH   9  14
ATOM     14  C   UNL     1       0.518   0.816   0.763  1.00  0.00     0.116 C 
ATOM     15  C   UNL     1       1.009  -0.434   0.059  1.00  0.00     0.027 C 
ENDBRANCH   9  14
ENDBRANCH   6   8
ENDBRANCH   5   6
ENDBRANCH   4   5
ENDBRANCH   3   4
ENDBRANCH   2   3
ENDBRANCH   1   2
BRANCH   1  16
ATOM     16  C   UNL     1       2.929   7.083  -3.552  1.00  0.00     0.261 C 
BRANCH  16  17
ATOM     17  O   UNL     1       4.068   6.909  -2.689  1.00  0.00    -0.460 OA
BRANCH  17  18
ATOM     18  C   UNL     1       4.963   7.927  -2.730  1.00  0.00     0.338 C 
ATOM     19  O   UNL     1       4.909   8.921  -3.444  1.00  0.00    -0.246 OA
BRANCH  18  20
ATOM     20  C   UNL     1       5.950   7.795  -1.643  1.00  0.00     0.060 A 
ATOM     21  C   UNL     1       6.107   8.886  -0.778  1.00  0.00     0.016 A 
ATOM     22  C   UNL     1       6.771   6.672  -1.521  1.00  0.00     0.016 A 
ATOM     23  C   UNL     1       7.118   8.880   0.180  1.00  0.00     0.010 A 
ATOM     24  C   UNL     1       7.793   6.672  -0.564  1.00  0.00     0.010 A 
ATOM     25  C   UNL     1       7.994   7.791   0.268  1.00  0.00    -0.014 A 
BRANCH  25  26
ATOM     26  C   UNL     1       9.204   7.896   1.123  1.00  0.00     0.031 A 
ATOM     27  C   UNL     1      10.522   8.240   0.482  1.00  0.00     0.074 A 
ATOM     28  C   UNL     1       9.122   7.730   2.456  1.00  0.00     0.049 A 
ATOM     29  N   UNL     1      11.705   8.357   1.025  1.00  0.00    -0.248 NA
ATOM     30  C   UNL     1      10.498   8.484  -0.969  1.00  0.00     0.031 C 
ATOM     31  C   UNL     1       7.893   7.444   3.195  1.00  0.00     0.029 A 
ATOM     32  N   UNL     1      10.093   7.776   3.424  1.00  0.00    -0.354 N 
ATOM     33  C   UNL     1      12.570   8.684  -0.014  1.00  0.00     0.074 A 
ATOM     34  C   UNL     1      11.777   8.713  -1.226  1.00  0.00     0.031 C 
ATOM     35  C   UNL     1       8.188   7.329   4.502  1.00  0.00     0.029 A 
ATOM     36  C   UNL     1       9.628   7.495   4.688  1.00  0.00     0.049 A 
ATOM     37  H   UNL     1      11.035   7.990   3.233  1.00  0.00     0.167 HD
ATOM     38  C   UNL     1      13.900   8.944   0.038  1.00  0.00     0.034 A 
ATOM     39  C   UNL     1      10.292   7.360   5.854  1.00  0.00     0.034 A 
ATOM     40  C   UNL     1      14.679   8.904   1.252  1.00  0.00     0.049 A 
ATOM     41  C   UNL     1      11.788   7.570   5.873  1.00  0.00     0.074 A 
ATOM     42  C   UNL     1      16.028   9.165   1.420  1.00  0.00     0.029 A 
ATOM     43  N   UNL     1      14.182   8.570   2.506  1.00  0.00    -0.354 N 
ATOM     44  N   UNL     1      12.592   7.887   4.884  1.00  0.00    -0.248 NA
ATOM     45  C   UNL     1      12.464   7.411   7.168  1.00  0.00     0.031 C 
ATOM     46  C   UNL     1      16.360   8.919   2.757  1.00  0.00     0.029 A 
ATOM     47  C   UNL     1      15.204   8.583   3.443  1.00  0.00     0.049 A 
ATOM     48  H   UNL     1      13.241   8.354   2.700  1.00  0.00     0.167 HD
ATOM     49  C   UNL     1      13.862   7.998   5.447  1.00  0.00     0.074 A 
ATOM     50  C   UNL     1      13.713   7.727   6.861  1.00  0.00     0.031 C 
ATOM     51  C   UNL     1      15.043   8.302   4.851  1.00  0.00     0.034 A 
BRANCH  38  52
ATOM     52  C   UNL     1      14.603   9.241  -1.264  1.00  0.00     0.023 A 
ATOM     53  C   UNL     1      14.314  10.390  -2.020  1.00  0.00     0.031 A 
ATOM     54  C   UNL     1      15.567   8.348  -1.766  1.00  0.00     0.131 A 
ATOM     55  C   UNL     1      14.936  10.586  -3.263  1.00  0.00     0.055 A 
ATOM     56  C   UNL     1      16.237   8.586  -2.967  1.00  0.00     0.041 A 
ATOM     57  F   UNL     1      15.868   7.223  -1.099  1.00  0.00    -0.206 F 
ATOM     58  C   UNL     1      15.914   9.704  -3.730  1.00  0.00     0.022 A 
BRANCH  55  59
ATOM     59  S   UNL     1      14.360  11.942  -4.320  1.00  0.00     0.124 S 
ATOM     60  O   UNL     1      12.952  11.599  -4.500  1.00  0.00    -0.237 OA
ATOM     61  O   UNL     1      14.632  13.118  -3.502  1.00  0.00    -0.237 OA
ATOM     62  O   UNL     1      15.183  11.814  -5.521  1.00  0.00    -0.744 OA
ENDBRANCH  55  59
ENDBRANCH  38  52
BRANCH  39  63
ATOM     63  C   UNL     1       9.569   6.960   7.096  1.00  0.00     0.023 A 
ATOM     64  C   UNL     1       9.521   7.804   8.216  1.00  0.00     0.031 A 
ATOM     65  C   UNL     1       8.970   5.691   7.202  1.00  0.00     0.131 A 
ATOM     66  C   UNL     1       8.934   7.351   9.409  1.00  0.00     0.055 A 
ATOM     67  C   UNL     1       8.339   5.267   8.372  1.00  0.00     0.041 A 
ATOM     68  F   UNL     1       8.989   4.842   6.162  1.00  0.00    -0.206 F 
ATOM     69  C   UNL     1       8.332   6.094   9.490  1.00  0.00     0.022 A 
BRANCH  66  70
ATOM     70  S   UNL     1       9.054   8.396  10.888  1.00  0.00     0.124 S 
ATOM     71  O   UNL     1      10.497   8.558  11.021  1.00  0.00    -0.237 OA
ATOM     72  O   UNL     1       8.309   9.582  10.480  1.00  0.00    -0.237 OA
ATOM     73  O   UNL     1       8.417   7.589  11.926  1.00  0.00    -0.744 OA
ENDBRANCH  66  70
ENDBRANCH  39  63
BRANCH  51  74
ATOM     74  C   UNL     1      16.258   8.406   5.742  1.00  0.00     0.023 A 
ATOM     75  C   UNL     1      16.797   7.286   6.397  1.00  0.00     0.031 A 
ATOM     76  C   UNL     1      16.880   9.652   5.944  1.00  0.00     0.131 A 
ATOM     77  C   UNL     1      17.888   7.442   7.266  1.00  0.00     0.055 A 
ATOM     78  C   UNL     1      18.002   9.791   6.761  1.00  0.00     0.041 A 
ATOM     79  F   UNL     1      16.407  10.757   5.344  1.00  0.00    -0.206 F 
ATOM     80  C   UNL     1      18.504   8.684   7.439  1.00  0.00     0.022 A 
BRANCH  77  81
ATOM     81  S   UNL     1      18.438   6.014   8.241  1.00  0.00     0.124 S 
ATOM     82  O   UNL     1      17.229   5.668   8.982  1.00  0.00    -0.237 OA
ATOM     83  O   UNL     1      18.845   5.068   7.207  1.00  0.00    -0.237 OA
ATOM     84  O   UNL     1      19.529   6.551   9.052  1.00  0.00    -0.744 OA
ENDBRANCH  77  81
ENDBRANCH  51  74
ENDBRANCH  25  26
ENDBRANCH  18  20
ENDBRANCH  17  18
ENDBRANCH  16  17
ENDBRANCH   1  16
TORSDOF 18
