REMARK SMILES O=C(OCCOCCOC(=O)c1cccc(NC(=S)N/N=C\c2c[nH]c3ccccc23)c1)c1ccc(-c2c3nc(c(-c4cc(S(=O)(=O)[O-])ccc4F)c4ccc([nH]4)c(-c4cc(S(=O)(=O)[O-])ccc4F)c4nc(c(-c5cc(S(=O)(=O)[O-])ccc5F)c5ccc2[nH]5)C=C4)C=C3)cc1
REMARK SMILES IDX 7 1 6 2 5 3 4 4 3 5 2 6 1 7 33 8 34 9 95 10 35 11 94 12
REMARK SMILES IDX 36 13 37 14 38 15 88 16 39 17 93 18 87 19 89 20 40 21 92 22
REMARK SMILES IDX 86 23 85 24 41 26 73 27 53 28 72 29 54 30 57 31 71 32 90 33
REMARK SMILES IDX 55 34 56 35 70 37 91 38 58 39 42 40 43 41 51 42 44 43 50 44
REMARK SMILES IDX 52 45 49 46 45 47 46 48 47 49 48 50 74 51 75 52 83 53 76 54
REMARK SMILES IDX 82 55 84 56 81 57 77 58 78 59 79 60 80 61 59 62 60 63 68 64
REMARK SMILES IDX 61 65 67 66 69 67 66 68 62 69 63 70 64 71 65 72 8 73 9 74
REMARK SMILES IDX 10 75 11 76 12 77 13 78 32 79 14 80 16 81 15 82 17 83 18 85
REMARK SMILES IDX 19 86 20 87 21 89 22 90 23 91 24 92 31 93 25 94 26 95 30 96
REMARK SMILES IDX 27 98 29 99 28 100
REMARK H PARENT 89 25 57 36 17 84 20 88 25 97
REMARK Flexibility Score: inf
ROOT
ATOM      1  C   UNL     1       2.789  -2.074   0.500  1.00  0.00     0.202 C 
ENDROOT
BRANCH   1   2
ATOM      2  O   UNL     1       4.131  -1.574   0.549  1.00  0.00    -0.374 OA
BRANCH   2   3
ATOM      3  C   UNL     1       4.382  -0.486   1.442  1.00  0.00     0.202 C 
BRANCH   3   4
ATOM      4  C   UNL     1       4.019   0.911   0.936  1.00  0.00     0.261 C 
BRANCH   4   5
ATOM      5  O   UNL     1       2.627   0.968   0.594  1.00  0.00    -0.460 OA
BRANCH   5   6
ATOM      6  C   UNL     1       2.095   0.997  -0.651  1.00  0.00     0.338 C 
ATOM      7  O   UNL     1       0.878   1.125  -0.771  1.00  0.00    -0.246 OA
BRANCH   6   8
ATOM      8  C   UNL     1       2.918   0.863  -1.888  1.00  0.00     0.060 A 
ATOM      9  C   UNL     1       4.097   0.122  -1.969  1.00  0.00     0.016 A 
ATOM     10  C   UNL     1       2.418   1.439  -3.065  1.00  0.00     0.016 A 
ATOM     11  C   UNL     1       4.803  -0.001  -3.148  1.00  0.00     0.010 A 
ATOM     12  C   UNL     1       3.094   1.274  -4.278  1.00  0.00     0.010 A 
ATOM     13  C   UNL     1       4.293   0.555  -4.313  1.00  0.00    -0.014 A 
BRANCH  13  14
ATOM     14  C   UNL     1       5.116   0.428  -5.524  1.00  0.00     0.031 A 
ATOM     15  C   UNL     1       5.879   1.628  -5.981  1.00  0.00     0.074 A 
ATOM     16  C   UNL     1       5.285  -0.788  -6.074  1.00  0.00     0.049 A 
ATOM     17  N   UNL     1       6.626   1.778  -7.037  1.00  0.00    -0.248 NA
ATOM     18  C   UNL     1       5.798   2.818  -5.119  1.00  0.00     0.031 C 
ATOM     19  C   UNL     1       4.695  -2.031  -5.564  1.00  0.00     0.029 A 
ATOM     20  N   UNL     1       6.029  -1.191  -7.147  1.00  0.00    -0.354 N 
ATOM     21  C   UNL     1       7.082   3.089  -6.986  1.00  0.00     0.074 A 
ATOM     22  C   UNL     1       6.518   3.694  -5.800  1.00  0.00     0.031 C 
ATOM     23  C   UNL     1       5.122  -3.060  -6.313  1.00  0.00     0.029 A 
ATOM     24  C   UNL     1       5.934  -2.540  -7.405  1.00  0.00     0.049 A 
ATOM     25  H   UNL     1       6.579  -0.577  -7.684  1.00  0.00     0.167 HD
ATOM     26  C   UNL     1       7.893   3.719  -7.869  1.00  0.00     0.034 A 
ATOM     27  C   UNL     1       6.413  -3.252  -8.442  1.00  0.00     0.034 A 
ATOM     28  C   UNL     1       8.409   3.063  -9.043  1.00  0.00     0.049 A 
ATOM     29  C   UNL     1       7.196  -2.495  -9.486  1.00  0.00     0.074 A 
ATOM     30  C   UNL     1       9.164   3.591 -10.073  1.00  0.00     0.029 A 
ATOM     31  N   UNL     1       8.212   1.716  -9.342  1.00  0.00    -0.354 N 
ATOM     32  N   UNL     1       7.540  -1.225  -9.498  1.00  0.00    -0.248 NA
ATOM     33  C   UNL     1       7.642  -3.253 -10.657  1.00  0.00     0.031 C 
ATOM     34  C   UNL     1       9.358   2.585 -11.026  1.00  0.00     0.029 A 
ATOM     35  C   UNL     1       8.804   1.403 -10.553  1.00  0.00     0.049 A 
ATOM     36  H   UNL     1       7.721   1.079  -8.774  1.00  0.00     0.167 HD
ATOM     37  C   UNL     1       8.266  -1.037 -10.668  1.00  0.00     0.074 A 
ATOM     38  C   UNL     1       8.325  -2.332 -11.321  1.00  0.00     0.031 C 
ATOM     39  C   UNL     1       8.832   0.093 -11.165  1.00  0.00     0.034 A 
BRANCH  26  40
ATOM     40  C   UNL     1       8.144   5.187  -7.636  1.00  0.00     0.023 A 
ATOM     41  C   UNL     1       8.813   5.659  -6.492  1.00  0.00     0.031 A 
ATOM     42  C   UNL     1       7.604   6.138  -8.520  1.00  0.00     0.131 A 
ATOM     43  C   UNL     1       8.845   7.036  -6.219  1.00  0.00     0.055 A 
ATOM     44  C   UNL     1       7.717   7.510  -8.287  1.00  0.00     0.041 A 
ATOM     45  F   UNL     1       6.922   5.749  -9.609  1.00  0.00    -0.206 F 
ATOM     46  C   UNL     1       8.324   7.966  -7.122  1.00  0.00     0.022 A 
BRANCH  43  47
ATOM     47  S   UNL     1       9.416   7.585  -4.585  1.00  0.00     0.124 S 
ATOM     48  O   UNL     1       8.461   6.921  -3.701  1.00  0.00    -0.237 OA
ATOM     49  O   UNL     1      10.783   7.081  -4.542  1.00  0.00    -0.237 OA
ATOM     50  O   UNL     1       9.288   9.040  -4.647  1.00  0.00    -0.744 OA
ENDBRANCH  43  47
ENDBRANCH  26  40
BRANCH  27  51
ATOM     51  C   UNL     1       6.101  -4.705  -8.592  1.00  0.00     0.023 A 
ATOM     52  C   UNL     1       7.117  -5.668  -8.686  1.00  0.00     0.031 A 
ATOM     53  C   UNL     1       4.768  -5.150  -8.703  1.00  0.00     0.131 A 
ATOM     54  C   UNL     1       6.790  -7.012  -8.932  1.00  0.00     0.055 A 
ATOM     55  C   UNL     1       4.446  -6.496  -8.883  1.00  0.00     0.041 A 
ATOM     56  F   UNL     1       3.750  -4.278  -8.633  1.00  0.00    -0.206 F 
ATOM     57  C   UNL     1       5.462  -7.435  -9.015  1.00  0.00     0.022 A 
BRANCH  54  58
ATOM     58  S   UNL     1       8.133  -8.190  -9.252  1.00  0.00     0.124 S 
ATOM     59  O   UNL     1       8.818  -7.561 -10.375  1.00  0.00    -0.237 OA
ATOM     60  O   UNL     1       8.849  -8.188  -7.981  1.00  0.00    -0.237 OA
ATOM     61  O   UNL     1       7.429  -9.432  -9.567  1.00  0.00    -0.744 OA
ENDBRANCH  54  58
ENDBRANCH  27  51
BRANCH  39  62
ATOM     62  C   UNL     1       9.601  -0.052 -12.452  1.00  0.00     0.023 A 
ATOM     63  C   UNL     1       8.961  -0.364 -13.662  1.00  0.00     0.031 A 
ATOM     64  C   UNL     1      10.995   0.127 -12.459  1.00  0.00     0.131 A 
ATOM     65  C   UNL     1       9.725  -0.547 -14.822  1.00  0.00     0.055 A 
ATOM     66  C   UNL     1      11.740   0.014 -13.632  1.00  0.00     0.041 A 
ATOM     67  F   UNL     1      11.653   0.423 -11.327  1.00  0.00    -0.206 F 
ATOM     68  C   UNL     1      11.107  -0.339 -14.820  1.00  0.00     0.022 A 
BRANCH  65  69
ATOM     69  S   UNL     1       8.899  -1.162 -16.314  1.00  0.00     0.124 S 
ATOM     70  O   UNL     1       8.344  -2.430 -15.852  1.00  0.00    -0.237 OA
ATOM     71  O   UNL     1       7.930  -0.107 -16.592  1.00  0.00    -0.237 OA
ATOM     72  O   UNL     1       9.986  -1.276 -17.284  1.00  0.00    -0.744 OA
ENDBRANCH  65  69
ENDBRANCH  39  62
ENDBRANCH  13  14
ENDBRANCH   6   8
ENDBRANCH   5   6
ENDBRANCH   4   5
ENDBRANCH   3   4
ENDBRANCH   2   3
ENDBRANCH   1   2
BRANCH   1  73
ATOM     73  C   UNL     1       2.822  -3.608   0.418  1.00  0.00     0.261 C 
BRANCH  73  74
ATOM     74  O   UNL     1       3.377  -4.109   1.643  1.00  0.00    -0.460 OA
BRANCH  74  75
ATOM     75  C   UNL     1       4.743  -4.111   1.650  1.00  0.00     0.338 C 
ATOM     76  O   UNL     1       5.468  -4.455   0.754  1.00  0.00    -0.246 OA
BRANCH  75  77
ATOM     77  C   UNL     1       5.188  -3.390   2.874  1.00  0.00     0.062 A 
ATOM     78  C   UNL     1       6.414  -2.713   2.833  1.00  0.00     0.016 A 
ATOM     79  C   UNL     1       4.353  -3.257   3.986  1.00  0.00     0.041 A 
ATOM     80  C   UNL     1       6.781  -1.870   3.881  1.00  0.00     0.003 A 
ATOM     81  C   UNL     1       4.777  -2.498   5.072  1.00  0.00     0.041 A 
ATOM     82  C   UNL     1       5.961  -1.764   4.998  1.00  0.00     0.026 A 
BRANCH  81  83
ATOM     83  N   UNL     1       3.987  -2.470   6.223  1.00  0.00    -0.331 N 
ATOM     84  H   UNL     1       3.013  -2.460   6.081  1.00  0.00     0.169 HD
BRANCH  83  85
ATOM     85  C   UNL     1       4.403  -2.456   7.519  1.00  0.00     0.191 C 
ATOM     86  S   UNL     1       3.322  -1.932   8.693  1.00  0.00    -0.039 S 
BRANCH  85  87
ATOM     87  N   UNL     1       5.603  -2.999   7.906  1.00  0.00    -0.254 N 
ATOM     88  H   UNL     1       5.799  -2.954   8.870  1.00  0.00     0.193 HD
BRANCH  87  89
ATOM     89  N   UNL     1       6.570  -3.599   7.127  1.00  0.00    -0.181 NA
ATOM     90  C   UNL     1       6.500  -4.868   6.804  1.00  0.00     0.143 C 
BRANCH  90  91
ATOM     91  C   UNL     1       5.410  -5.771   7.160  1.00  0.00     0.020 A 
ATOM     92  C   UNL     1       4.103  -5.533   6.780  1.00  0.00     0.093 A 
ATOM     93  C   UNL     1       5.225  -6.563   8.324  1.00  0.00     0.008 A 
ATOM     94  N   UNL     1       3.467  -5.324   7.988  1.00  0.00    -0.361 N 
ATOM     95  C   UNL     1       4.207  -5.897   8.993  1.00  0.00     0.046 A 
ATOM     96  C   UNL     1       5.613  -7.806   8.843  1.00  0.00     0.011 A 
ATOM     97  H   UNL     1       2.619  -4.840   8.109  1.00  0.00     0.166 HD
ATOM     98  C   UNL     1       3.954  -6.035  10.348  1.00  0.00     0.027 A 
ATOM     99  C   UNL     1       5.110  -8.161  10.107  1.00  0.00     0.001 A 
ATOM    100  C   UNL     1       4.400  -7.239  10.887  1.00  0.00     0.002 A 
ENDBRANCH  90  91
ENDBRANCH  87  89
ENDBRANCH  85  87
ENDBRANCH  83  85
ENDBRANCH  81  83
ENDBRANCH  75  77
ENDBRANCH  74  75
ENDBRANCH  73  74
ENDBRANCH   1  73
TORSDOF 22
