REMARK SMILES COc1cc(OC(F)(F)F)cc2c1O[C@@H](C(F)(F)F)C(C(=O)OCCOCCOC(=O)c1ccc(-c3c4nc(c(-c5cc(S(=O)(=O)[O-])ccc5F)c5ccc([nH]5)c(-c5cc(S(=O)(=O)[O-])ccc5F)c5nc(c(-c6cc(S(=O)(=O)[O-])ccc6F)c6ccc3[nH]6)C=C5)C=C4)cc1)=C2
REMARK SMILES IDX 27 1 26 2 25 3 24 4 23 5 21 6 22 7 20 8 3 9 4 10 13 11 5 12
REMARK SMILES IDX 12 13 14 14 11 15 95 16 15 17 2 18 1 19 6 20 7 21 8 22 9 23
REMARK SMILES IDX 10 24 16 25 17 26 18 27 19 28 28 29 29 30 30 31 31 32 32 33
REMARK SMILES IDX 33 34 94 35 34 36 93 37 35 38 36 39 37 40 87 41 38 42 92 43
REMARK SMILES IDX 86 44 88 45 39 46 91 47 85 48 84 49 40 51 72 52 52 53 71 54
REMARK SMILES IDX 53 55 56 56 70 57 89 58 54 59 55 60 69 62 90 63 57 64 41 65
REMARK SMILES IDX 42 66 50 67 43 68 49 69 51 70 48 71 44 72 45 73 46 74 47 75
REMARK SMILES IDX 73 76 74 77 82 78 75 79 81 80 83 81 80 82 76 83 77 84 78 85
REMARK SMILES IDX 79 86 58 87 59 88 67 89 60 90 66 91 68 92 65 93 61 94 62 95
REMARK SMILES IDX 63 96 64 97
REMARK H PARENT 88 50 56 61
REMARK Flexibility Score: inf
ROOT
ATOM      1  C   UNL     1       7.047   1.823   3.621  1.00  0.00     0.202 C 
ENDROOT
BRANCH   1   2
ATOM      2  O   UNL     1       8.390   1.935   3.155  1.00  0.00    -0.374 OA
BRANCH   2   3
ATOM      3  C   UNL     1       8.887   3.228   2.820  1.00  0.00     0.202 C 
BRANCH   3   4
ATOM      4  C   UNL     1       8.398   3.865   1.516  1.00  0.00     0.261 C 
BRANCH   4   5
ATOM      5  O   UNL     1       6.964   3.900   1.433  1.00  0.00    -0.460 OA
BRANCH   5   6
ATOM      6  C   UNL     1       6.435   3.104   0.477  1.00  0.00     0.338 C 
ATOM      7  O   UNL     1       7.048   2.486  -0.381  1.00  0.00    -0.246 OA
BRANCH   6   8
ATOM      8  C   UNL     1       4.984   2.949   0.663  1.00  0.00     0.087 C 
ATOM      9  C   UNL     1       0.896   2.365   0.049  1.00  0.00     0.165 A 
ATOM     10  C   UNL     1       0.005   3.408   0.318  1.00  0.00     0.097 A 
ATOM     11  C   UNL     1       2.262   2.550   0.281  1.00  0.00     0.170 A 
ATOM     12  C   UNL     1       0.459   4.619   0.846  1.00  0.00     0.134 A 
ATOM     13  C   UNL     1       2.738   3.776   0.785  1.00  0.00     0.025 A 
ATOM     14  O   UNL     1       3.137   1.563  -0.098  1.00  0.00    -0.471 OA
ATOM     15  C   UNL     1       1.827   4.792   1.091  1.00  0.00     0.059 A 
ATOM     16  C   UNL     1       4.186   4.017   0.828  1.00  0.00     0.027 C 
ATOM     17  C   UNL     1       4.386   1.564   0.636  1.00  0.00     0.316 C 
BRANCH   9  18
ATOM     18  O   UNL     1       0.321   1.259  -0.521  1.00  0.00    -0.493 OA
ATOM     19  C   UNL     1       0.800   0.004  -0.048  1.00  0.00     0.278 C 
ENDBRANCH   9  18
BRANCH  12  20
ATOM     20  O   UNL     1      -0.316   5.705   1.141  1.00  0.00    -0.406 OA
BRANCH  20  21
ATOM     21  C   UNL     1      -1.661   5.694   0.689  1.00  0.00     0.573 C 
ATOM     22  F   UNL     1      -1.730   5.498  -0.646  1.00  0.00    -0.132 F 
ATOM     23  F   UNL     1      -2.376   4.738   1.321  1.00  0.00    -0.132 F 
ATOM     24  F   UNL     1      -2.226   6.889   0.966  1.00  0.00    -0.132 F 
ENDBRANCH  20  21
ENDBRANCH  12  20
BRANCH  17  25
ATOM     25  C   UNL     1       5.235   0.377   0.154  1.00  0.00     0.430 C 
ATOM     26  F   UNL     1       6.347   0.223   0.908  1.00  0.00    -0.167 F 
ATOM     27  F   UNL     1       4.524  -0.777   0.305  1.00  0.00    -0.167 F 
ATOM     28  F   UNL     1       5.583   0.450  -1.145  1.00  0.00    -0.167 F 
ENDBRANCH  17  25
ENDBRANCH   6   8
ENDBRANCH   5   6
ENDBRANCH   4   5
ENDBRANCH   3   4
ENDBRANCH   2   3
ENDBRANCH   1   2
BRANCH   1  29
ATOM     29  C   UNL     1       6.691   2.393   5.000  1.00  0.00     0.261 C 
BRANCH  29  30
ATOM     30  O   UNL     1       6.858   3.817   5.084  1.00  0.00    -0.460 OA
BRANCH  30  31
ATOM     31  C   UNL     1       7.876   4.212   5.888  1.00  0.00     0.338 C 
ATOM     32  O   UNL     1       8.608   3.490   6.551  1.00  0.00    -0.246 OA
BRANCH  31  33
ATOM     33  C   UNL     1       8.134   5.651   5.713  1.00  0.00     0.060 A 
ATOM     34  C   UNL     1       9.428   6.038   5.341  1.00  0.00     0.016 A 
ATOM     35  C   UNL     1       7.157   6.608   5.994  1.00  0.00     0.016 A 
ATOM     36  C   UNL     1       9.767   7.387   5.299  1.00  0.00     0.010 A 
ATOM     37  C   UNL     1       7.503   7.963   5.961  1.00  0.00     0.010 A 
ATOM     38  C   UNL     1       8.819   8.356   5.652  1.00  0.00    -0.014 A 
BRANCH  38  39
ATOM     39  C   UNL     1       9.258   9.757   5.869  1.00  0.00     0.031 A 
ATOM     40  C   UNL     1       9.481  10.234   7.279  1.00  0.00     0.074 A 
ATOM     41  C   UNL     1       9.494  10.574   4.827  1.00  0.00     0.049 A 
ATOM     42  N   UNL     1       9.823  11.419   7.711  1.00  0.00    -0.248 NA
ATOM     43  C   UNL     1       9.285   9.237   8.342  1.00  0.00     0.031 C 
ATOM     44  C   UNL     1       9.363  10.204   3.419  1.00  0.00     0.029 A 
ATOM     45  N   UNL     1       9.890  11.887   4.795  1.00  0.00    -0.354 N 
ATOM     46  C   UNL     1       9.875  11.315   9.098  1.00  0.00     0.074 A 
ATOM     47  C   UNL     1       9.489   9.961   9.432  1.00  0.00     0.031 C 
ATOM     48  C   UNL     1       9.668  11.270   2.659  1.00  0.00     0.029 A 
ATOM     49  C   UNL     1       9.974  12.407   3.525  1.00  0.00     0.049 A 
ATOM     50  H   UNL     1      10.095  12.408   5.605  1.00  0.00     0.167 HD
ATOM     51  C   UNL     1      10.223  12.261  10.006  1.00  0.00     0.034 A 
ATOM     52  C   UNL     1      10.241  13.663   3.113  1.00  0.00     0.034 A 
ATOM     53  C   UNL     1      10.598  13.608   9.653  1.00  0.00     0.049 A 
ATOM     54  C   UNL     1      10.544  14.722   4.147  1.00  0.00     0.074 A 
ATOM     55  C   UNL     1      10.978  14.645  10.488  1.00  0.00     0.029 A 
ATOM     56  N   UNL     1      10.630  14.113   8.358  1.00  0.00    -0.354 N 
ATOM     57  N   UNL     1      10.592  14.612   5.455  1.00  0.00    -0.248 NA
ATOM     58  C   UNL     1      10.839  16.071   3.646  1.00  0.00     0.031 C 
ATOM     59  C   UNL     1      11.163  15.792   9.709  1.00  0.00     0.029 A 
ATOM     60  C   UNL     1      10.989  15.452   8.377  1.00  0.00     0.049 A 
ATOM     61  H   UNL     1      10.427  13.594   7.546  1.00  0.00     0.167 HD
ATOM     62  C   UNL     1      10.962  15.870   5.929  1.00  0.00     0.074 A 
ATOM     63  C   UNL     1      11.133  16.715   4.765  1.00  0.00     0.031 C 
ATOM     64  C   UNL     1      11.150  16.287   7.208  1.00  0.00     0.034 A 
BRANCH  51  65
ATOM     65  C   UNL     1      10.155  11.879  11.466  1.00  0.00     0.023 A 
ATOM     66  C   UNL     1      10.970  10.870  12.011  1.00  0.00     0.031 A 
ATOM     67  C   UNL     1       9.235  12.512  12.321  1.00  0.00     0.131 A 
ATOM     68  C   UNL     1      10.797  10.474  13.346  1.00  0.00     0.055 A 
ATOM     69  C   UNL     1       9.127  12.172  13.671  1.00  0.00     0.041 A 
ATOM     70  F   UNL     1       8.412  13.464  11.854  1.00  0.00    -0.206 F 
ATOM     71  C   UNL     1       9.900  11.137  14.188  1.00  0.00     0.022 A 
BRANCH  68  72
ATOM     72  S   UNL     1      11.650   8.982  13.926  1.00  0.00     0.124 S 
ATOM     73  O   UNL     1      11.145   7.974  12.996  1.00  0.00    -0.237 OA
ATOM     74  O   UNL     1      13.054   9.344  13.777  1.00  0.00    -0.237 OA
ATOM     75  O   UNL     1      11.185   8.835  15.304  1.00  0.00    -0.744 OA
ENDBRANCH  68  72
ENDBRANCH  51  65
BRANCH  52  76
ATOM     76  C   UNL     1      10.201  14.007   1.662  1.00  0.00     0.023 A 
ATOM     77  C   UNL     1      11.345  14.464   0.989  1.00  0.00     0.031 A 
ATOM     78  C   UNL     1       8.996  13.939   0.939  1.00  0.00     0.131 A 
ATOM     79  C   UNL     1      11.251  14.883  -0.347  1.00  0.00     0.055 A 
ATOM     80  C   UNL     1       8.920  14.302  -0.407  1.00  0.00     0.041 A 
ATOM     81  F   UNL     1       7.870  13.511   1.533  1.00  0.00    -0.206 F 
ATOM     82  C   UNL     1      10.050  14.791  -1.054  1.00  0.00     0.022 A 
BRANCH  79  83
ATOM     83  S   UNL     1      12.704  15.640  -1.124  1.00  0.00     0.124 S 
ATOM     84  O   UNL     1      12.964  16.765  -0.233  1.00  0.00    -0.237 OA
ATOM     85  O   UNL     1      13.673  14.550  -1.081  1.00  0.00    -0.237 OA
ATOM     86  O   UNL     1      12.229  15.997  -2.459  1.00  0.00    -0.744 OA
ENDBRANCH  79  83
ENDBRANCH  52  76
BRANCH  64  87
ATOM     87  C   UNL     1      11.623  17.708   7.408  1.00  0.00     0.023 A 
ATOM     88  C   UNL     1      10.827  18.815   7.065  1.00  0.00     0.031 A 
ATOM     89  C   UNL     1      12.902  17.956   7.940  1.00  0.00     0.131 A 
ATOM     90  C   UNL     1      11.341  20.114   7.200  1.00  0.00     0.055 A 
ATOM     91  C   UNL     1      13.381  19.252   8.136  1.00  0.00     0.041 A 
ATOM     92  F   UNL     1      13.709  16.938   8.283  1.00  0.00    -0.206 F 
ATOM     93  C   UNL     1      12.605  20.340   7.750  1.00  0.00     0.022 A 
BRANCH  90  94
ATOM     94  S   UNL     1      10.376  21.505   6.545  1.00  0.00     0.124 S 
ATOM     95  O   UNL     1      10.209  21.126   5.146  1.00  0.00    -0.237 OA
ATOM     96  O   UNL     1       9.170  21.461   7.366  1.00  0.00    -0.237 OA
ATOM     97  O   UNL     1      11.240  22.661   6.776  1.00  0.00    -0.744 OA
ENDBRANCH  90  94
ENDBRANCH  64  87
ENDBRANCH  38  39
ENDBRANCH  31  33
ENDBRANCH  30  31
ENDBRANCH  29  30
ENDBRANCH   1  29
TORSDOF 21
