REMARK SMILES Cc1n[nH]c(C[N@H+]2CCC[C@H](c3cccc(C(=O)OCCOCCOC(=O)c4ccc(-c5c6nc(c(-c7cc(S(=O)(=O)[O-])ccc7F)c7ccc([nH]7)c(-c7cc(S(=O)(=O)[O-])ccc7F)c7nc(c(-c8cc(S(=O)(=O)[O-])ccc8F)c8ccc5[nH]8)C=C7)C=C6)cc4)c3)C2)n1
REMARK SMILES IDX 22 1 21 2 20 3 19 4 17 5 18 6 16 7 12 8 13 9 91 10 14 11
REMARK SMILES IDX 15 12 11 13 7 14 8 15 92 16 9 18 10 19 6 20 5 21 1 22 2 23
REMARK SMILES IDX 3 24 93 25 4 26 23 28 24 29 25 30 26 31 27 32 28 33 29 34
REMARK SMILES IDX 90 35 30 36 89 37 31 38 32 39 33 40 83 41 34 42 88 43 82 44
REMARK SMILES IDX 84 45 35 46 87 47 81 48 80 49 36 51 68 52 48 53 67 54 49 55
REMARK SMILES IDX 52 56 66 57 85 58 50 59 51 60 65 62 86 63 53 64 37 65 38 66
REMARK SMILES IDX 46 67 39 68 45 69 47 70 44 71 40 72 41 73 42 74 43 75 69 76
REMARK SMILES IDX 70 77 78 78 71 79 77 80 79 81 76 82 72 83 73 84 74 85 75 86
REMARK SMILES IDX 54 87 55 88 63 89 56 90 62 91 64 92 61 93 57 94 58 95 59 96
REMARK SMILES IDX 60 97
REMARK H PARENT 7 17 4 27 84 50 52 61
REMARK Flexibility Score: inf
ROOT
ATOM      1  O   UNL     1      -3.596  12.453  -2.866  1.00  0.00    -0.374 OA
ENDROOT
BRANCH   1   2
ATOM      2  C   UNL     1      -4.569  11.965  -1.942  1.00  0.00     0.202 C 
BRANCH   2   3
ATOM      3  C   UNL     1      -5.333  10.687  -2.289  1.00  0.00     0.261 C 
BRANCH   3   4
ATOM      4  O   UNL     1      -4.465   9.549  -2.378  1.00  0.00    -0.460 OA
BRANCH   4   5
ATOM      5  C   UNL     1      -4.274   9.081  -3.636  1.00  0.00     0.338 C 
ATOM      6  O   UNL     1      -4.841   9.446  -4.652  1.00  0.00    -0.246 OA
BRANCH   5   7
ATOM      7  C   UNL     1      -3.109   8.174  -3.650  1.00  0.00     0.060 A 
ATOM      8  C   UNL     1      -1.858   6.290  -2.761  1.00  0.00    -0.038 A 
ATOM      9  C   UNL     1      -0.926   6.475  -3.800  1.00  0.00     0.004 A 
ATOM     10  C   UNL     1      -2.916   7.209  -2.659  1.00  0.00     0.020 A 
ATOM     11  C   UNL     1      -1.090   7.474  -4.760  1.00  0.00     0.001 A 
ATOM     12  C   UNL     1      -2.200   8.304  -4.704  1.00  0.00     0.016 A 
BRANCH   8  13
ATOM     13  C   UNL     1      -1.769   5.116  -1.781  1.00  0.00     0.074 C 
ATOM     14  N   UNL     1      -1.205   3.311  -3.431  1.00  0.00    -0.328 N 
ATOM     15  C   UNL     1      -2.519   2.680  -3.276  1.00  0.00     0.262 C 
ATOM     16  C   UNL     1      -0.779   3.993  -2.187  1.00  0.00     0.270 C 
ATOM     17  H   UNL     1      -1.314   4.025  -4.151  1.00  0.00     0.348 HD
ATOM     18  C   UNL     1      -3.582   3.680  -2.814  1.00  0.00     0.062 C 
ATOM     19  C   UNL     1      -3.135   4.425  -1.555  1.00  0.00     0.020 C 
BRANCH  14  20
ATOM     20  C   UNL     1      -0.173   2.393  -3.944  1.00  0.00     0.340 C 
BRANCH  20  21
ATOM     21  C   UNL     1       0.171   1.277  -3.019  1.00  0.00     0.179 A 
ATOM     22  C   UNL     1       1.043  -0.218   0.043  1.00  0.00     0.092 C 
ATOM     23  C   UNL     1       0.646   0.093  -1.343  1.00  0.00     0.147 A 
ATOM     24  N   UNL     1       0.078  -0.791  -2.173  1.00  0.00    -0.159 NA
ATOM     25  N   UNL     1       0.770   1.355  -1.850  1.00  0.00    -0.211 NA
ATOM     26  N   UNL     1      -0.197  -0.018  -3.237  1.00  0.00    -0.258 N 
ATOM     27  H   UNL     1      -0.612  -0.345  -4.068  1.00  0.00     0.192 HD
ENDBRANCH  20  21
ENDBRANCH  14  20
ENDBRANCH   8  13
ENDBRANCH   5   7
ENDBRANCH   4   5
ENDBRANCH   3   4
ENDBRANCH   2   3
ENDBRANCH   1   2
BRANCH   1  28
ATOM     28  C   UNL     1      -2.369  11.753  -3.056  1.00  0.00     0.202 C 
BRANCH  28  29
ATOM     29  C   UNL     1      -1.322  11.761  -1.951  1.00  0.00     0.261 C 
BRANCH  29  30
ATOM     30  O   UNL     1      -1.845  11.268  -0.733  1.00  0.00    -0.460 OA
BRANCH  30  31
ATOM     31  C   UNL     1      -2.259  12.247   0.110  1.00  0.00     0.338 C 
ATOM     32  O   UNL     1      -2.412  13.422  -0.146  1.00  0.00    -0.246 OA
BRANCH  31  33
ATOM     33  C   UNL     1      -2.385  11.666   1.452  1.00  0.00     0.060 A 
ATOM     34  C   UNL     1      -2.557  12.599   2.476  1.00  0.00     0.016 A 
ATOM     35  C   UNL     1      -1.864  10.386   1.673  1.00  0.00     0.016 A 
ATOM     36  C   UNL     1      -1.875  12.383   3.647  1.00  0.00     0.010 A 
ATOM     37  C   UNL     1      -1.146  10.195   2.820  1.00  0.00     0.010 A 
ATOM     38  C   UNL     1      -1.075  11.243   3.738  1.00  0.00    -0.014 A 
BRANCH  38  39
ATOM     39  C   UNL     1      -0.228  11.082   4.894  1.00  0.00     0.031 A 
ATOM     40  C   UNL     1      -0.996  10.530   6.026  1.00  0.00     0.074 A 
ATOM     41  C   UNL     1       1.105  11.258   4.842  1.00  0.00     0.049 A 
ATOM     42  N   UNL     1      -1.512  11.183   7.015  1.00  0.00    -0.248 NA
ATOM     43  C   UNL     1      -1.539   9.166   5.862  1.00  0.00     0.031 C 
ATOM     44  C   UNL     1       1.951  11.533   3.679  1.00  0.00     0.029 A 
ATOM     45  N   UNL     1       2.010  11.117   5.841  1.00  0.00    -0.354 N 
ATOM     46  C   UNL     1      -2.188  10.215   7.745  1.00  0.00     0.074 A 
ATOM     47  C   UNL     1      -2.474   9.170   6.810  1.00  0.00     0.031 C 
ATOM     48  C   UNL     1       3.246  11.299   4.006  1.00  0.00     0.029 A 
ATOM     49  C   UNL     1       3.329  10.969   5.420  1.00  0.00     0.049 A 
ATOM     50  H   UNL     1       1.754  11.119   6.792  1.00  0.00     0.167 HD
ATOM     51  C   UNL     1      -2.073  10.158   9.100  1.00  0.00     0.034 A 
ATOM     52  C   UNL     1       4.358  10.500   6.184  1.00  0.00     0.034 A 
ATOM     53  C   UNL     1      -1.565  11.420   9.614  1.00  0.00     0.049 A 
ATOM     54  C   UNL     1       3.927  10.658   7.605  1.00  0.00     0.074 A 
ATOM     55  C   UNL     1      -1.974  12.738   9.505  1.00  0.00     0.029 A 
ATOM     56  N   UNL     1      -0.242  11.481  10.006  1.00  0.00    -0.354 N 
ATOM     57  N   UNL     1       3.723  11.825   8.160  1.00  0.00    -0.248 NA
ATOM     58  C   UNL     1       3.200   9.552   8.218  1.00  0.00     0.031 C 
ATOM     59  C   UNL     1      -0.771  13.488   9.342  1.00  0.00     0.029 A 
ATOM     60  C   UNL     1       0.312  12.615   9.464  1.00  0.00     0.049 A 
ATOM     61  H   UNL     1       0.223  10.825  10.575  1.00  0.00     0.167 HD
ATOM     62  C   UNL     1       2.552  11.683   8.893  1.00  0.00     0.074 A 
ATOM     63  C   UNL     1       2.312  10.240   8.945  1.00  0.00     0.031 C 
ATOM     64  C   UNL     1       1.718  12.744   9.117  1.00  0.00     0.034 A 
BRANCH  51  65
ATOM     65  C   UNL     1      -1.953   8.853   9.878  1.00  0.00     0.023 A 
ATOM     66  C   UNL     1      -1.652   8.985  11.243  1.00  0.00     0.031 A 
ATOM     67  C   UNL     1      -1.821   7.540   9.360  1.00  0.00     0.131 A 
ATOM     68  C   UNL     1      -1.069   7.930  11.961  1.00  0.00     0.055 A 
ATOM     69  C   UNL     1      -1.288   6.478  10.095  1.00  0.00     0.041 A 
ATOM     70  F   UNL     1      -2.147   7.191   8.113  1.00  0.00    -0.206 F 
ATOM     71  C   UNL     1      -0.864   6.679  11.391  1.00  0.00     0.022 A 
BRANCH  68  72
ATOM     72  S   UNL     1      -0.404   8.301  13.598  1.00  0.00     0.124 S 
ATOM     73  O   UNL     1       0.474   9.427  13.297  1.00  0.00    -0.237 OA
ATOM     74  O   UNL     1      -1.618   8.610  14.345  1.00  0.00    -0.237 OA
ATOM     75  O   UNL     1       0.267   7.061  13.977  1.00  0.00    -0.744 OA
ENDBRANCH  68  72
ENDBRANCH  51  65
BRANCH  52  76
ATOM     76  C   UNL     1       5.453   9.574   5.748  1.00  0.00     0.023 A 
ATOM     77  C   UNL     1       6.645   9.370   6.483  1.00  0.00     0.031 A 
ATOM     78  C   UNL     1       5.222   8.680   4.676  1.00  0.00     0.131 A 
ATOM     79  C   UNL     1       7.539   8.325   6.127  1.00  0.00     0.055 A 
ATOM     80  C   UNL     1       6.105   7.654   4.331  1.00  0.00     0.041 A 
ATOM     81  F   UNL     1       4.081   8.715   3.971  1.00  0.00    -0.206 F 
ATOM     82  C   UNL     1       7.265   7.466   5.061  1.00  0.00     0.022 A 
BRANCH  79  83
ATOM     83  S   UNL     1       9.055   8.006   7.096  1.00  0.00     0.124 S 
ATOM     84  O   UNL     1       9.863   9.185   6.806  1.00  0.00    -0.237 OA
ATOM     85  O   UNL     1       8.543   7.886   8.456  1.00  0.00    -0.237 OA
ATOM     86  O   UNL     1       9.570   6.758   6.527  1.00  0.00    -0.744 OA
ENDBRANCH  79  83
ENDBRANCH  52  76
BRANCH  64  87
ATOM     87  C   UNL     1       2.216  14.144   8.808  1.00  0.00     0.023 A 
ATOM     88  C   UNL     1       2.648  14.601   7.540  1.00  0.00     0.031 A 
ATOM     89  C   UNL     1       2.112  15.094   9.840  1.00  0.00     0.131 A 
ATOM     90  C   UNL     1       2.959  15.966   7.352  1.00  0.00     0.055 A 
ATOM     91  C   UNL     1       2.397  16.443   9.644  1.00  0.00     0.041 A 
ATOM     92  F   UNL     1       1.683  14.728  11.060  1.00  0.00    -0.206 F 
ATOM     93  C   UNL     1       2.826  16.884   8.399  1.00  0.00     0.022 A 
BRANCH  90  94
ATOM     94  S   UNL     1       3.557  16.578   5.742  1.00  0.00     0.124 S 
ATOM     95  O   UNL     1       4.597  15.623   5.379  1.00  0.00    -0.237 OA
ATOM     96  O   UNL     1       2.348  16.550   4.925  1.00  0.00    -0.237 OA
ATOM     97  O   UNL     1       4.048  17.924   6.051  1.00  0.00    -0.744 OA
ENDBRANCH  90  94
ENDBRANCH  64  87
ENDBRANCH  38  39
ENDBRANCH  31  33
ENDBRANCH  30  31
ENDBRANCH  29  30
ENDBRANCH  28  29
ENDBRANCH   1  28
TORSDOF 20
