REMARK SMILES COC(=O)[C@H]1CN(C(=O)NC(=O)CCCC(=O)OCCOCCOC(=O)c2ccc(-c3c4nc(c(-c5cc(S(=O)(=O)[O-])ccc5F)c5ccc([nH]5)c(-c5cc(S(=O)(=O)[O-])ccc5F)c5nc(c(-c6cc(S(=O)(=O)[O-])ccc6F)c6ccc3[nH]6)C=C5)C=C4)cc2)C[C@H]1C
REMARK SMILES IDX 19 1 18 2 16 3 17 4 15 5 14 6 13 7 11 8 8 9 9 10 10 11 12 13
REMARK SMILES IDX 7 14 5 15 6 16 91 17 90 18 92 19 3 20 4 21 2 22 1 23 20 24
REMARK SMILES IDX 21 25 22 26 23 27 24 28 25 29 26 30 27 31 28 32 89 33 29 34
REMARK SMILES IDX 88 35 30 36 31 37 32 38 82 39 33 40 87 41 81 42 83 43 34 44
REMARK SMILES IDX 86 45 80 46 79 47 35 49 67 50 47 51 66 52 48 53 51 54 65 55
REMARK SMILES IDX 84 56 49 57 50 58 64 60 85 61 52 62 36 63 37 64 45 65 38 66
REMARK SMILES IDX 44 67 46 68 43 69 39 70 40 71 41 72 42 73 68 74 69 75 77 76
REMARK SMILES IDX 70 77 76 78 78 79 75 80 71 81 72 82 73 83 74 84 53 85 54 86
REMARK SMILES IDX 62 87 55 88 61 89 63 90 60 91 56 92 57 93 58 94 59 95
REMARK H PARENT 10 12 83 48 51 59
REMARK Flexibility Score: inf
ROOT
ATOM      1  C   UNL     1       3.816  -4.901   1.365  1.00  0.00     0.261 C 
ENDROOT
BRANCH   1   2
ATOM      2  O   UNL     1       3.775  -4.043  -0.207  1.00  0.00    -0.463 OA
BRANCH   2   3
ATOM      3  C   UNL     1       2.547  -3.481  -1.542  1.00  0.00     0.305 C 
ATOM      4  O   UNL     1       1.338  -3.785  -1.624  1.00  0.00    -0.252 OA
BRANCH   3   5
ATOM      5  C   UNL     1       2.879  -2.693  -2.952  1.00  0.00     0.123 C 
BRANCH   5   6
ATOM      6  C   UNL     1       2.689  -1.181  -3.120  1.00  0.00     0.022 C 
BRANCH   6   7
ATOM      7  C   UNL     1       3.834  -0.228  -2.804  1.00  0.00     0.101 C 
BRANCH   7   8
ATOM      8  C   UNL     1       5.210  -0.583  -3.294  1.00  0.00     0.228 C 
ATOM      9  C   UNL     1       5.652  -2.959  -2.508  1.00  0.00     0.324 C 
ATOM     10  O   UNL     1       6.213  -3.836  -3.169  1.00  0.00    -0.248 OA
ATOM     11  N   UNL     1       5.935  -1.648  -2.797  1.00  0.00    -0.278 N 
ATOM     12  H   UNL     1       6.872  -1.412  -2.607  1.00  0.00     0.174 HD
ATOM     13  O   UNL     1       5.739   0.130  -4.155  1.00  0.00    -0.275 OA
BRANCH   9  14
ATOM     14  N   UNL     1       4.663  -3.285  -1.626  1.00  0.00    -0.323 N 
ATOM     15  C   UNL     1       2.339  -3.310   0.608  1.00  0.00     0.123 C 
ATOM     16  C   UNL     1       3.792  -2.217  -0.313  1.00  0.00     0.137 C 
ATOM     17  C   UNL     1       2.438  -5.202  -0.371  1.00  0.00     0.021 C 
ATOM     18  C   UNL     1       3.956  -5.054  -1.718  1.00  0.00     0.125 C 
ATOM     19  C   UNL     1       2.716  -6.760   0.006  1.00  0.00     0.010 C 
BRANCH  15  20
ATOM     20  C   UNL     1       1.328  -2.663   2.162  1.00  0.00     0.310 C 
ATOM     21  O   UNL     1       1.770  -2.683   3.310  1.00  0.00    -0.252 OA
BRANCH  20  22
ATOM     22  O   UNL     1      -0.013  -2.261   2.116  1.00  0.00    -0.469 OA
ATOM     23  C   UNL     1      -0.736  -0.948   2.114  1.00  0.00     0.282 C 
ENDBRANCH  20  22
ENDBRANCH  15  20
ENDBRANCH   9  14
ENDBRANCH   7   8
ENDBRANCH   6   7
ENDBRANCH   5   6
ENDBRANCH   3   5
ENDBRANCH   2   3
ENDBRANCH   1   2
BRANCH   1  24
ATOM     24  C   UNL     1       2.202  -5.124   2.107  1.00  0.00     0.202 C 
BRANCH  24  25
ATOM     25  O   UNL     1       0.809  -4.915   1.405  1.00  0.00    -0.374 OA
BRANCH  25  26
ATOM     26  C   UNL     1       0.038  -3.835   0.471  1.00  0.00     0.202 C 
BRANCH  26  27
ATOM     27  C   UNL     1       0.416  -2.059  -0.101  1.00  0.00     0.261 C 
BRANCH  27  28
ATOM     28  O   UNL     1       1.733  -1.118   0.529  1.00  0.00    -0.460 OA
BRANCH  28  29
ATOM     29  C   UNL     1       2.150  -0.259   1.574  1.00  0.00     0.338 C 
ATOM     30  O   UNL     1       1.421   0.540   2.150  1.00  0.00    -0.246 OA
BRANCH  29  31
ATOM     31  C   UNL     1       3.594  -0.319   2.169  1.00  0.00     0.060 A 
ATOM     32  C   UNL     1       4.131  -1.353   2.979  1.00  0.00     0.016 A 
ATOM     33  C   UNL     1       4.304   0.883   2.235  1.00  0.00     0.016 A 
ATOM     34  C   UNL     1       5.253  -1.216   3.823  1.00  0.00     0.010 A 
ATOM     35  C   UNL     1       5.441   1.035   3.074  1.00  0.00     0.010 A 
ATOM     36  C   UNL     1       5.908  -0.001   3.900  1.00  0.00    -0.014 A 
BRANCH  36  37
ATOM     37  C   UNL     1       7.001   0.230   4.886  1.00  0.00     0.031 A 
ATOM     38  C   UNL     1       6.715   0.982   6.158  1.00  0.00     0.074 A 
ATOM     39  C   UNL     1       8.254  -0.195   4.637  1.00  0.00     0.049 A 
ATOM     40  N   UNL     1       7.547   1.522   7.013  1.00  0.00    -0.248 NA
ATOM     41  C   UNL     1       5.298   1.149   6.505  1.00  0.00     0.031 C 
ATOM     42  C   UNL     1       8.649  -1.042   3.513  1.00  0.00     0.029 A 
ATOM     43  N   UNL     1       9.434   0.063   5.294  1.00  0.00    -0.354 N 
ATOM     44  C   UNL     1       6.756   2.130   7.985  1.00  0.00     0.074 A 
ATOM     45  C   UNL     1       5.377   1.891   7.601  1.00  0.00     0.031 C 
ATOM     46  C   UNL     1       9.984  -1.191   3.529  1.00  0.00     0.029 A 
ATOM     47  C   UNL     1      10.543  -0.403   4.626  1.00  0.00     0.049 A 
ATOM     48  H   UNL     1       9.480   0.535   6.157  1.00  0.00     0.167 HD
ATOM     49  C   UNL     1       7.146   2.830   9.083  1.00  0.00     0.034 A 
ATOM     50  C   UNL     1      11.856  -0.176   4.837  1.00  0.00     0.034 A 
ATOM     51  C   UNL     1       8.530   3.071   9.431  1.00  0.00     0.049 A 
ATOM     52  C   UNL     1      12.273   0.716   5.983  1.00  0.00     0.074 A 
ATOM     53  C   UNL     1       9.041   3.780  10.506  1.00  0.00     0.029 A 
ATOM     54  N   UNL     1       9.626   2.620   8.704  1.00  0.00    -0.354 N 
ATOM     55  N   UNL     1      11.523   1.338   6.864  1.00  0.00    -0.248 NA
ATOM     56  C   UNL     1      13.715   0.931   6.163  1.00  0.00     0.031 C 
ATOM     57  C   UNL     1      10.435   3.827  10.382  1.00  0.00     0.029 A 
ATOM     58  C   UNL     1      10.805   3.064   9.287  1.00  0.00     0.049 A 
ATOM     59  H   UNL     1       9.573   2.065   7.893  1.00  0.00     0.167 HD
ATOM     60  C   UNL     1      12.407   1.982   7.729  1.00  0.00     0.074 A 
ATOM     61  C   UNL     1      13.742   1.667   7.264  1.00  0.00     0.031 C 
ATOM     62  C   UNL     1      12.137   2.754   8.814  1.00  0.00     0.034 A 
BRANCH  49  63
ATOM     63  C   UNL     1       6.059   3.450   9.936  1.00  0.00     0.023 A 
ATOM     64  C   UNL     1       5.091   2.671  10.593  1.00  0.00     0.031 A 
ATOM     65  C   UNL     1       5.962   4.849  10.058  1.00  0.00     0.131 A 
ATOM     66  C   UNL     1       4.023   3.292  11.260  1.00  0.00     0.055 A 
ATOM     67  C   UNL     1       4.950   5.460  10.802  1.00  0.00     0.041 A 
ATOM     68  F   UNL     1       6.843   5.654   9.441  1.00  0.00    -0.206 F 
ATOM     69  C   UNL     1       3.960   4.681  11.392  1.00  0.00     0.022 A 
BRANCH  66  70
ATOM     70  S   UNL     1       2.626   2.268  11.800  1.00  0.00     0.124 S 
ATOM     71  O   UNL     1       2.225   1.633  10.546  1.00  0.00    -0.237 OA
ATOM     72  O   UNL     1       3.240   1.394  12.792  1.00  0.00    -0.237 OA
ATOM     73  O   UNL     1       1.671   3.240  12.329  1.00  0.00    -0.744 OA
ENDBRANCH  66  70
ENDBRANCH  49  63
BRANCH  50  74
ATOM     74  C   UNL     1      12.879  -0.759   3.920  1.00  0.00     0.023 A 
ATOM     75  C   UNL     1      13.825  -1.682   4.392  1.00  0.00     0.031 A 
ATOM     76  C   UNL     1      12.952  -0.375   2.569  1.00  0.00     0.131 A 
ATOM     77  C   UNL     1      14.824  -2.164   3.531  1.00  0.00     0.055 A 
ATOM     78  C   UNL     1      13.912  -0.900   1.702  1.00  0.00     0.041 A 
ATOM     79  F   UNL     1      12.077   0.511   2.065  1.00  0.00    -0.206 F 
ATOM     80  C   UNL     1      14.863  -1.794   2.185  1.00  0.00     0.022 A 
BRANCH  77  81
ATOM     81  S   UNL     1      16.121  -3.228   4.219  1.00  0.00     0.124 S 
ATOM     82  O   UNL     1      16.706  -2.362   5.237  1.00  0.00    -0.237 OA
ATOM     83  O   UNL     1      15.351  -4.366   4.710  1.00  0.00    -0.237 OA
ATOM     84  O   UNL     1      16.977  -3.508   3.069  1.00  0.00    -0.744 OA
ENDBRANCH  77  81
ENDBRANCH  50  74
BRANCH  62  85
ATOM     85  C   UNL     1      13.319   3.253   9.617  1.00  0.00     0.023 A 
ATOM     86  C   UNL     1      14.261   4.151   9.084  1.00  0.00     0.031 A 
ATOM     87  C   UNL     1      13.516   2.800  10.935  1.00  0.00     0.131 A 
ATOM     88  C   UNL     1      15.389   4.512   9.838  1.00  0.00     0.055 A 
ATOM     89  C   UNL     1      14.601   3.219  11.706  1.00  0.00     0.041 A 
ATOM     90  F   UNL     1      12.654   1.937  11.497  1.00  0.00    -0.206 F 
ATOM     91  C   UNL     1      15.555   4.068  11.153  1.00  0.00     0.022 A 
BRANCH  88  92
ATOM     92  S   UNL     1      16.703   5.474   9.037  1.00  0.00     0.124 S 
ATOM     93  O   UNL     1      17.049   4.627   7.901  1.00  0.00    -0.237 OA
ATOM     94  O   UNL     1      16.022   6.724   8.717  1.00  0.00    -0.237 OA
ATOM     95  O   UNL     1      17.732   5.577  10.070  1.00  0.00    -0.744 OA
ENDBRANCH  88  92
ENDBRANCH  62  85
ENDBRANCH  36  37
ENDBRANCH  29  31
ENDBRANCH  28  29
ENDBRANCH  27  28
ENDBRANCH  26  27
ENDBRANCH  25  26
ENDBRANCH  24  25
ENDBRANCH   1  24
TORSDOF 23
