REMARK SMILES O=C(CSC(=S)N1CCCC1)OCCOCCOC(=O)c1ccc(-c2c3nc(c(-c4cc(S(=O)(=O)[O-])ccc4F)c4ccc([nH]4)c(-c4cc(S(=O)(=O)[O-])ccc4F)c4nc(c(-c5cc(S(=O)(=O)[O-])ccc5F)c5ccc2[nH]5)C=C4)C=C3)cc1
REMARK SMILES IDX 15 1 14 2 13 3 12 4 2 5 1 6 3 7 4 8 5 9 6 10 7 11 8 12 11 13
REMARK SMILES IDX 9 14 10 15 16 16 17 17 18 18 19 19 20 20 21 21 22 22 83 23
REMARK SMILES IDX 23 24 82 25 24 26 25 27 26 28 76 29 27 30 81 31 75 32 77 33
REMARK SMILES IDX 28 34 80 35 74 36 73 37 29 39 61 40 41 41 60 42 42 43 45 44
REMARK SMILES IDX 59 45 78 46 43 47 44 48 58 50 79 51 46 52 30 53 31 54 39 55
REMARK SMILES IDX 32 56 38 57 40 58 37 59 33 60 34 61 35 62 36 63 62 64 63 65
REMARK SMILES IDX 71 66 64 67 70 68 72 69 69 70 65 71 66 72 67 73 68 74 47 75
REMARK SMILES IDX 48 76 56 77 49 78 55 79 57 80 54 81 50 82 51 83 52 84 53 85
REMARK H PARENT 77 38 45 49
REMARK Flexibility Score: inf
ROOT
ATOM      1  O   UNL     1       4.164   0.919   1.320  1.00  0.00    -0.374 OA
ENDROOT
BRANCH   1   2
ATOM      2  C   UNL     1       4.631   0.876  -0.030  1.00  0.00     0.202 C 
BRANCH   2   3
ATOM      3  C   UNL     1       4.374  -0.467  -0.713  1.00  0.00     0.261 C 
BRANCH   3   4
ATOM      4  O   UNL     1       2.984  -0.645  -1.047  1.00  0.00    -0.463 OA
BRANCH   4   5
ATOM      5  C   UNL     1       2.024  -1.069  -0.201  1.00  0.00     0.316 C 
ATOM      6  O   UNL     1       0.850  -0.779  -0.442  1.00  0.00    -0.251 OA
BRANCH   5   7
ATOM      7  C   UNL     1       2.374  -1.801   1.071  1.00  0.00     0.199 C 
BRANCH   7   8
ATOM      8  S   UNL     1       3.270  -3.357   0.961  1.00  0.00    -0.085 SA
BRANCH   8   9
ATOM      9  C   UNL     1       2.602  -4.205  -0.425  1.00  0.00     0.136 C 
ATOM     10  S   UNL     1       0.964  -4.226  -0.787  1.00  0.00    -0.053 S 
BRANCH   9  11
ATOM     11  N   UNL     1       3.557  -4.920  -1.143  1.00  0.00    -0.358 N 
ATOM     12  C   UNL     1       4.833  -5.415  -0.621  1.00  0.00     0.118 C 
ATOM     13  C   UNL     1       3.370  -5.375  -2.521  1.00  0.00     0.118 C 
ATOM     14  C   UNL     1       5.621  -5.835  -1.848  1.00  0.00     0.023 C 
ATOM     15  C   UNL     1       4.540  -6.306  -2.807  1.00  0.00     0.023 C 
ENDBRANCH   9  11
ENDBRANCH   8   9
ENDBRANCH   7   8
ENDBRANCH   5   7
ENDBRANCH   4   5
ENDBRANCH   3   4
ENDBRANCH   2   3
ENDBRANCH   1   2
BRANCH   1  16
ATOM     16  C   UNL     1       2.914   1.591   1.514  1.00  0.00     0.202 C 
BRANCH  16  17
ATOM     17  C   UNL     1       3.006   3.105   1.716  1.00  0.00     0.261 C 
BRANCH  17  18
ATOM     18  O   UNL     1       3.344   3.769   0.492  1.00  0.00    -0.460 OA
BRANCH  18  19
ATOM     19  C   UNL     1       4.660   4.040   0.327  1.00  0.00     0.338 C 
ATOM     20  O   UNL     1       5.556   3.860   1.137  1.00  0.00    -0.246 OA
BRANCH  19  21
ATOM     21  C   UNL     1       4.888   4.396  -1.085  1.00  0.00     0.060 A 
ATOM     22  C   UNL     1       5.998   3.837  -1.735  1.00  0.00     0.016 A 
ATOM     23  C   UNL     1       4.025   5.261  -1.762  1.00  0.00     0.016 A 
ATOM     24  C   UNL     1       6.275   4.178  -3.056  1.00  0.00     0.010 A 
ATOM     25  C   UNL     1       4.305   5.603  -3.082  1.00  0.00     0.010 A 
ATOM     26  C   UNL     1       5.450   5.092  -3.721  1.00  0.00    -0.014 A 
BRANCH  26  27
ATOM     27  C   UNL     1       5.859   5.678  -5.016  1.00  0.00     0.031 A 
ATOM     28  C   UNL     1       6.412   7.074  -5.012  1.00  0.00     0.074 A 
ATOM     29  C   UNL     1       5.682   5.008  -6.165  1.00  0.00     0.049 A 
ATOM     30  N   UNL     1       6.654   7.877  -6.012  1.00  0.00    -0.248 NA
ATOM     31  C   UNL     1       6.703   7.646  -3.688  1.00  0.00     0.031 C 
ATOM     32  C   UNL     1       5.187   3.637  -6.273  1.00  0.00     0.029 A 
ATOM     33  N   UNL     1       5.862   5.409  -7.465  1.00  0.00    -0.354 N 
ATOM     34  C   UNL     1       7.096   9.065  -5.438  1.00  0.00     0.074 A 
ATOM     35  C   UNL     1       7.054   8.881  -4.003  1.00  0.00     0.031 C 
ATOM     36  C   UNL     1       5.066   3.322  -7.573  1.00  0.00     0.029 A 
ATOM     37  C   UNL     1       5.419   4.487  -8.383  1.00  0.00     0.049 A 
ATOM     38  H   UNL     1       6.267   6.270  -7.714  1.00  0.00     0.167 HD
ATOM     39  C   UNL     1       7.497  10.201  -6.059  1.00  0.00     0.034 A 
ATOM     40  C   UNL     1       5.263   4.595  -9.718  1.00  0.00     0.034 A 
ATOM     41  C   UNL     1       7.507  10.352  -7.494  1.00  0.00     0.049 A 
ATOM     42  C   UNL     1       5.641   5.890 -10.393  1.00  0.00     0.074 A 
ATOM     43  C   UNL     1       7.926  11.436  -8.243  1.00  0.00     0.029 A 
ATOM     44  N   UNL     1       7.054   9.396  -8.396  1.00  0.00    -0.354 N 
ATOM     45  N   UNL     1       6.079   7.005  -9.852  1.00  0.00    -0.248 NA
ATOM     46  C   UNL     1       5.511   5.943 -11.854  1.00  0.00     0.031 C 
ATOM     47  C   UNL     1       7.640  11.173  -9.587  1.00  0.00     0.029 A 
ATOM     48  C   UNL     1       7.140   9.883  -9.691  1.00  0.00     0.049 A 
ATOM     49  H   UNL     1       6.720   8.503  -8.151  1.00  0.00     0.167 HD
ATOM     50  C   UNL     1       6.308   7.880 -10.912  1.00  0.00     0.074 A 
ATOM     51  C   UNL     1       5.958   7.162 -12.121  1.00  0.00     0.031 C 
ATOM     52  C   UNL     1       6.779   9.154 -10.887  1.00  0.00     0.034 A 
BRANCH  39  53
ATOM     53  C   UNL     1       7.875  11.373  -5.184  1.00  0.00     0.023 A 
ATOM     54  C   UNL     1       8.920  11.297  -4.246  1.00  0.00     0.031 A 
ATOM     55  C   UNL     1       7.131  12.566  -5.237  1.00  0.00     0.131 A 
ATOM     56  C   UNL     1       9.124  12.345  -3.335  1.00  0.00     0.055 A 
ATOM     57  C   UNL     1       7.405  13.645  -4.395  1.00  0.00     0.041 A 
ATOM     58  F   UNL     1       6.103  12.694  -6.091  1.00  0.00    -0.206 F 
ATOM     59  C   UNL     1       8.392  13.530  -3.421  1.00  0.00     0.022 A 
BRANCH  56  60
ATOM     60  S   UNL     1      10.219  12.055  -1.917  1.00  0.00     0.124 S 
ATOM     61  O   UNL     1       9.620  10.863  -1.321  1.00  0.00    -0.237 OA
ATOM     62  O   UNL     1      11.516  11.867  -2.555  1.00  0.00    -0.237 OA
ATOM     63  O   UNL     1      10.081  13.274  -1.123  1.00  0.00    -0.744 OA
ENDBRANCH  56  60
ENDBRANCH  39  53
BRANCH  40  64
ATOM     64  C   UNL     1       4.667   3.465 -10.485  1.00  0.00     0.023 A 
ATOM     65  C   UNL     1       5.415   2.747 -11.430  1.00  0.00     0.031 A 
ATOM     66  C   UNL     1       3.329   3.083 -10.273  1.00  0.00     0.131 A 
ATOM     67  C   UNL     1       4.814   1.697 -12.144  1.00  0.00     0.055 A 
ATOM     68  C   UNL     1       2.751   2.007 -10.949  1.00  0.00     0.041 A 
ATOM     69  F   UNL     1       2.570   3.737  -9.380  1.00  0.00    -0.206 F 
ATOM     70  C   UNL     1       3.493   1.312 -11.898  1.00  0.00     0.022 A 
BRANCH  67  71
ATOM     71  S   UNL     1       5.769   0.873 -13.447  1.00  0.00     0.124 S 
ATOM     72  O   UNL     1       6.057   1.981 -14.350  1.00  0.00    -0.237 OA
ATOM     73  O   UNL     1       6.903   0.340 -12.700  1.00  0.00    -0.237 OA
ATOM     74  O   UNL     1       4.841  -0.131 -13.966  1.00  0.00    -0.744 OA
ENDBRANCH  67  71
ENDBRANCH  40  64
BRANCH  52  75
ATOM     75  C   UNL     1       7.011   9.839 -12.214  1.00  0.00     0.023 A 
ATOM     76  C   UNL     1       5.954  10.209 -13.063  1.00  0.00     0.031 A 
ATOM     77  C   UNL     1       8.322  10.161 -12.611  1.00  0.00     0.131 A 
ATOM     78  C   UNL     1       6.231  10.849 -14.282  1.00  0.00     0.055 A 
ATOM     79  C   UNL     1       8.586  10.853 -13.793  1.00  0.00     0.041 A 
ATOM     80  F   UNL     1       9.370   9.825 -11.841  1.00  0.00    -0.206 F 
ATOM     81  C   UNL     1       7.537  11.194 -14.640  1.00  0.00     0.022 A 
BRANCH  78  82
ATOM     82  S   UNL     1       4.866  11.166 -15.434  1.00  0.00     0.124 S 
ATOM     83  O   UNL     1       4.363   9.819 -15.684  1.00  0.00    -0.237 OA
ATOM     84  O   UNL     1       3.994  12.039 -14.656  1.00  0.00    -0.237 OA
ATOM     85  O   UNL     1       5.522  11.804 -16.575  1.00  0.00    -0.744 OA
ENDBRANCH  78  82
ENDBRANCH  52  75
ENDBRANCH  26  27
ENDBRANCH  19  21
ENDBRANCH  18  19
ENDBRANCH  17  18
ENDBRANCH  16  17
ENDBRANCH   1  16
TORSDOF 20
