REMARK SMILES CC(C)[N@@H+](C)Cc1cc2c(cc1Cl)C=C(C(=O)OCCOCCOC(=O)c1ccc(-c3c4nc(c(-c5cc(S(=O)(=O)[O-])ccc5F)c5ccc([nH]5)c(-c5cc(S(=O)(=O)[O-])ccc5F)c5nc(c(-c6cc(S(=O)(=O)[O-])ccc6F)c6ccc3[nH]6)C=C5)C=C4)cc1)[C@@H](C(F)(F)F)O2
REMARK SMILES IDX 21 1 20 2 19 3 18 4 16 5 17 6 15 7 7 8 8 9 12 10 9 11 11 12
REMARK SMILES IDX 13 13 10 14 95 15 14 16 90 17 6 18 4 19 5 20 2 22 1 23 3 24
REMARK SMILES IDX 91 25 92 26 93 27 94 28 22 29 23 30 24 31 25 32 26 33 27 34
REMARK SMILES IDX 28 35 89 36 29 37 88 38 30 39 31 40 32 41 82 42 33 43 87 44
REMARK SMILES IDX 81 45 83 46 34 47 86 48 80 49 79 50 35 52 67 53 47 54 66 55
REMARK SMILES IDX 48 56 51 57 65 58 84 59 49 60 50 61 64 63 85 64 52 65 36 66
REMARK SMILES IDX 37 67 45 68 38 69 44 70 46 71 43 72 39 73 40 74 41 75 42 76
REMARK SMILES IDX 68 77 69 78 77 79 70 80 76 81 78 82 75 83 71 84 72 85 73 86
REMARK SMILES IDX 74 87 53 88 54 89 62 90 55 91 61 92 63 93 60 94 56 95 57 96
REMARK SMILES IDX 58 97 59 98
REMARK H PARENT 4 21 83 51 51 62
REMARK Flexibility Score: inf
ROOT
ATOM      1  O   UNL     1       1.861   9.865  -4.841  1.00  0.00    -0.374 OA
ENDROOT
BRANCH   1   2
ATOM      2  C   UNL     1       0.865  10.870  -4.671  1.00  0.00     0.202 C 
BRANCH   2   3
ATOM      3  C   UNL     1      -0.606  10.450  -4.749  1.00  0.00     0.261 C 
BRANCH   3   4
ATOM      4  O   UNL     1      -0.908   9.351  -3.881  1.00  0.00    -0.460 OA
BRANCH   4   5
ATOM      5  C   UNL     1      -1.089   8.176  -4.524  1.00  0.00     0.338 C 
ATOM      6  O   UNL     1      -1.110   7.992  -5.731  1.00  0.00    -0.246 OA
BRANCH   5   7
ATOM      7  C   UNL     1      -1.139   7.074  -3.546  1.00  0.00     0.087 C 
ATOM      8  C   UNL     1      -1.215   2.471  -1.554  1.00  0.00     0.029 A 
ATOM      9  C   UNL     1      -1.670   3.742  -1.151  1.00  0.00     0.058 A 
ATOM     10  C   UNL     1      -0.517   2.383  -2.772  1.00  0.00     0.050 A 
ATOM     11  C   UNL     1      -1.398   4.884  -1.898  1.00  0.00     0.128 A 
ATOM     12  C   UNL     1      -0.247   3.531  -3.524  1.00  0.00     0.033 A 
ATOM     13  Cl  UNL     1       0.025   0.885  -3.442  1.00  0.00    -0.084 Cl
ATOM     14  C   UNL     1      -0.699   4.778  -3.094  1.00  0.00     0.019 A 
ATOM     15  O   UNL     1      -1.836   6.067  -1.377  1.00  0.00    -0.475 OA
ATOM     16  C   UNL     1      -0.526   5.947  -3.929  1.00  0.00     0.027 C 
ATOM     17  C   UNL     1      -1.876   7.235  -2.245  1.00  0.00     0.316 C 
BRANCH   8  18
ATOM     18  C   UNL     1      -1.516   1.270  -0.681  1.00  0.00     0.300 C 
BRANCH  18  19
ATOM     19  N   UNL     1      -0.895   1.217   0.651  1.00  0.00    -0.332 N 
ATOM     20  C   UNL     1      -1.476   2.120   1.637  1.00  0.00     0.333 C 
ATOM     21  H   UNL     1      -1.179   0.271   0.908  1.00  0.00     0.348 HD
BRANCH  19  22
ATOM     22  C   UNL     1       0.568   1.110   0.757  1.00  0.00     0.177 C 
ATOM     23  C   UNL     1       1.091  -0.179   0.114  1.00  0.00     0.075 C 
ATOM     24  C   UNL     1       1.379   2.316   0.270  1.00  0.00     0.075 C 
ENDBRANCH  19  22
ENDBRANCH  18  19
ENDBRANCH   8  18
BRANCH  17  25
ATOM     25  C   UNL     1      -3.345   7.634  -2.438  1.00  0.00     0.430 C 
ATOM     26  F   UNL     1      -3.990   7.711  -1.249  1.00  0.00    -0.167 F 
ATOM     27  F   UNL     1      -3.467   8.842  -3.031  1.00  0.00    -0.167 F 
ATOM     28  F   UNL     1      -4.010   6.736  -3.201  1.00  0.00    -0.167 F 
ENDBRANCH  17  25
ENDBRANCH   5   7
ENDBRANCH   4   5
ENDBRANCH   3   4
ENDBRANCH   2   3
ENDBRANCH   1   2
BRANCH   1  29
ATOM     29  C   UNL     1       2.108   8.954  -3.770  1.00  0.00     0.202 C 
BRANCH  29  30
ATOM     30  C   UNL     1       2.741   9.477  -2.474  1.00  0.00     0.261 C 
BRANCH  30  31
ATOM     31  O   UNL     1       1.908  10.421  -1.781  1.00  0.00    -0.460 OA
BRANCH  31  32
ATOM     32  C   UNL     1       2.370  11.697  -1.793  1.00  0.00     0.338 C 
ATOM     33  O   UNL     1       3.414  12.094  -2.290  1.00  0.00    -0.246 OA
BRANCH  32  34
ATOM     34  C   UNL     1       1.315  12.605  -1.304  1.00  0.00     0.060 A 
ATOM     35  C   UNL     1       0.738  12.436  -0.046  1.00  0.00     0.016 A 
ATOM     36  C   UNL     1       0.939  13.679  -2.123  1.00  0.00     0.016 A 
ATOM     37  C   UNL     1      -0.194  13.375   0.406  1.00  0.00     0.010 A 
ATOM     38  C   UNL     1       0.009  14.613  -1.670  1.00  0.00     0.010 A 
ATOM     39  C   UNL     1      -0.544  14.484  -0.390  1.00  0.00    -0.014 A 
BRANCH  39  40
ATOM     40  C   UNL     1      -1.333  15.598   0.195  1.00  0.00     0.031 A 
ATOM     41  C   UNL     1      -2.750  15.872  -0.208  1.00  0.00     0.074 A 
ATOM     42  C   UNL     1      -0.720  16.398   1.089  1.00  0.00     0.049 A 
ATOM     43  N   UNL     1      -3.584  16.748   0.290  1.00  0.00    -0.248 NA
ATOM     44  C   UNL     1      -3.301  15.076  -1.314  1.00  0.00     0.031 C 
ATOM     45  C   UNL     1       0.680  16.269   1.493  1.00  0.00     0.029 A 
ATOM     46  N   UNL     1      -1.182  17.464   1.819  1.00  0.00    -0.354 N 
ATOM     47  C   UNL     1      -4.767  16.600  -0.424  1.00  0.00     0.074 A 
ATOM     48  C   UNL     1      -4.522  15.586  -1.429  1.00  0.00     0.031 C 
ATOM     49  C   UNL     1       0.953  17.191   2.426  1.00  0.00     0.029 A 
ATOM     50  C   UNL     1      -0.238  18.003   2.662  1.00  0.00     0.049 A 
ATOM     51  H   UNL     1      -2.101  17.810   1.747  1.00  0.00     0.167 HD
ATOM     52  C   UNL     1      -5.948  17.238  -0.236  1.00  0.00     0.034 A 
ATOM     53  C   UNL     1      -0.317  19.030   3.534  1.00  0.00     0.034 A 
ATOM     54  C   UNL     1      -6.163  18.256   0.767  1.00  0.00     0.049 A 
ATOM     55  C   UNL     1      -1.641  19.724   3.720  1.00  0.00     0.074 A 
ATOM     56  C   UNL     1      -7.343  18.908   1.079  1.00  0.00     0.029 A 
ATOM     57  N   UNL     1      -5.188  18.783   1.604  1.00  0.00    -0.354 N 
ATOM     58  N   UNL     1      -2.792  19.473   3.141  1.00  0.00    -0.248 NA
ATOM     59  C   UNL     1      -1.688  20.826   4.690  1.00  0.00     0.031 C 
ATOM     60  C   UNL     1      -7.067  19.883   2.039  1.00  0.00     0.029 A 
ATOM     61  C   UNL     1      -5.733  19.782   2.399  1.00  0.00     0.049 A 
ATOM     62  H   UNL     1      -4.248  18.492   1.630  1.00  0.00     0.167 HD
ATOM     63  C   UNL     1      -3.701  20.376   3.686  1.00  0.00     0.074 A 
ATOM     64  C   UNL     1      -2.975  21.146   4.674  1.00  0.00     0.031 C 
ATOM     65  C   UNL     1      -5.012  20.556   3.384  1.00  0.00     0.034 A 
BRANCH  52  66
ATOM     66  C   UNL     1      -7.132  16.852  -1.091  1.00  0.00     0.023 A 
ATOM     67  C   UNL     1      -7.772  17.819  -1.891  1.00  0.00     0.031 A 
ATOM     68  C   UNL     1      -7.732  15.585  -0.976  1.00  0.00     0.131 A 
ATOM     69  C   UNL     1      -8.998  17.520  -2.500  1.00  0.00     0.055 A 
ATOM     70  C   UNL     1      -8.928  15.276  -1.626  1.00  0.00     0.041 A 
ATOM     71  F   UNL     1      -7.168  14.630  -0.218  1.00  0.00    -0.206 F 
ATOM     72  C   UNL     1      -9.575  16.252  -2.378  1.00  0.00     0.022 A 
BRANCH  69  73
ATOM     73  S   UNL     1      -9.936  18.788  -3.396  1.00  0.00     0.124 S 
ATOM     74  O   UNL     1     -10.070  18.182  -4.719  1.00  0.00    -0.237 OA
ATOM     75  O   UNL     1     -11.169  18.861  -2.617  1.00  0.00    -0.237 OA
ATOM     76  O   UNL     1      -9.079  19.966  -3.337  1.00  0.00    -0.744 OA
ENDBRANCH  69  73
ENDBRANCH  52  66
BRANCH  53  77
ATOM     77  C   UNL     1       0.888  19.392   4.336  1.00  0.00     0.023 A 
ATOM     78  C   UNL     1       2.077  19.802   3.705  1.00  0.00     0.031 A 
ATOM     79  C   UNL     1       0.906  19.221   5.730  1.00  0.00     0.131 A 
ATOM     80  C   UNL     1       3.250  19.949   4.456  1.00  0.00     0.055 A 
ATOM     81  C   UNL     1       2.057  19.450   6.486  1.00  0.00     0.041 A 
ATOM     82  F   UNL     1      -0.197  18.814   6.377  1.00  0.00    -0.206 F 
ATOM     83  C   UNL     1       3.243  19.797   5.846  1.00  0.00     0.022 A 
BRANCH  80  84
ATOM     84  S   UNL     1       4.851  20.191   3.638  1.00  0.00     0.124 S 
ATOM     85  O   UNL     1       5.294  21.461   4.202  1.00  0.00    -0.237 OA
ATOM     86  O   UNL     1       5.591  19.011   4.080  1.00  0.00    -0.237 OA
ATOM     87  O   UNL     1       4.513  20.213   2.219  1.00  0.00    -0.744 OA
ENDBRANCH  80  84
ENDBRANCH  53  77
BRANCH  65  88
ATOM     88  C   UNL     1      -5.777  21.644   4.107  1.00  0.00     0.023 A 
ATOM     89  C   UNL     1      -6.916  21.326   4.872  1.00  0.00     0.031 A 
ATOM     90  C   UNL     1      -5.461  23.004   3.929  1.00  0.00     0.131 A 
ATOM     91  C   UNL     1      -7.718  22.350   5.393  1.00  0.00     0.055 A 
ATOM     92  C   UNL     1      -6.228  24.019   4.502  1.00  0.00     0.041 A 
ATOM     93  F   UNL     1      -4.395  23.366   3.197  1.00  0.00    -0.206 F 
ATOM     94  C   UNL     1      -7.372  23.695   5.225  1.00  0.00     0.022 A 
BRANCH  91  95
ATOM     95  S   UNL     1      -9.288  21.983   6.225  1.00  0.00     0.124 S 
ATOM     96  O   UNL     1      -9.058  22.532   7.560  1.00  0.00    -0.237 OA
ATOM     97  O   UNL     1     -10.249  22.719   5.407  1.00  0.00    -0.237 OA
ATOM     98  O   UNL     1      -9.391  20.529   6.160  1.00  0.00    -0.744 OA
ENDBRANCH  91  95
ENDBRANCH  65  88
ENDBRANCH  39  40
ENDBRANCH  32  34
ENDBRANCH  31  32
ENDBRANCH  30  31
ENDBRANCH  29  30
ENDBRANCH   1  29
TORSDOF 21
