REMARK SMILES C[NH2+][C@@]1(C(=O)OCCOCCOC(=O)c2ccc(-c3c4nc(c(-c5cc(S(=O)(=O)[O-])ccc5F)c5ccc([nH]5)c(-c5cc(S(=O)(=O)[O-])ccc5F)c5nc(c(-c6cc(S(=O)(=O)[O-])ccc6F)c6ccc3[nH]6)C=C5)C=C4)cc2)CCC[C@@H](Oc2cc(F)cc(F)c2)C1
REMARK SMILES IDX 10 1 9 2 8 3 7 4 6 5 4 6 5 7 3 8 78 9 91 10 79 11 81 12
REMARK SMILES IDX 80 13 2 14 1 15 82 18 83 19 84 20 90 21 85 22 88 23 86 24
REMARK SMILES IDX 87 25 89 26 11 27 12 28 13 29 14 30 15 31 16 32 77 33 17 34
REMARK SMILES IDX 76 35 18 36 19 37 20 38 70 39 21 40 75 41 69 42 71 43 22 44
REMARK SMILES IDX 74 45 68 46 67 47 23 49 55 50 35 51 54 52 36 53 39 54 53 55
REMARK SMILES IDX 72 56 37 57 38 58 52 60 73 61 40 62 24 63 25 64 33 65 26 66
REMARK SMILES IDX 32 67 34 68 31 69 27 70 28 71 29 72 30 73 56 74 57 75 65 76
REMARK SMILES IDX 58 77 64 78 66 79 63 80 59 81 60 82 61 83 62 84 41 85 42 86
REMARK SMILES IDX 50 87 43 88 49 89 51 90 48 91 44 92 45 93 46 94 47 95
REMARK H PARENT 2 16 2 17 71 48 39 59
REMARK Flexibility Score: inf
ROOT
ATOM      1  C   UNL     1      -0.791   2.015  -4.383  1.00  0.00     0.202 C 
ENDROOT
BRANCH   1   2
ATOM      2  O   UNL     1      -1.196   1.219  -5.494  1.00  0.00    -0.374 OA
BRANCH   2   3
ATOM      3  C   UNL     1      -2.474   0.588  -5.420  1.00  0.00     0.202 C 
BRANCH   3   4
ATOM      4  C   UNL     1      -2.589  -0.639  -4.512  1.00  0.00     0.261 C 
BRANCH   4   5
ATOM      5  O   UNL     1      -2.309  -0.324  -3.133  1.00  0.00    -0.459 OA
BRANCH   5   6
ATOM      6  C   UNL     1      -1.228  -0.957  -2.605  1.00  0.00     0.368 C 
ATOM      7  O   UNL     1      -0.563  -1.790  -3.217  1.00  0.00    -0.245 OA
BRANCH   6   8
ATOM      8  C   UNL     1      -0.901  -0.523  -1.127  1.00  0.00     0.197 C 
ATOM      9  C   UNL     1      -1.552  -1.581  -0.209  1.00  0.00     0.081 C 
ATOM     10  C   UNL     1      -1.365   0.894  -0.719  1.00  0.00     0.126 C 
ATOM     11  C   UNL     1      -3.072  -1.416  -0.104  1.00  0.00     0.011 C 
ATOM     12  C   UNL     1      -2.869   1.081  -0.469  1.00  0.00     0.180 C 
ATOM     13  C   UNL     1      -3.452  -0.030   0.411  1.00  0.00     0.046 C 
BRANCH   8  14
ATOM     14  N   UNL     1       0.596  -0.589  -1.063  1.00  0.00    -0.334 N 
ATOM     15  C   UNL     1       1.267  -0.299   0.186  1.00  0.00     0.331 C 
ATOM     16  H   UNL     1       0.863  -1.536  -1.332  1.00  0.00     0.347 HD
ATOM     17  H   UNL     1       0.896   0.167  -1.678  1.00  0.00     0.347 HD
ENDBRANCH   8  14
BRANCH  12  18
ATOM     18  O   UNL     1      -3.192   2.420  -0.012  1.00  0.00    -0.490 OA
BRANCH  18  19
ATOM     19  C   UNL     1      -2.817   2.758   1.259  1.00  0.00     0.125 A 
ATOM     20  C   UNL     1      -3.786   2.799   2.260  1.00  0.00     0.085 A 
ATOM     21  C   UNL     1      -1.520   3.188   1.537  1.00  0.00     0.085 A 
ATOM     22  C   UNL     1      -3.422   3.181   3.550  1.00  0.00     0.129 A 
ATOM     23  C   UNL     1      -1.174   3.541   2.838  1.00  0.00     0.129 A 
ATOM     24  F   UNL     1      -4.349   3.211   4.517  1.00  0.00    -0.207 F 
ATOM     25  C   UNL     1      -2.115   3.535   3.856  1.00  0.00     0.078 A 
ATOM     26  F   UNL     1       0.090   3.894   3.109  1.00  0.00    -0.207 F 
ENDBRANCH  18  19
ENDBRANCH  12  18
ENDBRANCH   6   8
ENDBRANCH   5   6
ENDBRANCH   4   5
ENDBRANCH   3   4
ENDBRANCH   2   3
ENDBRANCH   1   2
BRANCH   1  27
ATOM     27  C   UNL     1      -1.484   3.372  -4.196  1.00  0.00     0.261 C 
BRANCH  27  28
ATOM     28  O   UNL     1      -2.887   3.248  -3.900  1.00  0.00    -0.460 OA
BRANCH  28  29
ATOM     29  C   UNL     1      -3.708   3.710  -4.875  1.00  0.00     0.338 C 
ATOM     30  O   UNL     1      -3.369   4.257  -5.917  1.00  0.00    -0.246 OA
BRANCH  29  31
ATOM     31  C   UNL     1      -5.100   3.291  -4.625  1.00  0.00     0.060 A 
ATOM     32  C   UNL     1      -5.761   2.610  -5.656  1.00  0.00     0.016 A 
ATOM     33  C   UNL     1      -5.779   3.631  -3.453  1.00  0.00     0.016 A 
ATOM     34  C   UNL     1      -7.117   2.314  -5.543  1.00  0.00     0.010 A 
ATOM     35  C   UNL     1      -7.146   3.343  -3.347  1.00  0.00     0.010 A 
ATOM     36  C   UNL     1      -7.829   2.717  -4.407  1.00  0.00    -0.014 A 
BRANCH  36  37
ATOM     37  C   UNL     1      -9.312   2.626  -4.412  1.00  0.00     0.031 A 
ATOM     38  C   UNL     1     -10.114   3.856  -4.743  1.00  0.00     0.074 A 
ATOM     39  C   UNL     1      -9.933   1.456  -4.179  1.00  0.00     0.049 A 
ATOM     40  N   UNL     1     -11.412   4.015  -4.791  1.00  0.00    -0.248 NA
ATOM     41  C   UNL     1      -9.346   5.069  -5.061  1.00  0.00     0.031 C 
ATOM     42  C   UNL     1      -9.262   0.187  -3.902  1.00  0.00     0.029 A 
ATOM     43  N   UNL     1     -11.269   1.146  -4.140  1.00  0.00    -0.354 N 
ATOM     44  C   UNL     1     -11.618   5.344  -5.147  1.00  0.00     0.074 A 
ATOM     45  C   UNL     1     -10.310   5.955  -5.261  1.00  0.00     0.031 C 
ATOM     46  C   UNL     1     -10.193  -0.764  -3.709  1.00  0.00     0.029 A 
ATOM     47  C   UNL     1     -11.522  -0.166  -3.813  1.00  0.00     0.049 A 
ATOM     48  H   UNL     1     -11.980   1.801  -4.327  1.00  0.00     0.167 HD
ATOM     49  C   UNL     1     -12.789   5.992  -5.370  1.00  0.00     0.034 A 
ATOM     50  C   UNL     1     -12.692  -0.803  -3.599  1.00  0.00     0.034 A 
ATOM     51  C   UNL     1     -14.086   5.374  -5.237  1.00  0.00     0.049 A 
ATOM     52  C   UNL     1     -13.984  -0.038  -3.759  1.00  0.00     0.074 A 
ATOM     53  C   UNL     1     -15.335   5.937  -5.440  1.00  0.00     0.029 A 
ATOM     54  N   UNL     1     -14.305   4.057  -4.853  1.00  0.00    -0.354 N 
ATOM     55  N   UNL     1     -14.166   1.218  -4.097  1.00  0.00    -0.248 NA
ATOM     56  C   UNL     1     -15.229  -0.780  -3.517  1.00  0.00     0.031 C 
ATOM     57  C   UNL     1     -16.306   4.984  -5.112  1.00  0.00     0.029 A 
ATOM     58  C   UNL     1     -15.666   3.800  -4.780  1.00  0.00     0.049 A 
ATOM     59  H   UNL     1     -13.596   3.401  -4.660  1.00  0.00     0.167 HD
ATOM     60  C   UNL     1     -15.546   1.406  -4.137  1.00  0.00     0.074 A 
ATOM     61  C   UNL     1     -16.147   0.131  -3.802  1.00  0.00     0.031 C 
ATOM     62  C   UNL     1     -16.253   2.527  -4.431  1.00  0.00     0.034 A 
BRANCH  49  63
ATOM     63  C   UNL     1     -12.711   7.457  -5.726  1.00  0.00     0.023 A 
ATOM     64  C   UNL     1     -12.108   7.900  -6.917  1.00  0.00     0.031 A 
ATOM     65  C   UNL     1     -13.218   8.429  -4.845  1.00  0.00     0.131 A 
ATOM     66  C   UNL     1     -11.965   9.275  -7.160  1.00  0.00     0.055 A 
ATOM     67  C   UNL     1     -13.142   9.794  -5.130  1.00  0.00     0.041 A 
ATOM     68  F   UNL     1     -13.783   8.068  -3.682  1.00  0.00    -0.206 F 
ATOM     69  C   UNL     1     -12.499  10.224  -6.286  1.00  0.00     0.022 A 
BRANCH  66  70
ATOM     70  S   UNL     1     -10.945   9.806  -8.563  1.00  0.00     0.124 S 
ATOM     71  O   UNL     1      -9.662   9.185  -8.247  1.00  0.00    -0.237 OA
ATOM     72  O   UNL     1     -11.663   9.248  -9.704  1.00  0.00    -0.237 OA
ATOM     73  O   UNL     1     -10.963  11.264  -8.467  1.00  0.00    -0.744 OA
ENDBRANCH  66  70
ENDBRANCH  49  63
BRANCH  50  74
ATOM     74  C   UNL     1     -12.704  -2.228  -3.160  1.00  0.00     0.023 A 
ATOM     75  C   UNL     1     -13.278  -3.233  -3.954  1.00  0.00     0.031 A 
ATOM     76  C   UNL     1     -12.187  -2.596  -1.904  1.00  0.00     0.131 A 
ATOM     77  C   UNL     1     -13.361  -4.547  -3.467  1.00  0.00     0.055 A 
ATOM     78  C   UNL     1     -12.225  -3.913  -1.446  1.00  0.00     0.041 A 
ATOM     79  F   UNL     1     -11.628  -1.674  -1.104  1.00  0.00    -0.206 F 
ATOM     80  C   UNL     1     -12.827  -4.896  -2.224  1.00  0.00     0.022 A 
BRANCH  77  81
ATOM     81  S   UNL     1     -14.256  -5.784  -4.447  1.00  0.00     0.124 S 
ATOM     82  O   UNL     1     -15.579  -5.179  -4.553  1.00  0.00    -0.237 OA
ATOM     83  O   UNL     1     -13.468  -5.824  -5.675  1.00  0.00    -0.237 OA
ATOM     84  O   UNL     1     -14.183  -6.989  -3.623  1.00  0.00    -0.744 OA
ENDBRANCH  77  81
ENDBRANCH  50  74
BRANCH  62  85
ATOM     85  C   UNL     1     -17.758   2.408  -4.445  1.00  0.00     0.023 A 
ATOM     86  C   UNL     1     -18.495   2.168  -3.272  1.00  0.00     0.031 A 
ATOM     87  C   UNL     1     -18.464   2.528  -5.656  1.00  0.00     0.131 A 
ATOM     88  C   UNL     1     -19.887   2.002  -3.342  1.00  0.00     0.055 A 
ATOM     89  C   UNL     1     -19.855   2.421  -5.711  1.00  0.00     0.041 A 
ATOM     90  F   UNL     1     -17.812   2.756  -6.807  1.00  0.00    -0.206 F 
ATOM     91  C   UNL     1     -20.573   2.143  -4.551  1.00  0.00     0.022 A 
BRANCH  88  92
ATOM     92  S   UNL     1     -20.784   1.509  -1.844  1.00  0.00     0.124 S 
ATOM     93  O   UNL     1     -20.128   0.252  -1.497  1.00  0.00    -0.237 OA
ATOM     94  O   UNL     1     -20.530   2.630  -0.945  1.00  0.00    -0.237 OA
ATOM     95  O   UNL     1     -22.168   1.382  -2.298  1.00  0.00    -0.744 OA
ENDBRANCH  88  92
ENDBRANCH  62  85
ENDBRANCH  36  37
ENDBRANCH  29  31
ENDBRANCH  28  29
ENDBRANCH  27  28
ENDBRANCH   1  27
TORSDOF 20
