REMARK SMILES Cc1cccc(O[C@H](C)C(=O)N2CCC[C@@H](C(=O)OCCOCCOC(=O)c3ccc(-c4c5nc(c(-c6cc(S(=O)(=O)[O-])ccc6F)c6ccc([nH]6)c(-c6cc(S(=O)(=O)[O-])ccc6F)c6nc(c(-c7cc(S(=O)(=O)[O-])ccc7F)c7ccc4[nH]7)C=C6)C=C5)cc3)C2)c1
REMARK SMILES IDX 21 1 20 2 19 3 17 4 18 5 16 6 12 7 13 8 91 9 14 10 15 11
REMARK SMILES IDX 10 12 11 13 8 14 9 15 7 16 6 17 1 18 2 19 3 20 92 21 4 22
REMARK SMILES IDX 5 23 22 24 23 25 24 26 25 27 26 28 27 29 28 30 29 31 90 32
REMARK SMILES IDX 30 33 89 34 31 35 32 36 33 37 83 38 34 39 88 40 82 41 84 42
REMARK SMILES IDX 35 43 87 44 81 45 80 46 36 48 68 49 48 50 67 51 49 52 52 53
REMARK SMILES IDX 66 54 85 55 50 56 51 57 65 59 86 60 53 61 37 62 38 63 46 64
REMARK SMILES IDX 39 65 45 66 47 67 44 68 40 69 41 70 42 71 43 72 69 73 70 74
REMARK SMILES IDX 78 75 71 76 77 77 79 78 76 79 72 80 73 81 74 82 75 83 54 84
REMARK SMILES IDX 55 85 63 86 56 87 62 88 64 89 61 90 57 91 58 92 59 93 60 94
REMARK H PARENT 84 47 52 58
REMARK Flexibility Score: inf
ROOT
ATOM      1  C   UNL     1      -1.592  -0.537  -0.848  1.00  0.00     0.202 C 
ENDROOT
BRANCH   1   2
ATOM      2  C   UNL     1      -0.258  -1.124  -0.845  1.00  0.00     0.261 C 
BRANCH   2   3
ATOM      3  O   UNL     1       0.691  -0.617  -1.791  1.00  0.00    -0.463 OA
BRANCH   3   4
ATOM      4  C   UNL     1       0.390  -0.121  -3.008  1.00  0.00     0.310 C 
ATOM      5  O   UNL     1      -0.141  -0.698  -3.941  1.00  0.00    -0.252 OA
BRANCH   4   6
ATOM      6  C   UNL     1       0.902   1.279  -3.041  1.00  0.00     0.119 C 
ATOM      7  N   UNL     1       1.100   3.222  -1.612  1.00  0.00    -0.339 N 
ATOM      8  C   UNL     1       2.436   3.539  -2.087  1.00  0.00     0.119 C 
ATOM      9  C   UNL     1       0.755   1.843  -1.630  1.00  0.00     0.134 C 
ATOM     10  C   UNL     1       2.779   2.849  -3.416  1.00  0.00     0.022 C 
ATOM     11  C   UNL     1       2.367   1.374  -3.441  1.00  0.00     0.019 C 
BRANCH   7  12
ATOM     12  C   UNL     1       0.197   4.150  -1.160  1.00  0.00     0.263 C 
ATOM     13  O   UNL     1       0.045   5.225  -1.748  1.00  0.00    -0.271 OA
BRANCH  12  14
ATOM     14  C   UNL     1      -0.617   3.802   0.138  1.00  0.00     0.259 C 
ATOM     15  C   UNL     1      -2.060   3.346  -0.084  1.00  0.00     0.064 C 
BRANCH  14  16
ATOM     16  O   UNL     1       0.056   3.266   1.274  1.00  0.00    -0.481 OA
BRANCH  16  17
ATOM     17  C   UNL     1       0.468   1.943   1.445  1.00  0.00     0.120 A 
ATOM     18  C   UNL     1       3.413   0.842   4.804  1.00  0.00     0.044 C 
ATOM     19  C   UNL     1       2.451   0.434   3.663  1.00  0.00    -0.047 A 
ATOM     20  C   UNL     1       1.049  -0.801   4.195  1.00  0.00     0.003 A 
ATOM     21  C   UNL     1       2.122   1.874   2.423  1.00  0.00     0.049 A 
ATOM     22  C   UNL     1      -0.634  -0.720   3.202  1.00  0.00     0.004 A 
ATOM     23  C   UNL     1      -0.806   0.526   1.728  1.00  0.00     0.046 A 
ENDBRANCH  16  17
ENDBRANCH  14  16
ENDBRANCH  12  14
ENDBRANCH   7  12
ENDBRANCH   4   6
ENDBRANCH   3   4
ENDBRANCH   2   3
ENDBRANCH   1   2
BRANCH   1  24
ATOM     24  O   UNL     1      -2.126  -0.579  -2.139  1.00  0.00    -0.374 OA
BRANCH  24  25
ATOM     25  C   UNL     1      -3.184   0.328  -2.306  1.00  0.00     0.202 C 
BRANCH  25  26
ATOM     26  C   UNL     1      -4.234   0.161  -1.192  1.00  0.00     0.261 C 
BRANCH  26  27
ATOM     27  O   UNL     1      -4.802  -1.187  -1.190  1.00  0.00    -0.460 OA
BRANCH  27  28
ATOM     28  C   UNL     1      -4.314  -2.135  -0.316  1.00  0.00     0.338 C 
ATOM     29  O   UNL     1      -4.334  -2.032   0.900  1.00  0.00    -0.246 OA
BRANCH  28  30
ATOM     30  C   UNL     1      -3.542  -3.204  -1.057  1.00  0.00     0.060 A 
ATOM     31  C   UNL     1      -2.606  -4.053  -0.414  1.00  0.00     0.016 A 
ATOM     32  C   UNL     1      -3.417  -2.989  -2.412  1.00  0.00     0.016 A 
ATOM     33  C   UNL     1      -1.424  -4.463  -1.082  1.00  0.00     0.010 A 
ATOM     34  C   UNL     1      -2.156  -3.150  -2.939  1.00  0.00     0.010 A 
ATOM     35  C   UNL     1      -1.134  -3.888  -2.312  1.00  0.00    -0.014 A 
BRANCH  35  36
ATOM     36  C   UNL     1       0.099  -3.953  -3.136  1.00  0.00     0.031 A 
ATOM     37  C   UNL     1      -0.181  -4.582  -4.460  1.00  0.00     0.074 A 
ATOM     38  C   UNL     1       1.260  -3.271  -2.852  1.00  0.00     0.049 A 
ATOM     39  N   UNL     1       0.717  -5.061  -5.234  1.00  0.00    -0.248 NA
ATOM     40  C   UNL     1      -1.530  -4.881  -5.005  1.00  0.00     0.031 C 
ATOM     41  C   UNL     1       2.294  -2.677  -3.727  1.00  0.00     0.029 A 
ATOM     42  N   UNL     1       1.732  -2.851  -1.607  1.00  0.00    -0.354 N 
ATOM     43  C   UNL     1       0.130  -5.167  -6.476  1.00  0.00     0.074 A 
ATOM     44  C   UNL     1      -1.263  -5.322  -6.231  1.00  0.00     0.031 C 
ATOM     45  C   UNL     1       3.341  -2.196  -3.003  1.00  0.00     0.029 A 
ATOM     46  C   UNL     1       3.071  -2.434  -1.591  1.00  0.00     0.049 A 
ATOM     47  H   UNL     1       1.166  -2.847  -0.801  1.00  0.00     0.167 HD
ATOM     48  C   UNL     1       0.882  -4.843  -7.558  1.00  0.00     0.034 A 
ATOM     49  C   UNL     1       3.844  -2.884  -0.571  1.00  0.00     0.034 A 
ATOM     50  C   UNL     1       2.270  -4.584  -7.116  1.00  0.00     0.049 A 
ATOM     51  C   UNL     1       4.396  -4.182  -1.356  1.00  0.00     0.074 A 
ATOM     52  C   UNL     1       3.071  -3.459  -7.072  1.00  0.00     0.029 A 
ATOM     53  N   UNL     1       2.880  -5.506  -6.255  1.00  0.00    -0.354 N 
ATOM     54  N   UNL     1       3.867  -4.645  -2.482  1.00  0.00    -0.248 NA
ATOM     55  C   UNL     1       5.694  -4.817  -1.123  1.00  0.00     0.031 C 
ATOM     56  C   UNL     1       4.094  -3.692  -6.086  1.00  0.00     0.029 A 
ATOM     57  C   UNL     1       3.896  -4.940  -5.500  1.00  0.00     0.049 A 
ATOM     58  H   UNL     1       2.616  -6.452  -6.192  1.00  0.00     0.167 HD
ATOM     59  C   UNL     1       4.764  -5.381  -3.203  1.00  0.00     0.074 A 
ATOM     60  C   UNL     1       5.868  -5.532  -2.256  1.00  0.00     0.031 C 
ATOM     61  C   UNL     1       4.629  -5.767  -4.525  1.00  0.00     0.034 A 
BRANCH  48  62
ATOM     62  C   UNL     1       0.340  -4.531  -8.942  1.00  0.00     0.023 A 
ATOM     63  C   UNL     1       1.284  -4.253  -9.945  1.00  0.00     0.031 A 
ATOM     64  C   UNL     1      -1.012  -4.433  -9.362  1.00  0.00     0.131 A 
ATOM     65  C   UNL     1       0.900  -3.914 -11.256  1.00  0.00     0.055 A 
ATOM     66  C   UNL     1      -1.396  -4.133 -10.681  1.00  0.00     0.041 A 
ATOM     67  F   UNL     1      -2.051  -4.579  -8.534  1.00  0.00    -0.206 F 
ATOM     68  C   UNL     1      -0.436  -3.870 -11.639  1.00  0.00     0.022 A 
BRANCH  65  69
ATOM     69  S   UNL     1       2.196  -3.520 -12.453  1.00  0.00     0.124 S 
ATOM     70  O   UNL     1       2.784  -2.315 -11.877  1.00  0.00    -0.237 OA
ATOM     71  O   UNL     1       3.019  -4.723 -12.421  1.00  0.00    -0.237 OA
ATOM     72  O   UNL     1       1.457  -3.312 -13.698  1.00  0.00    -0.744 OA
ENDBRANCH  65  69
ENDBRANCH  48  62
BRANCH  49  73
ATOM     73  C   UNL     1       2.966  -2.728   0.787  1.00  0.00     0.023 A 
ATOM     74  C   UNL     1       2.527  -1.394   1.456  1.00  0.00     0.031 A 
ATOM     75  C   UNL     1       2.173  -3.838   1.063  1.00  0.00     0.131 A 
ATOM     76  C   UNL     1       1.169  -1.131   2.259  1.00  0.00     0.055 A 
ATOM     77  C   UNL     1       0.918  -3.682   1.643  1.00  0.00     0.041 A 
ATOM     78  F   UNL     1       2.483  -5.053   0.586  1.00  0.00    -0.206 F 
ATOM     79  C   UNL     1       0.410  -2.439   2.126  1.00  0.00     0.022 A 
BRANCH  76  80
ATOM     80  S   UNL     1       0.407   0.978   3.437  1.00  0.00     0.124 S 
ATOM     81  O   UNL     1       0.950   1.354   4.774  1.00  0.00    -0.237 OA
ATOM     82  O   UNL     1       1.145   0.357   2.037  1.00  0.00    -0.237 OA
ATOM     83  O   UNL     1      -1.002   1.498   3.504  1.00  0.00    -0.744 OA
ENDBRANCH  76  80
ENDBRANCH  49  73
BRANCH  61  84
ATOM     84  C   UNL     1       5.297  -7.020  -5.056  1.00  0.00     0.023 A 
ATOM     85  C   UNL     1       5.856  -7.949  -4.181  1.00  0.00     0.031 A 
ATOM     86  C   UNL     1       5.310  -7.390  -6.425  1.00  0.00     0.131 A 
ATOM     87  C   UNL     1       6.574  -9.046  -4.657  1.00  0.00     0.055 A 
ATOM     88  C   UNL     1       5.881  -8.577  -6.885  1.00  0.00     0.041 A 
ATOM     89  F   UNL     1       4.767  -6.631  -7.388  1.00  0.00    -0.206 F 
ATOM     90  C   UNL     1       6.568  -9.392  -6.003  1.00  0.00     0.022 A 
BRANCH  87  91
ATOM     91  S   UNL     1       7.647  -9.879  -3.472  1.00  0.00     0.124 S 
ATOM     92  O   UNL     1       8.567  -8.803  -3.107  1.00  0.00    -0.237 OA
ATOM     93  O   UNL     1       6.711 -10.288  -2.429  1.00  0.00    -0.237 OA
ATOM     94  O   UNL     1       8.236 -10.966  -4.249  1.00  0.00    -0.744 OA
ENDBRANCH  87  91
ENDBRANCH  61  84
ENDBRANCH  35  36
ENDBRANCH  28  30
ENDBRANCH  27  28
ENDBRANCH  26  27
ENDBRANCH  25  26
ENDBRANCH  24  25
ENDBRANCH   1  24
TORSDOF 21
