REMARK SMILES O=C(Cn1c2ccccc2c(=O)c2ccccc21)N[C@@H](Cc1ccccc1)C(=O)OCCOCCOC(=O)c1ccc(-c2c3nc(c(-c4cc(S(=O)(=O)[O-])ccc4F)c4ccc([nH]4)c(-c4cc(S(=O)(=O)[O-])ccc4F)c4nc(c(-c5cc(S(=O)(=O)[O-])ccc5F)c5ccc2[nH]5)C=C4)C=C3)cc1
REMARK SMILES IDX 33 1 32 2 31 3 30 4 28 5 29 6 20 7 19 8 1 9 2 10 3 12 4 13
REMARK SMILES IDX 5 14 18 15 6 16 10 17 13 18 17 19 7 20 9 21 11 22 14 23
REMARK SMILES IDX 16 24 8 25 12 26 15 27 21 28 22 29 23 30 27 31 24 32 26 33
REMARK SMILES IDX 25 34 34 35 35 36 36 37 37 38 38 39 39 40 40 41 101 42 41 43
REMARK SMILES IDX 100 44 42 45 43 46 44 47 94 48 45 49 99 50 93 51 95 52 46 53
REMARK SMILES IDX 98 54 92 55 91 56 47 58 79 59 59 60 78 61 60 62 63 63 77 64
REMARK SMILES IDX 96 65 61 66 62 67 76 69 97 70 64 71 48 72 49 73 57 74 50 75
REMARK SMILES IDX 56 76 58 77 55 78 51 79 52 80 53 81 54 82 80 83 81 84 89 85
REMARK SMILES IDX 82 86 88 87 90 88 87 89 83 90 84 91 85 92 86 93 65 94 66 95
REMARK SMILES IDX 74 96 67 97 73 98 75 99 72 100 68 101 69 102 70 103 71 104
REMARK H PARENT 19 11 95 57 63 68
REMARK Flexibility Score: inf
ROOT
ATOM      1  O   UNL     1       2.507  -1.124   5.310  1.00  0.00    -0.374 OA
ENDROOT
BRANCH   1   2
ATOM      2  C   UNL     1       3.627  -2.013   5.301  1.00  0.00     0.202 C 
BRANCH   2   3
ATOM      3  C   UNL     1       3.438  -3.209   4.377  1.00  0.00     0.261 C 
BRANCH   3   4
ATOM      4  O   UNL     1       3.250  -2.744   3.029  1.00  0.00    -0.462 OA
BRANCH   4   5
ATOM      5  C   UNL     1       2.179  -3.263   2.378  1.00  0.00     0.329 C 
ATOM      6  O   UNL     1       1.461  -4.162   2.806  1.00  0.00    -0.250 OA
BRANCH   5   7
ATOM      7  C   UNL     1       2.050  -2.715   0.955  1.00  0.00     0.196 C 
BRANCH   7   8
ATOM      8  N   UNL     1       2.700  -1.423   0.647  1.00  0.00    -0.341 N 
ATOM      9  O   UNL     1       0.761  -0.314   0.208  1.00  0.00    -0.273 OA
ATOM     10  C   UNL     1       1.994  -0.340   0.155  1.00  0.00     0.240 C 
ATOM     11  H   UNL     1       3.669  -1.330   0.797  1.00  0.00     0.164 HD
BRANCH  10  12
ATOM     12  C   UNL     1       2.752   0.734  -0.663  1.00  0.00     0.222 C 
BRANCH  12  13
ATOM     13  N   UNL     1       3.626   1.668   0.089  1.00  0.00    -0.331 N 
ATOM     14  C   UNL     1       3.297   3.049   0.188  1.00  0.00     0.053 A 
ATOM     15  C   UNL     1       4.893   1.204   0.520  1.00  0.00     0.053 A 
ATOM     16  C   UNL     1       2.321   3.703  -0.584  1.00  0.00     0.027 A 
ATOM     17  C   UNL     1       4.045   3.884   1.049  1.00  0.00     0.046 A 
ATOM     18  C   UNL     1       5.682   2.001   1.365  1.00  0.00     0.046 A 
ATOM     19  C   UNL     1       5.473   0.001   0.093  1.00  0.00     0.027 A 
ATOM     20  C   UNL     1       2.112   5.093  -0.501  1.00  0.00     0.002 A 
ATOM     21  C   UNL     1       3.823   5.267   1.161  1.00  0.00     0.014 A 
ATOM     22  C   UNL     1       5.168   3.306   1.806  1.00  0.00     0.197 A 
ATOM     23  C   UNL     1       6.968   1.620   1.759  1.00  0.00     0.014 A 
ATOM     24  C   UNL     1       6.721  -0.428   0.553  1.00  0.00     0.002 A 
ATOM     25  C   UNL     1       2.857   5.874   0.375  1.00  0.00     0.001 A 
ATOM     26  O   UNL     1       5.686   3.913   2.737  1.00  0.00    -0.288 OA
ATOM     27  C   UNL     1       7.473   0.385   1.381  1.00  0.00     0.001 A 
ENDBRANCH  12  13
ENDBRANCH  10  12
ENDBRANCH   7   8
BRANCH   7  28
ATOM     28  C   UNL     1       2.507  -3.827  -0.020  1.00  0.00     0.072 C 
BRANCH  28  29
ATOM     29  C   UNL     1       3.949  -4.280   0.113  1.00  0.00    -0.045 A 
ATOM     30  C   UNL     1       4.972  -3.627  -0.585  1.00  0.00     0.004 A 
ATOM     31  C   UNL     1       4.287  -5.375   0.923  1.00  0.00     0.004 A 
ATOM     32  C   UNL     1       6.301  -4.039  -0.455  1.00  0.00     0.000 A 
ATOM     33  C   UNL     1       5.616  -5.790   1.046  1.00  0.00     0.000 A 
ATOM     34  C   UNL     1       6.625  -5.115   0.366  1.00  0.00     0.000 A 
ENDBRANCH  28  29
ENDBRANCH   7  28
ENDBRANCH   5   7
ENDBRANCH   4   5
ENDBRANCH   3   4
ENDBRANCH   2   3
ENDBRANCH   1   2
BRANCH   1  35
ATOM     35  C   UNL     1       2.547  -0.085   4.328  1.00  0.00     0.202 C 
BRANCH  35  36
ATOM     36  C   UNL     1       3.366   1.146   4.737  1.00  0.00     0.261 C 
BRANCH  36  37
ATOM     37  O   UNL     1       4.776   0.864   4.771  1.00  0.00    -0.460 OA
BRANCH  37  38
ATOM     38  C   UNL     1       5.334   0.674   5.996  1.00  0.00     0.338 C 
ATOM     39  O   UNL     1       4.781   0.739   7.080  1.00  0.00    -0.246 OA
BRANCH  38  40
ATOM     40  C   UNL     1       6.708   0.166   5.786  1.00  0.00     0.060 A 
ATOM     41  C   UNL     1       7.554   0.824   4.905  1.00  0.00     0.016 A 
ATOM     42  C   UNL     1       7.145  -1.000   6.422  1.00  0.00     0.016 A 
ATOM     43  C   UNL     1       8.791   0.264   4.580  1.00  0.00     0.010 A 
ATOM     44  C   UNL     1       8.429  -1.511   6.157  1.00  0.00     0.010 A 
ATOM     45  C   UNL     1       9.273  -0.894   5.220  1.00  0.00    -0.014 A 
BRANCH  45  46
ATOM     46  C   UNL     1      10.672  -1.377   4.951  1.00  0.00     0.031 A 
ATOM     47  C   UNL     1      10.976  -2.802   4.546  1.00  0.00     0.074 A 
ATOM     48  C   UNL     1      11.702  -0.508   5.053  1.00  0.00     0.049 A 
ATOM     49  N   UNL     1      12.143  -3.379   4.385  1.00  0.00    -0.248 NA
ATOM     50  C   UNL     1       9.837  -3.700   4.301  1.00  0.00     0.031 C 
ATOM     51  C   UNL     1      11.570   0.898   5.435  1.00  0.00     0.029 A 
ATOM     52  N   UNL     1      13.051  -0.653   4.818  1.00  0.00    -0.354 N 
ATOM     53  C   UNL     1      11.885  -4.713   4.084  1.00  0.00     0.074 A 
ATOM     54  C   UNL     1      10.444  -4.860   4.079  1.00  0.00     0.031 C 
ATOM     55  C   UNL     1      12.750   1.510   5.292  1.00  0.00     0.029 A 
ATOM     56  C   UNL     1      13.767   0.516   4.963  1.00  0.00     0.049 A 
ATOM     57  H   UNL     1      13.465  -1.510   4.568  1.00  0.00     0.167 HD
ATOM     58  C   UNL     1      12.765  -5.717   3.839  1.00  0.00     0.034 A 
ATOM     59  C   UNL     1      15.090   0.776   4.893  1.00  0.00     0.034 A 
ATOM     60  C   UNL     1      14.200  -5.548   3.785  1.00  0.00     0.049 A 
ATOM     61  C   UNL     1      16.044  -0.352   4.621  1.00  0.00     0.074 A 
ATOM     62  C   UNL     1      15.161  -6.510   3.513  1.00  0.00     0.029 A 
ATOM     63  N   UNL     1      14.883  -4.358   3.985  1.00  0.00    -0.354 N 
ATOM     64  N   UNL     1      15.776  -1.611   4.370  1.00  0.00    -0.248 NA
ATOM     65  C   UNL     1      17.480  -0.039   4.651  1.00  0.00     0.031 C 
ATOM     66  C   UNL     1      16.420  -5.917   3.605  1.00  0.00     0.029 A 
ATOM     67  C   UNL     1      16.250  -4.568   3.861  1.00  0.00     0.049 A 
ATOM     68  H   UNL     1      14.461  -3.491   4.184  1.00  0.00     0.167 HD
ATOM     69  C   UNL     1      17.007  -2.240   4.218  1.00  0.00     0.074 A 
ATOM     70  C   UNL     1      18.020  -1.216   4.360  1.00  0.00     0.031 C 
ATOM     71  C   UNL     1      17.267  -3.553   3.999  1.00  0.00     0.034 A 
BRANCH  58  72
ATOM     72  C   UNL     1      12.241  -7.116   3.600  1.00  0.00     0.023 A 
ATOM     73  C   UNL     1      12.594  -8.153   4.489  1.00  0.00     0.031 A 
ATOM     74  C   UNL     1      11.554  -7.459   2.424  1.00  0.00     0.131 A 
ATOM     75  C   UNL     1      12.300  -9.484   4.165  1.00  0.00     0.055 A 
ATOM     76  C   UNL     1      11.227  -8.784   2.125  1.00  0.00     0.041 A 
ATOM     77  F   UNL     1      11.195  -6.511   1.542  1.00  0.00    -0.206 F 
ATOM     78  C   UNL     1      11.614  -9.804   2.990  1.00  0.00     0.022 A 
BRANCH  75  79
ATOM     79  S   UNL     1      12.868 -10.855   5.209  1.00  0.00     0.124 S 
ATOM     80  O   UNL     1      11.605 -11.491   5.578  1.00  0.00    -0.237 OA
ATOM     81  O   UNL     1      13.704 -11.618   4.286  1.00  0.00    -0.237 OA
ATOM     82  O   UNL     1      13.574 -10.196   6.302  1.00  0.00    -0.744 OA
ENDBRANCH  75  79
ENDBRANCH  58  72
BRANCH  59  83
ATOM     83  C   UNL     1      15.565   2.180   5.090  1.00  0.00     0.023 A 
ATOM     84  C   UNL     1      15.279   2.876   6.280  1.00  0.00     0.031 A 
ATOM     85  C   UNL     1      16.176   2.889   4.043  1.00  0.00     0.131 A 
ATOM     86  C   UNL     1      15.486   4.259   6.346  1.00  0.00     0.055 A 
ATOM     87  C   UNL     1      16.473   4.249   4.151  1.00  0.00     0.041 A 
ATOM     88  F   UNL     1      16.470   2.271   2.889  1.00  0.00    -0.206 F 
ATOM     89  C   UNL     1      16.098   4.948   5.295  1.00  0.00     0.022 A 
BRANCH  86  90
ATOM     90  S   UNL     1      14.775   5.231   7.705  1.00  0.00     0.124 S 
ATOM     91  O   UNL     1      15.969   5.756   8.358  1.00  0.00    -0.237 OA
ATOM     92  O   UNL     1      13.966   6.209   6.983  1.00  0.00    -0.237 OA
ATOM     93  O   UNL     1      14.015   4.247   8.469  1.00  0.00    -0.744 OA
ENDBRANCH  86  90
ENDBRANCH  59  83
BRANCH  71  94
ATOM     94  C   UNL     1      18.707  -3.996   3.900  1.00  0.00     0.023 A 
ATOM     95  C   UNL     1      19.197  -4.547   2.700  1.00  0.00     0.031 A 
ATOM     96  C   UNL     1      19.548  -4.001   5.026  1.00  0.00     0.131 A 
ATOM     97  C   UNL     1      20.477  -5.115   2.665  1.00  0.00     0.055 A 
ATOM     98  C   UNL     1      20.840  -4.528   4.974  1.00  0.00     0.041 A 
ATOM     99  F   UNL     1      19.125  -3.494   6.195  1.00  0.00    -0.206 F 
ATOM    100  C   UNL     1      21.304  -5.100   3.793  1.00  0.00     0.022 A 
BRANCH  97 101
ATOM    101  S   UNL     1      21.085  -5.963   1.181  1.00  0.00     0.124 S 
ATOM    102  O   UNL     1      22.272  -5.178   0.850  1.00  0.00    -0.237 OA
ATOM    103  O   UNL     1      21.348  -7.309   1.683  1.00  0.00    -0.237 OA
ATOM    104  O   UNL     1      19.982  -5.850   0.234  1.00  0.00    -0.744 OA
ENDBRANCH  97 101
ENDBRANCH  71  94
ENDBRANCH  45  46
ENDBRANCH  38  40
ENDBRANCH  37  38
ENDBRANCH  36  37
ENDBRANCH  35  36
ENDBRANCH   1  35
TORSDOF 22
