REMARK SMILES C[C@H]1[C@H](C)CC[C@@]2(C(=O)OCCOCCOC(=O)c3ccc(-c4c5nc(c(-c6cc(S(=O)(=O)[O-])ccc6F)c6ccc([nH]6)c(-c6cc(S(=O)(=O)[O-])ccc6F)c6nc(c(-c7cc(S(=O)(=O)[O-])ccc7F)c7ccc4[nH]7)C=C6)C=C5)cc3)CC[C@@]3(C)C(=CC[C@@H]4[C@@]5(C)CC[C@H](O)C(C)(C)[C@@H]5CC[C@]43C)[C@H]12
REMARK SMILES IDX 14 1 13 2 12 3 11 4 10 5 8 6 9 7 7 8 1 9 2 10 3 11 104 12
REMARK SMILES IDX 4 13 5 14 86 15 6 16 82 17 84 18 87 19 83 20 85 21 102 22
REMARK SMILES IDX 88 23 89 24 101 25 103 26 90 27 100 28 91 29 92 30 99 31
REMARK SMILES IDX 93 32 96 33 94 34 97 35 98 36 95 37 15 39 16 40 17 41 18 42
REMARK SMILES IDX 19 43 20 44 81 45 21 46 80 47 22 48 23 49 24 50 74 51 25 52
REMARK SMILES IDX 79 53 73 54 75 55 26 56 78 57 72 58 71 59 27 61 59 62 39 63
REMARK SMILES IDX 58 64 40 65 43 66 57 67 76 68 41 69 42 70 56 72 77 73 44 74
REMARK SMILES IDX 28 75 29 76 37 77 30 78 36 79 38 80 35 81 31 82 32 83 33 84
REMARK SMILES IDX 34 85 60 86 61 87 69 88 62 89 68 90 70 91 67 92 63 93 64 94
REMARK SMILES IDX 65 95 66 96 45 97 46 98 54 99 47 100 53 101 55 102 52 103
REMARK SMILES IDX 48 104 49 105 50 106 51 107
REMARK H PARENT 95 38 75 60 43 71
REMARK Flexibility Score: inf
ROOT
ATOM      1  C   UNL     1      -0.185   3.389  -4.723  1.00  0.00     0.202 C 
ENDROOT
BRANCH   1   2
ATOM      2  O   UNL     1       0.239   2.128  -5.198  1.00  0.00    -0.374 OA
BRANCH   2   3
ATOM      3  C   UNL     1       0.798   1.235  -4.249  1.00  0.00     0.202 C 
BRANCH   3   4
ATOM      4  C   UNL     1       0.532   1.395  -2.740  1.00  0.00     0.261 C 
BRANCH   4   5
ATOM      5  O   UNL     1       1.212   2.519  -2.121  1.00  0.00    -0.463 OA
BRANCH   5   6
ATOM      6  C   UNL     1       0.575   3.425  -1.331  1.00  0.00     0.312 C 
ATOM      7  O   UNL     1      -0.365   4.103  -1.731  1.00  0.00    -0.252 OA
BRANCH   6   8
ATOM      8  C   UNL     1       1.179   3.589   0.105  1.00  0.00     0.075 C 
ATOM      9  C   UNL     1       1.750  -0.182   1.145  1.00  0.00     0.008 C 
ATOM     10  C   UNL     1       1.068   1.102   0.665  1.00  0.00    -0.003 C 
ATOM     11  C   UNL     1      -0.200   1.376   1.559  1.00  0.00    -0.011 C 
ATOM     12  C   UNL     1       2.053   2.360   0.528  1.00  0.00     0.036 C 
ATOM     13  C   UNL     1      -1.246   0.247   1.524  1.00  0.00     0.008 C 
ATOM     14  C   UNL     1      -0.948   2.647   1.166  1.00  0.00     0.005 C 
ATOM     15  C   UNL     1       3.315   2.384  -0.453  1.00  0.00    -0.063 C 
ATOM     16  C   UNL     1      -0.015   3.824   1.064  1.00  0.00     0.020 C 
ATOM     17  C   UNL     1       2.003   4.881   0.265  1.00  0.00     0.020 C 
ATOM     18  C   UNL     1       4.171   3.712  -0.546  1.00  0.00    -0.006 C 
ATOM     19  C   UNL     1       3.507   1.425  -1.386  1.00  0.00    -0.027 C 
ATOM     20  C   UNL     1       3.238   4.952  -0.596  1.00  0.00     0.013 C 
ATOM     21  C   UNL     1       5.022   3.787   0.744  1.00  0.00     0.017 C 
ATOM     22  C   UNL     1       5.151   3.765  -1.875  1.00  0.00    -0.020 C 
ATOM     23  C   UNL     1       4.101   1.713  -2.757  1.00  0.00     0.032 C 
ATOM     24  C   UNL     1       4.261   3.239  -3.056  1.00  0.00     0.006 C 
ATOM     25  C   UNL     1       5.712   5.176  -2.194  1.00  0.00     0.008 C 
ATOM     26  C   UNL     1       6.416   2.871  -1.670  1.00  0.00     0.012 C 
ATOM     27  C   UNL     1       4.586   3.683  -4.571  1.00  0.00    -0.025 C 
ATOM     28  C   UNL     1       6.364   5.265  -3.583  1.00  0.00     0.005 C 
ATOM     29  C   UNL     1       5.328   2.529  -5.267  1.00  0.00     0.012 C 
ATOM     30  C   UNL     1       3.250   3.919  -5.360  1.00  0.00     0.010 C 
ATOM     31  C   UNL     1       5.285   5.096  -4.654  1.00  0.00     0.003 C 
ATOM     32  C   UNL     1       3.422   4.433  -6.799  1.00  0.00     0.033 C 
ATOM     33  C   UNL     1       5.658   5.595  -6.111  1.00  0.00    -0.006 C 
ATOM     34  C   UNL     1       4.333   5.658  -6.934  1.00  0.00     0.120 C 
ATOM     35  C   UNL     1       6.746   4.763  -6.824  1.00  0.00     0.014 C 
ATOM     36  C   UNL     1       6.231   7.041  -6.072  1.00  0.00     0.014 C 
BRANCH  34  37
ATOM     37  O   UNL     1       4.595   5.911  -8.316  1.00  0.00    -0.393 OA
ATOM     38  H   UNL     1       5.082   5.163  -8.695  1.00  0.00     0.210 HD
ENDBRANCH  34  37
ENDBRANCH   6   8
ENDBRANCH   5   6
ENDBRANCH   4   5
ENDBRANCH   3   4
ENDBRANCH   2   3
ENDBRANCH   1   2
BRANCH   1  39
ATOM     39  C   UNL     1      -1.672   3.406  -4.340  1.00  0.00     0.261 C 
BRANCH  39  40
ATOM     40  O   UNL     1      -2.130   2.224  -3.655  1.00  0.00    -0.460 OA
BRANCH  40  41
ATOM     41  C   UNL     1      -2.395   1.162  -4.451  1.00  0.00     0.338 C 
ATOM     42  O   UNL     1      -2.376   1.132  -5.677  1.00  0.00    -0.246 OA
BRANCH  41  43
ATOM     43  C   UNL     1      -2.610  -0.045  -3.633  1.00  0.00     0.060 A 
ATOM     44  C   UNL     1      -1.852  -1.195  -3.904  1.00  0.00     0.016 A 
ATOM     45  C   UNL     1      -3.654  -0.084  -2.707  1.00  0.00     0.016 A 
ATOM     46  C   UNL     1      -2.182  -2.406  -3.310  1.00  0.00     0.010 A 
ATOM     47  C   UNL     1      -4.016  -1.309  -2.146  1.00  0.00     0.010 A 
ATOM     48  C   UNL     1      -3.320  -2.478  -2.501  1.00  0.00    -0.014 A 
BRANCH  48  49
ATOM     49  C   UNL     1      -3.952  -3.799  -2.296  1.00  0.00     0.031 A 
ATOM     50  C   UNL     1      -5.048  -4.199  -3.247  1.00  0.00     0.074 A 
ATOM     51  C   UNL     1      -3.522  -4.627  -1.331  1.00  0.00     0.049 A 
ATOM     52  N   UNL     1      -5.824  -5.249  -3.231  1.00  0.00    -0.248 NA
ATOM     53  C   UNL     1      -5.303  -3.282  -4.372  1.00  0.00     0.031 C 
ATOM     54  C   UNL     1      -2.403  -4.358  -0.429  1.00  0.00     0.029 A 
ATOM     55  N   UNL     1      -3.980  -5.858  -0.948  1.00  0.00    -0.354 N 
ATOM     56  C   UNL     1      -6.668  -5.111  -4.330  1.00  0.00     0.074 A 
ATOM     57  C   UNL     1      -6.327  -3.864  -4.975  1.00  0.00     0.031 C 
ATOM     58  C   UNL     1      -2.274  -5.392   0.420  1.00  0.00     0.029 A 
ATOM     59  C   UNL     1      -3.333  -6.363   0.155  1.00  0.00     0.049 A 
ATOM     60  H   UNL     1      -4.702  -6.336  -1.416  1.00  0.00     0.167 HD
ATOM     61  C   UNL     1      -7.637  -5.956  -4.757  1.00  0.00     0.034 A 
ATOM     62  C   UNL     1      -3.603  -7.463   0.883  1.00  0.00     0.034 A 
ATOM     63  C   UNL     1      -7.956  -7.186  -4.077  1.00  0.00     0.049 A 
ATOM     64  C   UNL     1      -4.759  -8.336   0.454  1.00  0.00     0.074 A 
ATOM     65  C   UNL     1      -8.921  -8.124  -4.393  1.00  0.00     0.029 A 
ATOM     66  N   UNL     1      -7.314  -7.643  -2.930  1.00  0.00    -0.354 N 
ATOM     67  N   UNL     1      -5.574  -8.187  -0.568  1.00  0.00    -0.248 NA
ATOM     68  C   UNL     1      -5.028  -9.526   1.268  1.00  0.00     0.031 C 
ATOM     69  C   UNL     1      -8.916  -9.104  -3.395  1.00  0.00     0.029 A 
ATOM     70  C   UNL     1      -7.885  -8.832  -2.508  1.00  0.00     0.049 A 
ATOM     71  H   UNL     1      -6.564  -7.188  -2.485  1.00  0.00     0.167 HD
ATOM     72  C   UNL     1      -6.428  -9.287  -0.539  1.00  0.00     0.074 A 
ATOM     73  C   UNL     1      -6.017 -10.093   0.594  1.00  0.00     0.031 C 
ATOM     74  C   UNL     1      -7.454  -9.609  -1.369  1.00  0.00     0.034 A 
BRANCH  61  75
ATOM     75  C   UNL     1      -8.453  -5.538  -5.957  1.00  0.00     0.023 A 
ATOM     76  C   UNL     1      -7.879  -5.368  -7.230  1.00  0.00     0.031 A 
ATOM     77  C   UNL     1      -9.827  -5.269  -5.817  1.00  0.00     0.131 A 
ATOM     78  C   UNL     1      -8.659  -4.883  -8.292  1.00  0.00     0.055 A 
ATOM     79  C   UNL     1     -10.615  -4.864  -6.896  1.00  0.00     0.041 A 
ATOM     80  F   UNL     1     -10.427  -5.382  -4.621  1.00  0.00    -0.206 F 
ATOM     81  C   UNL     1     -10.029  -4.656  -8.140  1.00  0.00     0.022 A 
BRANCH  78  82
ATOM     82  S   UNL     1      -7.832  -4.420  -9.839  1.00  0.00     0.124 S 
ATOM     83  O   UNL     1      -6.896  -3.398  -9.378  1.00  0.00    -0.237 OA
ATOM     84  O   UNL     1      -7.240  -5.681 -10.270  1.00  0.00    -0.237 OA
ATOM     85  O   UNL     1      -8.923  -3.925 -10.677  1.00  0.00    -0.744 OA
ENDBRANCH  78  82
ENDBRANCH  61  75
BRANCH  62  86
ATOM     86  C   UNL     1      -2.812  -7.776   2.108  1.00  0.00     0.023 A 
ATOM     87  C   UNL     1      -2.080  -8.968   2.213  1.00  0.00     0.031 A 
ATOM     88  C   UNL     1      -2.818  -6.908   3.216  1.00  0.00     0.131 A 
ATOM     89  C   UNL     1      -1.428  -9.285   3.415  1.00  0.00     0.055 A 
ATOM     90  C   UNL     1      -2.115  -7.198   4.387  1.00  0.00     0.041 A 
ATOM     91  F   UNL     1      -3.504  -5.754   3.174  1.00  0.00    -0.206 F 
ATOM     92  C   UNL     1      -1.427  -8.401   4.497  1.00  0.00     0.022 A 
BRANCH  89  93
ATOM     93  S   UNL     1      -0.666 -10.922   3.580  1.00  0.00     0.124 S 
ATOM     94  O   UNL     1      -1.795 -11.803   3.303  1.00  0.00    -0.237 OA
ATOM     95  O   UNL     1       0.376 -10.874   2.560  1.00  0.00    -0.237 OA
ATOM     96  O   UNL     1      -0.186 -10.936   4.960  1.00  0.00    -0.744 OA
ENDBRANCH  89  93
ENDBRANCH  62  86
BRANCH  74  97
ATOM     97  C   UNL     1      -8.158 -10.918  -1.108  1.00  0.00     0.023 A 
ATOM     98  C   UNL     1      -8.909 -11.135   0.059  1.00  0.00     0.031 A 
ATOM     99  C   UNL     1      -8.067 -11.964  -2.044  1.00  0.00     0.131 A 
ATOM    100  C   UNL     1      -9.486 -12.392   0.291  1.00  0.00     0.055 A 
ATOM    101  C   UNL     1      -8.706 -13.187  -1.842  1.00  0.00     0.041 A 
ATOM    102  F   UNL     1      -7.360 -11.811  -3.175  1.00  0.00    -0.206 F 
ATOM    103  C   UNL     1      -9.408 -13.411  -0.662  1.00  0.00     0.022 A 
BRANCH 100 104
ATOM    104  S   UNL     1     -10.246 -12.712   1.905  1.00  0.00     0.124 S 
ATOM    105  O   UNL     1      -9.136 -12.457   2.817  1.00  0.00    -0.237 OA
ATOM    106  O   UNL     1     -11.333 -11.739   1.938  1.00  0.00    -0.237 OA
ATOM    107  O   UNL     1     -10.667 -14.109   1.815  1.00  0.00    -0.744 OA
ENDBRANCH 100 104
ENDBRANCH  74  97
ENDBRANCH  48  49
ENDBRANCH  41  43
ENDBRANCH  40  41
ENDBRANCH  39  40
ENDBRANCH   1  39
TORSDOF 18
