REMARK SMILES [NH3+][C@@H]1CCCCC[C@H]1C(=O)NCC(=O)OCCOCCOC(=O)c1ccc(-c2c3nc(c(-c4cc(S(=O)(=O)[O-])ccc4F)c4ccc([nH]4)c(-c4cc(S(=O)(=O)[O-])ccc4F)c4nc(c(-c5cc(S(=O)(=O)[O-])ccc5F)c5ccc2[nH]5)C=C4)C=C3)cc1
REMARK SMILES IDX 17 1 16 2 15 3 13 4 14 5 12 6 11 7 9 8 10 9 8 11 2 12 1 13
REMARK SMILES IDX 3 17 4 18 7 20 6 21 5 22 18 24 19 25 20 26 21 27 22 28 23 29
REMARK SMILES IDX 24 30 25 31 86 32 26 33 85 34 27 35 28 36 29 37 79 38 30 39
REMARK SMILES IDX 84 40 78 41 80 42 31 43 83 44 77 45 76 46 32 48 64 49 44 50
REMARK SMILES IDX 63 51 45 52 48 53 62 54 81 55 46 56 47 57 61 59 82 60 49 61
REMARK SMILES IDX 33 62 34 63 42 64 35 65 41 66 43 67 40 68 36 69 37 70 38 71
REMARK SMILES IDX 39 72 65 73 66 74 74 75 67 76 73 77 75 78 72 79 68 80 69 81
REMARK SMILES IDX 70 82 71 83 50 84 51 85 59 86 52 87 58 88 60 89 57 90 53 91
REMARK SMILES IDX 54 92 55 93 56 94
REMARK H PARENT 11 10 1 14 1 15 1 16 80 47 48 58
REMARK Flexibility Score: 90.00
ROOT
ATOM      1  C   UNL     1      -4.172  -1.933  -0.367  1.00  0.00     0.202 C 
ENDROOT
BRANCH   1   2
ATOM      2  C   UNL     1      -3.244  -1.250  -1.375  1.00  0.00     0.261 C 
BRANCH   2   3
ATOM      3  O   UNL     1      -2.589  -0.121  -0.779  1.00  0.00    -0.462 OA
BRANCH   3   4
ATOM      4  C   UNL     1      -2.816   1.071  -1.382  1.00  0.00     0.325 C 
ATOM      5  O   UNL     1      -3.362   1.227  -2.470  1.00  0.00    -0.250 OA
BRANCH   4   6
ATOM      6  C   UNL     1      -2.361   2.258  -0.538  1.00  0.00     0.238 C 
BRANCH   6   7
ATOM      7  N   UNL     1      -1.724   2.042   0.758  1.00  0.00    -0.345 N 
ATOM      8  C   UNL     1      -0.429   2.151   1.164  1.00  0.00     0.229 C 
ATOM      9  O   UNL     1      -0.220   2.101   2.381  1.00  0.00    -0.275 OA
ATOM     10  H   UNL     1      -2.346   1.766   1.470  1.00  0.00     0.164 HD
BRANCH   8  11
ATOM     11  C   UNL     1       0.719   2.401   0.182  1.00  0.00     0.136 C 
BRANCH  11  12
ATOM     12  C   UNL     1       0.831   1.219  -0.810  1.00  0.00     0.193 C 
BRANCH  12  13
ATOM     13  N   UNL     1       1.359   0.042  -0.102  1.00  0.00    -0.354 N 
ATOM     14  H   UNL     1       1.434  -0.740  -0.752  1.00  0.00     0.344 HD
ATOM     15  H   UNL     1       0.728  -0.208   0.659  1.00  0.00     0.344 HD
ATOM     16  H   UNL     1       2.280   0.259   0.277  1.00  0.00     0.344 HD
ENDBRANCH  12  13
BRANCH  12  17
ATOM     17  C   UNL     1       1.672   1.445  -2.071  1.00  0.00     0.066 C 
BRANCH  17  18
ATOM     18  C   UNL     1       1.032   2.463  -3.008  1.00  0.00     0.006 CG0
ATOM     19  G   UNL     1       1.446   3.906  -2.749  1.00  0.00     0.000 G0
ENDBRANCH  17  18
ENDBRANCH  12  17
ENDBRANCH  11  12
BRANCH  11  20
ATOM     20  C   UNL     1       0.630   3.853  -0.329  1.00  0.00     0.020 C 
BRANCH  20  21
ATOM     21  C   UNL     1       1.725   4.277  -1.296  1.00  0.00     0.001 C 
BRANCH  21  22
ATOM     22  C   UNL     1       1.446   3.906  -2.749  1.00  0.00     0.000 CG0
ATOM     23  G   UNL     1       1.032   2.463  -3.008  1.00  0.00     0.000 G0
ENDBRANCH  21  22
ENDBRANCH  20  21
ENDBRANCH  11  20
ENDBRANCH   8  11
ENDBRANCH   6   7
ENDBRANCH   4   6
ENDBRANCH   3   4
ENDBRANCH   2   3
ENDBRANCH   1   2
BRANCH   1  24
ATOM     24  O   UNL     1      -5.184  -1.113   0.219  1.00  0.00    -0.374 OA
BRANCH  24  25
ATOM     25  C   UNL     1      -4.789  -0.192   1.236  1.00  0.00     0.202 C 
BRANCH  25  26
ATOM     26  C   UNL     1      -4.386  -0.756   2.605  1.00  0.00     0.261 C 
BRANCH  26  27
ATOM     27  O   UNL     1      -3.200  -1.565   2.552  1.00  0.00    -0.460 OA
BRANCH  27  28
ATOM     28  C   UNL     1      -3.408  -2.880   2.807  1.00  0.00     0.338 C 
ATOM     29  O   UNL     1      -4.475  -3.405   3.106  1.00  0.00    -0.246 OA
BRANCH  28  30
ATOM     30  C   UNL     1      -2.208  -3.673   2.485  1.00  0.00     0.060 A 
ATOM     31  C   UNL     1      -2.373  -4.763   1.620  1.00  0.00     0.016 A 
ATOM     32  C   UNL     1      -0.971  -3.424   3.084  1.00  0.00     0.016 A 
ATOM     33  C   UNL     1      -1.318  -5.644   1.396  1.00  0.00     0.010 A 
ATOM     34  C   UNL     1       0.085  -4.317   2.865  1.00  0.00     0.010 A 
ATOM     35  C   UNL     1      -0.096  -5.451   2.052  1.00  0.00    -0.014 A 
BRANCH  35  36
ATOM     36  C   UNL     1       0.927  -6.526   2.004  1.00  0.00     0.031 A 
ATOM     37  C   UNL     1       1.032  -7.484   3.159  1.00  0.00     0.074 A 
ATOM     38  C   UNL     1       1.718  -6.675   0.927  1.00  0.00     0.049 A 
ATOM     39  N   UNL     1       1.850  -8.489   3.336  1.00  0.00    -0.248 NA
ATOM     40  C   UNL     1       0.085  -7.274   4.264  1.00  0.00     0.031 C 
ATOM     41  C   UNL     1       1.677  -5.835  -0.269  1.00  0.00     0.029 A 
ATOM     42  N   UNL     1       2.712  -7.584   0.668  1.00  0.00    -0.354 N 
ATOM     43  C   UNL     1       1.521  -9.032   4.574  1.00  0.00     0.074 A 
ATOM     44  C   UNL     1       0.456  -8.215   5.118  1.00  0.00     0.031 C 
ATOM     45  C   UNL     1       2.616  -6.262  -1.131  1.00  0.00     0.029 A 
ATOM     46  C   UNL     1       3.345  -7.380  -0.534  1.00  0.00     0.049 A 
ATOM     47  H   UNL     1       2.950  -8.313   1.286  1.00  0.00     0.167 HD
ATOM     48  C   UNL     1       2.052 -10.116   5.194  1.00  0.00     0.034 A 
ATOM     49  C   UNL     1       4.407  -8.006  -1.079  1.00  0.00     0.034 A 
ATOM     50  C   UNL     1       3.127 -10.907   4.643  1.00  0.00     0.049 A 
ATOM     51  C   UNL     1       5.042  -9.156  -0.336  1.00  0.00     0.074 A 
ATOM     52  C   UNL     1       3.727 -12.037   5.173  1.00  0.00     0.029 A 
ATOM     53  N   UNL     1       3.779 -10.640   3.445  1.00  0.00    -0.354 N 
ATOM     54  N   UNL     1       4.713  -9.672   0.826  1.00  0.00    -0.248 NA
ATOM     55  C   UNL     1       6.185  -9.812  -0.984  1.00  0.00     0.031 C 
ATOM     56  C   UNL     1       4.788 -12.404   4.336  1.00  0.00     0.029 A 
ATOM     57  C   UNL     1       4.800 -11.557   3.240  1.00  0.00     0.049 A 
ATOM     58  H   UNL     1       3.549  -9.906   2.830  1.00  0.00     0.167 HD
ATOM     59  C   UNL     1       5.594 -10.731   1.036  1.00  0.00     0.074 A 
ATOM     60  C   UNL     1       6.459 -10.784  -0.126  1.00  0.00     0.031 C 
ATOM     61  C   UNL     1       5.673 -11.586   2.088  1.00  0.00     0.034 A 
BRANCH  48  62
ATOM     62  C   UNL     1       1.512 -10.459   6.563  1.00  0.00     0.023 A 
ATOM     63  C   UNL     1       0.168 -10.822   6.763  1.00  0.00     0.031 A 
ATOM     64  C   UNL     1       2.342 -10.367   7.695  1.00  0.00     0.131 A 
ATOM     65  C   UNL     1      -0.326 -10.994   8.066  1.00  0.00     0.055 A 
ATOM     66  C   UNL     1       1.864 -10.622   8.982  1.00  0.00     0.041 A 
ATOM     67  F   UNL     1       3.628 -10.004   7.573  1.00  0.00    -0.206 F 
ATOM     68  C   UNL     1       0.518 -10.919   9.175  1.00  0.00     0.022 A 
BRANCH  65  69
ATOM     69  S   UNL     1      -2.119 -11.148   8.300  1.00  0.00     0.124 S 
ATOM     70  O   UNL     1      -2.607  -9.932   7.654  1.00  0.00    -0.237 OA
ATOM     71  O   UNL     1      -2.419 -12.400   7.616  1.00  0.00    -0.237 OA
ATOM     72  O   UNL     1      -2.273 -11.177   9.753  1.00  0.00    -0.744 OA
ENDBRANCH  65  69
ENDBRANCH  48  62
BRANCH  49  73
ATOM     73  C   UNL     1       4.967  -7.531  -2.376  1.00  0.00     0.023 A 
ATOM     74  C   UNL     1       4.919  -8.327  -3.530  1.00  0.00     0.031 A 
ATOM     75  C   UNL     1       5.581  -6.268  -2.468  1.00  0.00     0.131 A 
ATOM     76  C   UNL     1       5.502  -7.864  -4.721  1.00  0.00     0.055 A 
ATOM     77  C   UNL     1       6.120  -5.795  -3.665  1.00  0.00     0.041 A 
ATOM     78  F   UNL     1       5.650  -5.467  -1.393  1.00  0.00    -0.206 F 
ATOM     79  C   UNL     1       6.090  -6.599  -4.799  1.00  0.00     0.022 A 
BRANCH  76  80
ATOM     80  S   UNL     1       5.528  -8.964  -6.163  1.00  0.00     0.124 S 
ATOM     81  O   UNL     1       6.306 -10.092  -5.663  1.00  0.00    -0.237 OA
ATOM     82  O   UNL     1       4.106  -9.211  -6.381  1.00  0.00    -0.237 OA
ATOM     83  O   UNL     1       6.183  -8.160  -7.192  1.00  0.00    -0.744 OA
ENDBRANCH  76  80
ENDBRANCH  49  73
BRANCH  61  84
ATOM     84  C   UNL     1       6.713 -12.679   2.009  1.00  0.00     0.023 A 
ATOM     85  C   UNL     1       8.091 -12.398   2.042  1.00  0.00     0.031 A 
ATOM     86  C   UNL     1       6.317 -14.024   1.890  1.00  0.00     0.131 A 
ATOM     87  C   UNL     1       9.021 -13.441   1.905  1.00  0.00     0.055 A 
ATOM     88  C   UNL     1       7.246 -15.062   1.815  1.00  0.00     0.041 A 
ATOM     89  F   UNL     1       5.015 -14.351   1.850  1.00  0.00    -0.206 F 
ATOM     90  C   UNL     1       8.607 -14.772   1.810  1.00  0.00     0.022 A 
BRANCH  87  91
ATOM     91  S   UNL     1      10.781 -13.027   1.761  1.00  0.00     0.124 S 
ATOM     92  O   UNL     1      10.795 -12.160   0.587  1.00  0.00    -0.237 OA
ATOM     93  O   UNL     1      11.055 -12.376   3.038  1.00  0.00    -0.237 OA
ATOM     94  O   UNL     1      11.426 -14.327   1.579  1.00  0.00    -0.744 OA
ENDBRANCH  87  91
ENDBRANCH  61  84
ENDBRANCH  35  36
ENDBRANCH  28  30
ENDBRANCH  27  28
ENDBRANCH  26  27
ENDBRANCH  25  26
ENDBRANCH  24  25
ENDBRANCH   1  24
TORSDOF 20
