REMARK SMILES CC1(C)CC[C@@]2(C(=O)OCCOCCOC(=O)c3ccc(-c4c5nc(c(-c6cc(S(=O)(=O)[O-])ccc6F)c6ccc([nH]6)c(-c6cc(S(=O)(=O)[O-])ccc6F)c6nc(c(-c7cc(S(=O)(=O)[O-])ccc7F)c7ccc4[nH]7)C=C6)C=C5)cc3)CC[C@@]3(C)C(=CC[C@H]4[C@@]5(C)CC[C@H](O)C(C)(C)[C@@H]5CC[C@@]43C)[C@@H]2C1
REMARK SMILES IDX 13 1 12 2 11 3 10 4 9 5 7 6 8 7 6 8 1 9 2 10 3 11 4 12
REMARK SMILES IDX 104 13 5 14 103 15 85 16 81 17 83 18 86 19 82 20 84 21
REMARK SMILES IDX 101 22 87 23 88 24 100 25 102 26 89 27 99 28 90 29 91 30
REMARK SMILES IDX 98 31 92 32 95 33 93 34 96 35 97 36 94 37 14 39 15 40 16 41
REMARK SMILES IDX 17 42 18 43 19 44 80 45 20 46 79 47 21 48 22 49 23 50 73 51
REMARK SMILES IDX 24 52 78 53 72 54 74 55 25 56 77 57 71 58 70 59 26 61 58 62
REMARK SMILES IDX 38 63 57 64 39 65 42 66 56 67 75 68 40 69 41 70 55 72 76 73
REMARK SMILES IDX 43 74 27 75 28 76 36 77 29 78 35 79 37 80 34 81 30 82 31 83
REMARK SMILES IDX 32 84 33 85 59 86 60 87 68 88 61 89 67 90 69 91 66 92 62 93
REMARK SMILES IDX 63 94 64 95 65 96 44 97 45 98 53 99 46 100 52 101 54 102
REMARK SMILES IDX 51 103 47 104 48 105 49 106 50 107
REMARK H PARENT 94 38 74 60 42 71
REMARK Flexibility Score: inf
ROOT
ATOM      1  C   UNL     1      -3.464   3.437  -3.065  1.00  0.00     0.202 C 
ENDROOT
BRANCH   1   2
ATOM      2  O   UNL     1      -3.688   1.911  -3.815  1.00  0.00    -0.374 OA
BRANCH   2   3
ATOM      3  C   UNL     1      -3.072   0.226  -3.388  1.00  0.00     0.202 C 
BRANCH   3   4
ATOM      4  C   UNL     1      -2.013  -0.029  -1.552  1.00  0.00     0.261 C 
BRANCH   4   5
ATOM      5  O   UNL     1      -1.098   1.102  -0.793  1.00  0.00    -0.463 OA
BRANCH   5   6
ATOM      6  C   UNL     1      -0.195   2.087  -1.026  1.00  0.00     0.312 C 
ATOM      7  O   UNL     1      -0.276   3.176  -0.460  1.00  0.00    -0.252 OA
BRANCH   6   8
ATOM      8  C   UNL     1       0.905   1.799  -2.040  1.00  0.00     0.075 C 
ATOM      9  C   UNL     1       3.317  -0.093   0.627  1.00  0.00     0.011 C 
ATOM     10  C   UNL     1       1.972   0.588   0.349  1.00  0.00    -0.035 C 
ATOM     11  C   UNL     1       1.197   0.663   1.700  1.00  0.00     0.011 C 
ATOM     12  C   UNL     1       2.316   2.054  -0.005  1.00  0.00     0.007 C 
ATOM     13  C   UNL     1       1.163  -0.314  -0.753  1.00  0.00     0.015 C 
ATOM     14  C   UNL     1       2.240   2.307  -1.485  1.00  0.00     0.020 C 
ATOM     15  C   UNL     1       0.859   0.284  -2.248  1.00  0.00     0.033 C 
ATOM     16  C   UNL     1      -0.579  -0.030  -3.096  1.00  0.00    -0.063 C 
ATOM     17  C   UNL     1       0.626   2.562  -3.313  1.00  0.00     0.020 C 
ATOM     18  C   UNL     1      -1.704   1.516  -3.051  1.00  0.00    -0.006 C 
ATOM     19  C   UNL     1      -1.160  -1.379  -3.182  1.00  0.00    -0.027 C 
ATOM     20  C   UNL     1      -0.864   2.869  -3.283  1.00  0.00     0.013 C 
ATOM     21  C   UNL     1      -1.617   1.326  -4.912  1.00  0.00     0.017 C 
ATOM     22  C   UNL     1      -3.511   1.267  -1.847  1.00  0.00    -0.020 C 
ATOM     23  C   UNL     1      -2.848  -1.887  -2.515  1.00  0.00     0.032 C 
ATOM     24  C   UNL     1      -4.097  -0.642  -1.746  1.00  0.00     0.006 C 
ATOM     25  C   UNL     1      -5.186   1.664  -2.022  1.00  0.00     0.008 C 
ATOM     26  C   UNL     1      -3.369   1.778  -0.476  1.00  0.00     0.012 C 
ATOM     27  C   UNL     1      -5.179  -1.093  -0.649  1.00  0.00    -0.025 C 
ATOM     28  C   UNL     1      -6.117   1.306  -0.786  1.00  0.00     0.005 C 
ATOM     29  C   UNL     1      -6.372  -1.732  -1.444  1.00  0.00     0.012 C 
ATOM     30  C   UNL     1      -4.635  -2.158   0.314  1.00  0.00     0.010 C 
ATOM     31  C   UNL     1      -5.719   0.128   0.154  1.00  0.00     0.003 C 
ATOM     32  C   UNL     1      -5.683  -2.599   1.339  1.00  0.00     0.033 C 
ATOM     33  C   UNL     1      -6.750  -0.185   1.313  1.00  0.00    -0.006 C 
ATOM     34  C   UNL     1      -6.271  -1.433   2.132  1.00  0.00     0.120 C 
ATOM     35  C   UNL     1      -8.216  -0.273   0.850  1.00  0.00     0.014 C 
ATOM     36  C   UNL     1      -6.769   1.000   2.322  1.00  0.00     0.014 C 
BRANCH  34  37
ATOM     37  O   UNL     1      -7.298  -1.928   2.981  1.00  0.00    -0.393 OA
ATOM     38  H   UNL     1      -8.022  -2.282   2.441  1.00  0.00     0.210 HD
ENDBRANCH  34  37
ENDBRANCH   6   8
ENDBRANCH   5   6
ENDBRANCH   4   5
ENDBRANCH   3   4
ENDBRANCH   2   3
ENDBRANCH   1   2
BRANCH   1  39
ATOM     39  C   UNL     1      -3.554   4.323  -1.442  1.00  0.00     0.261 C 
BRANCH  39  40
ATOM     40  O   UNL     1      -2.821   4.097  -0.032  1.00  0.00    -0.460 OA
BRANCH  40  41
ATOM     41  C   UNL     1      -3.460   4.042   1.240  1.00  0.00     0.338 C 
ATOM     42  O   UNL     1      -4.509   4.665   1.409  1.00  0.00    -0.246 OA
BRANCH  41  43
ATOM     43  C   UNL     1      -3.045   3.010   2.454  1.00  0.00     0.060 A 
ATOM     44  C   UNL     1      -2.578   1.694   2.332  1.00  0.00     0.016 A 
ATOM     45  C   UNL     1      -3.511   3.242   3.761  1.00  0.00     0.016 A 
ATOM     46  C   UNL     1      -2.961   0.614   3.224  1.00  0.00     0.010 A 
ATOM     47  C   UNL     1      -3.678   2.193   4.757  1.00  0.00     0.010 A 
ATOM     48  C   UNL     1      -3.587   0.818   4.458  1.00  0.00    -0.014 A 
BRANCH  48  49
ATOM     49  C   UNL     1      -4.227  -0.297   5.360  1.00  0.00     0.031 A 
ATOM     50  C   UNL     1      -5.582  -0.030   6.074  1.00  0.00     0.074 A 
ATOM     51  C   UNL     1      -3.783  -1.582   5.516  1.00  0.00     0.049 A 
ATOM     52  N   UNL     1      -6.220  -0.719   7.000  1.00  0.00    -0.248 NA
ATOM     53  C   UNL     1      -6.330   1.160   5.647  1.00  0.00     0.031 C 
ATOM     54  C   UNL     1      -2.667  -2.216   4.813  1.00  0.00     0.029 A 
ATOM     55  N   UNL     1      -4.232  -2.615   6.346  1.00  0.00    -0.354 N 
ATOM     56  C   UNL     1      -7.428  -0.051   7.239  1.00  0.00     0.074 A 
ATOM     57  C   UNL     1      -7.430   1.106   6.379  1.00  0.00     0.031 C 
ATOM     58  C   UNL     1      -2.530  -3.490   5.219  1.00  0.00     0.029 A 
ATOM     59  C   UNL     1      -3.438  -3.751   6.330  1.00  0.00     0.049 A 
ATOM     60  H   UNL     1      -5.045  -2.541   6.896  1.00  0.00     0.167 HD
ATOM     61  C   UNL     1      -8.444  -0.325   8.102  1.00  0.00     0.034 A 
ATOM     62  C   UNL     1      -3.349  -4.834   7.147  1.00  0.00     0.034 A 
ATOM     63  C   UNL     1      -8.439  -1.409   9.054  1.00  0.00     0.049 A 
ATOM     64  C   UNL     1      -4.273  -4.954   8.340  1.00  0.00     0.074 A 
ATOM     65  C   UNL     1      -9.330  -1.661  10.086  1.00  0.00     0.029 A 
ATOM     66  N   UNL     1      -7.476  -2.403   9.117  1.00  0.00    -0.354 N 
ATOM     67  N   UNL     1      -5.308  -4.215   8.661  1.00  0.00    -0.248 NA
ATOM     68  C   UNL     1      -3.999  -6.040   9.296  1.00  0.00     0.031 C 
ATOM     69  C   UNL     1      -8.831  -2.723  10.849  1.00  0.00     0.029 A 
ATOM     70  C   UNL     1      -7.704  -3.217  10.217  1.00  0.00     0.049 A 
ATOM     71  H   UNL     1      -6.739  -2.515   8.475  1.00  0.00     0.167 HD
ATOM     72  C   UNL     1      -5.821  -4.763   9.836  1.00  0.00     0.074 A 
ATOM     73  C   UNL     1      -4.996  -5.906  10.159  1.00  0.00     0.031 C 
ATOM     74  C   UNL     1      -6.885  -4.351  10.573  1.00  0.00     0.034 A 
BRANCH  61  75
ATOM     75  C   UNL     1      -9.579   0.681   8.183  1.00  0.00     0.023 A 
ATOM     76  C   UNL     1     -10.529   0.856   7.159  1.00  0.00     0.031 A 
ATOM     77  C   UNL     1      -9.674   1.512   9.316  1.00  0.00     0.131 A 
ATOM     78  C   UNL     1     -11.505   1.865   7.277  1.00  0.00     0.055 A 
ATOM     79  C   UNL     1     -10.681   2.467   9.454  1.00  0.00     0.041 A 
ATOM     80  F   UNL     1      -8.776   1.413  10.310  1.00  0.00    -0.206 F 
ATOM     81  C   UNL     1     -11.597   2.655   8.427  1.00  0.00     0.022 A 
BRANCH  78  82
ATOM     82  S   UNL     1     -12.584   2.232   5.861  1.00  0.00     0.124 S 
ATOM     83  O   UNL     1     -11.614   2.519   4.808  1.00  0.00    -0.237 OA
ATOM     84  O   UNL     1     -13.344   0.997   5.713  1.00  0.00    -0.237 OA
ATOM     85  O   UNL     1     -13.359   3.388   6.310  1.00  0.00    -0.744 OA
ENDBRANCH  78  82
ENDBRANCH  61  75
BRANCH  62  86
ATOM     86  C   UNL     1      -2.216  -5.825   7.001  1.00  0.00     0.023 A 
ATOM     87  C   UNL     1      -2.424  -7.214   6.878  1.00  0.00     0.031 A 
ATOM     88  C   UNL     1      -0.880  -5.385   7.101  1.00  0.00     0.131 A 
ATOM     89  C   UNL     1      -1.324  -8.097   6.876  1.00  0.00     0.055 A 
ATOM     90  C   UNL     1       0.208  -6.257   7.023  1.00  0.00     0.041 A 
ATOM     91  F   UNL     1      -0.604  -4.083   7.279  1.00  0.00    -0.206 F 
ATOM     92  C   UNL     1      -0.011  -7.623   6.920  1.00  0.00     0.022 A 
BRANCH  89  93
ATOM     93  S   UNL     1      -1.619  -9.891   6.922  1.00  0.00     0.124 S 
ATOM     94  O   UNL     1      -2.383 -10.036   8.155  1.00  0.00    -0.237 OA
ATOM     95  O   UNL     1      -2.352 -10.110   5.680  1.00  0.00    -0.237 OA
ATOM     96  O   UNL     1      -0.271 -10.458   6.953  1.00  0.00    -0.744 OA
ENDBRANCH  89  93
ENDBRANCH  62  86
BRANCH  74  97
ATOM     97  C   UNL     1      -7.264  -5.181  11.779  1.00  0.00     0.023 A 
ATOM     98  C   UNL     1      -6.392  -5.359  12.867  1.00  0.00     0.031 A 
ATOM     99  C   UNL     1      -8.501  -5.852  11.816  1.00  0.00     0.131 A 
ATOM    100  C   UNL     1      -6.725  -6.258  13.893  1.00  0.00     0.055 A 
ATOM    101  C   UNL     1      -8.864  -6.677  12.882  1.00  0.00     0.041 A 
ATOM    102  F   UNL     1      -9.378  -5.728  10.806  1.00  0.00    -0.206 F 
ATOM    103  C   UNL     1      -7.964  -6.903  13.917  1.00  0.00     0.022 A 
BRANCH 100 104
ATOM    104  S   UNL     1      -5.450  -6.702  15.107  1.00  0.00     0.124 S 
ATOM    105  O   UNL     1      -4.359  -7.150  14.248  1.00  0.00    -0.237 OA
ATOM    106  O   UNL     1      -5.233  -5.440  15.807  1.00  0.00    -0.237 OA
ATOM    107  O   UNL     1      -6.085  -7.751  15.902  1.00  0.00    -0.744 OA
ENDBRANCH 100 104
ENDBRANCH  74  97
ENDBRANCH  48  49
ENDBRANCH  41  43
ENDBRANCH  40  41
ENDBRANCH  39  40
ENDBRANCH   1  39
TORSDOF 18
