REMARK SMILES C[C@@H](C(=O)OCCOCCOC(=O)c1ccc(-c2c3nc(c(-c4cc(S(=O)(=O)[O-])ccc4F)c4ccc([nH]4)c(-c4cc(S(=O)(=O)[O-])ccc4F)c4nc(c(-c5cc(S(=O)(=O)[O-])ccc5F)c5ccc2[nH]5)C=C4)C=C3)cc1)c1cc(/C=C/S(C)(=O)=O)cc(C(=O)c2ccccc2)c1
REMARK SMILES IDX 8 1 7 2 6 3 5 4 3 5 4 6 2 7 1 8 77 9 78 10 96 11 79 12 87 13
REMARK SMILES IDX 86 14 80 15 81 16 82 17 83 18 84 19 85 20 88 21 89 22 90 23
REMARK SMILES IDX 91 24 95 25 92 26 94 27 93 28 9 29 10 30 11 31 12 32 13 33
REMARK SMILES IDX 14 34 15 35 76 36 16 37 75 38 17 39 18 40 19 41 69 42 20 43
REMARK SMILES IDX 74 44 68 45 70 46 21 47 73 48 67 49 66 50 22 52 54 53 34 54
REMARK SMILES IDX 53 55 35 56 38 57 52 58 71 59 36 60 37 61 51 63 72 64 39 65
REMARK SMILES IDX 23 66 24 67 32 68 25 69 31 70 33 71 30 72 26 73 27 74 28 75
REMARK SMILES IDX 29 76 55 77 56 78 64 79 57 80 63 81 65 82 62 83 58 84 59 85
REMARK SMILES IDX 60 86 61 87 40 88 41 89 49 90 42 91 48 92 50 93 47 94 43 95
REMARK SMILES IDX 44 96 45 97 46 98
REMARK H PARENT 70 51 38 62
REMARK Flexibility Score: inf
ROOT
ATOM      1  O   UNL     1       0.801  -0.757   4.463  1.00  0.00    -0.374 OA
ENDROOT
BRANCH   1   2
ATOM      2  C   UNL     1       2.102  -1.335   4.338  1.00  0.00     0.202 C 
BRANCH   2   3
ATOM      3  C   UNL     1       2.291  -2.363   3.219  1.00  0.00     0.261 C 
BRANCH   3   4
ATOM      4  O   UNL     1       1.995  -1.794   1.931  1.00  0.00    -0.463 OA
BRANCH   4   5
ATOM      5  C   UNL     1       1.138  -2.512   1.158  1.00  0.00     0.313 C 
ATOM      6  O   UNL     1       0.784  -3.660   1.411  1.00  0.00    -0.252 OA
BRANCH   5   7
ATOM      7  C   UNL     1       0.568  -1.706  -0.027  1.00  0.00     0.126 C 
ATOM      8  C   UNL     1       1.352  -0.430  -0.340  1.00  0.00     0.025 C 
BRANCH   7   9
ATOM      9  C   UNL     1      -0.945  -1.522   0.146  1.00  0.00    -0.033 A 
ATOM     10  C   UNL     1      -1.579  -0.296   0.416  1.00  0.00     0.012 A 
ATOM     11  C   UNL     1      -1.739  -2.679   0.117  1.00  0.00     0.016 A 
ATOM     12  C   UNL     1      -2.957  -0.227   0.706  1.00  0.00    -0.024 A 
ATOM     13  C   UNL     1      -3.093  -2.646   0.457  1.00  0.00     0.023 A 
ATOM     14  C   UNL     1      -3.702  -1.418   0.729  1.00  0.00     0.020 A 
BRANCH  12  15
ATOM     15  C   UNL     1      -3.671   1.030   1.012  1.00  0.00     0.020 C 
ATOM     16  C   UNL     1      -3.118   2.241   1.181  1.00  0.00     0.106 C 
BRANCH  16  17
ATOM     17  S   UNL     1      -4.129   3.613   1.541  1.00  0.00     0.168 S 
ATOM     18  C   UNL     1      -3.349   4.263   2.998  1.00  0.00     0.163 C 
ATOM     19  O   UNL     1      -3.956   4.591   0.487  1.00  0.00    -0.225 OA
ATOM     20  O   UNL     1      -5.459   3.176   1.930  1.00  0.00    -0.225 OA
ENDBRANCH  16  17
ENDBRANCH  12  15
BRANCH  13  21
ATOM     21  C   UNL     1      -3.891  -3.902   0.545  1.00  0.00     0.193 C 
ATOM     22  O   UNL     1      -5.114  -3.871   0.446  1.00  0.00    -0.289 OA
BRANCH  21  23
ATOM     23  C   UNL     1      -3.207  -5.207   0.722  1.00  0.00     0.022 A 
ATOM     24  C   UNL     1      -3.491  -6.238  -0.178  1.00  0.00     0.012 A 
ATOM     25  C   UNL     1      -2.248  -5.389   1.726  1.00  0.00     0.012 A 
ATOM     26  C   UNL     1      -2.775  -7.434  -0.105  1.00  0.00     0.001 A 
ATOM     27  C   UNL     1      -1.534  -6.586   1.792  1.00  0.00     0.001 A 
ATOM     28  C   UNL     1      -1.792  -7.603   0.872  1.00  0.00     0.000 A 
ENDBRANCH  21  23
ENDBRANCH  13  21
ENDBRANCH   7   9
ENDBRANCH   5   7
ENDBRANCH   4   5
ENDBRANCH   3   4
ENDBRANCH   2   3
ENDBRANCH   1   2
BRANCH   1  29
ATOM     29  C   UNL     1       0.397   0.183   3.471  1.00  0.00     0.202 C 
BRANCH  29  30
ATOM     30  C   UNL     1       1.076   1.560   3.475  1.00  0.00     0.261 C 
BRANCH  30  31
ATOM     31  O   UNL     1       2.484   1.494   3.183  1.00  0.00    -0.460 OA
BRANCH  31  32
ATOM     32  C   UNL     1       3.287   1.880   4.208  1.00  0.00     0.338 C 
ATOM     33  O   UNL     1       2.925   2.331   5.287  1.00  0.00    -0.246 OA
BRANCH  32  34
ATOM     34  C   UNL     1       4.688   1.504   3.941  1.00  0.00     0.060 A 
ATOM     35  C   UNL     1       5.337   0.713   4.898  1.00  0.00     0.016 A 
ATOM     36  C   UNL     1       5.383   1.982   2.829  1.00  0.00     0.016 A 
ATOM     37  C   UNL     1       6.696   0.436   4.773  1.00  0.00     0.010 A 
ATOM     38  C   UNL     1       6.753   1.712   2.711  1.00  0.00     0.010 A 
ATOM     39  C   UNL     1       7.423   0.968   3.700  1.00  0.00    -0.014 A 
BRANCH  39  40
ATOM     40  C   UNL     1       8.906   0.874   3.709  1.00  0.00     0.031 A 
ATOM     41  C   UNL     1       9.707   2.062   4.170  1.00  0.00     0.074 A 
ATOM     42  C   UNL     1       9.528  -0.266   3.358  1.00  0.00     0.049 A 
ATOM     43  N   UNL     1      11.005   2.215   4.237  1.00  0.00    -0.248 NA
ATOM     44  C   UNL     1       8.938   3.234   4.611  1.00  0.00     0.031 C 
ATOM     45  C   UNL     1       8.858  -1.498   2.943  1.00  0.00     0.029 A 
ATOM     46  N   UNL     1      10.864  -0.572   3.293  1.00  0.00    -0.354 N 
ATOM     47  C   UNL     1      11.210   3.500   4.730  1.00  0.00     0.074 A 
ATOM     48  C   UNL     1       9.901   4.096   4.901  1.00  0.00     0.031 C 
ATOM     49  C   UNL     1       9.789  -2.424   2.656  1.00  0.00     0.029 A 
ATOM     50  C   UNL     1      11.119  -1.841   2.830  1.00  0.00     0.049 A 
ATOM     51  H   UNL     1      11.574   0.059   3.554  1.00  0.00     0.167 HD
ATOM     52  C   UNL     1      12.380   4.120   5.023  1.00  0.00     0.034 A 
ATOM     53  C   UNL     1      12.289  -2.453   2.553  1.00  0.00     0.034 A 
ATOM     54  C   UNL     1      13.677   3.519   4.833  1.00  0.00     0.049 A 
ATOM     55  C   UNL     1      13.581  -1.710   2.798  1.00  0.00     0.074 A 
ATOM     56  C   UNL     1      14.925   4.056   5.100  1.00  0.00     0.029 A 
ATOM     57  N   UNL     1      13.897   2.249   4.314  1.00  0.00    -0.354 N 
ATOM     58  N   UNL     1      13.761  -0.496   3.266  1.00  0.00    -0.248 NA
ATOM     59  C   UNL     1      14.826  -2.425   2.487  1.00  0.00     0.031 C 
ATOM     60  C   UNL     1      15.897   3.142   4.677  1.00  0.00     0.029 A 
ATOM     61  C   UNL     1      15.258   2.000   4.221  1.00  0.00     0.049 A 
ATOM     62  H   UNL     1      13.189   1.617   4.051  1.00  0.00     0.167 HD
ATOM     63  C   UNL     1      15.141  -0.315   3.332  1.00  0.00     0.074 A 
ATOM     64  C   UNL     1      15.743  -1.548   2.870  1.00  0.00     0.031 C 
ATOM     65  C   UNL     1      15.847   0.769   3.744  1.00  0.00     0.034 A 
BRANCH  52  66
ATOM     66  C   UNL     1      12.300   5.541   5.530  1.00  0.00     0.023 A 
ATOM     67  C   UNL     1      11.683   5.857   6.754  1.00  0.00     0.031 A 
ATOM     68  C   UNL     1      12.816   6.599   4.762  1.00  0.00     0.131 A 
ATOM     69  C   UNL     1      11.532   7.199   7.136  1.00  0.00     0.055 A 
ATOM     70  C   UNL     1      12.735   7.927   5.187  1.00  0.00     0.041 A 
ATOM     71  F   UNL     1      13.395   6.362   3.574  1.00  0.00    -0.206 F 
ATOM     72  C   UNL     1      12.076   8.235   6.373  1.00  0.00     0.022 A 
BRANCH  69  73
ATOM     73  S   UNL     1      10.485   7.580   8.567  1.00  0.00     0.124 S 
ATOM     74  O   UNL     1       9.211   6.988   8.166  1.00  0.00    -0.237 OA
ATOM     75  O   UNL     1      11.185   6.911   9.658  1.00  0.00    -0.237 OA
ATOM     76  O   UNL     1      10.495   9.040   8.620  1.00  0.00    -0.744 OA
ENDBRANCH  69  73
ENDBRANCH  52  66
BRANCH  53  77
ATOM     77  C   UNL     1      12.301  -3.824   1.966  1.00  0.00     0.023 A 
ATOM     78  C   UNL     1      12.869  -4.908   2.653  1.00  0.00     0.031 A 
ATOM     79  C   UNL     1      11.788  -4.056   0.676  1.00  0.00     0.131 A 
ATOM     80  C   UNL     1      12.950  -6.164   2.031  1.00  0.00     0.055 A 
ATOM     81  C   UNL     1      11.824  -5.319   0.083  1.00  0.00     0.041 A 
ATOM     82  F   UNL     1      11.235  -3.054  -0.025  1.00  0.00    -0.206 F 
ATOM     83  C   UNL     1      12.420  -6.380   0.757  1.00  0.00     0.022 A 
BRANCH  80  84
ATOM     84  S   UNL     1      13.835  -7.500   2.882  1.00  0.00     0.124 S 
ATOM     85  O   UNL     1      15.161  -6.917   3.051  1.00  0.00    -0.237 OA
ATOM     86  O   UNL     1      13.043  -7.660   4.097  1.00  0.00    -0.237 OA
ATOM     87  O   UNL     1      13.757  -8.613   1.938  1.00  0.00    -0.744 OA
ENDBRANCH  80  84
ENDBRANCH  53  77
BRANCH  65  88
ATOM     88  C   UNL     1      17.352   0.648   3.754  1.00  0.00     0.023 A 
ATOM     89  C   UNL     1      18.095   0.526   2.566  1.00  0.00     0.031 A 
ATOM     90  C   UNL     1      18.053   0.646   4.974  1.00  0.00     0.131 A 
ATOM     91  C   UNL     1      19.486   0.353   2.626  1.00  0.00     0.055 A 
ATOM     92  C   UNL     1      19.443   0.534   5.024  1.00  0.00     0.041 A 
ATOM     93  F   UNL     1      17.395   0.757   6.139  1.00  0.00    -0.206 F 
ATOM     94  C   UNL     1      20.167   0.373   3.846  1.00  0.00     0.022 A 
BRANCH  91  95
ATOM     95  S   UNL     1      20.390   0.010   1.091  1.00  0.00     0.124 S 
ATOM     96  O   UNL     1      19.734  -1.204   0.618  1.00  0.00    -0.237 OA
ATOM     97  O   UNL     1      20.141   1.216   0.306  1.00  0.00    -0.237 OA
ATOM     98  O   UNL     1      21.771  -0.164   1.536  1.00  0.00    -0.744 OA
ENDBRANCH  91  95
ENDBRANCH  65  88
ENDBRANCH  39  40
ENDBRANCH  32  34
ENDBRANCH  31  32
ENDBRANCH  30  31
ENDBRANCH  29  30
ENDBRANCH   1  29
TORSDOF 22
