REMARK SMILES CS(=O)(=O)c1ccc(N2N=C(C(=O)OCCOCCOC(=O)c3ccc(-c4c5nc(c(-c6cc(S(=O)(=O)[O-])ccc6F)c6ccc([nH]6)c(-c6cc(S(=O)(=O)[O-])ccc6F)c6nc(c(-c7cc(S(=O)(=O)[O-])ccc7F)c7ccc4[nH]7)C=C6)C=C5)cc3)C[C@H]2c2cccs2)cc1
REMARK SMILES IDX 18 1 17 2 16 3 15 4 14 5 12 6 13 7 11 8 9 9 10 10 87 11
REMARK SMILES IDX 86 12 8 13 5 14 6 15 94 16 7 17 93 18 2 19 1 20 3 21 4 22
REMARK SMILES IDX 88 23 89 24 92 25 90 26 91 27 19 28 20 29 21 30 22 31 23 32
REMARK SMILES IDX 24 33 85 34 25 35 84 36 26 37 27 38 28 39 78 40 29 41 83 42
REMARK SMILES IDX 77 43 79 44 30 45 82 46 76 47 75 48 31 50 63 51 43 52 62 53
REMARK SMILES IDX 44 54 47 55 61 56 80 57 45 58 46 59 60 61 81 62 48 63 32 64
REMARK SMILES IDX 33 65 41 66 34 67 40 68 42 69 39 70 35 71 36 72 37 73 38 74
REMARK SMILES IDX 64 75 65 76 73 77 66 78 72 79 74 80 71 81 67 82 68 83 69 84
REMARK SMILES IDX 70 85 49 86 50 87 58 88 51 89 57 90 59 91 56 92 52 93 53 94
REMARK SMILES IDX 54 95 55 96
REMARK H PARENT 79 49 47 60
REMARK Flexibility Score: inf
ROOT
ATOM      1  C   UNL     1       0.710  -6.301  -9.004  1.00  0.00     0.202 C 
ENDROOT
BRANCH   1   2
ATOM      2  O   UNL     1      -0.034  -6.025 -10.194  1.00  0.00    -0.374 OA
BRANCH   2   3
ATOM      3  C   UNL     1       0.703  -5.550 -11.324  1.00  0.00     0.202 C 
BRANCH   3   4
ATOM      4  C   UNL     1       0.986  -4.047 -11.303  1.00  0.00     0.261 C 
BRANCH   4   5
ATOM      5  O   UNL     1       1.844  -3.747 -10.193  1.00  0.00    -0.459 OA
BRANCH   5   6
ATOM      6  C   UNL     1       1.428  -2.736  -9.410  1.00  0.00     0.354 C 
ATOM      7  O   UNL     1       0.588  -1.889  -9.653  1.00  0.00    -0.245 OA
BRANCH   6   8
ATOM      8  C   UNL     1       2.080  -2.869  -8.060  1.00  0.00     0.148 C 
ATOM      9  N   UNL     1       2.355  -2.856  -5.963  1.00  0.00    -0.256 N 
ATOM     10  N   UNL     1       1.424  -2.710  -6.951  1.00  0.00    -0.169 NA
ATOM     11  C   UNL     1       3.728  -2.739  -6.489  1.00  0.00     0.154 C 
ATOM     12  C   UNL     1       3.516  -3.271  -7.915  1.00  0.00     0.099 C 
BRANCH   9  13
ATOM     13  C   UNL     1       1.975  -2.548  -4.666  1.00  0.00     0.060 A 
ATOM     14  C   UNL     1       1.028  -1.968  -2.085  1.00  0.00     0.067 A 
ATOM     15  C   UNL     1       1.215  -3.297  -2.476  1.00  0.00     0.022 A 
ATOM     16  C   UNL     1       1.315  -0.927  -2.967  1.00  0.00     0.022 A 
ATOM     17  C   UNL     1       1.685  -3.579  -3.762  1.00  0.00     0.029 A 
ATOM     18  C   UNL     1       1.778  -1.225  -4.252  1.00  0.00     0.029 A 
BRANCH  14  19
ATOM     19  S   UNL     1       0.415  -1.647  -0.450  1.00  0.00     0.175 S 
ATOM     20  C   UNL     1       1.068  -0.071   0.029  1.00  0.00     0.163 C 
ATOM     21  O   UNL     1       1.019  -2.631   0.430  1.00  0.00    -0.224 OA
ATOM     22  O   UNL     1      -1.025  -1.520  -0.553  1.00  0.00    -0.224 OA
ENDBRANCH  14  19
ENDBRANCH   9  13
BRANCH  11  23
ATOM     23  C   UNL     1       4.349  -1.344  -6.440  1.00  0.00     0.030 A 
ATOM     24  C   UNL     1       5.028  -0.772  -5.375  1.00  0.00     0.017 A 
ATOM     25  S   UNL     1       4.240  -0.231  -7.749  1.00  0.00    -0.147 S 
ATOM     26  C   UNL     1       5.461   0.559  -5.645  1.00  0.00     0.012 A 
ATOM     27  C   UNL     1       5.120   0.965  -6.913  1.00  0.00     0.065 A 
ENDBRANCH  11  23
ENDBRANCH   6   8
ENDBRANCH   5   6
ENDBRANCH   4   5
ENDBRANCH   3   4
ENDBRANCH   2   3
ENDBRANCH   1   2
BRANCH   1  28
ATOM     28  C   UNL     1       1.440  -7.649  -8.978  1.00  0.00     0.261 C 
BRANCH  28  29
ATOM     29  O   UNL     1       2.546  -7.674  -9.900  1.00  0.00    -0.460 OA
BRANCH  29  30
ATOM     30  C   UNL     1       2.371  -8.488 -10.973  1.00  0.00     0.338 C 
ATOM     31  O   UNL     1       1.430  -9.236 -11.175  1.00  0.00    -0.246 OA
BRANCH  30  32
ATOM     32  C   UNL     1       3.408  -8.218 -11.992  1.00  0.00     0.060 A 
ATOM     33  C   UNL     1       2.979  -8.045 -13.314  1.00  0.00     0.016 A 
ATOM     34  C   UNL     1       4.770  -8.190 -11.681  1.00  0.00     0.016 A 
ATOM     35  C   UNL     1       3.913  -7.889 -14.338  1.00  0.00     0.010 A 
ATOM     36  C   UNL     1       5.706  -8.042 -12.713  1.00  0.00     0.010 A 
ATOM     37  C   UNL     1       5.283  -7.922 -14.049  1.00  0.00    -0.014 A 
BRANCH  37  38
ATOM     38  C   UNL     1       6.264  -7.979 -15.162  1.00  0.00     0.031 A 
ATOM     39  C   UNL     1       6.816  -9.315 -15.579  1.00  0.00     0.074 A 
ATOM     40  C   UNL     1       6.634  -6.861 -15.814  1.00  0.00     0.049 A 
ATOM     41  N   UNL     1       7.698  -9.599 -16.502  1.00  0.00    -0.248 NA
ATOM     42  C   UNL     1       6.304 -10.486 -14.852  1.00  0.00     0.031 C 
ATOM     43  C   UNL     1       6.136  -5.516 -15.530  1.00  0.00     0.029 A 
ATOM     44  N   UNL     1       7.519  -6.682 -16.847  1.00  0.00    -0.354 N 
ATOM     45  C   UNL     1       7.848 -10.982 -16.471  1.00  0.00     0.074 A 
ATOM     46  C   UNL     1       6.993 -11.471 -15.409  1.00  0.00     0.031 C 
ATOM     47  C   UNL     1       6.734  -4.646 -16.363  1.00  0.00     0.029 A 
ATOM     48  C   UNL     1       7.679  -5.367 -17.215  1.00  0.00     0.049 A 
ATOM     49  H   UNL     1       7.995  -7.425 -17.283  1.00  0.00     0.167 HD
ATOM     50  C   UNL     1       8.618 -11.771 -17.260  1.00  0.00     0.034 A 
ATOM     51  C   UNL     1       8.508  -4.807 -18.119  1.00  0.00     0.034 A 
ATOM     52  C   UNL     1       9.477 -11.270 -18.305  1.00  0.00     0.049 A 
ATOM     53  C   UNL     1       9.422  -5.696 -18.927  1.00  0.00     0.074 A 
ATOM     54  C   UNL     1      10.290 -11.982 -19.171  1.00  0.00     0.029 A 
ATOM     55  N   UNL     1       9.648  -9.928 -18.618  1.00  0.00    -0.354 N 
ATOM     56  N   UNL     1       9.547  -7.003 -18.893  1.00  0.00    -0.248 NA
ATOM     57  C   UNL     1      10.302  -5.034 -19.900  1.00  0.00     0.031 C 
ATOM     58  C   UNL     1      10.998 -11.069 -19.961  1.00  0.00     0.029 A 
ATOM     59  C   UNL     1      10.576  -9.789 -19.639  1.00  0.00     0.049 A 
ATOM     60  H   UNL     1       9.178  -9.182 -18.179  1.00  0.00     0.167 HD
ATOM     61  C   UNL     1      10.498  -7.319 -19.861  1.00  0.00     0.074 A 
ATOM     62  C   UNL     1      10.906  -6.068 -20.466  1.00  0.00     0.031 C 
ATOM     63  C   UNL     1      10.985  -8.534 -20.223  1.00  0.00     0.034 A 
BRANCH  50  64
ATOM     64  C   UNL     1       8.600 -13.254 -16.979  1.00  0.00     0.023 A 
ATOM     65  C   UNL     1       7.439 -14.026 -17.162  1.00  0.00     0.031 A 
ATOM     66  C   UNL     1       9.749 -13.896 -16.487  1.00  0.00     0.131 A 
ATOM     67  C   UNL     1       7.434 -15.379 -16.789  1.00  0.00     0.055 A 
ATOM     68  C   UNL     1       9.759 -15.260 -16.188  1.00  0.00     0.041 A 
ATOM     69  F   UNL     1      10.879 -13.204 -16.271  1.00  0.00    -0.206 F 
ATOM     70  C   UNL     1       8.592 -16.007 -16.325  1.00  0.00     0.022 A 
BRANCH  67  71
ATOM     71  S   UNL     1       5.855 -16.272 -16.787  1.00  0.00     0.124 S 
ATOM     72  O   UNL     1       5.062 -15.466 -15.862  1.00  0.00    -0.237 OA
ATOM     73  O   UNL     1       5.458 -16.214 -18.189  1.00  0.00    -0.237 OA
ATOM     74  O   UNL     1       6.213 -17.600 -16.293  1.00  0.00    -0.744 OA
ENDBRANCH  67  71
ENDBRANCH  50  64
BRANCH  51  75
ATOM     75  C   UNL     1       8.555  -3.326 -18.284  1.00  0.00     0.023 A 
ATOM     76  C   UNL     1       8.169  -2.715 -19.486  1.00  0.00     0.031 A 
ATOM     77  C   UNL     1       9.043  -2.506 -17.251  1.00  0.00     0.131 A 
ATOM     78  C   UNL     1       8.317  -1.327 -19.642  1.00  0.00     0.055 A 
ATOM     79  C   UNL     1       9.144  -1.121 -17.394  1.00  0.00     0.041 A 
ATOM     80  F   UNL     1       9.425  -3.042 -16.081  1.00  0.00    -0.206 F 
ATOM     81  C   UNL     1       8.791  -0.525 -18.601  1.00  0.00     0.022 A 
BRANCH  78  82
ATOM     82  S   UNL     1       7.952  -0.590 -21.259  1.00  0.00     0.124 S 
ATOM     83  O   UNL     1       8.877  -1.308 -22.128  1.00  0.00    -0.237 OA
ATOM     84  O   UNL     1       6.537  -0.909 -21.423  1.00  0.00    -0.237 OA
ATOM     85  O   UNL     1       8.251   0.827 -21.062  1.00  0.00    -0.744 OA
ENDBRANCH  78  82
ENDBRANCH  51  75
BRANCH  63  86
ATOM     86  C   UNL     1      11.982  -8.563 -21.355  1.00  0.00     0.023 A 
ATOM     87  C   UNL     1      13.277  -8.033 -21.216  1.00  0.00     0.031 A 
ATOM     88  C   UNL     1      11.625  -9.124 -22.595  1.00  0.00     0.131 A 
ATOM     89  C   UNL     1      14.151  -8.029 -22.314  1.00  0.00     0.055 A 
ATOM     90  C   UNL     1      12.517  -9.165 -23.667  1.00  0.00     0.041 A 
ATOM     91  F   UNL     1      10.401  -9.644 -22.782  1.00  0.00    -0.206 F 
ATOM     92  C   UNL     1      13.784  -8.605 -23.534  1.00  0.00     0.022 A 
BRANCH  89  93
ATOM     93  S   UNL     1      15.750  -7.188 -22.153  1.00  0.00     0.124 S 
ATOM     94  O   UNL     1      15.345  -5.825 -21.822  1.00  0.00    -0.237 OA
ATOM     95  O   UNL     1      16.392  -7.940 -21.080  1.00  0.00    -0.237 OA
ATOM     96  O   UNL     1      16.358  -7.350 -23.472  1.00  0.00    -0.744 OA
ENDBRANCH  89  93
ENDBRANCH  63  86
ENDBRANCH  37  38
ENDBRANCH  30  32
ENDBRANCH  29  30
ENDBRANCH  28  29
ENDBRANCH   1  28
TORSDOF 20
