REMARK SMILES C[C@H]1CC[C@H]([NH2+]Cc2c(C(=O)OCCOCCOC(=O)c3ccc(-c4c5nc(c(-c6cc(S(=O)(=O)[O-])ccc6F)c6ccc([nH]6)c(-c6cc(S(=O)(=O)[O-])ccc6F)c6nc(c(-c7cc(S(=O)(=O)[O-])ccc7F)c7ccc4[nH]7)C=C6)C=C5)cc3)n(Cc3ccccc3F)c3ccccc23)CC1
REMARK SMILES IDX 15 1 14 2 13 3 12 4 10 5 11 6 9 7 8 8 98 9 84 10 93 11 97 12
REMARK SMILES IDX 94 13 96 14 95 15 7 16 6 17 5 20 1 21 2 22 3 23 100 24 4 25
REMARK SMILES IDX 99 26 85 27 86 28 87 29 91 30 88 31 90 32 92 33 89 34 16 35
REMARK SMILES IDX 17 36 18 37 19 38 20 39 21 40 22 41 83 42 23 43 82 44 24 45
REMARK SMILES IDX 25 46 26 47 76 48 27 49 81 50 75 51 77 52 28 53 80 54 74 55
REMARK SMILES IDX 73 56 29 58 61 59 41 60 60 61 42 62 45 63 59 64 78 65 43 66
REMARK SMILES IDX 44 67 58 69 79 70 46 71 30 72 31 73 39 74 32 75 38 76 40 77
REMARK SMILES IDX 37 78 33 79 34 80 35 81 36 82 62 83 63 84 71 85 64 86 70 87
REMARK SMILES IDX 72 88 69 89 65 90 66 91 67 92 68 93 47 94 48 95 56 96 49 97
REMARK SMILES IDX 55 98 57 99 54 100 50 101 51 102 52 103 53 104
REMARK H PARENT 6 18 6 19 77 57 45 68
REMARK Flexibility Score: inf
ROOT
ATOM      1  O   UNL     1      -0.877  -0.788   5.067  1.00  0.00    -0.374 OA
ENDROOT
BRANCH   1   2
ATOM      2  C   UNL     1      -0.397   0.263   4.238  1.00  0.00     0.202 C 
BRANCH   2   3
ATOM      3  C   UNL     1      -0.320   0.030   2.724  1.00  0.00     0.261 C 
BRANCH   3   4
ATOM      4  O   UNL     1      -1.350  -0.811   2.172  1.00  0.00    -0.459 OA
BRANCH   4   5
ATOM      5  C   UNL     1      -0.929  -2.065   1.834  1.00  0.00     0.355 C 
ATOM      6  O   UNL     1       0.222  -2.461   2.001  1.00  0.00    -0.244 OA
BRANCH   5   7
ATOM      7  C   UNL     1      -1.991  -2.880   1.244  1.00  0.00     0.137 A 
ATOM      8  C   UNL     1      -3.058  -2.541   0.385  1.00  0.00     0.047 A 
ATOM      9  C   UNL     1      -3.699  -3.772  -0.003  1.00  0.00     0.009 A 
ATOM     10  N   UNL     1      -1.986  -4.276   1.330  1.00  0.00    -0.330 N 
ATOM     11  C   UNL     1      -2.930  -4.823   0.477  1.00  0.00     0.050 A 
ATOM     12  C   UNL     1      -4.818  -4.071  -0.817  1.00  0.00     0.011 A 
ATOM     13  C   UNL     1      -3.171  -6.151   0.080  1.00  0.00     0.027 A 
ATOM     14  C   UNL     1      -5.102  -5.396  -1.161  1.00  0.00     0.001 A 
ATOM     15  C   UNL     1      -4.270  -6.421  -0.736  1.00  0.00     0.002 A 
BRANCH   8  16
ATOM     16  C   UNL     1      -3.515  -1.235  -0.227  1.00  0.00     0.300 C 
BRANCH  16  17
ATOM     17  N   UNL     1      -2.538  -0.172  -0.237  1.00  0.00    -0.340 N 
ATOM     18  H   UNL     1      -3.057   0.706  -0.228  1.00  0.00     0.346 HD
ATOM     19  H   UNL     1      -1.955  -0.380   0.574  1.00  0.00     0.346 HD
BRANCH  17  20
ATOM     20  C   UNL     1      -1.562  -0.080  -1.343  1.00  0.00     0.182 C 
ATOM     21  C   UNL     1       2.809  -0.170  -0.655  1.00  0.00     0.007 C 
ATOM     22  C   UNL     1       1.294  -0.162  -0.787  1.00  0.00    -0.014 C 
ATOM     23  C   UNL     1       0.774  -1.203  -1.770  1.00  0.00     0.009 C 
ATOM     24  C   UNL     1       0.740   1.178  -1.246  1.00  0.00     0.009 C 
ATOM     25  C   UNL     1      -0.734  -1.359  -1.608  1.00  0.00     0.065 C 
ATOM     26  C   UNL     1      -0.766   1.216  -1.052  1.00  0.00     0.065 C 
ENDBRANCH  17  20
ENDBRANCH  16  17
ENDBRANCH   8  16
BRANCH  10  27
ATOM     27  C   UNL     1      -1.063  -5.100   2.118  1.00  0.00     0.161 C 
BRANCH  27  28
ATOM     28  C   UNL     1      -1.656  -5.582   3.419  1.00  0.00     0.008 A 
ATOM     29  C   UNL     1      -2.512  -6.692   3.472  1.00  0.00     0.008 A 
ATOM     30  C   UNL     1      -1.323  -4.960   4.624  1.00  0.00     0.128 A 
ATOM     31  C   UNL     1      -3.009  -7.163   4.691  1.00  0.00     0.001 A 
ATOM     32  C   UNL     1      -1.807  -5.426   5.845  1.00  0.00     0.039 A 
ATOM     33  F   UNL     1      -0.497  -3.906   4.627  1.00  0.00    -0.207 F 
ATOM     34  C   UNL     1      -2.651  -6.533   5.880  1.00  0.00     0.003 A 
ENDBRANCH  27  28
ENDBRANCH  10  27
ENDBRANCH   5   7
ENDBRANCH   4   5
ENDBRANCH   3   4
ENDBRANCH   2   3
ENDBRANCH   1   2
BRANCH   1  35
ATOM     35  C   UNL     1      -2.245  -1.178   4.932  1.00  0.00     0.202 C 
BRANCH  35  36
ATOM     36  C   UNL     1      -3.322  -0.091   5.068  1.00  0.00     0.261 C 
BRANCH  36  37
ATOM     37  O   UNL     1      -3.227   0.878   4.014  1.00  0.00    -0.460 OA
BRANCH  37  38
ATOM     38  C   UNL     1      -3.461   2.162   4.392  1.00  0.00     0.338 C 
ATOM     39  O   UNL     1      -4.014   2.543   5.411  1.00  0.00    -0.246 OA
BRANCH  38  40
ATOM     40  C   UNL     1      -2.648   3.014   3.507  1.00  0.00     0.060 A 
ATOM     41  C   UNL     1      -2.803   2.958   2.125  1.00  0.00     0.016 A 
ATOM     42  C   UNL     1      -1.598   3.745   4.085  1.00  0.00     0.016 A 
ATOM     43  C   UNL     1      -1.871   3.607   1.323  1.00  0.00     0.010 A 
ATOM     44  C   UNL     1      -0.638   4.350   3.272  1.00  0.00     0.010 A 
ATOM     45  C   UNL     1      -0.755   4.255   1.884  1.00  0.00    -0.014 A 
BRANCH  45  46
ATOM     46  C   UNL     1       0.178   4.902   0.950  1.00  0.00     0.031 A 
ATOM     47  C   UNL     1      -0.397   6.024   0.159  1.00  0.00     0.074 A 
ATOM     48  C   UNL     1       1.505   4.688   0.836  1.00  0.00     0.049 A 
ATOM     49  N   UNL     1      -0.480   6.152  -1.126  1.00  0.00    -0.248 NA
ATOM     50  C   UNL     1      -0.999   7.124   0.924  1.00  0.00     0.031 C 
ATOM     51  C   UNL     1       2.375   3.966   1.764  1.00  0.00     0.029 A 
ATOM     52  N   UNL     1       2.377   5.187  -0.100  1.00  0.00    -0.354 N 
ATOM     53  C   UNL     1      -1.023   7.417  -1.343  1.00  0.00     0.074 A 
ATOM     54  C   UNL     1      -1.421   7.924  -0.052  1.00  0.00     0.031 C 
ATOM     55  C   UNL     1       3.662   4.266   1.476  1.00  0.00     0.029 A 
ATOM     56  C   UNL     1       3.707   5.075   0.264  1.00  0.00     0.049 A 
ATOM     57  H   UNL     1       2.084   5.587  -0.950  1.00  0.00     0.167 HD
ATOM     58  C   UNL     1      -0.976   8.051  -2.545  1.00  0.00     0.034 A 
ATOM     59  C   UNL     1       4.776   5.665  -0.322  1.00  0.00     0.034 A 
ATOM     60  C   UNL     1      -0.571   7.191  -3.616  1.00  0.00     0.049 A 
ATOM     61  C   UNL     1       4.454   6.103  -1.700  1.00  0.00     0.074 A 
ATOM     62  C   UNL     1      -1.150   6.187  -4.356  1.00  0.00     0.029 A 
ATOM     63  N   UNL     1       0.767   7.189  -3.904  1.00  0.00    -0.354 N 
ATOM     64  N   UNL     1       4.262   5.312  -2.718  1.00  0.00    -0.248 NA
ATOM     65  C   UNL     1       4.145   7.508  -1.946  1.00  0.00     0.031 C 
ATOM     66  C   UNL     1      -0.076   5.430  -4.902  1.00  0.00     0.029 A 
ATOM     67  C   UNL     1       1.125   5.983  -4.455  1.00  0.00     0.049 A 
ATOM     68  H   UNL     1       1.381   7.940  -3.740  1.00  0.00     0.167 HD
ATOM     69  C   UNL     1       3.428   6.022  -3.561  1.00  0.00     0.074 A 
ATOM     70  C   UNL     1       3.565   7.407  -3.143  1.00  0.00     0.031 C 
ATOM     71  C   UNL     1       2.451   5.404  -4.287  1.00  0.00     0.034 A 
BRANCH  58  72
ATOM     72  C   UNL     1      -1.030   9.546  -2.711  1.00  0.00     0.023 A 
ATOM     73  C   UNL     1      -0.650  10.426  -1.680  1.00  0.00     0.031 A 
ATOM     74  C   UNL     1      -1.269  10.130  -3.970  1.00  0.00     0.131 A 
ATOM     75  C   UNL     1      -0.594  11.810  -1.885  1.00  0.00     0.055 A 
ATOM     76  C   UNL     1      -1.141  11.506  -4.194  1.00  0.00     0.041 A 
ATOM     77  F   UNL     1      -1.601   9.374  -5.029  1.00  0.00    -0.206 F 
ATOM     78  C   UNL     1      -0.817  12.357  -3.145  1.00  0.00     0.022 A 
BRANCH  75  79
ATOM     79  S   UNL     1      -0.277  12.925  -0.491  1.00  0.00     0.124 S 
ATOM     80  O   UNL     1       1.056  13.425  -0.808  1.00  0.00    -0.237 OA
ATOM     81  O   UNL     1      -1.365  13.891  -0.623  1.00  0.00    -0.237 OA
ATOM     82  O   UNL     1      -0.373  12.046   0.670  1.00  0.00    -0.744 OA
ENDBRANCH  75  79
ENDBRANCH  58  72
BRANCH  59  83
ATOM     83  C   UNL     1       5.999   6.139   0.364  1.00  0.00     0.023 A 
ATOM     84  C   UNL     1       5.904   6.671   1.664  1.00  0.00     0.031 A 
ATOM     85  C   UNL     1       7.208   6.322  -0.325  1.00  0.00     0.131 A 
ATOM     86  C   UNL     1       6.977   7.373   2.226  1.00  0.00     0.055 A 
ATOM     87  C   UNL     1       8.281   7.021   0.239  1.00  0.00     0.041 A 
ATOM     88  F   UNL     1       7.353   5.870  -1.580  1.00  0.00    -0.206 F 
ATOM     89  C   UNL     1       8.166   7.558   1.518  1.00  0.00     0.022 A 
BRANCH  86  90
ATOM     90  S   UNL     1       6.830   8.100   3.881  1.00  0.00     0.124 S 
ATOM     91  O   UNL     1       8.080   7.684   4.513  1.00  0.00    -0.237 OA
ATOM     92  O   UNL     1       6.724   9.522   3.574  1.00  0.00    -0.237 OA
ATOM     93  O   UNL     1       5.628   7.473   4.423  1.00  0.00    -0.744 OA
ENDBRANCH  86  90
ENDBRANCH  59  83
BRANCH  71  94
ATOM     94  C   UNL     1       2.630   3.958  -4.689  1.00  0.00     0.023 A 
ATOM     95  C   UNL     1       2.372   3.616  -6.035  1.00  0.00     0.031 A 
ATOM     96  C   UNL     1       2.897   2.906  -3.800  1.00  0.00     0.131 A 
ATOM     97  C   UNL     1       2.345   2.274  -6.438  1.00  0.00     0.055 A 
ATOM     98  C   UNL     1       2.965   1.578  -4.234  1.00  0.00     0.041 A 
ATOM     99  F   UNL     1       3.009   3.107  -2.479  1.00  0.00    -0.206 F 
ATOM    100  C   UNL     1       2.667   1.251  -5.549  1.00  0.00     0.022 A 
BRANCH  97 101
ATOM    101  S   UNL     1       1.787   1.802  -8.094  1.00  0.00     0.124 S 
ATOM    102  O   UNL     1       2.920   1.030  -8.598  1.00  0.00    -0.237 OA
ATOM    103  O   UNL     1       0.584   1.025  -7.800  1.00  0.00    -0.237 OA
ATOM    104  O   UNL     1       1.554   3.077  -8.766  1.00  0.00    -0.744 OA
ENDBRANCH  97 101
ENDBRANCH  71  94
ENDBRANCH  45  46
ENDBRANCH  38  40
ENDBRANCH  37  38
ENDBRANCH  36  37
ENDBRANCH  35  36
ENDBRANCH   1  35
TORSDOF 22
