REMARK SMILES O=C(OCCOCCOC(=O)[C@H]1CCC[C@@H]1C[NH2+][C@@H]1CCOC2(CCC2)C1)c1ccc(-c2c3nc(c(-c4cc(S(=O)(=O)[O-])ccc4F)c4ccc([nH]4)c(-c4cc(S(=O)(=O)[O-])ccc4F)c4nc(c(-c5cc(S(=O)(=O)[O-])ccc5F)c5ccc2[nH]5)C=C4)C=C3)cc1
REMARK SMILES IDX 6 1 5 2 4 3 3 4 2 5 1 6 28 7 29 8 90 9 30 10 89 11 31 12
REMARK SMILES IDX 32 13 33 14 83 15 34 16 88 17 82 18 84 19 35 20 87 21 81 22
REMARK SMILES IDX 80 23 36 25 68 26 48 27 67 28 49 29 52 30 66 31 85 32 50 33
REMARK SMILES IDX 51 34 65 36 86 37 53 38 37 39 38 40 46 41 39 42 45 43 47 44
REMARK SMILES IDX 44 45 40 46 41 47 42 48 43 49 69 50 70 51 78 52 71 53 77 54
REMARK SMILES IDX 79 55 76 56 72 57 73 58 74 59 75 60 54 61 55 62 63 63 56 64
REMARK SMILES IDX 62 65 64 66 61 67 57 68 58 69 59 70 60 71 7 72 8 73 9 74
REMARK SMILES IDX 10 75 11 76 12 77 13 78 16 79 14 80 15 81 17 82 18 83 19 86
REMARK SMILES IDX 20 87 27 88 21 89 23 90 22 91 24 92 26 93 25 94
REMARK H PARENT 84 24 52 35 18 84 18 85
REMARK Flexibility Score: inf
ROOT
ATOM      1  O   UNL     1       3.186  -0.621   6.852  1.00  0.00    -0.374 OA
ENDROOT
BRANCH   1   2
ATOM      2  C   UNL     1       2.914   0.537   6.073  1.00  0.00     0.202 C 
BRANCH   2   3
ATOM      3  C   UNL     1       1.932   1.545   6.670  1.00  0.00     0.261 C 
BRANCH   3   4
ATOM      4  O   UNL     1       2.370   1.922   7.979  1.00  0.00    -0.460 OA
BRANCH   4   5
ATOM      5  C   UNL     1       2.068   1.245   9.114  1.00  0.00     0.338 C 
ATOM      6  O   UNL     1       2.649   1.535  10.158  1.00  0.00    -0.246 OA
BRANCH   5   7
ATOM      7  C   UNL     1       1.002   0.203   9.151  1.00  0.00     0.060 A 
ATOM      8  C   UNL     1       0.769  -0.716   8.129  1.00  0.00     0.016 A 
ATOM      9  C   UNL     1       0.240   0.089  10.319  1.00  0.00     0.016 A 
ATOM     10  C   UNL     1      -0.129  -1.737   8.236  1.00  0.00     0.010 A 
ATOM     11  C   UNL     1      -0.676  -0.956  10.454  1.00  0.00     0.010 A 
ATOM     12  C   UNL     1      -0.817  -1.885   9.419  1.00  0.00    -0.014 A 
BRANCH  12  13
ATOM     13  C   UNL     1      -1.721  -3.024   9.436  1.00  0.00     0.031 A 
ATOM     14  C   UNL     1      -3.154  -2.759   9.154  1.00  0.00     0.074 A 
ATOM     15  C   UNL     1      -1.180  -4.255   9.469  1.00  0.00     0.049 A 
ATOM     16  N   UNL     1      -4.162  -3.571   9.237  1.00  0.00    -0.248 NA
ATOM     17  C   UNL     1      -3.497  -1.397   8.700  1.00  0.00     0.031 C 
ATOM     18  C   UNL     1       0.263  -4.547   9.477  1.00  0.00     0.029 A 
ATOM     19  N   UNL     1      -1.762  -5.488   9.459  1.00  0.00    -0.354 N 
ATOM     20  C   UNL     1      -5.273  -2.804   8.925  1.00  0.00     0.074 A 
ATOM     21  C   UNL     1      -4.815  -1.475   8.596  1.00  0.00     0.031 C 
ATOM     22  C   UNL     1       0.443  -5.876   9.485  1.00  0.00     0.029 A 
ATOM     23  C   UNL     1      -0.857  -6.513   9.608  1.00  0.00     0.049 A 
ATOM     24  H   UNL     1      -2.731  -5.630   9.357  1.00  0.00     0.167 HD
ATOM     25  C   UNL     1      -6.561  -3.204   8.973  1.00  0.00     0.034 A 
ATOM     26  C   UNL     1      -1.083  -7.803   9.916  1.00  0.00     0.034 A 
ATOM     27  C   UNL     1      -6.918  -4.554   9.318  1.00  0.00     0.049 A 
ATOM     28  C   UNL     1      -2.529  -8.190  10.103  1.00  0.00     0.074 A 
ATOM     29  C   UNL     1      -8.171  -5.107   9.479  1.00  0.00     0.029 A 
ATOM     30  N   UNL     1      -5.992  -5.567   9.567  1.00  0.00    -0.354 N 
ATOM     31  N   UNL     1      -3.606  -7.453   9.921  1.00  0.00    -0.248 NA
ATOM     32  C   UNL     1      -2.798  -9.552  10.565  1.00  0.00     0.031 C 
ATOM     33  C   UNL     1      -8.000  -6.431   9.900  1.00  0.00     0.029 A 
ATOM     34  C   UNL     1      -6.643  -6.729   9.926  1.00  0.00     0.049 A 
ATOM     35  H   UNL     1      -5.015  -5.466   9.497  1.00  0.00     0.167 HD
ATOM     36  C   UNL     1      -4.683  -8.266  10.242  1.00  0.00     0.074 A 
ATOM     37  C   UNL     1      -4.123  -9.560  10.594  1.00  0.00     0.031 C 
ATOM     38  C   UNL     1      -6.011  -7.984  10.265  1.00  0.00     0.034 A 
BRANCH  25  39
ATOM     39  C   UNL     1      -7.614  -2.145   8.816  1.00  0.00     0.023 A 
ATOM     40  C   UNL     1      -7.832  -1.466   7.606  1.00  0.00     0.031 A 
ATOM     41  C   UNL     1      -8.358  -1.748   9.942  1.00  0.00     0.131 A 
ATOM     42  C   UNL     1      -8.736  -0.392   7.565  1.00  0.00     0.055 A 
ATOM     43  C   UNL     1      -9.304  -0.726   9.878  1.00  0.00     0.041 A 
ATOM     44  F   UNL     1      -8.152  -2.329  11.135  1.00  0.00    -0.206 F 
ATOM     45  C   UNL     1      -9.492  -0.035   8.685  1.00  0.00     0.022 A 
BRANCH  42  46
ATOM     46  S   UNL     1      -8.827   0.616   6.059  1.00  0.00     0.124 S 
ATOM     47  O   UNL     1      -7.485   1.192   6.009  1.00  0.00    -0.237 OA
ATOM     48  O   UNL     1      -9.136  -0.373   5.032  1.00  0.00    -0.237 OA
ATOM     49  O   UNL     1      -9.897   1.569   6.347  1.00  0.00    -0.744 OA
ENDBRANCH  42  46
ENDBRANCH  25  39
BRANCH  26  50
ATOM     50  C   UNL     1       0.039  -8.741  10.218  1.00  0.00     0.023 A 
ATOM     51  C   UNL     1       0.156  -9.970   9.555  1.00  0.00     0.031 A 
ATOM     52  C   UNL     1       0.969  -8.463  11.242  1.00  0.00     0.131 A 
ATOM     53  C   UNL     1       1.131 -10.897   9.961  1.00  0.00     0.055 A 
ATOM     54  C   UNL     1       1.983  -9.356  11.591  1.00  0.00     0.041 A 
ATOM     55  F   UNL     1       0.905  -7.312  11.931  1.00  0.00    -0.206 F 
ATOM     56  C   UNL     1       2.055 -10.593  10.963  1.00  0.00     0.022 A 
BRANCH  53  57
ATOM     57  S   UNL     1       1.081 -12.568   9.257  1.00  0.00     0.124 S 
ATOM     58  O   UNL     1      -0.303 -12.954   9.507  1.00  0.00    -0.237 OA
ATOM     59  O   UNL     1       1.437 -12.320   7.864  1.00  0.00    -0.237 OA
ATOM     60  O   UNL     1       2.082 -13.295  10.036  1.00  0.00    -0.744 OA
ENDBRANCH  53  57
ENDBRANCH  26  50
BRANCH  38  61
ATOM     61  C   UNL     1      -6.918  -9.114  10.658  1.00  0.00     0.023 A 
ATOM     62  C   UNL     1      -6.948  -9.593  11.976  1.00  0.00     0.031 A 
ATOM     63  C   UNL     1      -7.773  -9.692   9.707  1.00  0.00     0.131 A 
ATOM     64  C   UNL     1      -7.794 -10.659  12.301  1.00  0.00     0.055 A 
ATOM     65  C   UNL     1      -8.660 -10.708  10.052  1.00  0.00     0.041 A 
ATOM     66  F   UNL     1      -7.773  -9.261   8.435  1.00  0.00    -0.206 F 
ATOM     67  C   UNL     1      -8.666 -11.204  11.353  1.00  0.00     0.022 A 
BRANCH  64  68
ATOM     68  S   UNL     1      -7.689 -11.369  13.963  1.00  0.00     0.124 S 
ATOM     69  O   UNL     1      -6.314 -11.856  13.997  1.00  0.00    -0.237 OA
ATOM     70  O   UNL     1      -7.979 -10.220  14.815  1.00  0.00    -0.237 OA
ATOM     71  O   UNL     1      -8.717 -12.408  13.956  1.00  0.00    -0.744 OA
ENDBRANCH  64  68
ENDBRANCH  38  61
ENDBRANCH  12  13
ENDBRANCH   5   7
ENDBRANCH   4   5
ENDBRANCH   3   4
ENDBRANCH   2   3
ENDBRANCH   1   2
BRANCH   1  72
ATOM     72  C   UNL     1       4.426  -0.679   7.536  1.00  0.00     0.202 C 
BRANCH  72  73
ATOM     73  C   UNL     1       5.356  -1.636   6.797  1.00  0.00     0.261 C 
BRANCH  73  74
ATOM     74  O   UNL     1       5.750  -1.013   5.563  1.00  0.00    -0.463 OA
BRANCH  74  75
ATOM     75  C   UNL     1       4.905  -1.149   4.501  1.00  0.00     0.309 C 
ATOM     76  O   UNL     1       4.005  -1.959   4.416  1.00  0.00    -0.252 OA
BRANCH  75  77
ATOM     77  C   UNL     1       5.204  -0.117   3.416  1.00  0.00     0.108 C 
ATOM     78  C   UNL     1       4.428   1.206   3.386  1.00  0.00     0.016 C 
ATOM     79  C   UNL     1       6.647   0.385   3.463  1.00  0.00     0.058 C 
ATOM     80  C   UNL     1       5.277   2.247   4.141  1.00  0.00     0.001 C 
ATOM     81  C   UNL     1       6.605   1.565   4.439  1.00  0.00     0.010 C 
BRANCH  79  82
ATOM     82  C   UNL     1       7.074   0.858   2.074  1.00  0.00     0.265 C 
BRANCH  82  83
ATOM     83  N   UNL     1       6.970  -0.278   1.170  1.00  0.00    -0.343 N 
ATOM     84  H   UNL     1       5.980  -0.461   1.005  1.00  0.00     0.346 HD
ATOM     85  H   UNL     1       7.455  -1.050   1.626  1.00  0.00     0.346 HD
BRANCH  83  86
ATOM     86  C   UNL     1       7.616  -0.097  -0.121  1.00  0.00     0.187 C 
ATOM     87  C   UNL     1       7.596  -1.434  -0.881  1.00  0.00     0.093 C 
ATOM     88  C   UNL     1       9.059   0.397  -0.001  1.00  0.00     0.100 C 
ATOM     89  C   UNL     1       8.598  -2.442  -0.317  1.00  0.00     0.167 C 
ATOM     90  C   UNL     1       9.916  -0.660   0.697  1.00  0.00     0.074 C 
ATOM     91  O   UNL     1       9.893  -1.849  -0.140  1.00  0.00    -0.375 OA
ATOM     92  C   UNL     1      11.317  -0.072   1.033  1.00  0.00     0.036 C 
ATOM     93  C   UNL     1       9.825  -0.971   2.244  1.00  0.00     0.036 C 
ATOM     94  C   UNL     1      11.358  -0.996   2.263  1.00  0.00     0.006 C 
ENDBRANCH  83  86
ENDBRANCH  82  83
ENDBRANCH  79  82
ENDBRANCH  75  77
ENDBRANCH  74  75
ENDBRANCH  73  74
ENDBRANCH  72  73
ENDBRANCH   1  72
TORSDOF 20
