REMARK SMILES Cc1ccnc(C(=O)c2[nH]c3cc(Cl)c(F)cc3c2CC(=O)OCCOCCOC(=O)c2ccc(-c3c4nc(c(-c5cc(S(=O)(=O)[O-])ccc5F)c5ccc([nH]5)c(-c5cc(S(=O)(=O)[O-])ccc5F)c5nc(c(-c6cc(S(=O)(=O)[O-])ccc6F)c6ccc3[nH]6)C=C5)C=C4)cc2)c1
REMARK SMILES IDX 26 1 25 2 24 3 23 4 21 5 22 6 20 7 19 8 9 9 10 10 11 11
REMARK SMILES IDX 18 13 12 14 17 15 13 16 15 17 14 18 16 19 7 20 8 21 6 22
REMARK SMILES IDX 1 23 2 24 3 25 95 26 4 27 5 28 27 29 28 30 29 31 30 32 31 33
REMARK SMILES IDX 32 34 33 35 94 36 34 37 93 38 35 39 36 40 37 41 87 42 38 43
REMARK SMILES IDX 92 44 86 45 88 46 39 47 91 48 85 49 84 50 40 52 72 53 52 54
REMARK SMILES IDX 71 55 53 56 56 57 70 58 89 59 54 60 55 61 69 63 90 64 57 65
REMARK SMILES IDX 41 66 42 67 50 68 43 69 49 70 51 71 48 72 44 73 45 74 46 75
REMARK SMILES IDX 47 76 73 77 74 78 82 79 75 80 81 81 83 82 80 83 76 84 77 85
REMARK SMILES IDX 78 86 79 87 58 88 59 89 67 90 60 91 66 92 68 93 65 94 61 95
REMARK SMILES IDX 62 96 63 97 64 98
REMARK H PARENT 10 12 88 51 56 62
REMARK Flexibility Score: inf
ROOT
ATOM      1  O   UNL     1      -2.112  -0.399  -1.132  1.00  0.00    -0.374 OA
ENDROOT
BRANCH   1   2
ATOM      2  C   UNL     1      -2.353  -0.559  -2.524  1.00  0.00     0.202 C 
BRANCH   2   3
ATOM      3  C   UNL     1      -2.881  -1.977  -2.772  1.00  0.00     0.261 C 
BRANCH   3   4
ATOM      4  O   UNL     1      -1.853  -2.983  -2.493  1.00  0.00    -0.463 OA
BRANCH   4   5
ATOM      5  C   UNL     1      -0.783  -2.985  -3.327  1.00  0.00     0.310 C 
ATOM      6  O   UNL     1      -0.826  -2.503  -4.457  1.00  0.00    -0.252 OA
BRANCH   5   7
ATOM      7  C   UNL     1       0.523  -3.553  -2.758  1.00  0.00     0.161 C 
BRANCH   7   8
ATOM      8  C   UNL     1       0.710  -3.906  -1.276  1.00  0.00     0.000 A 
ATOM      9  C   UNL     1       1.551  -3.353  -0.260  1.00  0.00     0.093 A 
ATOM     10  N   UNL     1       1.586  -4.318   0.739  1.00  0.00    -0.351 N 
ATOM     11  C   UNL     1       0.733  -5.363   0.499  1.00  0.00     0.048 A 
ATOM     12  H   UNL     1       2.163  -4.258   1.534  1.00  0.00     0.167 HD
ATOM     13  C   UNL     1       0.122  -5.117  -0.725  1.00  0.00     0.007 A 
ATOM     14  C   UNL     1       0.490  -6.516   1.262  1.00  0.00     0.050 A 
ATOM     15  C   UNL     1      -0.819  -6.063  -1.196  1.00  0.00     0.051 A 
ATOM     16  C   UNL     1      -0.440  -7.436   0.772  1.00  0.00     0.078 A 
ATOM     17  C   UNL     1      -1.092  -7.204  -0.433  1.00  0.00     0.142 A 
ATOM     18  Cl  UNL     1      -0.750  -8.872   1.677  1.00  0.00    -0.081 Cl
ATOM     19  F   UNL     1      -1.987  -8.089  -0.901  1.00  0.00    -0.205 F 
BRANCH   9  20
ATOM     20  C   UNL     1       2.527  -2.238  -0.133  1.00  0.00     0.227 C 
ATOM     21  O   UNL     1       3.725  -2.509  -0.249  1.00  0.00    -0.285 OA
BRANCH  20  22
ATOM     22  C   UNL     1       2.209  -0.785   0.283  1.00  0.00     0.113 A 
ATOM     23  C   UNL     1      -0.564   1.454   1.578  1.00  0.00     0.044 C 
ATOM     24  C   UNL     1       0.815   1.004   1.149  1.00  0.00    -0.047 A 
ATOM     25  C   UNL     1       1.574   1.922   0.437  1.00  0.00     0.023 A 
ATOM     26  C   UNL     1       1.239  -0.356   1.200  1.00  0.00     0.036 A 
ATOM     27  C   UNL     1       2.656   1.443  -0.268  1.00  0.00     0.112 A 
ATOM     28  N   UNL     1       2.960   0.128  -0.394  1.00  0.00    -0.253 NA
ENDBRANCH  20  22
ENDBRANCH   9  20
ENDBRANCH   7   8
ENDBRANCH   5   7
ENDBRANCH   4   5
ENDBRANCH   3   4
ENDBRANCH   2   3
ENDBRANCH   1   2
BRANCH   1  29
ATOM     29  C   UNL     1      -0.984  -1.138  -0.692  1.00  0.00     0.202 C 
BRANCH  29  30
ATOM     30  C   UNL     1      -1.314  -2.190   0.371  1.00  0.00     0.261 C 
BRANCH  30  31
ATOM     31  O   UNL     1      -2.143  -1.568   1.318  1.00  0.00    -0.460 OA
BRANCH  31  32
ATOM     32  C   UNL     1      -2.140  -1.849   2.634  1.00  0.00     0.338 C 
ATOM     33  O   UNL     1      -1.309  -2.418   3.311  1.00  0.00    -0.246 OA
BRANCH  32  34
ATOM     34  C   UNL     1      -3.444  -1.240   2.967  1.00  0.00     0.060 A 
ATOM     35  C   UNL     1      -4.466  -1.843   2.217  1.00  0.00     0.016 A 
ATOM     36  C   UNL     1      -3.372   0.157   3.116  1.00  0.00     0.016 A 
ATOM     37  C   UNL     1      -5.167  -1.038   1.341  1.00  0.00     0.010 A 
ATOM     38  C   UNL     1      -4.124   0.965   2.268  1.00  0.00     0.010 A 
ATOM     39  C   UNL     1      -4.966   0.358   1.336  1.00  0.00    -0.014 A 
BRANCH  39  40
ATOM     40  C   UNL     1      -5.978   1.099   0.599  1.00  0.00     0.031 A 
ATOM     41  C   UNL     1      -7.284   0.938   1.284  1.00  0.00     0.074 A 
ATOM     42  C   UNL     1      -5.894   1.857  -0.504  1.00  0.00     0.049 A 
ATOM     43  N   UNL     1      -8.246   0.143   0.949  1.00  0.00    -0.248 NA
ATOM     44  C   UNL     1      -7.385   1.507   2.635  1.00  0.00     0.031 C 
ATOM     45  C   UNL     1      -4.739   2.451  -1.167  1.00  0.00     0.029 A 
ATOM     46  N   UNL     1      -6.947   2.308  -1.242  1.00  0.00    -0.354 N 
ATOM     47  C   UNL     1      -9.149   0.204   2.001  1.00  0.00     0.074 A 
ATOM     48  C   UNL     1      -8.475   0.887   3.077  1.00  0.00     0.031 C 
ATOM     49  C   UNL     1      -5.179   3.364  -2.072  1.00  0.00     0.029 A 
ATOM     50  C   UNL     1      -6.633   3.297  -2.152  1.00  0.00     0.049 A 
ATOM     51  H   UNL     1      -7.860   1.957  -1.133  1.00  0.00     0.167 HD
ATOM     52  C   UNL     1     -10.453  -0.152   1.862  1.00  0.00     0.034 A 
ATOM     53  C   UNL     1      -7.533   4.056  -2.826  1.00  0.00     0.034 A 
ATOM     54  C   UNL     1     -10.678  -0.900   0.658  1.00  0.00     0.049 A 
ATOM     55  C   UNL     1      -8.848   3.360  -2.803  1.00  0.00     0.074 A 
ATOM     56  C   UNL     1     -10.287  -2.142   0.201  1.00  0.00     0.029 A 
ATOM     57  N   UNL     1     -11.112  -0.207  -0.446  1.00  0.00    -0.354 N 
ATOM     58  N   UNL     1      -9.114   2.264  -3.456  1.00  0.00    -0.248 NA
ATOM     59  C   UNL     1      -9.763   3.672  -1.713  1.00  0.00     0.031 C 
ATOM     60  C   UNL     1     -10.091  -1.980  -1.199  1.00  0.00     0.029 A 
ATOM     61  C   UNL     1     -10.393  -0.654  -1.524  1.00  0.00     0.049 A 
ATOM     62  H   UNL     1     -11.812   0.485  -0.460  1.00  0.00     0.167 HD
ATOM     63  C   UNL     1      -9.943   1.541  -2.610  1.00  0.00     0.074 A 
ATOM     64  C   UNL     1     -10.389   2.499  -1.603  1.00  0.00     0.031 C 
ATOM     65  C   UNL     1      -9.979   0.177  -2.639  1.00  0.00     0.034 A 
BRANCH  52  66
ATOM     66  C   UNL     1     -11.555   0.466   2.676  1.00  0.00     0.023 A 
ATOM     67  C   UNL     1     -11.362   1.632   3.441  1.00  0.00     0.031 A 
ATOM     68  C   UNL     1     -12.884   0.030   2.547  1.00  0.00     0.131 A 
ATOM     69  C   UNL     1     -12.417   2.285   4.078  1.00  0.00     0.055 A 
ATOM     70  C   UNL     1     -13.956   0.729   3.117  1.00  0.00     0.041 A 
ATOM     71  F   UNL     1     -13.187  -1.055   1.817  1.00  0.00    -0.206 F 
ATOM     72  C   UNL     1     -13.725   1.859   3.895  1.00  0.00     0.022 A 
BRANCH  69  73
ATOM     73  S   UNL     1     -12.079   3.703   5.157  1.00  0.00     0.124 S 
ATOM     74  O   UNL     1     -12.754   4.784   4.449  1.00  0.00    -0.237 OA
ATOM     75  O   UNL     1     -12.698   3.277   6.409  1.00  0.00    -0.237 OA
ATOM     76  O   UNL     1     -10.620   3.772   5.185  1.00  0.00    -0.744 OA
ENDBRANCH  69  73
ENDBRANCH  52  66
BRANCH  53  77
ATOM     77  C   UNL     1      -7.453   5.521  -3.030  1.00  0.00     0.023 A 
ATOM     78  C   UNL     1      -6.780   6.314  -2.083  1.00  0.00     0.031 A 
ATOM     79  C   UNL     1      -8.292   6.178  -3.947  1.00  0.00     0.131 A 
ATOM     80  C   UNL     1      -6.990   7.698  -2.036  1.00  0.00     0.055 A 
ATOM     81  C   UNL     1      -8.488   7.564  -3.909  1.00  0.00     0.041 A 
ATOM     82  F   UNL     1      -8.996   5.476  -4.849  1.00  0.00    -0.206 F 
ATOM     83  C   UNL     1      -7.845   8.329  -2.940  1.00  0.00     0.022 A 
BRANCH  80  84
ATOM     84  S   UNL     1      -6.216   8.692  -0.732  1.00  0.00     0.124 S 
ATOM     85  O   UNL     1      -5.655   9.809  -1.488  1.00  0.00    -0.237 OA
ATOM     86  O   UNL     1      -7.360   9.015   0.114  1.00  0.00    -0.237 OA
ATOM     87  O   UNL     1      -5.230   7.786  -0.150  1.00  0.00    -0.744 OA
ENDBRANCH  80  84
ENDBRANCH  53  77
BRANCH  65  88
ATOM     88  C   UNL     1      -9.303  -0.550  -3.779  1.00  0.00     0.023 A 
ATOM     89  C   UNL     1     -10.044  -1.560  -4.419  1.00  0.00     0.031 A 
ATOM     90  C   UNL     1      -7.928  -0.467  -4.066  1.00  0.00     0.131 A 
ATOM     91  C   UNL     1      -9.406  -2.482  -5.255  1.00  0.00     0.055 A 
ATOM     92  C   UNL     1      -7.310  -1.341  -4.967  1.00  0.00     0.041 A 
ATOM     93  F   UNL     1      -7.126   0.389  -3.417  1.00  0.00    -0.206 F 
ATOM     94  C   UNL     1      -8.045  -2.369  -5.549  1.00  0.00     0.022 A 
BRANCH  91  95
ATOM     95  S   UNL     1     -10.290  -3.954  -5.831  1.00  0.00     0.124 S 
ATOM     96  O   UNL     1     -10.227  -3.805  -7.282  1.00  0.00    -0.237 OA
ATOM     97  O   UNL     1      -9.477  -5.035  -5.276  1.00  0.00    -0.237 OA
ATOM     98  O   UNL     1     -11.622  -3.821  -5.248  1.00  0.00    -0.744 OA
ENDBRANCH  91  95
ENDBRANCH  65  88
ENDBRANCH  39  40
ENDBRANCH  32  34
ENDBRANCH  31  32
ENDBRANCH  30  31
ENDBRANCH  29  30
ENDBRANCH   1  29
TORSDOF 20
