REMARK SMILES C[NH2+]CCCC(=O)N[C@H]1C=C[C@@H](C(=O)OCCOCCOC(=O)c2ccc(-c3c4nc(c(-c5cc(S(=O)(=O)[O-])ccc5F)c5ccc([nH]5)c(-c5cc(S(=O)(=O)[O-])ccc5F)c5nc(c(-c6cc(S(=O)(=O)[O-])ccc6F)c6ccc3[nH]6)C=C5)C=C4)cc2)C1
REMARK SMILES IDX 17 1 16 2 15 3 13 4 14 5 12 6 9 7 10 8 87 9 11 10 8 11 6 12
REMARK SMILES IDX 7 13 5 15 4 16 3 17 2 18 1 19 18 22 19 23 20 24 21 25 22 26
REMARK SMILES IDX 23 27 24 28 25 29 86 30 26 31 85 32 27 33 28 34 29 35 79 36
REMARK SMILES IDX 30 37 84 38 78 39 80 40 31 41 83 42 77 43 76 44 32 46 64 47
REMARK SMILES IDX 44 48 63 49 45 50 48 51 62 52 81 53 46 54 47 55 61 57 82 58
REMARK SMILES IDX 49 59 33 60 34 61 42 62 35 63 41 64 43 65 40 66 36 67 37 68
REMARK SMILES IDX 38 69 39 70 65 71 66 72 74 73 67 74 73 75 75 76 72 77 68 78
REMARK SMILES IDX 69 79 70 80 71 81 50 82 51 83 59 84 52 85 58 86 60 87 57 88
REMARK SMILES IDX 53 89 54 90 55 91 56 92
REMARK H PARENT 8 14 2 20 2 21 80 45 48 56
REMARK Flexibility Score: inf
ROOT
ATOM      1  C   UNL     1       4.531  -0.585   3.557  1.00  0.00     0.202 C 
ENDROOT
BRANCH   1   2
ATOM      2  C   UNL     1       4.949   0.863   3.281  1.00  0.00     0.261 C 
BRANCH   2   3
ATOM      3  O   UNL     1       3.789   1.595   2.860  1.00  0.00    -0.463 OA
BRANCH   3   4
ATOM      4  C   UNL     1       3.961   2.575   1.938  1.00  0.00     0.312 C 
ATOM      5  O   UNL     1       5.042   3.003   1.554  1.00  0.00    -0.252 OA
BRANCH   4   6
ATOM      6  C   UNL     1       2.625   2.975   1.321  1.00  0.00     0.124 C 
ATOM      7  C   UNL     1       0.245   3.255   1.559  1.00  0.00     0.106 C 
ATOM      8  C   UNL     1       0.940   4.585   1.532  1.00  0.00    -0.006 C 
ATOM      9  C   UNL     1       1.400   2.372   2.007  1.00  0.00     0.048 C 
ATOM     10  C   UNL     1       2.267   4.429   1.381  1.00  0.00    -0.014 C 
BRANCH   7  11
ATOM     11  N   UNL     1      -0.907   3.257   2.420  1.00  0.00    -0.350 N 
ATOM     12  C   UNL     1      -1.809   2.252   2.630  1.00  0.00     0.220 C 
ATOM     13  O   UNL     1      -2.926   2.549   3.058  1.00  0.00    -0.275 OA
ATOM     14  H   UNL     1      -1.067   4.088   2.922  1.00  0.00     0.164 HD
BRANCH  12  15
ATOM     15  C   UNL     1      -1.438   0.798   2.393  1.00  0.00     0.106 C 
BRANCH  15  16
ATOM     16  C   UNL     1      -2.065   0.140   1.164  1.00  0.00     0.071 C 
BRANCH  16  17
ATOM     17  C   UNL     1      -1.721   0.728  -0.211  1.00  0.00     0.260 C 
BRANCH  17  18
ATOM     18  N   UNL     1      -0.322   0.632  -0.631  1.00  0.00    -0.349 N 
ATOM     19  C   UNL     1       0.070  -0.690  -1.089  1.00  0.00     0.330 C 
ATOM     20  H   UNL     1      -0.170   1.293  -1.393  1.00  0.00     0.346 HD
ATOM     21  H   UNL     1       0.246   0.839   0.190  1.00  0.00     0.346 HD
ENDBRANCH  17  18
ENDBRANCH  16  17
ENDBRANCH  15  16
ENDBRANCH  12  15
ENDBRANCH   7  11
ENDBRANCH   4   6
ENDBRANCH   3   4
ENDBRANCH   2   3
ENDBRANCH   1   2
BRANCH   1  22
ATOM     22  O   UNL     1       4.274  -1.366   2.384  1.00  0.00    -0.374 OA
BRANCH  22  23
ATOM     23  C   UNL     1       3.033  -1.145   1.716  1.00  0.00     0.202 C 
BRANCH  23  24
ATOM     24  C   UNL     1       1.812  -1.850   2.320  1.00  0.00     0.261 C 
BRANCH  24  25
ATOM     25  O   UNL     1       1.472  -1.350   3.623  1.00  0.00    -0.460 OA
BRANCH  25  26
ATOM     26  C   UNL     1       1.700  -2.231   4.631  1.00  0.00     0.338 C 
ATOM     27  O   UNL     1       2.089  -3.380   4.524  1.00  0.00    -0.246 OA
BRANCH  26  28
ATOM     28  C   UNL     1       1.580  -1.550   5.934  1.00  0.00     0.060 A 
ATOM     29  C   UNL     1       2.662  -1.667   6.814  1.00  0.00     0.016 A 
ATOM     30  C   UNL     1       0.415  -0.884   6.322  1.00  0.00     0.016 A 
ATOM     31  C   UNL     1       2.566  -1.159   8.105  1.00  0.00     0.010 A 
ATOM     32  C   UNL     1       0.319  -0.377   7.624  1.00  0.00     0.010 A 
ATOM     33  C   UNL     1       1.381  -0.543   8.532  1.00  0.00    -0.014 A 
BRANCH  33  34
ATOM     34  C   UNL     1       1.225  -0.216   9.971  1.00  0.00     0.031 A 
ATOM     35  C   UNL     1       0.452  -1.159  10.854  1.00  0.00     0.074 A 
ATOM     36  C   UNL     1       1.827   0.867  10.494  1.00  0.00     0.049 A 
ATOM     37  N   UNL     1       0.235  -1.101  12.143  1.00  0.00    -0.248 NA
ATOM     38  C   UNL     1      -0.157  -2.323  10.193  1.00  0.00     0.031 C 
ATOM     39  C   UNL     1       2.631   1.829   9.739  1.00  0.00     0.029 A 
ATOM     40  N   UNL     1       1.866   1.335  11.782  1.00  0.00    -0.354 N 
ATOM     41  C   UNL     1      -0.529  -2.222  12.450  1.00  0.00     0.074 A 
ATOM     42  C   UNL     1      -0.777  -2.914  11.203  1.00  0.00     0.031 C 
ATOM     43  C   UNL     1       3.087   2.772  10.581  1.00  0.00     0.029 A 
ATOM     44  C   UNL     1       2.585   2.498  11.926  1.00  0.00     0.049 A 
ATOM     45  H   UNL     1       1.421   0.881  12.534  1.00  0.00     0.167 HD
ATOM     46  C   UNL     1      -0.972  -2.642  13.661  1.00  0.00     0.034 A 
ATOM     47  C   UNL     1       2.803   3.261  13.017  1.00  0.00     0.034 A 
ATOM     48  C   UNL     1      -0.731  -1.929  14.893  1.00  0.00     0.049 A 
ATOM     49  C   UNL     1       2.237   2.813  14.343  1.00  0.00     0.074 A 
ATOM     50  C   UNL     1      -1.125  -2.264  16.177  1.00  0.00     0.029 A 
ATOM     51  N   UNL     1      -0.042  -0.726  14.993  1.00  0.00    -0.354 N 
ATOM     52  N   UNL     1       1.531   1.740  14.623  1.00  0.00    -0.248 NA
ATOM     53  C   UNL     1       2.510   3.671  15.503  1.00  0.00     0.031 C 
ATOM     54  C   UNL     1      -0.738  -1.232  17.039  1.00  0.00     0.029 A 
ATOM     55  C   UNL     1      -0.029  -0.290  16.310  1.00  0.00     0.049 A 
ATOM     56  H   UNL     1       0.377  -0.251  14.239  1.00  0.00     0.167 HD
ATOM     57  C   UNL     1       1.305   1.782  15.997  1.00  0.00     0.074 A 
ATOM     58  C   UNL     1       1.964   2.975  16.488  1.00  0.00     0.031 C 
ATOM     59  C   UNL     1       0.620   0.911  16.783  1.00  0.00     0.034 A 
BRANCH  46  60
ATOM     60  C   UNL     1      -1.805  -3.902  13.695  1.00  0.00     0.023 A 
ATOM     61  C   UNL     1      -1.277  -5.150  13.318  1.00  0.00     0.031 A 
ATOM     62  C   UNL     1      -3.157  -3.849  14.078  1.00  0.00     0.131 A 
ATOM     63  C   UNL     1      -2.113  -6.276  13.261  1.00  0.00     0.055 A 
ATOM     64  C   UNL     1      -3.963  -4.989  14.095  1.00  0.00     0.041 A 
ATOM     65  F   UNL     1      -3.724  -2.683  14.426  1.00  0.00    -0.206 F 
ATOM     66  C   UNL     1      -3.447  -6.209  13.671  1.00  0.00     0.022 A 
BRANCH  63  67
ATOM     67  S   UNL     1      -1.472  -7.797  12.508  1.00  0.00     0.124 S 
ATOM     68  O   UNL     1      -1.114  -7.335  11.169  1.00  0.00    -0.237 OA
ATOM     69  O   UNL     1      -0.359  -8.139  13.386  1.00  0.00    -0.237 OA
ATOM     70  O   UNL     1      -2.611  -8.712  12.559  1.00  0.00    -0.744 OA
ENDBRANCH  63  67
ENDBRANCH  46  60
BRANCH  47  71
ATOM     71  C   UNL     1       3.565   4.538  12.907  1.00  0.00     0.023 A 
ATOM     72  C   UNL     1       4.784   4.722  13.578  1.00  0.00     0.031 A 
ATOM     73  C   UNL     1       3.053   5.617  12.165  1.00  0.00     0.131 A 
ATOM     74  C   UNL     1       5.428   5.969  13.531  1.00  0.00     0.055 A 
ATOM     75  C   UNL     1       3.722   6.839  12.078  1.00  0.00     0.041 A 
ATOM     76  F   UNL     1       1.891   5.496  11.503  1.00  0.00    -0.206 F 
ATOM     77  C   UNL     1       4.911   7.024  12.776  1.00  0.00     0.022 A 
BRANCH  74  78
ATOM     78  S   UNL     1       6.912   6.221  14.544  1.00  0.00     0.124 S 
ATOM     79  O   UNL     1       6.411   5.933  15.883  1.00  0.00    -0.237 OA
ATOM     80  O   UNL     1       7.833   5.241  13.978  1.00  0.00    -0.237 OA
ATOM     81  O   UNL     1       7.261   7.618  14.294  1.00  0.00    -0.744 OA
ENDBRANCH  74  78
ENDBRANCH  47  71
BRANCH  59  82
ATOM     82  C   UNL     1       0.593   1.203  18.265  1.00  0.00     0.023 A 
ATOM     83  C   UNL     1      -0.059   2.334  18.787  1.00  0.00     0.031 A 
ATOM     84  C   UNL     1       1.251   0.346  19.166  1.00  0.00     0.131 A 
ATOM     85  C   UNL     1       0.015   2.612  20.160  1.00  0.00     0.055 A 
ATOM     86  C   UNL     1       1.265   0.593  20.540  1.00  0.00     0.041 A 
ATOM     87  F   UNL     1       1.892  -0.749  18.725  1.00  0.00    -0.206 F 
ATOM     88  C   UNL     1       0.658   1.740  21.042  1.00  0.00     0.022 A 
BRANCH  85  89
ATOM     89  S   UNL     1      -0.650   4.187  20.767  1.00  0.00     0.124 S 
ATOM     90  O   UNL     1       0.095   5.158  19.972  1.00  0.00    -0.237 OA
ATOM     91  O   UNL     1      -2.071   4.066  20.457  1.00  0.00    -0.237 OA
ATOM     92  O   UNL     1      -0.324   4.172  22.192  1.00  0.00    -0.744 OA
ENDBRANCH  85  89
ENDBRANCH  59  82
ENDBRANCH  33  34
ENDBRANCH  26  28
ENDBRANCH  25  26
ENDBRANCH  24  25
ENDBRANCH  23  24
ENDBRANCH  22  23
ENDBRANCH   1  22
TORSDOF 22
