REMARK SMILES Cc1csc([C@H](C)Nc2cc(C)c(N)c(C(=O)OCCOCCOC(=O)c3ccc(-c4c5nc(c(-c6cc(S(=O)(=O)[O-])ccc6F)c6ccc([nH]6)c(-c6cc(S(=O)(=O)[O-])ccc6F)c6nc(c(-c7cc(S(=O)(=O)[O-])ccc7F)c7ccc4[nH]7)C=C6)C=C5)cc3)c2)n1
REMARK SMILES IDX 21 1 20 2 19 3 18 4 16 5 17 6 15 7 9 8 10 9 90 10 11 11
REMARK SMILES IDX 12 12 13 13 8 14 6 16 7 17 5 18 1 19 2 20 3 21 91 22 4 23
REMARK SMILES IDX 14 24 22 27 23 28 24 29 25 30 26 31 27 32 28 33 89 34 29 35
REMARK SMILES IDX 88 36 30 37 31 38 32 39 82 40 33 41 87 42 81 43 83 44 34 45
REMARK SMILES IDX 86 46 80 47 79 48 35 50 67 51 47 52 66 53 48 54 51 55 65 56
REMARK SMILES IDX 84 57 49 58 50 59 64 61 85 62 52 63 36 64 37 65 45 66 38 67
REMARK SMILES IDX 44 68 46 69 43 70 39 71 40 72 41 73 42 74 68 75 69 76 77 77
REMARK SMILES IDX 70 78 76 79 78 80 75 81 71 82 72 83 73 84 74 85 53 86 54 87
REMARK SMILES IDX 62 88 55 89 61 90 63 91 60 92 56 93 57 94 58 95 59 96
REMARK H PARENT 8 15 14 25 14 26 83 49 51 60
REMARK Flexibility Score: inf
ROOT
ATOM      1  O   UNL     1       3.522   2.836   8.050  1.00  0.00    -0.374 OA
ENDROOT
BRANCH   1   2
ATOM      2  C   UNL     1       2.116   2.915   8.289  1.00  0.00     0.202 C 
BRANCH   2   3
ATOM      3  C   UNL     1       1.400   4.119   7.669  1.00  0.00     0.261 C 
BRANCH   3   4
ATOM      4  O   UNL     1       1.502   4.105   6.234  1.00  0.00    -0.460 OA
BRANCH   4   5
ATOM      5  C   UNL     1       2.294   5.072   5.708  1.00  0.00     0.340 C 
ATOM      6  O   UNL     1       2.779   6.018   6.314  1.00  0.00    -0.246 OA
BRANCH   5   7
ATOM      7  C   UNL     1       2.652   4.748   4.302  1.00  0.00     0.085 A 
ATOM      8  C   UNL     1       2.022   3.865   2.113  1.00  0.00     0.036 A 
ATOM      9  C   UNL     1       3.319   4.153   1.678  1.00  0.00     0.031 A 
ATOM     10  C   UNL     1       1.702   4.175   3.440  1.00  0.00     0.043 A 
ATOM     11  C   UNL     1       4.288   4.729   2.523  1.00  0.00    -0.025 A 
ATOM     12  C   UNL     1       5.660   5.004   1.970  1.00  0.00     0.047 C 
ATOM     13  C   UNL     1       3.963   5.025   3.857  1.00  0.00     0.049 A 
BRANCH   8  14
ATOM     14  N   UNL     1       1.086   3.212   1.335  1.00  0.00    -0.376 N 
ATOM     15  H   UNL     1       0.157   3.211   1.659  1.00  0.00     0.161 HD
BRANCH  14  16
ATOM     16  C   UNL     1       1.353   2.519   0.065  1.00  0.00     0.135 C 
ATOM     17  C   UNL     1       0.471   1.260   0.073  1.00  0.00     0.039 C 
BRANCH  16  18
ATOM     18  C   UNL     1       1.166   3.368  -1.196  1.00  0.00     0.115 A 
ATOM     19  C   UNL     1       1.204   6.624  -2.758  1.00  0.00     0.067 C 
ATOM     20  C   UNL     1       1.098   5.162  -2.523  1.00  0.00     0.049 A 
ATOM     21  C   UNL     1       0.822   4.192  -3.463  1.00  0.00     0.090 A 
ATOM     22  N   UNL     1       1.297   4.683  -1.240  1.00  0.00    -0.244 NA
ATOM     23  S   UNL     1       0.854   2.645  -2.737  1.00  0.00    -0.125 S 
ENDBRANCH  16  18
ENDBRANCH  14  16
ENDBRANCH   8  14
BRANCH  13  24
ATOM     24  N   UNL     1       4.968   5.400   4.757  1.00  0.00    -0.398 N 
ATOM     25  H   UNL     1       5.877   5.590   4.429  1.00  0.00     0.156 HD
ATOM     26  H   UNL     1       4.766   5.475   5.718  1.00  0.00     0.156 HD
ENDBRANCH  13  24
ENDBRANCH   5   7
ENDBRANCH   4   5
ENDBRANCH   3   4
ENDBRANCH   2   3
ENDBRANCH   1   2
BRANCH   1  27
ATOM     27  C   UNL     1       3.928   2.257   6.806  1.00  0.00     0.202 C 
BRANCH  27  28
ATOM     28  C   UNL     1       3.908   0.725   6.734  1.00  0.00     0.261 C 
BRANCH  28  29
ATOM     29  O   UNL     1       2.567   0.202   6.757  1.00  0.00    -0.460 OA
BRANCH  29  30
ATOM     30  C   UNL     1       2.223  -0.437   7.900  1.00  0.00     0.338 C 
ATOM     31  O   UNL     1       2.954  -0.685   8.851  1.00  0.00    -0.246 OA
BRANCH  30  32
ATOM     32  C   UNL     1       0.761  -0.642   7.944  1.00  0.00     0.060 A 
ATOM     33  C   UNL     1       0.090  -0.258   9.111  1.00  0.00     0.016 A 
ATOM     34  C   UNL     1       0.064  -1.243   6.893  1.00  0.00     0.016 A 
ATOM     35  C   UNL     1      -1.272  -0.517   9.254  1.00  0.00     0.010 A 
ATOM     36  C   UNL     1      -1.303  -1.510   7.041  1.00  0.00     0.010 A 
ATOM     37  C   UNL     1      -1.969  -1.179   8.235  1.00  0.00    -0.014 A 
BRANCH  37  38
ATOM     38  C   UNL     1      -3.351  -1.661   8.486  1.00  0.00     0.031 A 
ATOM     39  C   UNL     1      -3.559  -3.104   8.857  1.00  0.00     0.074 A 
ATOM     40  C   UNL     1      -4.399  -0.820   8.422  1.00  0.00     0.049 A 
ATOM     41  N   UNL     1      -4.671  -3.753   9.087  1.00  0.00    -0.248 NA
ATOM     42  C   UNL     1      -2.345  -3.925   8.979  1.00  0.00     0.031 C 
ATOM     43  C   UNL     1      -4.317   0.609   8.123  1.00  0.00     0.029 A 
ATOM     44  N   UNL     1      -5.740  -1.049   8.602  1.00  0.00    -0.354 N 
ATOM     45  C   UNL     1      -4.293  -5.059   9.383  1.00  0.00     0.074 A 
ATOM     46  C   UNL     1      -2.852  -5.116   9.258  1.00  0.00     0.031 C 
ATOM     47  C   UNL     1      -5.556   1.128   8.136  1.00  0.00     0.029 A 
ATOM     48  C   UNL     1      -6.522   0.064   8.404  1.00  0.00     0.049 A 
ATOM     49  H   UNL     1      -6.108  -1.928   8.851  1.00  0.00     0.167 HD
ATOM     50  C   UNL     1      -5.075  -6.110   9.739  1.00  0.00     0.034 A 
ATOM     51  C   UNL     1      -7.864   0.202   8.415  1.00  0.00     0.034 A 
ATOM     52  C   UNL     1      -6.513  -6.040   9.843  1.00  0.00     0.049 A 
ATOM     53  C   UNL     1      -8.722  -1.005   8.713  1.00  0.00     0.074 A 
ATOM     54  C   UNL     1      -7.402  -7.040  10.197  1.00  0.00     0.029 A 
ATOM     55  N   UNL     1      -7.275  -4.909   9.579  1.00  0.00    -0.354 N 
ATOM     56  N   UNL     1      -8.353  -2.235   8.993  1.00  0.00    -0.248 NA
ATOM     57  C   UNL     1     -10.177  -0.802   8.703  1.00  0.00     0.031 C 
ATOM     58  C   UNL     1      -8.702  -6.535  10.079  1.00  0.00     0.029 A 
ATOM     59  C   UNL     1      -8.624  -5.196   9.729  1.00  0.00     0.049 A 
ATOM     60  H   UNL     1      -6.911  -4.031   9.323  1.00  0.00     0.167 HD
ATOM     61  C   UNL     1      -9.531  -2.941   9.226  1.00  0.00     0.074 A 
ATOM     62  C   UNL     1     -10.619  -1.998   9.063  1.00  0.00     0.031 C 
ATOM     63  C   UNL     1      -9.700  -4.249   9.552  1.00  0.00     0.034 A 
BRANCH  50  64
ATOM     64  C   UNL     1      -4.385  -7.431   9.984  1.00  0.00     0.023 A 
ATOM     65  C   UNL     1      -3.458  -7.599  11.029  1.00  0.00     0.031 A 
ATOM     66  C   UNL     1      -4.625  -8.526   9.136  1.00  0.00     0.131 A 
ATOM     67  C   UNL     1      -2.751  -8.805  11.150  1.00  0.00     0.055 A 
ATOM     68  C   UNL     1      -3.978  -9.751   9.312  1.00  0.00     0.041 A 
ATOM     69  F   UNL     1      -5.481  -8.419   8.107  1.00  0.00    -0.206 F 
ATOM     70  C   UNL     1      -3.022  -9.890  10.314  1.00  0.00     0.022 A 
BRANCH  67  71
ATOM     71  S   UNL     1      -1.364  -8.883  12.316  1.00  0.00     0.124 S 
ATOM     72  O   UNL     1      -0.510  -7.801  11.833  1.00  0.00    -0.237 OA
ATOM     73  O   UNL     1      -2.018  -8.658  13.600  1.00  0.00    -0.237 OA
ATOM     74  O   UNL     1      -0.825 -10.227  12.118  1.00  0.00    -0.744 OA
ENDBRANCH  67  71
ENDBRANCH  50  64
BRANCH  51  75
ATOM     75  C   UNL     1      -8.492   1.517   8.099  1.00  0.00     0.023 A 
ATOM     76  C   UNL     1      -9.263   2.202   9.051  1.00  0.00     0.031 A 
ATOM     77  C   UNL     1      -8.378   2.080   6.815  1.00  0.00     0.131 A 
ATOM     78  C   UNL     1      -9.927   3.386   8.693  1.00  0.00     0.055 A 
ATOM     79  C   UNL     1      -8.997   3.285   6.479  1.00  0.00     0.041 A 
ATOM     80  F   UNL     1      -7.655   1.465   5.865  1.00  0.00    -0.206 F 
ATOM     81  C   UNL     1      -9.788   3.939   7.418  1.00  0.00     0.022 A 
BRANCH  78  82
ATOM     82  S   UNL     1     -11.049   4.151   9.896  1.00  0.00     0.124 S 
ATOM     83  O   UNL     1     -12.001   3.074  10.141  1.00  0.00    -0.237 OA
ATOM     84  O   UNL     1     -10.142   4.469  10.995  1.00  0.00    -0.237 OA
ATOM     85  O   UNL     1     -11.582   5.306   9.177  1.00  0.00    -0.744 OA
ENDBRANCH  78  82
ENDBRANCH  51  75
BRANCH  63  86
ATOM     86  C   UNL     1     -11.113  -4.718   9.803  1.00  0.00     0.023 A 
ATOM     87  C   UNL     1     -12.070  -4.779   8.775  1.00  0.00     0.031 A 
ATOM     88  C   UNL     1     -11.509  -5.101  11.098  1.00  0.00     0.131 A 
ATOM     89  C   UNL     1     -13.389  -5.160   9.069  1.00  0.00     0.055 A 
ATOM     90  C   UNL     1     -12.806  -5.535  11.372  1.00  0.00     0.041 A 
ATOM     91  F   UNL     1     -10.638  -5.061  12.119  1.00  0.00    -0.206 F 
ATOM     92  C   UNL     1     -13.759  -5.554  10.357  1.00  0.00     0.022 A 
BRANCH  89  93
ATOM     93  S   UNL     1     -14.642  -5.047   7.761  1.00  0.00     0.124 S 
ATOM     94  O   UNL     1     -14.578  -3.634   7.401  1.00  0.00    -0.237 OA
ATOM     95  O   UNL     1     -14.136  -5.983   6.763  1.00  0.00    -0.237 OA
ATOM     96  O   UNL     1     -15.874  -5.461   8.430  1.00  0.00    -0.744 OA
ENDBRANCH  89  93
ENDBRANCH  63  86
ENDBRANCH  37  38
ENDBRANCH  30  32
ENDBRANCH  29  30
ENDBRANCH  28  29
ENDBRANCH  27  28
ENDBRANCH   1  27
TORSDOF 21
