REMARK SMILES Cc1c(Cl)cccc1NC(=O)C[C@](C)(C(=O)OCCOCCOC(=O)c1ccc(-c2c3nc(c(-c4cc(S(=O)(=O)[O-])ccc4F)c4ccc([nH]4)c(-c4cc(S(=O)(=O)[O-])ccc4F)c4nc(c(-c5cc(S(=O)(=O)[O-])ccc5F)c5ccc2[nH]5)C=C4)C=C3)cc1)c1ccccc1
REMARK SMILES IDX 20 1 19 2 18 3 17 4 15 5 16 6 13 7 14 8 12 9 10 10 9 11
REMARK SMILES IDX 11 13 8 14 1 15 2 16 3 17 4 18 5 19 7 20 6 21 89 22 90 23
REMARK SMILES IDX 94 24 91 25 93 26 92 27 21 28 22 29 23 30 24 31 25 32 26 33
REMARK SMILES IDX 27 34 88 35 28 36 87 37 29 38 30 39 31 40 81 41 32 42 86 43
REMARK SMILES IDX 80 44 82 45 33 46 85 47 79 48 78 49 34 51 66 52 46 53 65 54
REMARK SMILES IDX 47 55 50 56 64 57 83 58 48 59 49 60 63 62 84 63 51 64 35 65
REMARK SMILES IDX 36 66 44 67 37 68 43 69 45 70 42 71 38 72 39 73 40 74 41 75
REMARK SMILES IDX 67 76 68 77 76 78 69 79 75 80 77 81 74 82 70 83 71 84 72 85
REMARK SMILES IDX 73 86 52 87 53 88 61 89 54 90 60 91 62 92 59 93 55 94 56 95
REMARK SMILES IDX 57 96 58 97
REMARK H PARENT 9 12 82 50 50 61
REMARK Flexibility Score: inf
ROOT
ATOM      1  O   UNL     1      -8.397  -1.689  -1.536  1.00  0.00    -0.374 OA
ENDROOT
BRANCH   1   2
ATOM      2  C   UNL     1      -7.616  -2.745  -0.973  1.00  0.00     0.202 C 
BRANCH   2   3
ATOM      3  C   UNL     1      -6.177  -2.853  -1.480  1.00  0.00     0.261 C 
BRANCH   3   4
ATOM      4  O   UNL     1      -5.429  -1.673  -1.140  1.00  0.00    -0.463 OA
BRANCH   4   5
ATOM      5  C   UNL     1      -4.543  -1.236  -2.074  1.00  0.00     0.316 C 
ATOM      6  O   UNL     1      -4.230  -1.891  -3.063  1.00  0.00    -0.251 OA
BRANCH   5   7
ATOM      7  C   UNL     1      -4.001   0.188  -1.777  1.00  0.00     0.099 C 
ATOM      8  C   UNL     1      -4.627   0.827  -0.501  1.00  0.00     0.029 C 
BRANCH   7   9
ATOM      9  C   UNL     1      -2.448   0.117  -1.594  1.00  0.00     0.123 C 
BRANCH   9  10
ATOM     10  C   UNL     1      -1.739  -1.223  -1.715  1.00  0.00     0.225 C 
ATOM     11  N   UNL     1      -1.930  -2.266  -0.864  1.00  0.00    -0.326 N 
ATOM     12  H   UNL     1      -1.460  -3.085  -1.144  1.00  0.00     0.169 HD
ATOM     13  O   UNL     1      -0.948  -1.404  -2.649  1.00  0.00    -0.275 OA
BRANCH  11  14
ATOM     14  C   UNL     1      -2.654  -2.426   0.327  1.00  0.00     0.045 A 
ATOM     15  C   UNL     1      -3.004  -4.924  -0.216  1.00  0.00     0.048 C 
ATOM     16  C   UNL     1      -3.234  -3.682   0.611  1.00  0.00    -0.009 A 
ATOM     17  C   UNL     1      -4.120  -3.772   1.700  1.00  0.00     0.046 A 
ATOM     18  Cl  UNL     1      -5.102  -5.181   1.906  1.00  0.00    -0.084 Cl
ATOM     19  C   UNL     1      -4.300  -2.705   2.577  1.00  0.00     0.021 A 
ATOM     20  C   UNL     1      -2.820  -1.371   1.232  1.00  0.00     0.026 A 
ATOM     21  C   UNL     1      -3.630  -1.510   2.359  1.00  0.00     0.004 A 
ENDBRANCH  11  14
ENDBRANCH   9  10
ENDBRANCH   7   9
BRANCH   7  22
ATOM     22  C   UNL     1      -4.369   1.184  -2.925  1.00  0.00    -0.030 A 
ATOM     23  C   UNL     1      -3.887   2.510  -2.894  1.00  0.00     0.005 A 
ATOM     24  C   UNL     1      -5.240   0.842  -3.976  1.00  0.00     0.005 A 
ATOM     25  C   UNL     1      -4.240   3.437  -3.879  1.00  0.00     0.000 A 
ATOM     26  C   UNL     1      -5.587   1.768  -4.965  1.00  0.00     0.000 A 
ATOM     27  C   UNL     1      -5.086   3.064  -4.918  1.00  0.00     0.000 A 
ENDBRANCH   7  22
ENDBRANCH   5   7
ENDBRANCH   4   5
ENDBRANCH   3   4
ENDBRANCH   2   3
ENDBRANCH   1   2
BRANCH   1  28
ATOM     28  C   UNL     1      -8.075  -0.358  -1.144  1.00  0.00     0.202 C 
BRANCH  28  29
ATOM     29  C   UNL     1      -8.497   0.100   0.261  1.00  0.00     0.261 C 
BRANCH  29  30
ATOM     30  O   UNL     1      -7.967  -0.685   1.345  1.00  0.00    -0.460 OA
BRANCH  30  31
ATOM     31  C   UNL     1      -8.859  -1.543   1.901  1.00  0.00     0.338 C 
ATOM     32  O   UNL     1     -10.017  -1.726   1.532  1.00  0.00    -0.246 OA
BRANCH  31  33
ATOM     33  C   UNL     1      -8.231  -2.365   2.954  1.00  0.00     0.060 A 
ATOM     34  C   UNL     1      -8.400  -3.753   2.889  1.00  0.00     0.016 A 
ATOM     35  C   UNL     1      -7.584  -1.789   4.052  1.00  0.00     0.016 A 
ATOM     36  C   UNL     1      -7.952  -4.565   3.934  1.00  0.00     0.010 A 
ATOM     37  C   UNL     1      -7.137  -2.608   5.102  1.00  0.00     0.010 A 
ATOM     38  C   UNL     1      -7.341  -4.000   5.063  1.00  0.00    -0.014 A 
BRANCH  38  39
ATOM     39  C   UNL     1      -7.115  -4.855   6.264  1.00  0.00     0.031 A 
ATOM     40  C   UNL     1      -8.123  -4.801   7.377  1.00  0.00     0.074 A 
ATOM     41  C   UNL     1      -6.083  -5.717   6.346  1.00  0.00     0.049 A 
ATOM     42  N   UNL     1      -8.166  -5.483   8.491  1.00  0.00    -0.248 NA
ATOM     43  C   UNL     1      -9.209  -3.823   7.221  1.00  0.00     0.031 C 
ATOM     44  C   UNL     1      -5.026  -5.835   5.355  1.00  0.00     0.029 A 
ATOM     45  N   UNL     1      -5.758  -6.668   7.283  1.00  0.00    -0.354 N 
ATOM     46  C   UNL     1      -9.276  -5.008   9.178  1.00  0.00     0.074 A 
ATOM     47  C   UNL     1      -9.843  -3.944   8.376  1.00  0.00     0.031 C 
ATOM     48  C   UNL     1      -4.212  -6.851   5.681  1.00  0.00     0.029 A 
ATOM     49  C   UNL     1      -4.644  -7.414   6.956  1.00  0.00     0.049 A 
ATOM     50  H   UNL     1      -6.271  -6.804   8.112  1.00  0.00     0.167 HD
ATOM     51  C   UNL     1      -9.783  -5.429  10.363  1.00  0.00     0.034 A 
ATOM     52  C   UNL     1      -4.033  -8.421   7.616  1.00  0.00     0.034 A 
ATOM     53  C   UNL     1      -9.194  -6.478  11.158  1.00  0.00     0.049 A 
ATOM     54  C   UNL     1      -4.593  -8.845   8.953  1.00  0.00     0.074 A 
ATOM     55  C   UNL     1      -9.618  -6.978  12.376  1.00  0.00     0.029 A 
ATOM     56  N   UNL     1      -8.047  -7.186  10.818  1.00  0.00    -0.354 N 
ATOM     57  N   UNL     1      -5.648  -8.387   9.590  1.00  0.00    -0.248 NA
ATOM     58  C   UNL     1      -3.876  -9.910   9.667  1.00  0.00     0.031 C 
ATOM     59  C   UNL     1      -8.693  -7.936  12.804  1.00  0.00     0.029 A 
ATOM     60  C   UNL     1      -7.737  -8.100  11.814  1.00  0.00     0.049 A 
ATOM     61  H   UNL     1      -7.530  -7.058   9.990  1.00  0.00     0.167 HD
ATOM     62  C   UNL     1      -5.732  -9.128  10.766  1.00  0.00     0.074 A 
ATOM     63  C   UNL     1      -4.636 -10.073  10.740  1.00  0.00     0.031 C 
ATOM     64  C   UNL     1      -6.635  -9.034  11.777  1.00  0.00     0.034 A 
BRANCH  51  65
ATOM     65  C   UNL     1     -10.999  -4.699  10.877  1.00  0.00     0.023 A 
ATOM     66  C   UNL     1     -12.212  -4.695  10.164  1.00  0.00     0.031 A 
ATOM     67  C   UNL     1     -10.925  -3.929  12.051  1.00  0.00     0.131 A 
ATOM     68  C   UNL     1     -13.261  -3.861  10.574  1.00  0.00     0.055 A 
ATOM     69  C   UNL     1     -12.009  -3.177  12.507  1.00  0.00     0.041 A 
ATOM     70  F   UNL     1      -9.786  -3.870  12.760  1.00  0.00    -0.206 F 
ATOM     71  C   UNL     1     -13.179  -3.123  11.756  1.00  0.00     0.022 A 
BRANCH  68  72
ATOM     72  S   UNL     1     -14.658  -3.613   9.443  1.00  0.00     0.124 S 
ATOM     73  O   UNL     1     -13.987  -3.067   8.265  1.00  0.00    -0.237 OA
ATOM     74  O   UNL     1     -15.196  -4.961   9.305  1.00  0.00    -0.237 OA
ATOM     75  O   UNL     1     -15.514  -2.668  10.157  1.00  0.00    -0.744 OA
ENDBRANCH  68  72
ENDBRANCH  51  65
BRANCH  52  76
ATOM     76  C   UNL     1      -2.805  -9.075   7.066  1.00  0.00     0.023 A 
ATOM     77  C   UNL     1      -2.776 -10.451   6.776  1.00  0.00     0.031 A 
ATOM     78  C   UNL     1      -1.615  -8.347   6.883  1.00  0.00     0.131 A 
ATOM     79  C   UNL     1      -1.577 -11.060   6.365  1.00  0.00     0.055 A 
ATOM     80  C   UNL     1      -0.443  -8.944   6.414  1.00  0.00     0.041 A 
ATOM     81  F   UNL     1      -1.575  -7.032   7.153  1.00  0.00    -0.206 F 
ATOM     82  C   UNL     1      -0.416 -10.312   6.166  1.00  0.00     0.022 A 
BRANCH  79  83
ATOM     83  S   UNL     1      -1.527 -12.867   6.190  1.00  0.00     0.124 S 
ATOM     84  O   UNL     1      -1.903 -13.305   7.529  1.00  0.00    -0.237 OA
ATOM     85  O   UNL     1      -2.510 -13.098   5.138  1.00  0.00    -0.237 OA
ATOM     86  O   UNL     1      -0.140 -13.133   5.814  1.00  0.00    -0.744 OA
ENDBRANCH  79  83
ENDBRANCH  52  76
BRANCH  64  87
ATOM     87  C   UNL     1      -6.503 -10.024  12.909  1.00  0.00     0.023 A 
ATOM     88  C   UNL     1      -5.400 -10.019  13.781  1.00  0.00     0.031 A 
ATOM     89  C   UNL     1      -7.499 -10.998  13.109  1.00  0.00     0.131 A 
ATOM     90  C   UNL     1      -5.291 -11.004  14.775  1.00  0.00     0.055 A 
ATOM     91  C   UNL     1      -7.417 -11.934  14.140  1.00  0.00     0.041 A 
ATOM     92  F   UNL     1      -8.572 -11.052  12.303  1.00  0.00    -0.206 F 
ATOM     93  C   UNL     1      -6.301 -11.950  14.971  1.00  0.00     0.022 A 
BRANCH  90  94
ATOM     94  S   UNL     1      -3.762 -11.099  15.746  1.00  0.00     0.124 S 
ATOM     95  O   UNL     1      -2.753 -11.275  14.707  1.00  0.00    -0.237 OA
ATOM     96  O   UNL     1      -3.749  -9.812  16.434  1.00  0.00    -0.237 OA
ATOM     97  O   UNL     1      -3.974 -12.260  16.608  1.00  0.00    -0.744 OA
ENDBRANCH  90  94
ENDBRANCH  64  87
ENDBRANCH  38  39
ENDBRANCH  31  33
ENDBRANCH  30  31
ENDBRANCH  29  30
ENDBRANCH  28  29
ENDBRANCH   1  28
TORSDOF 21
