REMARK SMILES O=C(Cn1c(=O)c2c3c(sc2n(Cc2ccc(Cl)cc2Cl)c1=O)CCCC3)OCCOCCOC(=O)c1ccc(-c2c3nc(c(-c4cc(S(=O)(=O)[O-])ccc4F)c4ccc([nH]4)c(-c4cc(S(=O)(=O)[O-])ccc4F)c4nc(c(-c5cc(S(=O)(=O)[O-])ccc5F)c5ccc2[nH]5)C=C4)C=C3)cc1
REMARK SMILES IDX 31 1 30 2 29 3 28 4 2 5 1 6 3 7 4 8 5 9 22 10 6 11 7 12
REMARK SMILES IDX 12 13 23 14 8 15 11 16 9 17 27 18 10 19 24 20 26 21 25 22
REMARK SMILES IDX 13 23 14 24 15 25 20 26 16 27 19 28 21 29 17 30 18 31 32 32
REMARK SMILES IDX 33 33 34 34 35 35 36 36 37 37 38 38 99 39 39 40 98 41 40 42
REMARK SMILES IDX 41 43 42 44 92 45 43 46 97 47 91 48 93 49 44 50 96 51 90 52
REMARK SMILES IDX 89 53 45 55 77 56 57 57 76 58 58 59 61 60 75 61 94 62 59 63
REMARK SMILES IDX 60 64 74 66 95 67 62 68 46 69 47 70 55 71 48 72 54 73 56 74
REMARK SMILES IDX 53 75 49 76 50 77 51 78 52 79 78 80 79 81 87 82 80 83 86 84
REMARK SMILES IDX 88 85 85 86 81 87 82 88 83 89 84 90 63 91 64 92 72 93 65 94
REMARK SMILES IDX 71 95 73 96 70 97 66 98 67 99 68 100 69 101
REMARK H PARENT 93 54 61 65
REMARK Flexibility Score: inf
ROOT
ATOM      1  O   UNL     1       4.280  -0.630   1.713  1.00  0.00    -0.374 OA
ENDROOT
BRANCH   1   2
ATOM      2  C   UNL     1       5.091   0.250   0.962  1.00  0.00     0.202 C 
BRANCH   2   3
ATOM      3  C   UNL     1       4.465   1.124  -0.123  1.00  0.00     0.261 C 
BRANCH   3   4
ATOM      4  O   UNL     1       3.038   1.187  -0.189  1.00  0.00    -0.462 OA
BRANCH   4   5
ATOM      5  C   UNL     1       2.175   0.260  -0.642  1.00  0.00     0.326 C 
ATOM      6  O   UNL     1       0.965   0.471  -0.504  1.00  0.00    -0.250 OA
BRANCH   5   7
ATOM      7  C   UNL     1       2.620  -1.125  -1.093  1.00  0.00     0.253 C 
BRANCH   7   8
ATOM      8  N   UNL     1       3.784  -1.417  -1.915  1.00  0.00    -0.248 N 
ATOM      9  C   UNL     1       4.173  -2.763  -1.922  1.00  0.00     0.265 A 
ATOM     10  C   UNL     1       4.137  -0.493  -2.908  1.00  0.00     0.332 A 
ATOM     11  O   UNL     1       3.764  -3.603  -1.116  1.00  0.00    -0.268 OA
ATOM     12  C   UNL     1       5.004  -3.138  -3.042  1.00  0.00     0.079 A 
ATOM     13  N   UNL     1       5.267  -0.785  -3.677  1.00  0.00    -0.280 N 
ATOM     14  O   UNL     1       3.502   0.550  -3.069  1.00  0.00    -0.247 OA
ATOM     15  C   UNL     1       5.388  -4.441  -3.524  1.00  0.00    -0.019 A 
ATOM     16  C   UNL     1       5.510  -2.141  -3.837  1.00  0.00     0.113 A 
ATOM     17  C   UNL     1       6.142  -4.332  -4.678  1.00  0.00     0.011 A 
ATOM     18  C   UNL     1       5.061  -5.785  -2.938  1.00  0.00     0.037 C 
ATOM     19  S   UNL     1       6.343  -2.734  -5.171  1.00  0.00    -0.122 S 
ATOM     20  C   UNL     1       6.693  -5.459  -5.488  1.00  0.00     0.047 C 
ATOM     21  C   UNL     1       5.285  -6.915  -3.963  1.00  0.00     0.005 C 
ATOM     22  C   UNL     1       6.628  -6.766  -4.694  1.00  0.00     0.006 C 
BRANCH  13  23
ATOM     23  C   UNL     1       5.944   0.319  -4.399  1.00  0.00     0.165 C 
BRANCH  23  24
ATOM     24  C   UNL     1       7.437   0.436  -4.102  1.00  0.00    -0.009 A 
ATOM     25  C   UNL     1       7.858   1.047  -2.903  1.00  0.00     0.008 A 
ATOM     26  C   UNL     1       8.443  -0.044  -4.965  1.00  0.00     0.047 A 
ATOM     27  C   UNL     1       9.213   1.085  -2.545  1.00  0.00     0.021 A 
ATOM     28  C   UNL     1       9.778  -0.114  -4.554  1.00  0.00     0.041 A 
ATOM     29  Cl  UNL     1       8.143  -0.428  -6.627  1.00  0.00    -0.084 Cl
ATOM     30  C   UNL     1      10.159   0.453  -3.346  1.00  0.00     0.042 A 
ATOM     31  Cl  UNL     1      11.812   0.418  -2.875  1.00  0.00    -0.084 Cl
ENDBRANCH  23  24
ENDBRANCH  13  23
ENDBRANCH   7   8
ENDBRANCH   5   7
ENDBRANCH   4   5
ENDBRANCH   3   4
ENDBRANCH   2   3
ENDBRANCH   1   2
BRANCH   1  32
ATOM     32  C   UNL     1       3.176  -0.135   2.459  1.00  0.00     0.202 C 
BRANCH  32  33
ATOM     33  C   UNL     1       3.299   1.024   3.455  1.00  0.00     0.261 C 
BRANCH  33  34
ATOM     34  O   UNL     1       4.113   2.134   3.066  1.00  0.00    -0.460 OA
BRANCH  34  35
ATOM     35  C   UNL     1       5.341   2.101   3.634  1.00  0.00     0.338 C 
ATOM     36  O   UNL     1       5.855   1.144   4.210  1.00  0.00    -0.246 OA
BRANCH  35  37
ATOM     37  C   UNL     1       6.051   3.367   3.469  1.00  0.00     0.060 A 
ATOM     38  C   UNL     1       7.187   3.432   2.653  1.00  0.00     0.016 A 
ATOM     39  C   UNL     1       5.732   4.406   4.333  1.00  0.00     0.016 A 
ATOM     40  C   UNL     1       8.032   4.544   2.723  1.00  0.00     0.010 A 
ATOM     41  C   UNL     1       6.601   5.488   4.426  1.00  0.00     0.010 A 
ATOM     42  C   UNL     1       7.761   5.577   3.630  1.00  0.00    -0.014 A 
BRANCH  42  43
ATOM     43  C   UNL     1       8.641   6.780   3.688  1.00  0.00     0.031 A 
ATOM     44  C   UNL     1       7.886   8.060   3.841  1.00  0.00     0.074 A 
ATOM     45  C   UNL     1       9.922   6.754   4.131  1.00  0.00     0.049 A 
ATOM     46  N   UNL     1       7.361   8.376   4.987  1.00  0.00    -0.248 NA
ATOM     47  C   UNL     1       7.385   8.864   2.729  1.00  0.00     0.031 C 
ATOM     48  C   UNL     1      10.463   5.676   4.969  1.00  0.00     0.029 A 
ATOM     49  N   UNL     1      10.905   7.727   4.165  1.00  0.00    -0.354 N 
ATOM     50  C   UNL     1       6.382   9.313   4.755  1.00  0.00     0.074 A 
ATOM     51  C   UNL     1       6.475   9.639   3.348  1.00  0.00     0.031 C 
ATOM     52  C   UNL     1      11.582   6.119   5.578  1.00  0.00     0.029 A 
ATOM     53  C   UNL     1      11.928   7.456   5.085  1.00  0.00     0.049 A 
ATOM     54  H   UNL     1      10.888   8.532   3.598  1.00  0.00     0.167 HD
ATOM     55  C   UNL     1       5.521   9.700   5.732  1.00  0.00     0.034 A 
ATOM     56  C   UNL     1      12.520   8.388   5.890  1.00  0.00     0.034 A 
ATOM     57  C   UNL     1       5.647   9.005   6.983  1.00  0.00     0.049 A 
ATOM     58  C   UNL     1      11.375   8.840   6.759  1.00  0.00     0.074 A 
ATOM     59  C   UNL     1       5.045   7.927   7.599  1.00  0.00     0.029 A 
ATOM     60  N   UNL     1       6.663   9.363   7.839  1.00  0.00    -0.354 N 
ATOM     61  N   UNL     1      10.867   8.194   7.774  1.00  0.00    -0.248 NA
ATOM     62  C   UNL     1      10.547   9.935   6.254  1.00  0.00     0.031 C 
ATOM     63  C   UNL     1       6.023   7.412   8.508  1.00  0.00     0.029 A 
ATOM     64  C   UNL     1       7.165   8.195   8.359  1.00  0.00     0.049 A 
ATOM     65  H   UNL     1       6.969  10.277   8.039  1.00  0.00     0.167 HD
ATOM     66  C   UNL     1       9.549   8.636   7.876  1.00  0.00     0.074 A 
ATOM     67  C   UNL     1       9.431   9.737   6.940  1.00  0.00     0.031 C 
ATOM     68  C   UNL     1       8.579   7.976   8.573  1.00  0.00     0.034 A 
BRANCH  55  69
ATOM     69  C   UNL     1       4.585  10.828   5.621  1.00  0.00     0.023 A 
ATOM     70  C   UNL     1       4.977  12.023   6.237  1.00  0.00     0.031 A 
ATOM     71  C   UNL     1       3.281  10.718   5.131  1.00  0.00     0.131 A 
ATOM     72  C   UNL     1       4.062  13.063   6.395  1.00  0.00     0.055 A 
ATOM     73  C   UNL     1       2.370  11.770   5.274  1.00  0.00     0.041 A 
ATOM     74  F   UNL     1       2.860   9.581   4.554  1.00  0.00    -0.206 F 
ATOM     75  C   UNL     1       2.755  12.946   5.922  1.00  0.00     0.022 A 
BRANCH  72  76
ATOM     76  S   UNL     1       4.612  14.531   7.298  1.00  0.00     0.124 S 
ATOM     77  O   UNL     1       4.987  13.967   8.590  1.00  0.00    -0.237 OA
ATOM     78  O   UNL     1       5.714  14.996   6.460  1.00  0.00    -0.237 OA
ATOM     79  O   UNL     1       3.429  15.387   7.306  1.00  0.00    -0.744 OA
ENDBRANCH  72  76
ENDBRANCH  55  69
BRANCH  56  80
ATOM     80  C   UNL     1      13.503   9.353   5.292  1.00  0.00     0.023 A 
ATOM     81  C   UNL     1      14.487   8.867   4.407  1.00  0.00     0.031 A 
ATOM     82  C   UNL     1      13.574  10.725   5.603  1.00  0.00     0.131 A 
ATOM     83  C   UNL     1      15.416   9.737   3.804  1.00  0.00     0.055 A 
ATOM     84  C   UNL     1      14.465  11.599   4.966  1.00  0.00     0.041 A 
ATOM     85  F   UNL     1      12.784  11.273   6.537  1.00  0.00    -0.206 F 
ATOM     86  C   UNL     1      15.383  11.109   4.049  1.00  0.00     0.022 A 
BRANCH  83  87
ATOM     87  S   UNL     1      16.661   9.056   2.674  1.00  0.00     0.124 S 
ATOM     88  O   UNL     1      17.576   8.391   3.594  1.00  0.00    -0.237 OA
ATOM     89  O   UNL     1      15.865   8.181   1.819  1.00  0.00    -0.237 OA
ATOM     90  O   UNL     1      17.200  10.241   2.007  1.00  0.00    -0.744 OA
ENDBRANCH  83  87
ENDBRANCH  56  80
BRANCH  68  91
ATOM     91  C   UNL     1       9.029   6.818   9.403  1.00  0.00     0.023 A 
ATOM     92  C   UNL     1       9.705   7.048  10.610  1.00  0.00     0.031 A 
ATOM     93  C   UNL     1       8.728   5.492   9.048  1.00  0.00     0.131 A 
ATOM     94  C   UNL     1      10.028   5.972  11.446  1.00  0.00     0.055 A 
ATOM     95  C   UNL     1       9.036   4.422   9.891  1.00  0.00     0.041 A 
ATOM     96  F   UNL     1       8.095   5.210   7.896  1.00  0.00    -0.206 F 
ATOM     97  C   UNL     1       9.681   4.661  11.102  1.00  0.00     0.022 A 
BRANCH  94  98
ATOM     98  S   UNL     1      10.837   6.306  13.033  1.00  0.00     0.124 S 
ATOM     99  O   UNL     1      12.199   6.636  12.630  1.00  0.00    -0.237 OA
ATOM    100  O   UNL     1      10.045   7.408  13.573  1.00  0.00    -0.237 OA
ATOM    101  O   UNL     1      10.695   5.043  13.758  1.00  0.00    -0.744 OA
ENDBRANCH  94  98
ENDBRANCH  68  91
ENDBRANCH  42  43
ENDBRANCH  35  37
ENDBRANCH  34  35
ENDBRANCH  33  34
ENDBRANCH  32  33
ENDBRANCH   1  32
TORSDOF 20
