REMARK SMILES COc1ccc2c(c1)c(CC(=O)OCCOCCOC(=O)c1ccc(-c3c4nc(c(-c5cc(S(=O)(=O)[O-])ccc5F)c5ccc([nH]5)c(-c5cc(S(=O)(=O)[O-])ccc5F)c5nc(c(-c6cc(S(=O)(=O)[O-])ccc6F)c6ccc3[nH]6)C=C5)C=C4)cc1)c(C)n2Cc1ccc(Br)cc1
REMARK SMILES IDX 16 1 15 2 14 3 13 4 11 5 12 6 10 7 9 8 3 9 4 10 8 11 5 12
REMARK SMILES IDX 7 13 6 14 87 15 85 16 86 17 2 18 1 19 88 20 89 21 90 22
REMARK SMILES IDX 95 23 91 24 94 25 92 26 93 27 17 28 18 29 19 30 20 31 21 32
REMARK SMILES IDX 22 33 23 34 84 35 24 36 83 37 25 38 26 39 27 40 77 41 28 42
REMARK SMILES IDX 82 43 76 44 78 45 29 46 81 47 75 48 74 49 30 51 62 52 42 53
REMARK SMILES IDX 61 54 43 55 46 56 60 57 79 58 44 59 45 60 59 62 80 63 47 64
REMARK SMILES IDX 31 65 32 66 40 67 33 68 39 69 41 70 38 71 34 72 35 73 36 74
REMARK SMILES IDX 37 75 63 76 64 77 72 78 65 79 71 80 73 81 70 82 66 83 67 84
REMARK SMILES IDX 68 85 69 86 48 87 49 88 57 89 50 90 56 91 58 92 55 93 51 94
REMARK SMILES IDX 52 95 53 96 54 97
REMARK H PARENT 78 50 46 61
REMARK Flexibility Score: inf
ROOT
ATOM      1  O   UNL     1      -2.628   4.391   2.028  1.00  0.00    -0.374 OA
ENDROOT
BRANCH   1   2
ATOM      2  C   UNL     1      -2.608   5.512   2.903  1.00  0.00     0.202 C 
BRANCH   2   3
ATOM      3  C   UNL     1      -2.687   5.318   4.429  1.00  0.00     0.261 C 
BRANCH   3   4
ATOM      4  O   UNL     1      -2.027   4.145   4.938  1.00  0.00    -0.463 OA
BRANCH   4   5
ATOM      5  C   UNL     1      -2.863   3.134   5.289  1.00  0.00     0.310 C 
ATOM      6  O   UNL     1      -4.091   3.211   5.253  1.00  0.00    -0.252 OA
BRANCH   5   7
ATOM      7  C   UNL     1      -2.204   1.839   5.718  1.00  0.00     0.160 C 
BRANCH   7   8
ATOM      8  C   UNL     1      -0.704   1.716   5.696  1.00  0.00    -0.008 A 
ATOM      9  C   UNL     1       0.797   0.510   2.388  1.00  0.00     0.119 A 
ATOM     10  C   UNL     1       2.127   0.649   2.764  1.00  0.00     0.048 A 
ATOM     11  C   UNL     1      -0.207   0.780   3.320  1.00  0.00     0.057 A 
ATOM     12  C   UNL     1       2.471   1.054   4.071  1.00  0.00     0.031 A 
ATOM     13  C   UNL     1       0.102   1.264   4.609  1.00  0.00     0.007 A 
ATOM     14  C   UNL     1       1.443   1.355   4.991  1.00  0.00     0.049 A 
ATOM     15  N   UNL     1       1.457   1.740   6.332  1.00  0.00    -0.340 N 
ATOM     16  C   UNL     1       0.145   1.783   6.792  1.00  0.00     0.020 A 
ATOM     17  C   UNL     1      -0.269   1.846   8.221  1.00  0.00     0.065 C 
BRANCH   9  18
ATOM     18  O   UNL     1       0.316   0.257   1.134  1.00  0.00    -0.497 OA
ATOM     19  C   UNL     1       1.159  -0.392   0.197  1.00  0.00     0.278 C 
ENDBRANCH   9  18
BRANCH  15  20
ATOM     20  C   UNL     1       2.671   1.805   7.166  1.00  0.00     0.157 C 
BRANCH  20  21
ATOM     21  C   UNL     1       3.054   3.186   7.668  1.00  0.00    -0.028 A 
ATOM     22  C   UNL     1       2.298   3.857   8.642  1.00  0.00     0.007 A 
ATOM     23  C   UNL     1       4.236   3.807   7.234  1.00  0.00     0.007 A 
ATOM     24  C   UNL     1       2.646   5.126   9.108  1.00  0.00     0.016 A 
ATOM     25  C   UNL     1       4.612   5.067   7.724  1.00  0.00     0.016 A 
ATOM     26  C   UNL     1       3.803   5.730   8.643  1.00  0.00     0.017 A 
ATOM     27  Br  UNL     1       4.281   7.442   9.279  1.00  0.00    -0.051 Br
ENDBRANCH  20  21
ENDBRANCH  15  20
ENDBRANCH   7   8
ENDBRANCH   5   7
ENDBRANCH   4   5
ENDBRANCH   3   4
ENDBRANCH   2   3
ENDBRANCH   1   2
BRANCH   1  28
ATOM     28  C   UNL     1      -1.551   3.463   2.120  1.00  0.00     0.202 C 
BRANCH  28  29
ATOM     29  C   UNL     1      -0.103   3.929   1.881  1.00  0.00     0.261 C 
BRANCH  29  30
ATOM     30  O   UNL     1       0.282   5.007   2.729  1.00  0.00    -0.460 OA
BRANCH  30  31
ATOM     31  C   UNL     1       1.044   5.953   2.122  1.00  0.00     0.338 C 
ATOM     32  O   UNL     1       1.751   5.829   1.134  1.00  0.00    -0.246 OA
BRANCH  31  33
ATOM     33  C   UNL     1       0.510   7.216   2.644  1.00  0.00     0.060 A 
ATOM     34  C   UNL     1       0.438   7.417   4.026  1.00  0.00     0.016 A 
ATOM     35  C   UNL     1      -0.248   7.981   1.744  1.00  0.00     0.016 A 
ATOM     36  C   UNL     1      -0.472   8.344   4.509  1.00  0.00     0.010 A 
ATOM     37  C   UNL     1      -1.185   8.877   2.236  1.00  0.00     0.010 A 
ATOM     38  C   UNL     1      -1.316   9.034   3.618  1.00  0.00    -0.014 A 
BRANCH  38  39
ATOM     39  C   UNL     1      -2.113  10.129   4.166  1.00  0.00     0.031 A 
ATOM     40  C   UNL     1      -1.238  11.260   4.588  1.00  0.00     0.074 A 
ATOM     41  C   UNL     1      -3.457  10.230   4.169  1.00  0.00     0.049 A 
ATOM     42  N   UNL     1      -1.033  11.700   5.785  1.00  0.00    -0.248 NA
ATOM     43  C   UNL     1      -0.324  11.819   3.576  1.00  0.00     0.031 C 
ATOM     44  C   UNL     1      -4.436   9.378   3.494  1.00  0.00     0.029 A 
ATOM     45  N   UNL     1      -4.237  11.217   4.700  1.00  0.00    -0.354 N 
ATOM     46  C   UNL     1      -0.098  12.725   5.652  1.00  0.00     0.074 A 
ATOM     47  C   UNL     1       0.443  12.607   4.324  1.00  0.00     0.031 C 
ATOM     48  C   UNL     1      -5.625  10.026   3.439  1.00  0.00     0.029 A 
ATOM     49  C   UNL     1      -5.525  11.275   4.180  1.00  0.00     0.049 A 
ATOM     50  H   UNL     1      -3.914  11.836   5.395  1.00  0.00     0.167 HD
ATOM     51  C   UNL     1       0.005  13.729   6.566  1.00  0.00     0.034 A 
ATOM     52  C   UNL     1      -6.390  12.324   4.258  1.00  0.00     0.034 A 
ATOM     53  C   UNL     1      -0.677  13.388   7.784  1.00  0.00     0.049 A 
ATOM     54  C   UNL     1      -5.922  13.236   5.332  1.00  0.00     0.074 A 
ATOM     55  C   UNL     1      -0.529  12.389   8.725  1.00  0.00     0.029 A 
ATOM     56  N   UNL     1      -1.934  13.908   7.974  1.00  0.00    -0.354 N 
ATOM     57  N   UNL     1      -5.972  12.957   6.602  1.00  0.00    -0.248 NA
ATOM     58  C   UNL     1      -4.973  14.273   4.951  1.00  0.00     0.031 C 
ATOM     59  C   UNL     1      -1.856  12.038   9.096  1.00  0.00     0.029 A 
ATOM     60  C   UNL     1      -2.734  12.892   8.426  1.00  0.00     0.049 A 
ATOM     61  H   UNL     1      -2.210  14.840   7.816  1.00  0.00     0.167 HD
ATOM     62  C   UNL     1      -4.756  13.406   7.092  1.00  0.00     0.074 A 
ATOM     63  C   UNL     1      -4.220  14.284   6.053  1.00  0.00     0.031 C 
ATOM     64  C   UNL     1      -4.151  12.799   8.152  1.00  0.00     0.034 A 
BRANCH  51  65
ATOM     65  C   UNL     1       0.411  15.142   6.221  1.00  0.00     0.023 A 
ATOM     66  C   UNL     1       0.556  15.604   4.899  1.00  0.00     0.031 A 
ATOM     67  C   UNL     1       0.441  16.135   7.221  1.00  0.00     0.131 A 
ATOM     68  C   UNL     1       0.721  16.962   4.604  1.00  0.00     0.055 A 
ATOM     69  C   UNL     1       0.535  17.500   6.924  1.00  0.00     0.041 A 
ATOM     70  F   UNL     1       0.315  15.815   8.518  1.00  0.00    -0.206 F 
ATOM     71  C   UNL     1       0.673  17.921   5.608  1.00  0.00     0.022 A 
BRANCH  68  72
ATOM     72  S   UNL     1       0.984  17.500   2.892  1.00  0.00     0.124 S 
ATOM     73  O   UNL     1      -0.147  18.397   2.680  1.00  0.00    -0.237 OA
ATOM     74  O   UNL     1       2.293  18.141   2.983  1.00  0.00    -0.237 OA
ATOM     75  O   UNL     1       0.958  16.253   2.132  1.00  0.00    -0.744 OA
ENDBRANCH  68  72
ENDBRANCH  51  65
BRANCH  52  76
ATOM     76  C   UNL     1      -7.244  12.853   3.160  1.00  0.00     0.023 A 
ATOM     77  C   UNL     1      -6.862  12.633   1.826  1.00  0.00     0.031 A 
ATOM     78  C   UNL     1      -8.199  13.861   3.397  1.00  0.00     0.131 A 
ATOM     79  C   UNL     1      -7.356  13.447   0.798  1.00  0.00     0.055 A 
ATOM     80  C   UNL     1      -8.714  14.656   2.364  1.00  0.00     0.041 A 
ATOM     81  F   UNL     1      -8.585  14.153   4.649  1.00  0.00    -0.206 F 
ATOM     82  C   UNL     1      -8.276  14.464   1.057  1.00  0.00     0.022 A 
BRANCH  79  83
ATOM     83  S   UNL     1      -6.704  13.267  -0.884  1.00  0.00     0.124 S 
ATOM     84  O   UNL     1      -7.917  13.315  -1.696  1.00  0.00    -0.237 OA
ATOM     85  O   UNL     1      -5.829  14.429  -0.986  1.00  0.00    -0.237 OA
ATOM     86  O   UNL     1      -6.035  11.969  -0.852  1.00  0.00    -0.744 OA
ENDBRANCH  79  83
ENDBRANCH  52  76
BRANCH  64  87
ATOM     87  C   UNL     1      -4.916  11.781   8.966  1.00  0.00     0.023 A 
ATOM     88  C   UNL     1      -4.811  11.898  10.362  1.00  0.00     0.031 A 
ATOM     89  C   UNL     1      -5.510  10.612   8.454  1.00  0.00     0.131 A 
ATOM     90  C   UNL     1      -5.225  10.857  11.196  1.00  0.00     0.055 A 
ATOM     91  C   UNL     1      -5.999   9.606   9.296  1.00  0.00     0.041 A 
ATOM     92  F   UNL     1      -5.552  10.359   7.138  1.00  0.00    -0.206 F 
ATOM     93  C   UNL     1      -5.837   9.716  10.673  1.00  0.00     0.022 A 
BRANCH  90  94
ATOM     94  S   UNL     1      -4.798  10.889  12.955  1.00  0.00     0.124 S 
ATOM     95  O   UNL     1      -6.105  11.038  13.586  1.00  0.00    -0.237 OA
ATOM     96  O   UNL     1      -4.153   9.590  13.144  1.00  0.00    -0.237 OA
ATOM     97  O   UNL     1      -3.907  12.039  13.082  1.00  0.00    -0.744 OA
ENDBRANCH  90  94
ENDBRANCH  64  87
ENDBRANCH  38  39
ENDBRANCH  31  33
ENDBRANCH  30  31
ENDBRANCH  29  30
ENDBRANCH  28  29
ENDBRANCH   1  28
TORSDOF 21
