REMARK SMILES Cc1n[nH]c(C)c1CC(=O)N1CC[C@H](C(=O)OCCOCCOC(=O)c2ccc(-c3c4nc(c(-c5cc(S(=O)(=O)[O-])ccc5F)c5ccc([nH]5)c(-c5cc(S(=O)(=O)[O-])ccc5F)c5nc(c(-c6cc(S(=O)(=O)[O-])ccc6F)c6ccc3[nH]6)C=C5)C=C4)cc2)[C@H]1C
REMARK SMILES IDX 20 1 19 2 18 3 17 4 15 5 16 6 14 7 11 8 12 9 89 10 13 11
REMARK SMILES IDX 90 12 9 13 10 14 8 15 7 16 1 17 2 18 3 19 4 20 5 21 6 23
REMARK SMILES IDX 21 24 22 25 23 26 24 27 25 28 26 29 27 30 88 31 28 32 87 33
REMARK SMILES IDX 29 34 30 35 31 36 81 37 32 38 86 39 80 40 82 41 33 42 85 43
REMARK SMILES IDX 79 44 78 45 34 47 66 48 46 49 65 50 47 51 50 52 64 53 83 54
REMARK SMILES IDX 48 55 49 56 63 58 84 59 51 60 35 61 36 62 44 63 37 64 43 65
REMARK SMILES IDX 45 66 42 67 38 68 39 69 40 70 41 71 67 72 68 73 76 74 69 75
REMARK SMILES IDX 75 76 77 77 74 78 70 79 71 80 72 81 73 82 52 83 53 84 61 85
REMARK SMILES IDX 54 86 60 87 62 88 59 89 55 90 56 91 57 92 58 93
REMARK H PARENT 4 22 82 46 50 57
REMARK Flexibility Score: inf
ROOT
ATOM      1  O   UNL     1      -3.722  -2.299   5.731  1.00  0.00    -0.374 OA
ENDROOT
BRANCH   1   2
ATOM      2  C   UNL     1      -3.800  -0.882   5.580  1.00  0.00     0.202 C 
BRANCH   2   3
ATOM      3  C   UNL     1      -2.532  -0.076   5.882  1.00  0.00     0.261 C 
BRANCH   3   4
ATOM      4  O   UNL     1      -1.415  -0.442   5.043  1.00  0.00    -0.463 OA
BRANCH   4   5
ATOM      5  C   UNL     1      -0.431  -1.117   5.679  1.00  0.00     0.311 C 
ATOM      6  O   UNL     1      -0.424  -1.363   6.883  1.00  0.00    -0.252 OA
BRANCH   5   7
ATOM      7  C   UNL     1       0.727  -1.550   4.804  1.00  0.00     0.123 C 
ATOM      8  N   UNL     1       0.406  -2.697   2.714  1.00  0.00    -0.339 N 
ATOM      9  C   UNL     1       0.381  -3.704   3.757  1.00  0.00     0.121 C 
ATOM     10  C   UNL     1       0.720  -1.368   3.268  1.00  0.00     0.096 C 
ATOM     11  C   UNL     1       0.983  -3.052   4.986  1.00  0.00     0.039 C 
ATOM     12  C   UNL     1       2.128  -0.927   2.864  1.00  0.00     0.032 C 
BRANCH   8  13
ATOM     13  C   UNL     1      -0.032  -3.057   1.450  1.00  0.00     0.227 C 
ATOM     14  O   UNL     1      -0.693  -4.100   1.322  1.00  0.00    -0.275 OA
BRANCH  13  15
ATOM     15  C   UNL     1       0.486  -2.390   0.175  1.00  0.00     0.139 C 
BRANCH  15  16
ATOM     16  C   UNL     1       0.388  -0.916  -0.004  1.00  0.00     0.005 A 
ATOM     17  C   UNL     1      -2.190  -0.578  -0.123  1.00  0.00     0.069 C 
ATOM     18  C   UNL     1      -0.785  -0.126  -0.099  1.00  0.00     0.063 A 
ATOM     19  N   UNL     1      -0.506   1.170  -0.259  1.00  0.00    -0.181 NA
ATOM     20  N   UNL     1       0.820   1.206  -0.398  1.00  0.00    -0.282 N 
ATOM     21  C   UNL     1       1.402  -0.029  -0.342  1.00  0.00     0.036 A 
ATOM     22  H   UNL     1       1.329   2.039  -0.527  1.00  0.00     0.190 HD
ATOM     23  C   UNL     1       2.837  -0.222  -0.667  1.00  0.00     0.066 C 
ENDBRANCH  15  16
ENDBRANCH  13  15
ENDBRANCH   8  13
ENDBRANCH   5   7
ENDBRANCH   4   5
ENDBRANCH   3   4
ENDBRANCH   2   3
ENDBRANCH   1   2
BRANCH   1  24
ATOM     24  C   UNL     1      -3.056  -3.016   4.695  1.00  0.00     0.202 C 
BRANCH  24  25
ATOM     25  C   UNL     1      -3.819  -3.272   3.390  1.00  0.00     0.261 C 
BRANCH  25  26
ATOM     26  O   UNL     1      -4.198  -2.057   2.725  1.00  0.00    -0.460 OA
BRANCH  26  27
ATOM     27  C   UNL     1      -5.513  -1.745   2.819  1.00  0.00     0.338 C 
ATOM     28  O   UNL     1      -6.394  -2.412   3.347  1.00  0.00    -0.246 OA
BRANCH  27  29
ATOM     29  C   UNL     1      -5.718  -0.362   2.354  1.00  0.00     0.060 A 
ATOM     30  C   UNL     1      -6.371   0.535   3.205  1.00  0.00     0.016 A 
ATOM     31  C   UNL     1      -5.304   0.044   1.087  1.00  0.00     0.016 A 
ATOM     32  C   UNL     1      -6.646   1.831   2.770  1.00  0.00     0.010 A 
ATOM     33  C   UNL     1      -5.538   1.356   0.668  1.00  0.00     0.010 A 
ATOM     34  C   UNL     1      -6.258   2.244   1.487  1.00  0.00    -0.014 A 
BRANCH  34  35
ATOM     35  C   UNL     1      -6.774   3.524   0.932  1.00  0.00     0.031 A 
ATOM     36  C   UNL     1      -7.819   3.468  -0.154  1.00  0.00     0.074 A 
ATOM     37  C   UNL     1      -6.357   4.711   1.412  1.00  0.00     0.049 A 
ATOM     38  N   UNL     1      -8.386   4.444  -0.816  1.00  0.00    -0.248 NA
ATOM     39  C   UNL     1      -8.271   2.128  -0.560  1.00  0.00     0.031 C 
ATOM     40  C   UNL     1      -5.364   4.892   2.471  1.00  0.00     0.029 A 
ATOM     41  N   UNL     1      -6.718   5.991   1.071  1.00  0.00    -0.354 N 
ATOM     42  C   UNL     1      -9.255   3.834  -1.717  1.00  0.00     0.074 A 
ATOM     43  C   UNL     1      -9.087   2.406  -1.563  1.00  0.00     0.031 C 
ATOM     44  C   UNL     1      -5.200   6.207   2.696  1.00  0.00     0.029 A 
ATOM     45  C   UNL     1      -6.042   6.963   1.772  1.00  0.00     0.049 A 
ATOM     46  H   UNL     1      -7.397   6.194   0.388  1.00  0.00     0.167 HD
ATOM     47  C   UNL     1     -10.135   4.409  -2.573  1.00  0.00     0.034 A 
ATOM     48  C   UNL     1      -6.083   8.308   1.664  1.00  0.00     0.034 A 
ATOM     49  C   UNL     1     -10.298   5.835  -2.710  1.00  0.00     0.049 A 
ATOM     50  C   UNL     1      -7.029   8.928   0.661  1.00  0.00     0.074 A 
ATOM     51  C   UNL     1     -11.159   6.529  -3.541  1.00  0.00     0.029 A 
ATOM     52  N   UNL     1      -9.584   6.787  -1.994  1.00  0.00    -0.354 N 
ATOM     53  N   UNL     1      -7.849   8.338  -0.179  1.00  0.00    -0.248 NA
ATOM     54  C   UNL     1      -7.064  10.396   0.600  1.00  0.00     0.031 C 
ATOM     55  C   UNL     1     -10.921   7.897  -3.373  1.00  0.00     0.029 A 
ATOM     56  C   UNL     1      -9.970   8.060  -2.380  1.00  0.00     0.049 A 
ATOM     57  H   UNL     1      -8.902   6.586  -1.312  1.00  0.00     0.167 HD
ATOM     58  C   UNL     1      -8.518   9.364  -0.842  1.00  0.00     0.074 A 
ATOM     59  C   UNL     1      -8.021  10.607  -0.291  1.00  0.00     0.031 C 
ATOM     60  C   UNL     1      -9.460   9.289  -1.818  1.00  0.00     0.034 A 
BRANCH  47  61
ATOM     61  C   UNL     1     -10.962   3.489  -3.439  1.00  0.00     0.023 A 
ATOM     62  C   UNL     1     -11.882   2.582  -2.882  1.00  0.00     0.031 A 
ATOM     63  C   UNL     1     -10.808   3.493  -4.836  1.00  0.00     0.131 A 
ATOM     64  C   UNL     1     -12.553   1.668  -3.708  1.00  0.00     0.055 A 
ATOM     65  C   UNL     1     -11.543   2.638  -5.661  1.00  0.00     0.041 A 
ATOM     66  F   UNL     1      -9.929   4.319  -5.425  1.00  0.00    -0.206 F 
ATOM     67  C   UNL     1     -12.411   1.708  -5.096  1.00  0.00     0.022 A 
BRANCH  64  68
ATOM     68  S   UNL     1     -13.507   0.335  -2.930  1.00  0.00     0.124 S 
ATOM     69  O   UNL     1     -12.474  -0.353  -2.159  1.00  0.00    -0.237 OA
ATOM     70  O   UNL     1     -14.501   1.068  -2.155  1.00  0.00    -0.237 OA
ATOM     71  O   UNL     1     -14.033  -0.418  -4.067  1.00  0.00    -0.744 OA
ENDBRANCH  64  68
ENDBRANCH  47  61
BRANCH  48  72
ATOM     72  C   UNL     1      -5.182   9.166   2.490  1.00  0.00     0.023 A 
ATOM     73  C   UNL     1      -5.694  10.104   3.401  1.00  0.00     0.031 A 
ATOM     74  C   UNL     1      -3.786   9.107   2.326  1.00  0.00     0.131 A 
ATOM     75  C   UNL     1      -4.824  10.983   4.067  1.00  0.00     0.055 A 
ATOM     76  C   UNL     1      -2.920   9.941   3.037  1.00  0.00     0.041 A 
ATOM     77  F   UNL     1      -3.239   8.232   1.466  1.00  0.00    -0.206 F 
ATOM     78  C   UNL     1      -3.440  10.898   3.902  1.00  0.00     0.022 A 
BRANCH  75  79
ATOM     79  S   UNL     1      -5.534  12.318   5.071  1.00  0.00     0.124 S 
ATOM     80  O   UNL     1      -6.392  12.992   4.103  1.00  0.00    -0.237 OA
ATOM     81  O   UNL     1      -6.214  11.574   6.125  1.00  0.00    -0.237 OA
ATOM     82  O   UNL     1      -4.363  13.078   5.503  1.00  0.00    -0.744 OA
ENDBRANCH  75  79
ENDBRANCH  48  72
BRANCH  60  83
ATOM     83  C   UNL     1     -10.048  10.590  -2.310  1.00  0.00     0.023 A 
ATOM     84  C   UNL     1      -9.279  11.531  -3.016  1.00  0.00     0.031 A 
ATOM     85  C   UNL     1     -11.400  10.889  -2.065  1.00  0.00     0.131 A 
ATOM     86  C   UNL     1      -9.852  12.752  -3.402  1.00  0.00     0.055 A 
ATOM     87  C   UNL     1     -11.982  12.078  -2.508  1.00  0.00     0.041 A 
ATOM     88  F   UNL     1     -12.181  10.027  -1.395  1.00  0.00    -0.206 F 
ATOM     89  C   UNL     1     -11.203  13.024  -3.168  1.00  0.00     0.022 A 
BRANCH  86  90
ATOM     90  S   UNL     1      -8.785  14.023  -4.133  1.00  0.00     0.124 S 
ATOM     91  O   UNL     1      -7.788  14.222  -3.085  1.00  0.00    -0.237 OA
ATOM     92  O   UNL     1      -8.310  13.372  -5.349  1.00  0.00    -0.237 OA
ATOM     93  O   UNL     1      -9.691  15.150  -4.348  1.00  0.00    -0.744 OA
ENDBRANCH  86  90
ENDBRANCH  60  83
ENDBRANCH  34  35
ENDBRANCH  27  29
ENDBRANCH  26  27
ENDBRANCH  25  26
ENDBRANCH  24  25
ENDBRANCH   1  24
TORSDOF 20
