REMARK SMILES Cc1c(C(=O)NC(=S)Nc2ccccc2C(=O)OCCOCCOC(=O)c2ccc(-c3c4nc(c(-c5cc(S(=O)(=O)[O-])ccc5F)c5ccc([nH]5)c(-c5cc(S(=O)(=O)[O-])ccc5F)c5nc(c(-c6cc(S(=O)(=O)[O-])ccc6F)c6ccc3[nH]6)C=C5)C=C4)cc2)cccc1[N+](=O)[O-]
REMARK SMILES IDX 20 1 19 2 18 3 16 4 17 5 15 6 10 7 11 8 12 9 14 10 13 11
REMARK SMILES IDX 9 12 7 14 8 15 6 16 4 17 5 18 3 20 1 21 2 22 93 23 90 24
REMARK SMILES IDX 92 25 91 26 94 27 95 28 96 29 21 30 22 31 23 32 24 33 25 34
REMARK SMILES IDX 26 35 27 36 28 37 89 38 29 39 88 40 30 41 31 42 32 43 82 44
REMARK SMILES IDX 33 45 87 46 81 47 83 48 34 49 86 50 80 51 79 52 35 54 67 55
REMARK SMILES IDX 47 56 66 57 48 58 51 59 65 60 84 61 49 62 50 63 64 65 85 66
REMARK SMILES IDX 52 67 36 68 37 69 45 70 38 71 44 72 46 73 43 74 39 75 40 76
REMARK SMILES IDX 41 77 42 78 68 79 69 80 77 81 70 82 76 83 78 84 75 85 71 86
REMARK SMILES IDX 72 87 73 88 74 89 53 90 54 91 62 92 55 93 61 94 63 95 60 96
REMARK SMILES IDX 56 97 57 98 58 99 59 100
REMARK H PARENT 9 13 6 19 83 53 51 64
REMARK Flexibility Score: inf
ROOT
ATOM      1  C   UNL     1       0.306  -4.272   1.633  1.00  0.00     0.202 C 
ENDROOT
BRANCH   1   2
ATOM      2  C   UNL     1       0.265  -2.839   2.070  1.00  0.00     0.261 C 
BRANCH   2   3
ATOM      3  O   UNL     1       1.198  -1.931   1.442  1.00  0.00    -0.460 OA
BRANCH   3   4
ATOM      4  C   UNL     1       1.684  -0.796   2.069  1.00  0.00     0.340 C 
ATOM      5  O   UNL     1       2.781  -0.696   2.589  1.00  0.00    -0.246 OA
BRANCH   4   6
ATOM      6  C   UNL     1       1.006   0.399   1.497  1.00  0.00     0.083 A 
ATOM      7  C   UNL     1       1.882   1.378   0.296  1.00  0.00     0.055 A 
ATOM      8  C   UNL     1       1.034   2.138  -1.135  1.00  0.00     0.027 A 
ATOM      9  C   UNL     1      -0.654   1.425  -1.545  1.00  0.00     0.002 A 
ATOM     10  C   UNL     1      -0.572  -0.020   1.393  1.00  0.00     0.018 A 
ATOM     11  C   UNL     1      -1.398   0.271  -0.050  1.00  0.00     0.001 A 
BRANCH   7  12
ATOM     12  N   UNL     1       3.071   0.600  -0.074  1.00  0.00    -0.332 N 
ATOM     13  H   UNL     1       3.907   1.119  -0.120  1.00  0.00     0.169 HD
BRANCH  12  14
ATOM     14  C   UNL     1       3.208  -0.770  -0.375  1.00  0.00     0.177 C 
ATOM     15  S   UNL     1       4.761  -1.423  -0.257  1.00  0.00    -0.040 S 
BRANCH  14  16
ATOM     16  N   UNL     1       2.159  -1.665  -0.920  1.00  0.00    -0.299 N 
ATOM     17  C   UNL     1       0.706  -2.020  -1.446  1.00  0.00     0.257 C 
ATOM     18  O   UNL     1       0.497  -3.118  -1.952  1.00  0.00    -0.269 OA
ATOM     19  H   UNL     1       2.631  -2.525  -1.000  1.00  0.00     0.172 HD
BRANCH  17  20
ATOM     20  C   UNL     1      -0.357  -0.933  -1.471  1.00  0.00     0.049 A 
ATOM     21  C   UNL     1       1.390   0.316  -2.330  1.00  0.00     0.053 C 
ATOM     22  C   UNL     1       0.441   0.258  -0.634  1.00  0.00     0.039 A 
ATOM     23  C   UNL     1      -0.471   1.877   0.239  1.00  0.00     0.273 A 
ATOM     24  C   UNL     1      -1.970  -0.545  -1.982  1.00  0.00     0.014 A 
ATOM     25  C   UNL     1      -2.199   2.152  -0.322  1.00  0.00     0.086 A 
ATOM     26  C   UNL     1      -2.873   0.940  -1.468  1.00  0.00     0.008 A 
BRANCH  23  27
ATOM     27  N   UNL     1      -0.019   3.199   0.888  1.00  0.00     0.063 N 
ATOM     28  O   UNL     1      -0.525   4.231   0.412  1.00  0.00    -0.258 OA
ATOM     29  O   UNL     1       0.765   3.187   1.843  1.00  0.00    -0.258 OA
ENDBRANCH  23  27
ENDBRANCH  17  20
ENDBRANCH  14  16
ENDBRANCH  12  14
ENDBRANCH   7  12
ENDBRANCH   4   6
ENDBRANCH   3   4
ENDBRANCH   2   3
ENDBRANCH   1   2
BRANCH   1  30
ATOM     30  O   UNL     1       1.654  -4.601   1.721  1.00  0.00    -0.374 OA
BRANCH  30  31
ATOM     31  C   UNL     1       2.366  -4.564   0.524  1.00  0.00     0.202 C 
BRANCH  31  32
ATOM     32  C   UNL     1       2.632  -6.013   0.224  1.00  0.00     0.261 C 
BRANCH  32  33
ATOM     33  O   UNL     1       3.374  -6.656   1.317  1.00  0.00    -0.460 OA
BRANCH  33  34
ATOM     34  C   UNL     1       2.734  -6.919   2.512  1.00  0.00     0.338 C 
ATOM     35  O   UNL     1       2.023  -7.896   2.694  1.00  0.00    -0.246 OA
BRANCH  34  36
ATOM     36  C   UNL     1       3.021  -5.900   3.599  1.00  0.00     0.060 A 
ATOM     37  C   UNL     1       2.220  -5.821   4.760  1.00  0.00     0.016 A 
ATOM     38  C   UNL     1       3.778  -4.800   3.260  1.00  0.00     0.016 A 
ATOM     39  C   UNL     1       1.964  -4.576   5.389  1.00  0.00     0.010 A 
ATOM     40  C   UNL     1       3.314  -3.575   3.715  1.00  0.00     0.010 A 
ATOM     41  C   UNL     1       2.391  -3.413   4.768  1.00  0.00    -0.014 A 
BRANCH  41  42
ATOM     42  C   UNL     1       2.024  -2.004   5.109  1.00  0.00     0.031 A 
ATOM     43  C   UNL     1       3.211  -1.175   5.497  1.00  0.00     0.074 A 
ATOM     44  C   UNL     1       0.776  -1.437   4.961  1.00  0.00     0.049 A 
ATOM     45  N   UNL     1       3.170  -0.212   6.346  1.00  0.00    -0.248 NA
ATOM     46  C   UNL     1       4.604  -1.444   5.092  1.00  0.00     0.031 C 
ATOM     47  C   UNL     1       0.357  -0.019   4.924  1.00  0.00     0.029 A 
ATOM     48  N   UNL     1      -0.461  -2.068   4.790  1.00  0.00    -0.354 N 
ATOM     49  C   UNL     1       4.373   0.465   6.243  1.00  0.00     0.074 A 
ATOM     50  C   UNL     1       5.286  -0.462   5.672  1.00  0.00     0.031 C 
ATOM     51  C   UNL     1      -0.990   0.083   5.037  1.00  0.00     0.029 A 
ATOM     52  C   UNL     1      -1.520  -1.256   5.201  1.00  0.00     0.049 A 
ATOM     53  H   UNL     1      -0.571  -2.976   4.425  1.00  0.00     0.167 HD
ATOM     54  C   UNL     1       4.391   1.808   6.440  1.00  0.00     0.034 A 
ATOM     55  C   UNL     1      -2.364  -1.774   6.132  1.00  0.00     0.034 A 
ATOM     56  C   UNL     1       3.030   2.248   6.765  1.00  0.00     0.049 A 
ATOM     57  C   UNL     1      -1.937  -1.081   7.406  1.00  0.00     0.074 A 
ATOM     58  C   UNL     1       2.047   2.909   6.050  1.00  0.00     0.029 A 
ATOM     59  N   UNL     1       2.387   1.645   7.838  1.00  0.00    -0.354 N 
ATOM     60  N   UNL     1      -0.757  -0.524   7.550  1.00  0.00    -0.248 NA
ATOM     61  C   UNL     1      -2.854  -0.741   8.483  1.00  0.00     0.031 C 
ATOM     62  C   UNL     1       0.795   2.636   6.691  1.00  0.00     0.029 A 
ATOM     63  C   UNL     1       1.019   1.802   7.779  1.00  0.00     0.049 A 
ATOM     64  H   UNL     1       2.854   1.161   8.557  1.00  0.00     0.167 HD
ATOM     65  C   UNL     1      -0.799   0.370   8.573  1.00  0.00     0.074 A 
ATOM     66  C   UNL     1      -2.119   0.158   9.160  1.00  0.00     0.031 C 
ATOM     67  C   UNL     1       0.201   1.260   8.859  1.00  0.00     0.034 A 
BRANCH  54  68
ATOM     68  C   UNL     1       5.525   2.767   6.124  1.00  0.00     0.023 A 
ATOM     69  C   UNL     1       5.257   4.141   6.275  1.00  0.00     0.031 A 
ATOM     70  C   UNL     1       6.838   2.472   5.690  1.00  0.00     0.131 A 
ATOM     71  C   UNL     1       6.221   5.127   5.999  1.00  0.00     0.055 A 
ATOM     72  C   UNL     1       7.803   3.454   5.413  1.00  0.00     0.041 A 
ATOM     73  F   UNL     1       7.293   1.230   5.515  1.00  0.00    -0.206 F 
ATOM     74  C   UNL     1       7.499   4.793   5.569  1.00  0.00     0.022 A 
BRANCH  71  75
ATOM     75  S   UNL     1       5.770   6.863   6.235  1.00  0.00     0.124 S 
ATOM     76  O   UNL     1       4.713   7.041   5.245  1.00  0.00    -0.237 OA
ATOM     77  O   UNL     1       5.361   6.888   7.634  1.00  0.00    -0.237 OA
ATOM     78  O   UNL     1       7.013   7.577   5.945  1.00  0.00    -0.744 OA
ENDBRANCH  71  75
ENDBRANCH  54  68
BRANCH  55  79
ATOM     79  C   UNL     1      -2.593  -3.242   5.805  1.00  0.00     0.023 A 
ATOM     80  C   UNL     1      -3.300  -3.515   4.592  1.00  0.00     0.031 A 
ATOM     81  C   UNL     1      -1.692  -4.228   6.242  1.00  0.00     0.131 A 
ATOM     82  C   UNL     1      -2.967  -4.630   3.788  1.00  0.00     0.055 A 
ATOM     83  C   UNL     1      -1.399  -5.355   5.452  1.00  0.00     0.041 A 
ATOM     84  F   UNL     1      -0.925  -4.013   7.321  1.00  0.00    -0.206 F 
ATOM     85  C   UNL     1      -2.008  -5.546   4.211  1.00  0.00     0.022 A 
BRANCH  82  86
ATOM     86  S   UNL     1      -3.527  -4.676   2.043  1.00  0.00     0.124 S 
ATOM     87  O   UNL     1      -4.888  -5.182   2.163  1.00  0.00    -0.237 OA
ATOM     88  O   UNL     1      -3.391  -3.276   1.641  1.00  0.00    -0.237 OA
ATOM     89  O   UNL     1      -2.575  -5.574   1.396  1.00  0.00    -0.744 OA
ENDBRANCH  82  86
ENDBRANCH  55  79
BRANCH  67  90
ATOM     90  C   UNL     1       0.466   1.711  10.270  1.00  0.00     0.023 A 
ATOM     91  C   UNL     1      -0.217   1.138  11.340  1.00  0.00     0.031 A 
ATOM     92  C   UNL     1       1.481   2.633  10.618  1.00  0.00     0.131 A 
ATOM     93  C   UNL     1      -0.049   1.603  12.641  1.00  0.00     0.055 A 
ATOM     94  C   UNL     1       1.761   2.982  11.939  1.00  0.00     0.041 A 
ATOM     95  F   UNL     1       2.266   3.226   9.709  1.00  0.00    -0.206 F 
ATOM     96  C   UNL     1       0.959   2.502  12.961  1.00  0.00     0.022 A 
BRANCH  93  97
ATOM     97  S   UNL     1      -1.293   1.088  13.838  1.00  0.00     0.124 S 
ATOM     98  O   UNL     1      -2.510   1.653  13.259  1.00  0.00    -0.237 OA
ATOM     99  O   UNL     1      -1.194  -0.368  13.790  1.00  0.00    -0.237 OA
ATOM    100  O   UNL     1      -0.846   1.707  15.082  1.00  0.00    -0.744 OA
ENDBRANCH  93  97
ENDBRANCH  67  90
ENDBRANCH  41  42
ENDBRANCH  34  36
ENDBRANCH  33  34
ENDBRANCH  32  33
ENDBRANCH  31  32
ENDBRANCH  30  31
ENDBRANCH   1  30
TORSDOF 22
