REMARK SMILES O=C(Cn1c(=O)n(Cc2cccnc2)c(=O)c2sccc21)OCCOCCOC(=O)c1ccc(-c2c3nc(c(-c4cc(S(=O)(=O)[O-])ccc4F)c4ccc([nH]4)c(-c4cc(S(=O)(=O)[O-])ccc4F)c4nc(c(-c5cc(S(=O)(=O)[O-])ccc5F)c5ccc2[nH]5)C=C4)C=C3)cc1
REMARK SMILES IDX 25 1 24 2 23 3 22 4 2 5 1 6 3 7 4 8 5 9 21 10 6 11 7 12
REMARK SMILES IDX 17 13 20 14 15 15 18 16 19 17 16 18 8 19 9 20 10 21 14 22
REMARK SMILES IDX 11 23 13 24 12 25 26 26 27 27 28 28 29 29 30 30 31 31 32 32
REMARK SMILES IDX 93 33 33 34 92 35 34 36 35 37 36 38 86 39 37 40 91 41 85 42
REMARK SMILES IDX 87 43 38 44 90 45 84 46 83 47 39 49 71 50 51 51 70 52 52 53
REMARK SMILES IDX 55 54 69 55 88 56 53 57 54 58 68 60 89 61 56 62 40 63 41 64
REMARK SMILES IDX 49 65 42 66 48 67 50 68 47 69 43 70 44 71 45 72 46 73 72 74
REMARK SMILES IDX 73 75 81 76 74 77 80 78 82 79 79 80 75 81 76 82 77 83 78 84
REMARK SMILES IDX 57 85 58 86 66 87 59 88 65 89 67 90 64 91 60 92 61 93 62 94
REMARK SMILES IDX 63 95
REMARK H PARENT 87 48 55 59
REMARK Flexibility Score: inf
ROOT
ATOM      1  O   UNL     1       4.351   0.450   1.596  1.00  0.00    -0.374 OA
ENDROOT
BRANCH   1   2
ATOM      2  C   UNL     1       4.642   1.198   0.414  1.00  0.00     0.202 C 
BRANCH   2   3
ATOM      3  C   UNL     1       3.910   0.879  -0.892  1.00  0.00     0.261 C 
BRANCH   3   4
ATOM      4  O   UNL     1       2.559   0.436  -0.752  1.00  0.00    -0.462 OA
BRANCH   4   5
ATOM      5  C   UNL     1       2.277  -0.890  -0.760  1.00  0.00     0.326 C 
ATOM      6  O   UNL     1       1.296  -1.300  -1.379  1.00  0.00    -0.250 OA
BRANCH   5   7
ATOM      7  C   UNL     1       3.141  -1.837   0.076  1.00  0.00     0.250 C 
BRANCH   7   8
ATOM      8  N   UNL     1       3.925  -2.738  -0.740  1.00  0.00    -0.281 N 
ATOM      9  C   UNL     1       5.132  -2.267  -1.261  1.00  0.00     0.332 A 
ATOM     10  C   UNL     1       3.654  -4.089  -0.866  1.00  0.00     0.070 A 
ATOM     11  O   UNL     1       5.735  -1.316  -0.766  1.00  0.00    -0.247 OA
ATOM     12  N   UNL     1       5.606  -2.901  -2.398  1.00  0.00    -0.254 N 
ATOM     13  C   UNL     1       4.318  -4.802  -1.827  1.00  0.00     0.116 A 
ATOM     14  C   UNL     1       2.806  -4.904  -0.071  1.00  0.00     0.039 A 
ATOM     15  C   UNL     1       5.218  -4.186  -2.771  1.00  0.00     0.274 A 
ATOM     16  S   UNL     1       3.969  -6.458  -1.764  1.00  0.00    -0.136 S 
ATOM     17  C   UNL     1       2.935  -6.235  -0.411  1.00  0.00     0.068 A 
ATOM     18  O   UNL     1       5.607  -4.722  -3.806  1.00  0.00    -0.268 OA
BRANCH  12  19
ATOM     19  C   UNL     1       6.540  -2.146  -3.223  1.00  0.00     0.168 C 
BRANCH  19  20
ATOM     20  C   UNL     1       7.989  -2.362  -2.882  1.00  0.00    -0.010 A 
ATOM     21  C   UNL     1       8.785  -1.343  -2.345  1.00  0.00     0.009 A 
ATOM     22  C   UNL     1       8.607  -3.582  -3.136  1.00  0.00     0.116 A 
ATOM     23  C   UNL     1      10.135  -1.578  -2.095  1.00  0.00     0.020 A 
ATOM     24  N   UNL     1       9.912  -3.841  -2.896  1.00  0.00    -0.264 NA
ATOM     25  C   UNL     1      10.645  -2.833  -2.381  1.00  0.00     0.111 A 
ENDBRANCH  19  20
ENDBRANCH  12  19
ENDBRANCH   7   8
ENDBRANCH   5   7
ENDBRANCH   4   5
ENDBRANCH   3   4
ENDBRANCH   2   3
ENDBRANCH   1   2
BRANCH   1  26
ATOM     26  C   UNL     1       3.066   0.547   2.216  1.00  0.00     0.202 C 
BRANCH  26  27
ATOM     27  C   UNL     1       2.918   1.618   3.276  1.00  0.00     0.261 C 
BRANCH  27  28
ATOM     28  O   UNL     1       3.054   2.873   2.653  1.00  0.00    -0.460 OA
BRANCH  28  29
ATOM     29  C   UNL     1       4.339   3.298   2.551  1.00  0.00     0.338 C 
ATOM     30  O   UNL     1       5.335   2.789   2.987  1.00  0.00    -0.246 OA
BRANCH  29  31
ATOM     31  C   UNL     1       4.277   4.553   1.790  1.00  0.00     0.060 A 
ATOM     32  C   UNL     1       5.337   5.406   2.051  1.00  0.00     0.016 A 
ATOM     33  C   UNL     1       3.044   4.980   1.264  1.00  0.00     0.016 A 
ATOM     34  C   UNL     1       5.018   6.725   2.190  1.00  0.00     0.010 A 
ATOM     35  C   UNL     1       2.722   6.297   1.420  1.00  0.00     0.010 A 
ATOM     36  C   UNL     1       3.684   7.114   1.997  1.00  0.00    -0.014 A 
BRANCH  36  37
ATOM     37  C   UNL     1       3.366   8.480   2.301  1.00  0.00     0.031 A 
ATOM     38  C   UNL     1       3.949   9.375   1.295  1.00  0.00     0.074 A 
ATOM     39  C   UNL     1       2.637   8.854   3.362  1.00  0.00     0.049 A 
ATOM     40  N   UNL     1       5.022  10.076   1.420  1.00  0.00    -0.248 NA
ATOM     41  C   UNL     1       3.457   9.251  -0.086  1.00  0.00     0.031 C 
ATOM     42  C   UNL     1       1.840   8.037   4.277  1.00  0.00     0.029 A 
ATOM     43  N   UNL     1       2.404  10.117   3.792  1.00  0.00    -0.354 N 
ATOM     44  C   UNL     1       5.181  10.699   0.196  1.00  0.00     0.074 A 
ATOM     45  C   UNL     1       4.371   9.967  -0.738  1.00  0.00     0.031 C 
ATOM     46  C   UNL     1       1.040   8.851   5.008  1.00  0.00     0.029 A 
ATOM     47  C   UNL     1       1.368  10.236   4.706  1.00  0.00     0.049 A 
ATOM     48  H   UNL     1       2.929  10.889   3.480  1.00  0.00     0.167 HD
ATOM     49  C   UNL     1       5.705  11.948   0.134  1.00  0.00     0.034 A 
ATOM     50  C   UNL     1       0.796  11.405   5.100  1.00  0.00     0.034 A 
ATOM     51  C   UNL     1       6.483  12.247   1.318  1.00  0.00     0.049 A 
ATOM     52  C   UNL     1       1.816  12.466   4.864  1.00  0.00     0.074 A 
ATOM     53  C   UNL     1       7.572  11.645   1.924  1.00  0.00     0.029 A 
ATOM     54  N   UNL     1       5.912  13.038   2.292  1.00  0.00    -0.354 N 
ATOM     55  N   UNL     1       2.959  12.514   5.497  1.00  0.00    -0.248 NA
ATOM     56  C   UNL     1       1.788  13.173   3.590  1.00  0.00     0.031 C 
ATOM     57  C   UNL     1       7.309  11.720   3.324  1.00  0.00     0.029 A 
ATOM     58  C   UNL     1       6.118  12.424   3.506  1.00  0.00     0.049 A 
ATOM     59  H   UNL     1       5.441  13.890   2.144  1.00  0.00     0.167 HD
ATOM     60  C   UNL     1       3.892  12.877   4.535  1.00  0.00     0.074 A 
ATOM     61  C   UNL     1       3.100  13.357   3.403  1.00  0.00     0.031 C 
ATOM     62  C   UNL     1       5.199  12.493   4.630  1.00  0.00     0.034 A 
BRANCH  49  63
ATOM     63  C   UNL     1       5.162  13.002  -0.798  1.00  0.00     0.023 A 
ATOM     64  C   UNL     1       5.814  14.244  -0.808  1.00  0.00     0.031 A 
ATOM     65  C   UNL     1       3.909  12.957  -1.461  1.00  0.00     0.131 A 
ATOM     66  C   UNL     1       5.197  15.371  -1.375  1.00  0.00     0.055 A 
ATOM     67  C   UNL     1       3.332  14.065  -2.080  1.00  0.00     0.041 A 
ATOM     68  F   UNL     1       3.122  11.876  -1.474  1.00  0.00    -0.206 F 
ATOM     69  C   UNL     1       3.962  15.290  -2.013  1.00  0.00     0.022 A 
BRANCH  66  70
ATOM     70  S   UNL     1       5.977  16.982  -1.129  1.00  0.00     0.124 S 
ATOM     71  O   UNL     1       6.054  17.051   0.326  1.00  0.00    -0.237 OA
ATOM     72  O   UNL     1       7.243  16.810  -1.835  1.00  0.00    -0.237 OA
ATOM     73  O   UNL     1       5.037  17.910  -1.752  1.00  0.00    -0.744 OA
ENDBRANCH  66  70
ENDBRANCH  49  63
BRANCH  50  74
ATOM     74  C   UNL     1      -0.657  11.685   5.285  1.00  0.00     0.023 A 
ATOM     75  C   UNL     1      -1.114  12.900   5.841  1.00  0.00     0.031 A 
ATOM     76  C   UNL     1      -1.636  10.865   4.679  1.00  0.00     0.131 A 
ATOM     77  C   UNL     1      -2.481  13.255   5.764  1.00  0.00     0.055 A 
ATOM     78  C   UNL     1      -2.987  11.218   4.611  1.00  0.00     0.041 A 
ATOM     79  F   UNL     1      -1.307   9.730   4.045  1.00  0.00    -0.206 F 
ATOM     80  C   UNL     1      -3.414  12.423   5.143  1.00  0.00     0.022 A 
BRANCH  77  81
ATOM     81  S   UNL     1      -3.052  14.877   6.367  1.00  0.00     0.124 S 
ATOM     82  O   UNL     1      -3.107  14.663   7.809  1.00  0.00    -0.237 OA
ATOM     83  O   UNL     1      -2.013  15.779   5.885  1.00  0.00    -0.237 OA
ATOM     84  O   UNL     1      -4.353  15.039   5.717  1.00  0.00    -0.744 OA
ENDBRANCH  77  81
ENDBRANCH  50  74
BRANCH  62  85
ATOM     85  C   UNL     1       5.689  11.916   5.946  1.00  0.00     0.023 A 
ATOM     86  C   UNL     1       5.234  10.709   6.527  1.00  0.00     0.031 A 
ATOM     87  C   UNL     1       6.778  12.563   6.556  1.00  0.00     0.131 A 
ATOM     88  C   UNL     1       5.871  10.198   7.679  1.00  0.00     0.055 A 
ATOM     89  C   UNL     1       7.416  12.045   7.682  1.00  0.00     0.041 A 
ATOM     90  F   UNL     1       7.274  13.697   6.032  1.00  0.00    -0.206 F 
ATOM     91  C   UNL     1       6.964  10.860   8.249  1.00  0.00     0.022 A 
BRANCH  88  92
ATOM     92  S   UNL     1       5.309   8.640   8.444  1.00  0.00     0.124 S 
ATOM     93  O   UNL     1       3.912   8.908   8.764  1.00  0.00    -0.237 OA
ATOM     94  O   UNL     1       5.549   7.659   7.389  1.00  0.00    -0.237 OA
ATOM     95  O   UNL     1       6.181   8.496   9.612  1.00  0.00    -0.744 OA
ENDBRANCH  88  92
ENDBRANCH  62  85
ENDBRANCH  36  37
ENDBRANCH  29  31
ENDBRANCH  28  29
ENDBRANCH  27  28
ENDBRANCH  26  27
ENDBRANCH   1  26
TORSDOF 20
