REMARK SMILES COC[C@H](C)CNC(=O)N[C@@H]1CCCCC[C@@H]1C(=O)OCCOCCOC(=O)c1ccc(-c2c3nc(c(-c4cc(S(=O)(=O)[O-])ccc4F)c4ccc([nH]4)c(-c4cc(S(=O)(=O)[O-])ccc4F)c4nc(c(-c5cc(S(=O)(=O)[O-])ccc5F)c5ccc2[nH]5)C=C4)C=C3)cc1
REMARK SMILES IDX 21 1 20 2 18 3 19 4 17 5 11 6 10 7 7 8 8 9 9 11 6 13 4 14
REMARK SMILES IDX 5 15 3 16 2 17 1 18 12 19 13 20 14 21 16 23 15 24 22 26
REMARK SMILES IDX 23 27 24 28 25 29 26 30 27 31 28 32 29 33 30 34 91 35 31 36
REMARK SMILES IDX 90 37 32 38 33 39 34 40 84 41 35 42 89 43 83 44 85 45 36 46
REMARK SMILES IDX 88 47 82 48 81 49 37 51 69 52 49 53 68 54 50 55 53 56 67 57
REMARK SMILES IDX 86 58 51 59 52 60 66 62 87 63 54 64 38 65 39 66 47 67 40 68
REMARK SMILES IDX 46 69 48 70 45 71 41 72 42 73 43 74 44 75 70 76 71 77 79 78
REMARK SMILES IDX 72 79 78 80 80 81 77 82 73 83 74 84 75 85 76 86 55 87 56 88
REMARK SMILES IDX 64 89 57 90 63 91 65 92 62 93 58 94 59 95 60 96 61 97
REMARK H PARENT 7 10 10 12 85 50 53 61
REMARK Flexibility Score: 90.00
ROOT
ATOM      1  C   UNL     1      -2.616  -3.153   2.709  1.00  0.00     0.261 C 
ENDROOT
BRANCH   1   2
ATOM      2  O   UNL     1      -1.306  -3.704   2.352  1.00  0.00    -0.463 OA
BRANCH   2   3
ATOM      3  C   UNL     1      -1.092  -4.352   1.175  1.00  0.00     0.311 C 
ATOM      4  O   UNL     1      -1.887  -4.280   0.240  1.00  0.00    -0.252 OA
BRANCH   3   5
ATOM      5  C   UNL     1       0.152  -5.334   1.114  1.00  0.00     0.121 C 
BRANCH   5   6
ATOM      6  C   UNL     1       0.126  -6.245   2.319  1.00  0.00     0.098 C 
BRANCH   6   7
ATOM      7  N   UNL     1       0.493  -5.585   3.599  1.00  0.00    -0.335 N 
ATOM      8  N   UNL     1       0.896  -3.193   3.513  1.00  0.00    -0.338 N 
ATOM      9  C   UNL     1       0.575  -4.352   4.108  1.00  0.00     0.315 C 
ATOM     10  H   UNL     1       0.339  -2.481   3.900  1.00  0.00     0.165 HD
ATOM     11  O   UNL     1       0.244  -4.265   5.299  1.00  0.00    -0.249 OA
ATOM     12  H   UNL     1       0.752  -6.255   4.272  1.00  0.00     0.165 HD
BRANCH   8  13
ATOM     13  C   UNL     1       1.789  -2.584   2.478  1.00  0.00     0.123 C 
BRANCH  13  14
ATOM     14  C   UNL     1       1.201  -1.712   1.243  1.00  0.00     0.031 C 
ATOM     15  C   UNL     1       1.972  -0.376   1.177  1.00  0.00     0.012 C 
BRANCH  14  16
ATOM     16  C   UNL     1       1.113  -2.209  -0.230  1.00  0.00     0.164 C 
BRANCH  16  17
ATOM     17  O   UNL     1       0.382  -1.286  -1.060  1.00  0.00    -0.384 OA
ATOM     18  C   UNL     1      -0.992  -1.654  -1.204  1.00  0.00     0.194 C 
ENDBRANCH  16  17
ENDBRANCH  14  16
ENDBRANCH  13  14
ENDBRANCH   8  13
ENDBRANCH   6   7
BRANCH   6  19
ATOM     19  C   UNL     1       1.000  -7.535   2.162  1.00  0.00     0.026 C 
BRANCH  19  20
ATOM     20  C   UNL     1       1.454  -7.977   0.753  1.00  0.00     0.002 C 
BRANCH  20  21
ATOM     21  C   UNL     1       2.673  -7.221   0.221  1.00  0.00     0.000 CG0
ATOM     22  G   UNL     1       2.352  -5.806  -0.215  1.00  0.00     0.000 G0
ENDBRANCH  20  21
ENDBRANCH  19  20
ENDBRANCH   6  19
ENDBRANCH   5   6
BRANCH   5  23
ATOM     23  C   UNL     1       1.651  -5.030   0.886  1.00  0.00     0.017 C 
BRANCH  23  24
ATOM     24  C   UNL     1       2.352  -5.806  -0.215  1.00  0.00     0.001 CG0
ATOM     25  G   UNL     1       2.673  -7.221   0.221  1.00  0.00     0.000 G0
ENDBRANCH  23  24
ENDBRANCH   5  23
ENDBRANCH   3   5
ENDBRANCH   2   3
ENDBRANCH   1   2
BRANCH   1  26
ATOM     26  C   UNL     1      -2.589  -2.191   3.949  1.00  0.00     0.202 C 
BRANCH  26  27
ATOM     27  O   UNL     1      -2.400  -0.780   3.676  1.00  0.00    -0.374 OA
BRANCH  27  28
ATOM     28  C   UNL     1      -1.111  -0.485   3.161  1.00  0.00     0.202 C 
BRANCH  28  29
ATOM     29  C   UNL     1      -0.114   0.249   4.056  1.00  0.00     0.261 C 
BRANCH  29  30
ATOM     30  O   UNL     1       0.010  -0.431   5.292  1.00  0.00    -0.460 OA
BRANCH  30  31
ATOM     31  C   UNL     1      -0.722   0.173   6.251  1.00  0.00     0.338 C 
ATOM     32  O   UNL     1      -1.255   1.261   6.215  1.00  0.00    -0.246 OA
BRANCH  31  33
ATOM     33  C   UNL     1      -0.941  -0.812   7.300  1.00  0.00     0.060 A 
ATOM     34  C   UNL     1      -2.267  -0.995   7.685  1.00  0.00     0.016 A 
ATOM     35  C   UNL     1       0.122  -1.487   7.907  1.00  0.00     0.016 A 
ATOM     36  C   UNL     1      -2.534  -1.789   8.778  1.00  0.00     0.010 A 
ATOM     37  C   UNL     1      -0.150  -2.300   8.995  1.00  0.00     0.010 A 
ATOM     38  C   UNL     1      -1.470  -2.395   9.460  1.00  0.00    -0.014 A 
BRANCH  38  39
ATOM     39  C   UNL     1      -1.752  -2.986  10.773  1.00  0.00     0.031 A 
ATOM     40  C   UNL     1      -1.415  -2.187  11.995  1.00  0.00     0.074 A 
ATOM     41  C   UNL     1      -2.381  -4.168  10.824  1.00  0.00     0.049 A 
ATOM     42  N   UNL     1      -1.599  -2.485  13.251  1.00  0.00    -0.248 NA
ATOM     43  C   UNL     1      -0.783  -0.874  11.773  1.00  0.00     0.031 C 
ATOM     44  C   UNL     1      -2.776  -4.958   9.655  1.00  0.00     0.029 A 
ATOM     45  N   UNL     1      -2.811  -4.899  11.892  1.00  0.00    -0.354 N 
ATOM     46  C   UNL     1      -1.102  -1.404  13.969  1.00  0.00     0.074 A 
ATOM     47  C   UNL     1      -0.570  -0.461  13.012  1.00  0.00     0.031 C 
ATOM     48  C   UNL     1      -3.404  -6.066  10.075  1.00  0.00     0.029 A 
ATOM     49  C   UNL     1      -3.403  -6.085  11.534  1.00  0.00     0.049 A 
ATOM     50  H   UNL     1      -2.707  -4.606  12.826  1.00  0.00     0.167 HD
ATOM     51  C   UNL     1      -1.103  -1.226  15.311  1.00  0.00     0.034 A 
ATOM     52  C   UNL     1      -3.860  -7.080  12.314  1.00  0.00     0.034 A 
ATOM     53  C   UNL     1      -1.638  -2.208  16.222  1.00  0.00     0.049 A 
ATOM     54  C   UNL     1      -3.773  -6.893  13.807  1.00  0.00     0.074 A 
ATOM     55  C   UNL     1      -1.714  -2.157  17.600  1.00  0.00     0.029 A 
ATOM     56  N   UNL     1      -2.177  -3.433  15.836  1.00  0.00    -0.354 N 
ATOM     57  N   UNL     1      -3.312  -5.864  14.485  1.00  0.00    -0.248 NA
ATOM     58  C   UNL     1      -4.271  -7.992  14.638  1.00  0.00     0.031 C 
ATOM     59  C   UNL     1      -2.216  -3.382  18.051  1.00  0.00     0.029 A 
ATOM     60  C   UNL     1      -2.544  -4.164  16.953  1.00  0.00     0.049 A 
ATOM     61  H   UNL     1      -2.282  -3.735  14.905  1.00  0.00     0.167 HD
ATOM     62  C   UNL     1      -3.484  -6.185  15.827  1.00  0.00     0.074 A 
ATOM     63  C   UNL     1      -4.115  -7.492  15.855  1.00  0.00     0.031 C 
ATOM     64  C   UNL     1      -3.154  -5.475  16.937  1.00  0.00     0.034 A 
BRANCH  51  65
ATOM     65  C   UNL     1      -0.454   0.023  15.854  1.00  0.00     0.023 A 
ATOM     66  C   UNL     1      -0.938   1.310  15.556  1.00  0.00     0.031 A 
ATOM     67  C   UNL     1       0.695  -0.074  16.659  1.00  0.00     0.131 A 
ATOM     68  C   UNL     1      -0.240   2.443  16.004  1.00  0.00     0.055 A 
ATOM     69  C   UNL     1       1.338   1.055  17.169  1.00  0.00     0.041 A 
ATOM     70  F   UNL     1       1.226  -1.272  16.950  1.00  0.00    -0.206 F 
ATOM     71  C   UNL     1       0.878   2.324  16.832  1.00  0.00     0.022 A 
BRANCH  68  72
ATOM     72  S   UNL     1      -0.729   4.074  15.376  1.00  0.00     0.124 S 
ATOM     73  O   UNL     1      -0.569   3.896  13.935  1.00  0.00    -0.237 OA
ATOM     74  O   UNL     1      -2.101   4.199  15.856  1.00  0.00    -0.237 OA
ATOM     75  O   UNL     1       0.234   4.983  15.995  1.00  0.00    -0.744 OA
ENDBRANCH  68  72
ENDBRANCH  51  65
BRANCH  52  76
ATOM     76  C   UNL     1      -4.387  -8.330  11.704  1.00  0.00     0.023 A 
ATOM     77  C   UNL     1      -5.712  -8.738  11.910  1.00  0.00     0.031 A 
ATOM     78  C   UNL     1      -3.558  -9.155  10.919  1.00  0.00     0.131 A 
ATOM     79  C   UNL     1      -6.157  -9.959  11.380  1.00  0.00     0.055 A 
ATOM     80  C   UNL     1      -4.023 -10.336  10.342  1.00  0.00     0.041 A 
ATOM     81  F   UNL     1      -2.280  -8.813  10.688  1.00  0.00    -0.206 F 
ATOM     82  C   UNL     1      -5.327 -10.752  10.583  1.00  0.00     0.022 A 
BRANCH  79  83
ATOM     83  S   UNL     1      -7.811 -10.546  11.831  1.00  0.00     0.124 S 
ATOM     84  O   UNL     1      -7.736 -10.555  13.287  1.00  0.00    -0.237 OA
ATOM     85  O   UNL     1      -8.667  -9.523  11.238  1.00  0.00    -0.237 OA
ATOM     86  O   UNL     1      -7.888 -11.862  11.201  1.00  0.00    -0.744 OA
ENDBRANCH  79  83
ENDBRANCH  52  76
BRANCH  64  87
ATOM     87  C   UNL     1      -3.501  -6.101  18.264  1.00  0.00     0.023 A 
ATOM     88  C   UNL     1      -2.883  -7.283  18.702  1.00  0.00     0.031 A 
ATOM     89  C   UNL     1      -4.470  -5.509  19.093  1.00  0.00     0.131 A 
ATOM     90  C   UNL     1      -3.288  -7.875  19.906  1.00  0.00     0.055 A 
ATOM     91  C   UNL     1      -4.813  -6.061  20.327  1.00  0.00     0.041 A 
ATOM     92  F   UNL     1      -5.094  -4.380  18.720  1.00  0.00    -0.206 F 
ATOM     93  C   UNL     1      -4.232  -7.259  20.732  1.00  0.00     0.022 A 
BRANCH  90  94
ATOM     94  S   UNL     1      -2.646  -9.518  20.322  1.00  0.00     0.124 S 
ATOM     95  O   UNL     1      -3.084 -10.311  19.178  1.00  0.00    -0.237 OA
ATOM     96  O   UNL     1      -1.210  -9.277  20.419  1.00  0.00    -0.237 OA
ATOM     97  O   UNL     1      -3.308  -9.834  21.587  1.00  0.00    -0.744 OA
ENDBRANCH  90  94
ENDBRANCH  64  87
ENDBRANCH  38  39
ENDBRANCH  31  33
ENDBRANCH  30  31
ENDBRANCH  29  30
ENDBRANCH  28  29
ENDBRANCH  27  28
ENDBRANCH  26  27
ENDBRANCH   1  26
TORSDOF 22
