REMARK SMILES COc1ccc([C@H]2[C@@H](C(=O)OCCOCCOC(=O)c3ccc(-c4c5nc(c(-c6cc(S(=O)(=O)[O-])ccc6F)c6ccc([nH]6)c(-c6cc(S(=O)(=O)[O-])ccc6F)c6nc(c(-c7cc(S(=O)(=O)[O-])ccc7F)c7ccc4[nH]7)C=C6)C=C5)cc3)CC(=O)N2Cc2ccccc2)cc1
REMARK SMILES IDX 15 1 14 2 13 3 12 4 11 5 9 6 10 7 8 8 7 9 86 10 83 11 84 12
REMARK SMILES IDX 85 13 6 14 3 15 4 16 95 17 5 18 94 19 2 20 1 21 87 22 88 23
REMARK SMILES IDX 89 24 93 25 90 26 92 27 91 28 16 29 17 30 18 31 19 32 20 33
REMARK SMILES IDX 21 34 82 35 22 36 81 37 23 38 24 39 25 40 75 41 26 42 80 43
REMARK SMILES IDX 74 44 76 45 27 46 79 47 73 48 72 49 28 51 60 52 40 53 59 54
REMARK SMILES IDX 41 55 44 56 58 57 77 58 42 59 43 60 57 62 78 63 45 64 29 65
REMARK SMILES IDX 30 66 38 67 31 68 37 69 39 70 36 71 32 72 33 73 34 74 35 75
REMARK SMILES IDX 61 76 62 77 70 78 63 79 69 80 71 81 68 82 64 83 65 84 66 85
REMARK SMILES IDX 67 86 46 87 47 88 55 89 48 90 54 91 56 92 53 93 49 94 50 95
REMARK SMILES IDX 51 96 52 97
REMARK H PARENT 76 50 44 61
REMARK Flexibility Score: inf
ROOT
ATOM      1  C   UNL     1       4.851  -3.264   8.223  1.00  0.00     0.202 C 
ENDROOT
BRANCH   1   2
ATOM      2  O   UNL     1       3.962  -2.412   8.942  1.00  0.00    -0.374 OA
BRANCH   2   3
ATOM      3  C   UNL     1       2.704  -2.935   9.357  1.00  0.00     0.202 C 
BRANCH   3   4
ATOM      4  C   UNL     1       1.670  -3.224   8.268  1.00  0.00     0.261 C 
BRANCH   4   5
ATOM      5  O   UNL     1       2.189  -4.035   7.204  1.00  0.00    -0.463 OA
BRANCH   5   6
ATOM      6  C   UNL     1       2.275  -3.419   6.000  1.00  0.00     0.312 C 
ATOM      7  O   UNL     1       1.972  -2.252   5.771  1.00  0.00    -0.252 OA
BRANCH   6   8
ATOM      8  C   UNL     1       2.728  -4.326   4.898  1.00  0.00     0.135 C 
ATOM      9  C   UNL     1       1.543  -4.878   4.111  1.00  0.00     0.130 C 
ATOM     10  N   UNL     1       2.202  -5.898   3.311  1.00  0.00    -0.330 N 
ATOM     11  C   UNL     1       3.561  -5.566   5.200  1.00  0.00     0.118 C 
ATOM     12  C   UNL     1       3.370  -6.345   3.913  1.00  0.00     0.224 C 
ATOM     13  O   UNL     1       4.131  -7.202   3.486  1.00  0.00    -0.275 OA
BRANCH   9  14
ATOM     14  C   UNL     1       0.411  -5.417   4.983  1.00  0.00    -0.024 A 
ATOM     15  C   UNL     1      -1.714  -6.330   6.614  1.00  0.00     0.118 A 
ATOM     16  C   UNL     1      -1.630  -4.989   6.241  1.00  0.00     0.047 A 
ATOM     17  C   UNL     1      -0.729  -7.215   6.185  1.00  0.00     0.047 A 
ATOM     18  C   UNL     1      -0.590  -4.537   5.425  1.00  0.00     0.010 A 
ATOM     19  C   UNL     1       0.328  -6.760   5.387  1.00  0.00     0.010 A 
BRANCH  15  20
ATOM     20  O   UNL     1      -2.791  -6.644   7.394  1.00  0.00    -0.497 OA
ATOM     21  C   UNL     1      -3.007  -8.025   7.664  1.00  0.00     0.278 C 
ENDBRANCH  15  20
ENDBRANCH   9  14
BRANCH  10  22
ATOM     22  C   UNL     1       1.750  -6.283   1.981  1.00  0.00     0.155 C 
BRANCH  22  23
ATOM     23  C   UNL     1       0.349  -6.841   1.970  1.00  0.00    -0.029 A 
ATOM     24  C   UNL     1       0.140  -8.224   2.061  1.00  0.00     0.005 A 
ATOM     25  C   UNL     1      -0.764  -5.986   1.975  1.00  0.00     0.005 A 
ATOM     26  C   UNL     1      -1.152  -8.736   2.192  1.00  0.00     0.000 A 
ATOM     27  C   UNL     1      -2.051  -6.497   2.135  1.00  0.00     0.000 A 
ATOM     28  C   UNL     1      -2.244  -7.872   2.248  1.00  0.00     0.000 A 
ENDBRANCH  22  23
ENDBRANCH  10  22
ENDBRANCH   6   8
ENDBRANCH   5   6
ENDBRANCH   4   5
ENDBRANCH   3   4
ENDBRANCH   2   3
ENDBRANCH   1   2
BRANCH   1  29
ATOM     29  C   UNL     1       5.388  -4.524   8.917  1.00  0.00     0.261 C 
BRANCH  29  30
ATOM     30  O   UNL     1       4.371  -5.488   9.247  1.00  0.00    -0.460 OA
BRANCH  30  31
ATOM     31  C   UNL     1       4.226  -5.703  10.577  1.00  0.00     0.338 C 
ATOM     32  O   UNL     1       4.861  -5.157  11.476  1.00  0.00    -0.246 OA
BRANCH  31  33
ATOM     33  C   UNL     1       3.079  -6.577  10.871  1.00  0.00     0.060 A 
ATOM     34  C   UNL     1       2.126  -6.103  11.783  1.00  0.00     0.016 A 
ATOM     35  C   UNL     1       3.030  -7.897  10.417  1.00  0.00     0.016 A 
ATOM     36  C   UNL     1       1.170  -6.968  12.308  1.00  0.00     0.010 A 
ATOM     37  C   UNL     1       2.070  -8.768  10.951  1.00  0.00     0.010 A 
ATOM     38  C   UNL     1       1.174  -8.320  11.940  1.00  0.00    -0.014 A 
BRANCH  38  39
ATOM     39  C   UNL     1       0.383  -9.284  12.749  1.00  0.00     0.031 A 
ATOM     40  C   UNL     1       1.083 -10.064  13.834  1.00  0.00     0.074 A 
ATOM     41  C   UNL     1      -0.944  -9.411  12.575  1.00  0.00     0.049 A 
ATOM     42  N   UNL     1       0.599 -10.943  14.674  1.00  0.00    -0.248 NA
ATOM     43  C   UNL     1       2.525  -9.817  13.987  1.00  0.00     0.031 C 
ATOM     44  C   UNL     1      -1.741  -8.672  11.597  1.00  0.00     0.029 A 
ATOM     45  N   UNL     1      -1.856 -10.205  13.223  1.00  0.00    -0.354 N 
ATOM     46  C   UNL     1       1.675 -11.353  15.457  1.00  0.00     0.074 A 
ATOM     47  C   UNL     1       2.843 -10.659  14.957  1.00  0.00     0.031 C 
ATOM     48  C   UNL     1      -3.026  -9.050  11.709  1.00  0.00     0.029 A 
ATOM     49  C   UNL     1      -3.138 -10.076  12.745  1.00  0.00     0.049 A 
ATOM     50  H   UNL     1      -1.615 -10.809  13.962  1.00  0.00     0.167 HD
ATOM     51  C   UNL     1       1.688 -12.218  16.502  1.00  0.00     0.034 A 
ATOM     52  C   UNL     1      -4.269 -10.721  13.096  1.00  0.00     0.034 A 
ATOM     53  C   UNL     1       0.519 -12.914  16.983  1.00  0.00     0.049 A 
ATOM     54  C   UNL     1      -4.222 -11.729  14.220  1.00  0.00     0.074 A 
ATOM     55  C   UNL     1       0.418 -13.822  18.023  1.00  0.00     0.029 A 
ATOM     56  N   UNL     1      -0.758 -12.783  16.450  1.00  0.00    -0.354 N 
ATOM     57  N   UNL     1      -3.197 -12.112  14.947  1.00  0.00    -0.248 NA
ATOM     58  C   UNL     1      -5.490 -12.376  14.581  1.00  0.00     0.031 C 
ATOM     59  C   UNL     1      -0.902 -14.284  18.079  1.00  0.00     0.029 A 
ATOM     60  C   UNL     1      -1.645 -13.608  17.124  1.00  0.00     0.049 A 
ATOM     61  H   UNL     1      -0.998 -12.190  15.702  1.00  0.00     0.167 HD
ATOM     62  C   UNL     1      -3.708 -13.014  15.878  1.00  0.00     0.074 A 
ATOM     63  C   UNL     1      -5.131 -13.110  15.624  1.00  0.00     0.031 C 
ATOM     64  C   UNL     1      -3.062 -13.697  16.859  1.00  0.00     0.034 A 
BRANCH  51  65
ATOM     65  C   UNL     1       3.025 -12.494  17.151  1.00  0.00     0.023 A 
ATOM     66  C   UNL     1       3.746 -11.488  17.819  1.00  0.00     0.031 A 
ATOM     67  C   UNL     1       3.607 -13.771  17.061  1.00  0.00     0.131 A 
ATOM     68  C   UNL     1       5.038 -11.754  18.300  1.00  0.00     0.055 A 
ATOM     69  C   UNL     1       4.859 -14.050  17.613  1.00  0.00     0.041 A 
ATOM     70  F   UNL     1       2.977 -14.765  16.417  1.00  0.00    -0.206 F 
ATOM     71  C   UNL     1       5.590 -13.035  18.223  1.00  0.00     0.022 A 
BRANCH  68  72
ATOM     72  S   UNL     1       6.047 -10.367  18.893  1.00  0.00     0.124 S 
ATOM     73  O   UNL     1       6.086  -9.506  17.713  1.00  0.00    -0.237 OA
ATOM     74  O   UNL     1       5.269  -9.871  20.022  1.00  0.00    -0.237 OA
ATOM     75  O   UNL     1       7.321 -10.994  19.239  1.00  0.00    -0.744 OA
ENDBRANCH  68  72
ENDBRANCH  51  65
BRANCH  52  76
ATOM     76  C   UNL     1      -5.543 -10.457  12.367  1.00  0.00     0.023 A 
ATOM     77  C   UNL     1      -6.651  -9.889  13.016  1.00  0.00     0.031 A 
ATOM     78  C   UNL     1      -5.685 -10.823  11.017  1.00  0.00     0.131 A 
ATOM     79  C   UNL     1      -7.866  -9.748  12.328  1.00  0.00     0.055 A 
ATOM     80  C   UNL     1      -6.882 -10.637  10.323  1.00  0.00     0.041 A 
ATOM     81  F   UNL     1      -4.654 -11.364  10.347  1.00  0.00    -0.206 F 
ATOM     82  C   UNL     1      -7.986 -10.108  10.984  1.00  0.00     0.022 A 
BRANCH  79  83
ATOM     83  S   UNL     1      -9.319  -9.159  13.242  1.00  0.00     0.124 S 
ATOM     84  O   UNL     1      -9.433 -10.160  14.296  1.00  0.00    -0.237 OA
ATOM     85  O   UNL     1      -8.891  -7.829  13.662  1.00  0.00    -0.237 OA
ATOM     86  O   UNL     1     -10.382  -9.181  12.240  1.00  0.00    -0.744 OA
ENDBRANCH  79  83
ENDBRANCH  52  76
BRANCH  64  87
ATOM     87  C   UNL     1      -3.908 -14.557  17.768  1.00  0.00     0.023 A 
ATOM     88  C   UNL     1      -4.578 -15.701  17.301  1.00  0.00     0.031 A 
ATOM     89  C   UNL     1      -4.064 -14.208  19.122  1.00  0.00     0.131 A 
ATOM     90  C   UNL     1      -5.424 -16.417  18.162  1.00  0.00     0.055 A 
ATOM     91  C   UNL     1      -4.858 -14.959  19.989  1.00  0.00     0.041 A 
ATOM     92  F   UNL     1      -3.447 -13.126  19.624  1.00  0.00    -0.206 F 
ATOM     93  C   UNL     1      -5.557 -16.061  19.507  1.00  0.00     0.022 A 
BRANCH  90  94
ATOM     94  S   UNL     1      -6.436 -17.757  17.475  1.00  0.00     0.124 S 
ATOM     95  O   UNL     1      -7.146 -17.080  16.395  1.00  0.00    -0.237 OA
ATOM     96  O   UNL     1      -5.428 -18.729  17.064  1.00  0.00    -0.237 OA
ATOM     97  O   UNL     1      -7.271 -18.169  18.602  1.00  0.00    -0.744 OA
ENDBRANCH  90  94
ENDBRANCH  64  87
ENDBRANCH  38  39
ENDBRANCH  31  33
ENDBRANCH  30  31
ENDBRANCH  29  30
ENDBRANCH   1  29
TORSDOF 21
