REMARK SMILES COc1cccc(-c2ccc(=O)n(CC(=O)N[C@@H](C(=O)OCCOCCOC(=O)c3ccc(-c4c5nc(c(-c6cc(S(=O)(=O)[O-])ccc6F)c6ccc([nH]6)c(-c6cc(S(=O)(=O)[O-])ccc6F)c6nc(c(-c7cc(S(=O)(=O)[O-])ccc7F)c7ccc4[nH]7)C=C6)C=C5)cc3)C(C)C)n2)c1
REMARK SMILES IDX 23 1 22 2 21 3 19 4 20 5 18 6 17 7 15 8 16 9 14 11 13 12
REMARK SMILES IDX 8 13 9 14 96 15 10 16 11 17 12 18 7 19 3 20 4 21 97 22 5 23
REMARK SMILES IDX 6 24 2 25 1 26 93 27 94 28 95 29 24 30 25 31 26 32 27 33
REMARK SMILES IDX 28 34 29 35 30 36 31 37 92 38 32 39 91 40 33 41 34 42 35 43
REMARK SMILES IDX 85 44 36 45 90 46 84 47 86 48 37 49 89 50 83 51 82 52 38 54
REMARK SMILES IDX 70 55 50 56 69 57 51 58 54 59 68 60 87 61 52 62 53 63 67 65
REMARK SMILES IDX 88 66 55 67 39 68 40 69 48 70 41 71 47 72 49 73 46 74 42 75
REMARK SMILES IDX 43 76 44 77 45 78 71 79 72 80 80 81 73 82 79 83 81 84 78 85
REMARK SMILES IDX 74 86 75 87 76 88 77 89 56 90 57 91 65 92 58 93 64 94 66 95
REMARK SMILES IDX 63 96 59 97 60 98 61 99 62 100
REMARK H PARENT 17 10 86 53 54 64
REMARK Flexibility Score: inf
ROOT
ATOM      1  C   UNL     1       4.615   6.342   6.988  1.00  0.00     0.202 C 
ENDROOT
BRANCH   1   2
ATOM      2  C   UNL     1       4.331   5.200   6.007  1.00  0.00     0.261 C 
BRANCH   2   3
ATOM      3  O   UNL     1       5.187   5.208   4.855  1.00  0.00    -0.462 OA
BRANCH   3   4
ATOM      4  C   UNL     1       4.571   5.486   3.668  1.00  0.00     0.328 C 
ATOM      5  O   UNL     1       3.357   5.608   3.545  1.00  0.00    -0.250 OA
BRANCH   4   6
ATOM      6  C   UNL     1       5.562   5.672   2.493  1.00  0.00     0.194 C 
BRANCH   6   7
ATOM      7  N   UNL     1       6.974   5.470   2.866  1.00  0.00    -0.341 N 
ATOM      8  C   UNL     1       7.803   4.421   2.597  1.00  0.00     0.242 C 
ATOM      9  O   UNL     1       9.016   4.630   2.697  1.00  0.00    -0.273 OA
ATOM     10  H   UNL     1       7.378   6.201   3.388  1.00  0.00     0.164 HD
BRANCH   8  11
ATOM     11  C   UNL     1       7.262   3.108   2.033  1.00  0.00     0.248 C 
BRANCH  11  12
ATOM     12  N   UNL     1       6.253   2.542   2.917  1.00  0.00    -0.220 N 
ATOM     13  C   UNL     1       4.038   2.141   3.306  1.00  0.00     0.091 A 
ATOM     14  C   UNL     1       4.307   1.584   4.646  1.00  0.00     0.036 A 
ATOM     15  N   UNL     1       4.945   2.570   2.485  1.00  0.00    -0.169 NA
ATOM     16  C   UNL     1       5.588   1.502   5.011  1.00  0.00     0.075 A 
ATOM     17  C   UNL     1       6.663   1.984   4.122  1.00  0.00     0.267 A 
ATOM     18  O   UNL     1       7.831   1.897   4.488  1.00  0.00    -0.268 OA
BRANCH  13  19
ATOM     19  C   UNL     1       2.619   2.212   2.898  1.00  0.00     0.006 A 
ATOM     20  C   UNL     1       0.906   1.709   1.277  1.00  0.00     0.119 A 
ATOM     21  C   UNL     1       0.008   2.503   1.996  1.00  0.00     0.046 A 
ATOM     22  C   UNL     1       2.226   1.588   1.710  1.00  0.00     0.056 A 
ATOM     23  C   UNL     1       0.406   3.130   3.177  1.00  0.00     0.005 A 
ATOM     24  C   UNL     1       1.710   2.971   3.640  1.00  0.00     0.011 A 
BRANCH  20  25
ATOM     25  O   UNL     1       0.407   1.133   0.141  1.00  0.00    -0.497 OA
ATOM     26  C   UNL     1       0.966  -0.142  -0.168  1.00  0.00     0.278 C 
ENDBRANCH  20  25
ENDBRANCH  13  19
ENDBRANCH  11  12
ENDBRANCH   8  11
ENDBRANCH   6   7
BRANCH   6  27
ATOM     27  C   UNL     1       5.430   7.076   1.828  1.00  0.00     0.017 C 
ATOM     28  C   UNL     1       6.303   7.155   0.565  1.00  0.00     0.010 C 
ATOM     29  C   UNL     1       3.994   7.448   1.445  1.00  0.00     0.010 C 
ENDBRANCH   6  27
ENDBRANCH   4   6
ENDBRANCH   3   4
ENDBRANCH   2   3
ENDBRANCH   1   2
BRANCH   1  30
ATOM     30  O   UNL     1       4.791   7.647   6.446  1.00  0.00    -0.374 OA
BRANCH  30  31
ATOM     31  C   UNL     1       5.987   7.913   5.715  1.00  0.00     0.202 C 
BRANCH  31  32
ATOM     32  C   UNL     1       7.332   7.834   6.447  1.00  0.00     0.261 C 
BRANCH  32  33
ATOM     33  O   UNL     1       7.626   6.522   6.959  1.00  0.00    -0.460 OA
BRANCH  33  34
ATOM     34  C   UNL     1       7.799   6.479   8.303  1.00  0.00     0.338 C 
ATOM     35  O   UNL     1       7.768   7.436   9.071  1.00  0.00    -0.246 OA
BRANCH  34  36
ATOM     36  C   UNL     1       7.840   5.093   8.799  1.00  0.00     0.060 A 
ATOM     37  C   UNL     1       6.937   4.757   9.816  1.00  0.00     0.016 A 
ATOM     38  C   UNL     1       8.816   4.181   8.390  1.00  0.00     0.016 A 
ATOM     39  C   UNL     1       7.051   3.538  10.476  1.00  0.00     0.010 A 
ATOM     40  C   UNL     1       8.933   2.956   9.062  1.00  0.00     0.010 A 
ATOM     41  C   UNL     1       8.081   2.649  10.138  1.00  0.00    -0.014 A 
BRANCH  41  42
ATOM     42  C   UNL     1       8.323   1.483  11.026  1.00  0.00     0.031 A 
ATOM     43  C   UNL     1       9.390   1.572  12.085  1.00  0.00     0.074 A 
ATOM     44  C   UNL     1       7.536   0.395  10.950  1.00  0.00     0.049 A 
ATOM     45  N   UNL     1       9.688   0.726  13.038  1.00  0.00    -0.248 NA
ATOM     46  C   UNL     1      10.231   2.778  12.066  1.00  0.00     0.031 C 
ATOM     47  C   UNL     1       6.458   0.204   9.981  1.00  0.00     0.029 A 
ATOM     48  N   UNL     1       7.513  -0.747  11.710  1.00  0.00    -0.354 N 
ATOM     49  C   UNL     1      10.745   1.298  13.738  1.00  0.00     0.074 A 
ATOM     50  C   UNL     1      11.063   2.543  13.069  1.00  0.00     0.031 C 
ATOM     51  C   UNL     1       5.876  -0.986  10.207  1.00  0.00     0.029 A 
ATOM     52  C   UNL     1       6.549  -1.648  11.323  1.00  0.00     0.049 A 
ATOM     53  H   UNL     1       8.128  -0.906  12.462  1.00  0.00     0.167 HD
ATOM     54  C   UNL     1      11.384   0.835  14.843  1.00  0.00     0.034 A 
ATOM     55  C   UNL     1       6.247  -2.868  11.811  1.00  0.00     0.034 A 
ATOM     56  C   UNL     1      11.068  -0.418  15.488  1.00  0.00     0.049 A 
ATOM     57  C   UNL     1       6.997  -3.384  13.013  1.00  0.00     0.074 A 
ATOM     58  C   UNL     1      11.637  -0.974  16.622  1.00  0.00     0.029 A 
ATOM     59  N   UNL     1      10.110  -1.322  15.045  1.00  0.00    -0.354 N 
ATOM     60  N   UNL     1       7.967  -2.814  13.691  1.00  0.00    -0.248 NA
ATOM     61  C   UNL     1       6.593  -4.697  13.530  1.00  0.00     0.031 C 
ATOM     62  C   UNL     1      11.073  -2.239  16.823  1.00  0.00     0.029 A 
ATOM     63  C   UNL     1      10.094  -2.443  15.863  1.00  0.00     0.049 A 
ATOM     64  H   UNL     1       9.526  -1.187  14.264  1.00  0.00     0.167 HD
ATOM     65  C   UNL     1       8.268  -3.689  14.732  1.00  0.00     0.074 A 
ATOM     66  C   UNL     1       7.365  -4.814  14.600  1.00  0.00     0.031 C 
ATOM     67  C   UNL     1       9.202  -3.570  15.712  1.00  0.00     0.034 A 
BRANCH  54  68
ATOM     68  C   UNL     1      12.522   1.669  15.384  1.00  0.00     0.023 A 
ATOM     69  C   UNL     1      12.318   2.963  15.898  1.00  0.00     0.031 A 
ATOM     70  C   UNL     1      13.839   1.175  15.355  1.00  0.00     0.131 A 
ATOM     71  C   UNL     1      13.416   3.743  16.292  1.00  0.00     0.055 A 
ATOM     72  C   UNL     1      14.919   1.927  15.820  1.00  0.00     0.041 A 
ATOM     73  F   UNL     1      14.100  -0.044  14.858  1.00  0.00    -0.206 F 
ATOM     74  C   UNL     1      14.713   3.225  16.278  1.00  0.00     0.022 A 
BRANCH  71  75
ATOM     75  S   UNL     1      13.144   5.493  16.687  1.00  0.00     0.124 S 
ATOM     76  O   UNL     1      12.534   5.984  15.454  1.00  0.00    -0.237 OA
ATOM     77  O   UNL     1      12.267   5.420  17.850  1.00  0.00    -0.237 OA
ATOM     78  O   UNL     1      14.489   5.998  16.951  1.00  0.00    -0.744 OA
ENDBRANCH  71  75
ENDBRANCH  54  68
BRANCH  55  79
ATOM     79  C   UNL     1       5.197  -3.696  11.152  1.00  0.00     0.023 A 
ATOM     80  C   UNL     1       4.001  -4.024  11.808  1.00  0.00     0.031 A 
ATOM     81  C   UNL     1       5.399  -4.200   9.854  1.00  0.00     0.131 A 
ATOM     82  C   UNL     1       3.068  -4.863  11.179  1.00  0.00     0.055 A 
ATOM     83  C   UNL     1       4.449  -4.997   9.216  1.00  0.00     0.041 A 
ATOM     84  F   UNL     1       6.524  -3.909   9.181  1.00  0.00    -0.206 F 
ATOM     85  C   UNL     1       3.279  -5.342   9.883  1.00  0.00     0.022 A 
BRANCH  82  86
ATOM     86  S   UNL     1       1.591  -5.372  12.102  1.00  0.00     0.124 S 
ATOM     87  O   UNL     1       2.178  -6.048  13.253  1.00  0.00    -0.237 OA
ATOM     88  O   UNL     1       0.947  -4.090  12.369  1.00  0.00    -0.237 OA
ATOM     89  O   UNL     1       0.883  -6.237  11.161  1.00  0.00    -0.744 OA
ENDBRANCH  82  86
ENDBRANCH  55  79
BRANCH  67  90
ATOM     90  C   UNL     1       9.258  -4.675  16.742  1.00  0.00     0.023 A 
ATOM     91  C   UNL     1       9.633  -5.987  16.405  1.00  0.00     0.031 A 
ATOM     92  C   UNL     1       8.899  -4.414  18.078  1.00  0.00     0.131 A 
ATOM     93  C   UNL     1       9.577  -7.002  17.372  1.00  0.00     0.055 A 
ATOM     94  C   UNL     1       8.908  -5.415  19.050  1.00  0.00     0.041 A 
ATOM     95  F   UNL     1       8.530  -3.181  18.458  1.00  0.00    -0.206 F 
ATOM     96  C   UNL     1       9.232  -6.721  18.697  1.00  0.00     0.022 A 
BRANCH  93  97
ATOM     97  S   UNL     1       9.849  -8.719  16.852  1.00  0.00     0.124 S 
ATOM     98  O   UNL     1       8.857  -8.877  15.793  1.00  0.00    -0.237 OA
ATOM     99  O   UNL     1      11.243  -8.696  16.420  1.00  0.00    -0.237 OA
ATOM    100  O   UNL     1       9.588  -9.491  18.065  1.00  0.00    -0.744 OA
ENDBRANCH  93  97
ENDBRANCH  67  90
ENDBRANCH  41  42
ENDBRANCH  34  36
ENDBRANCH  33  34
ENDBRANCH  32  33
ENDBRANCH  31  32
ENDBRANCH  30  31
ENDBRANCH   1  30
TORSDOF 23
