REMARK SMILES CSc1nc(C2CC2)nc(C)c1C(=O)OCCOCCOC(=O)c1ccc(-c2c3nc(c(-c4cc(S(=O)(=O)[O-])ccc4F)c4ccc([nH]4)c(-c4cc(S(=O)(=O)[O-])ccc4F)c4nc(c(-c5cc(S(=O)(=O)[O-])ccc5F)c5ccc2[nH]5)C=C4)C=C3)cc1
REMARK SMILES IDX 19 1 18 2 17 3 16 4 15 5 13 6 14 7 12 8 3 9 4 10 5 11 10 12
REMARK SMILES IDX 9 13 11 14 2 15 1 16 6 17 7 18 8 19 20 20 21 21 22 22 23 23
REMARK SMILES IDX 24 24 25 25 86 26 26 27 85 28 27 29 28 30 29 31 79 32 30 33
REMARK SMILES IDX 84 34 78 35 80 36 31 37 83 38 77 39 76 40 32 42 64 43 44 44
REMARK SMILES IDX 63 45 45 46 48 47 62 48 81 49 46 50 47 51 61 53 82 54 49 55
REMARK SMILES IDX 33 56 34 57 42 58 35 59 41 60 43 61 40 62 36 63 37 64 38 65
REMARK SMILES IDX 39 66 65 67 66 68 74 69 67 70 73 71 75 72 72 73 68 74 69 75
REMARK SMILES IDX 70 76 71 77 50 78 51 79 59 80 52 81 58 82 60 83 57 84 53 85
REMARK SMILES IDX 54 86 55 87 56 88
REMARK H PARENT 80 41 48 52
REMARK Flexibility Score: inf
ROOT
ATOM      1  C   UNL     1      -0.998   1.337  -1.991  1.00  0.00     0.202 C 
ENDROOT
BRANCH   1   2
ATOM      2  O   UNL     1      -0.431   2.407  -1.230  1.00  0.00    -0.374 OA
BRANCH   2   3
ATOM      3  C   UNL     1       0.567   3.224  -1.846  1.00  0.00     0.202 C 
BRANCH   3   4
ATOM      4  C   UNL     1       1.940   2.579  -2.047  1.00  0.00     0.261 C 
BRANCH   4   5
ATOM      5  O   UNL     1       1.807   1.384  -2.828  1.00  0.00    -0.460 OA
BRANCH   5   6
ATOM      6  C   UNL     1       2.591   0.351  -2.460  1.00  0.00     0.342 C 
ATOM      7  O   UNL     1       3.546   0.384  -1.699  1.00  0.00    -0.246 OA
BRANCH   6   8
ATOM      8  C   UNL     1       2.070  -0.882  -3.039  1.00  0.00     0.113 A 
ATOM      9  C   UNL     1       1.552  -1.919  -2.280  1.00  0.00     0.114 A 
ATOM     10  N   UNL     1       1.285  -3.120  -2.850  1.00  0.00    -0.225 NA
ATOM     11  C   UNL     1       1.510  -3.308  -4.159  1.00  0.00     0.133 A 
ATOM     12  C   UNL     1       2.157  -1.099  -4.410  1.00  0.00     0.057 A 
ATOM     13  N   UNL     1       1.890  -2.306  -4.964  1.00  0.00    -0.237 NA
ATOM     14  C   UNL     1       2.618  -0.061  -5.394  1.00  0.00     0.068 C 
BRANCH   9  15
ATOM     15  S   UNL     1       1.034  -2.007  -0.570  1.00  0.00    -0.109 SA
ATOM     16  C   UNL     1       1.469  -0.459   0.246  1.00  0.00     0.092 C 
ENDBRANCH   9  15
BRANCH  11  17
ATOM     17  C   UNL     1       1.414  -4.699  -4.740  1.00  0.00     0.058 C 
ATOM     18  C   UNL     1       1.133  -5.893  -3.851  1.00  0.00     0.012 C 
ATOM     19  C   UNL     1       0.093  -5.423  -4.826  1.00  0.00     0.012 C 
ENDBRANCH  11  17
ENDBRANCH   6   8
ENDBRANCH   5   6
ENDBRANCH   4   5
ENDBRANCH   3   4
ENDBRANCH   2   3
ENDBRANCH   1   2
BRANCH   1  20
ATOM     20  C   UNL     1      -1.953   1.688  -3.137  1.00  0.00     0.261 C 
BRANCH  20  21
ATOM     21  O   UNL     1      -1.317   2.401  -4.209  1.00  0.00    -0.460 OA
BRANCH  21  22
ATOM     22  C   UNL     1      -1.663   3.710  -4.300  1.00  0.00     0.338 C 
ATOM     23  O   UNL     1      -2.427   4.321  -3.571  1.00  0.00    -0.246 OA
BRANCH  22  24
ATOM     24  C   UNL     1      -0.832   4.367  -5.323  1.00  0.00     0.060 A 
ATOM     25  C   UNL     1      -0.082   5.490  -4.947  1.00  0.00     0.016 A 
ATOM     26  C   UNL     1      -0.854   3.934  -6.648  1.00  0.00     0.016 A 
ATOM     27  C   UNL     1       0.628   6.208  -5.908  1.00  0.00     0.010 A 
ATOM     28  C   UNL     1      -0.154   4.662  -7.611  1.00  0.00     0.010 A 
ATOM     29  C   UNL     1       0.565   5.817  -7.251  1.00  0.00    -0.014 A 
BRANCH  29  30
ATOM     30  C   UNL     1       1.102   6.691  -8.320  1.00  0.00     0.031 A 
ATOM     31  C   UNL     1       0.138   7.547  -9.091  1.00  0.00     0.074 A 
ATOM     32  C   UNL     1       2.411   6.687  -8.624  1.00  0.00     0.049 A 
ATOM     33  N   UNL     1       0.328   8.235 -10.185  1.00  0.00    -0.248 NA
ATOM     34  C   UNL     1      -1.232   7.621  -8.558  1.00  0.00     0.031 C 
ATOM     35  C   UNL     1       3.443   5.947  -7.899  1.00  0.00     0.029 A 
ATOM     36  N   UNL     1       3.091   7.305  -9.643  1.00  0.00    -0.354 N 
ATOM     37  C   UNL     1      -0.903   8.808 -10.487  1.00  0.00     0.074 A 
ATOM     38  C   UNL     1      -1.835   8.365  -9.472  1.00  0.00     0.031 C 
ATOM     39  C   UNL     1       4.623   6.131  -8.516  1.00  0.00     0.029 A 
ATOM     40  C   UNL     1       4.418   6.952  -9.708  1.00  0.00     0.049 A 
ATOM     41  H   UNL     1       2.669   7.939 -10.266  1.00  0.00     0.167 HD
ATOM     42  C   UNL     1      -1.221   9.627 -11.520  1.00  0.00     0.034 A 
ATOM     43  C   UNL     1       5.346   7.221 -10.650  1.00  0.00     0.034 A 
ATOM     44  C   UNL     1      -0.273  10.043 -12.524  1.00  0.00     0.049 A 
ATOM     45  C   UNL     1       4.947   8.051 -11.849  1.00  0.00     0.074 A 
ATOM     46  C   UNL     1      -0.477  10.874 -13.611  1.00  0.00     0.029 A 
ATOM     47  N   UNL     1       1.057   9.646 -12.572  1.00  0.00    -0.354 N 
ATOM     48  N   UNL     1       3.779   8.577 -12.138  1.00  0.00    -0.248 NA
ATOM     49  C   UNL     1       5.990   8.323 -12.848  1.00  0.00     0.031 C 
ATOM     50  C   UNL     1       0.706  10.920 -14.354  1.00  0.00     0.029 A 
ATOM     51  C   UNL     1       1.676  10.189 -13.686  1.00  0.00     0.049 A 
ATOM     52  H   UNL     1       1.496   9.064 -11.910  1.00  0.00     0.167 HD
ATOM     53  C   UNL     1       3.959   9.276 -13.329  1.00  0.00     0.074 A 
ATOM     54  C   UNL     1       5.346   9.101 -13.707  1.00  0.00     0.031 C 
ATOM     55  C   UNL     1       3.064  10.008 -14.040  1.00  0.00     0.034 A 
BRANCH  42  56
ATOM     56  C   UNL     1      -2.659  10.067 -11.642  1.00  0.00     0.023 A 
ATOM     57  C   UNL     1      -3.278  10.861 -10.661  1.00  0.00     0.031 A 
ATOM     58  C   UNL     1      -3.434   9.658 -12.741  1.00  0.00     0.131 A 
ATOM     59  C   UNL     1      -4.645  11.158 -10.761  1.00  0.00     0.055 A 
ATOM     60  C   UNL     1      -4.773  10.027 -12.877  1.00  0.00     0.041 A 
ATOM     61  F   UNL     1      -2.905   8.877 -13.697  1.00  0.00    -0.206 F 
ATOM     62  C   UNL     1      -5.391  10.769 -11.876  1.00  0.00     0.022 A 
BRANCH  59  63
ATOM     63  S   UNL     1      -5.469  11.933  -9.343  1.00  0.00     0.124 S 
ATOM     64  O   UNL     1      -5.210  10.961  -8.284  1.00  0.00    -0.237 OA
ATOM     65  O   UNL     1      -4.767  13.206  -9.227  1.00  0.00    -0.237 OA
ATOM     66  O   UNL     1      -6.865  12.026  -9.766  1.00  0.00    -0.744 OA
ENDBRANCH  59  63
ENDBRANCH  42  56
BRANCH  43  67
ATOM     67  C   UNL     1       6.723   6.662 -10.536  1.00  0.00     0.023 A 
ATOM     68  C   UNL     1       7.838   7.504 -10.409  1.00  0.00     0.031 A 
ATOM     69  C   UNL     1       6.949   5.274 -10.600  1.00  0.00     0.131 A 
ATOM     70  C   UNL     1       9.131   6.956 -10.397  1.00  0.00     0.055 A 
ATOM     71  C   UNL     1       8.233   4.731 -10.530  1.00  0.00     0.041 A 
ATOM     72  F   UNL     1       5.919   4.422 -10.722  1.00  0.00    -0.206 F 
ATOM     73  C   UNL     1       9.335   5.575 -10.442  1.00  0.00     0.022 A 
BRANCH  70  74
ATOM     74  S   UNL     1      10.550   8.085 -10.412  1.00  0.00     0.124 S 
ATOM     75  O   UNL     1      10.309   8.846 -11.632  1.00  0.00    -0.237 OA
ATOM     76  O   UNL     1      10.373   8.809  -9.157  1.00  0.00    -0.237 OA
ATOM     77  O   UNL     1      11.700   7.185 -10.453  1.00  0.00    -0.744 OA
ENDBRANCH  70  74
ENDBRANCH  43  67
BRANCH  55  78
ATOM     78  C   UNL     1       3.572  10.740 -15.258  1.00  0.00     0.023 A 
ATOM     79  C   UNL     1       3.955  10.068 -16.430  1.00  0.00     0.031 A 
ATOM     80  C   UNL     1       3.630  12.146 -15.249  1.00  0.00     0.131 A 
ATOM     81  C   UNL     1       4.408  10.803 -17.537  1.00  0.00     0.055 A 
ATOM     82  C   UNL     1       4.030  12.873 -16.370  1.00  0.00     0.041 A 
ATOM     83  F   UNL     1       3.276  12.837 -14.153  1.00  0.00    -0.206 F 
ATOM     84  C   UNL     1       4.429  12.200 -17.521  1.00  0.00     0.022 A 
BRANCH  81  85
ATOM     85  S   UNL     1       5.019   9.907 -18.991  1.00  0.00     0.124 S 
ATOM     86  O   UNL     1       6.150   9.169 -18.440  1.00  0.00    -0.237 OA
ATOM     87  O   UNL     1       3.861   9.106 -19.376  1.00  0.00    -0.237 OA
ATOM     88  O   UNL     1       5.371  10.973 -19.928  1.00  0.00    -0.744 OA
ENDBRANCH  81  85
ENDBRANCH  55  78
ENDBRANCH  29  30
ENDBRANCH  22  24
ENDBRANCH  21  22
ENDBRANCH  20  21
ENDBRANCH   1  20
TORSDOF 19
