REMARK SMILES COC(=O)[C@@H]([NH2+]CC(C)(C)C(=O)OCCOCCOC(=O)c1ccc(-c2c3nc(c(-c4cc(S(=O)(=O)[O-])ccc4F)c4ccc([nH]4)c(-c4cc(S(=O)(=O)[O-])ccc4F)c4nc(c(-c5cc(S(=O)(=O)[O-])ccc5F)c5ccc2[nH]5)C=C4)C=C3)cc1)c1ccccc1
REMARK SMILES IDX 15 1 14 2 13 3 11 4 12 5 8 6 9 7 10 8 7 9 6 10 5 13 3 14
REMARK SMILES IDX 4 15 2 16 1 17 85 18 86 19 90 20 87 21 89 22 88 23 16 24
REMARK SMILES IDX 17 25 18 26 19 27 20 28 21 29 22 30 23 31 84 32 24 33 83 34
REMARK SMILES IDX 25 35 26 36 27 37 77 38 28 39 82 40 76 41 78 42 29 43 81 44
REMARK SMILES IDX 75 45 74 46 30 48 62 49 42 50 61 51 43 52 46 53 60 54 79 55
REMARK SMILES IDX 44 56 45 57 59 59 80 60 47 61 31 62 32 63 40 64 33 65 39 66
REMARK SMILES IDX 41 67 38 68 34 69 35 70 36 71 37 72 63 73 64 74 72 75 65 76
REMARK SMILES IDX 71 77 73 78 70 79 66 80 67 81 68 82 69 83 48 84 49 85 57 86
REMARK SMILES IDX 50 87 56 88 58 89 55 90 51 91 52 92 53 93 54 94
REMARK H PARENT 6 11 6 12 78 47 46 58
REMARK Flexibility Score: inf
ROOT
ATOM      1  C   UNL     1      -0.757   7.413  -1.447  1.00  0.00     0.202 C 
ENDROOT
BRANCH   1   2
ATOM      2  C   UNL     1       0.742   7.132  -1.552  1.00  0.00     0.261 C 
BRANCH   2   3
ATOM      3  O   UNL     1       1.043   6.604  -2.852  1.00  0.00    -0.463 OA
BRANCH   3   4
ATOM      4  C   UNL     1       1.706   5.427  -2.872  1.00  0.00     0.317 C 
ATOM      5  O   UNL     1       2.283   4.952  -1.901  1.00  0.00    -0.251 OA
BRANCH   4   6
ATOM      6  C   UNL     1       1.654   4.727  -4.232  1.00  0.00     0.111 C 
ATOM      7  C   UNL     1       3.112   4.379  -4.571  1.00  0.00     0.029 C 
ATOM      8  C   UNL     1       1.138   5.638  -5.376  1.00  0.00     0.029 C 
BRANCH   6   9
ATOM      9  C   UNL     1       0.721   3.473  -4.178  1.00  0.00     0.279 C 
BRANCH   9  10
ATOM     10  N   UNL     1       1.029   2.344  -3.283  1.00  0.00    -0.330 N 
ATOM     11  H   UNL     1       0.703   1.486  -3.728  1.00  0.00     0.347 HD
ATOM     12  H   UNL     1       2.038   2.355  -3.136  1.00  0.00     0.347 HD
BRANCH  10  13
ATOM     13  C   UNL     1       0.398   2.440  -1.932  1.00  0.00     0.324 C 
BRANCH  13  14
ATOM     14  C   UNL     1       1.111   1.466  -0.970  1.00  0.00     0.369 C 
ATOM     15  O   UNL     1       2.213   1.704  -0.482  1.00  0.00    -0.245 OA
BRANCH  14  16
ATOM     16  O   UNL     1       0.438   0.298  -0.772  1.00  0.00    -0.464 OA
ATOM     17  C   UNL     1       1.053  -0.571   0.180  1.00  0.00     0.282 C 
ENDBRANCH  14  16
ENDBRANCH  13  14
BRANCH  13  18
ATOM     18  C   UNL     1      -1.124   2.352  -1.912  1.00  0.00     0.021 A 
ATOM     19  C   UNL     1      -1.842   3.359  -1.242  1.00  0.00     0.010 A 
ATOM     20  C   UNL     1      -1.851   1.320  -2.520  1.00  0.00     0.010 A 
ATOM     21  C   UNL     1      -3.236   3.372  -1.223  1.00  0.00     0.001 A 
ATOM     22  C   UNL     1      -3.251   1.314  -2.473  1.00  0.00     0.001 A 
ATOM     23  C   UNL     1      -3.943   2.346  -1.839  1.00  0.00     0.000 A 
ENDBRANCH  13  18
ENDBRANCH  10  13
ENDBRANCH   9  10
ENDBRANCH   6   9
ENDBRANCH   4   6
ENDBRANCH   3   4
ENDBRANCH   2   3
ENDBRANCH   1   2
BRANCH   1  24
ATOM     24  O   UNL     1      -1.622   6.376  -1.913  1.00  0.00    -0.374 OA
BRANCH  24  25
ATOM     25  C   UNL     1      -1.835   6.322  -3.328  1.00  0.00     0.202 C 
BRANCH  25  26
ATOM     26  C   UNL     1      -2.976   7.184  -3.867  1.00  0.00     0.261 C 
BRANCH  26  27
ATOM     27  O   UNL     1      -2.554   8.556  -3.913  1.00  0.00    -0.460 OA
BRANCH  27  28
ATOM     28  C   UNL     1      -3.024   9.329  -2.906  1.00  0.00     0.338 C 
ATOM     29  O   UNL     1      -3.918   9.044  -2.126  1.00  0.00    -0.246 OA
BRANCH  28  30
ATOM     30  C   UNL     1      -2.095  10.466  -2.710  1.00  0.00     0.060 A 
ATOM     31  C   UNL     1      -1.821  10.838  -1.386  1.00  0.00     0.016 A 
ATOM     32  C   UNL     1      -1.452  11.107  -3.774  1.00  0.00     0.016 A 
ATOM     33  C   UNL     1      -0.959  11.895  -1.121  1.00  0.00     0.010 A 
ATOM     34  C   UNL     1      -0.598  12.179  -3.510  1.00  0.00     0.010 A 
ATOM     35  C   UNL     1      -0.392  12.605  -2.185  1.00  0.00    -0.014 A 
BRANCH  35  36
ATOM     36  C   UNL     1       0.174  13.946  -1.920  1.00  0.00     0.031 A 
ATOM     37  C   UNL     1      -0.735  15.128  -2.127  1.00  0.00     0.074 A 
ATOM     38  C   UNL     1       1.426  14.102  -1.461  1.00  0.00     0.049 A 
ATOM     39  N   UNL     1      -0.484  16.403  -2.007  1.00  0.00    -0.248 NA
ATOM     40  C   UNL     1      -2.117  14.820  -2.532  1.00  0.00     0.031 C 
ATOM     41  C   UNL     1       2.361  13.017  -1.167  1.00  0.00     0.029 A 
ATOM     42  N   UNL     1       2.127  15.242  -1.161  1.00  0.00    -0.354 N 
ATOM     43  C   UNL     1      -1.675  17.050  -2.326  1.00  0.00     0.074 A 
ATOM     44  C   UNL     1      -2.631  16.028  -2.688  1.00  0.00     0.031 C 
ATOM     45  C   UNL     1       3.520  13.546  -0.736  1.00  0.00     0.029 A 
ATOM     46  C   UNL     1       3.421  15.005  -0.762  1.00  0.00     0.049 A 
ATOM     47  H   UNL     1       1.740  16.144  -1.226  1.00  0.00     0.167 HD
ATOM     48  C   UNL     1      -1.945  18.377  -2.306  1.00  0.00     0.034 A 
ATOM     49  C   UNL     1       4.412  15.874  -0.479  1.00  0.00     0.034 A 
ATOM     50  C   UNL     1      -0.968  19.375  -1.956  1.00  0.00     0.049 A 
ATOM     51  C   UNL     1       4.116  17.354  -0.558  1.00  0.00     0.074 A 
ATOM     52  C   UNL     1      -1.115  20.748  -1.907  1.00  0.00     0.029 A 
ATOM     53  N   UNL     1       0.350  19.102  -1.605  1.00  0.00    -0.354 N 
ATOM     54  N   UNL     1       2.990  17.959  -0.867  1.00  0.00    -0.248 NA
ATOM     55  C   UNL     1       5.221  18.268  -0.243  1.00  0.00     0.031 C 
ATOM     56  C   UNL     1       0.130  21.309  -1.600  1.00  0.00     0.029 A 
ATOM     57  C   UNL     1       1.034  20.283  -1.370  1.00  0.00     0.049 A 
ATOM     58  H   UNL     1       0.740  18.200  -1.534  1.00  0.00     0.167 HD
ATOM     59  C   UNL     1       3.244  19.323  -0.747  1.00  0.00     0.074 A 
ATOM     60  C   UNL     1       4.625  19.449  -0.326  1.00  0.00     0.031 C 
ATOM     61  C   UNL     1       2.415  20.379  -0.957  1.00  0.00     0.034 A 
BRANCH  48  62
ATOM     62  C   UNL     1      -3.327  18.807  -2.736  1.00  0.00     0.023 A 
ATOM     63  C   UNL     1      -4.479  18.424  -2.024  1.00  0.00     0.031 A 
ATOM     64  C   UNL     1      -3.500  19.567  -3.905  1.00  0.00     0.131 A 
ATOM     65  C   UNL     1      -5.750  18.738  -2.529  1.00  0.00     0.055 A 
ATOM     66  C   UNL     1      -4.765  19.948  -4.356  1.00  0.00     0.041 A 
ATOM     67  F   UNL     1      -2.441  19.934  -4.644  1.00  0.00    -0.206 F 
ATOM     68  C   UNL     1      -5.901  19.521  -3.676  1.00  0.00     0.022 A 
BRANCH  65  69
ATOM     69  S   UNL     1      -7.204  17.980  -1.752  1.00  0.00     0.124 S 
ATOM     70  O   UNL     1      -6.917  16.557  -1.915  1.00  0.00    -0.237 OA
ATOM     71  O   UNL     1      -7.138  18.493  -0.389  1.00  0.00    -0.237 OA
ATOM     72  O   UNL     1      -8.320  18.479  -2.554  1.00  0.00    -0.744 OA
ENDBRANCH  65  69
ENDBRANCH  48  62
BRANCH  49  73
ATOM     73  C   UNL     1       5.779  15.384  -0.135  1.00  0.00     0.023 A 
ATOM     74  C   UNL     1       6.360  15.662   1.112  1.00  0.00     0.031 A 
ATOM     75  C   UNL     1       6.550  14.677  -1.076  1.00  0.00     0.131 A 
ATOM     76  C   UNL     1       7.687  15.280   1.368  1.00  0.00     0.055 A 
ATOM     77  C   UNL     1       7.849  14.249  -0.796  1.00  0.00     0.041 A 
ATOM     78  F   UNL     1       6.047  14.387  -2.287  1.00  0.00    -0.206 F 
ATOM     79  C   UNL     1       8.430  14.562   0.428  1.00  0.00     0.022 A 
BRANCH  76  80
ATOM     80  S   UNL     1       8.463  15.818   2.917  1.00  0.00     0.124 S 
ATOM     81  O   UNL     1       8.326  17.267   2.829  1.00  0.00    -0.237 OA
ATOM     82  O   UNL     1       7.634  15.153   3.917  1.00  0.00    -0.237 OA
ATOM     83  O   UNL     1       9.830  15.312   2.807  1.00  0.00    -0.744 OA
ENDBRANCH  76  80
ENDBRANCH  49  73
BRANCH  61  84
ATOM     84  C   UNL     1       2.971  21.754  -0.682  1.00  0.00     0.023 A 
ATOM     85  C   UNL     1       4.004  22.306  -1.458  1.00  0.00     0.031 A 
ATOM     86  C   UNL     1       2.457  22.522   0.379  1.00  0.00     0.131 A 
ATOM     87  C   UNL     1       4.530  23.564  -1.126  1.00  0.00     0.055 A 
ATOM     88  C   UNL     1       2.938  23.800   0.662  1.00  0.00     0.041 A 
ATOM     89  F   UNL     1       1.470  22.044   1.153  1.00  0.00    -0.206 F 
ATOM     90  C   UNL     1       3.990  24.322  -0.084  1.00  0.00     0.022 A 
BRANCH  87  91
ATOM     91  S   UNL     1       5.997  24.154  -2.014  1.00  0.00     0.124 S 
ATOM     92  O   UNL     1       6.960  23.091  -1.748  1.00  0.00    -0.237 OA
ATOM     93  O   UNL     1       5.514  24.248  -3.388  1.00  0.00    -0.237 OA
ATOM     94  O   UNL     1       6.293  25.434  -1.373  1.00  0.00    -0.744 OA
ENDBRANCH  87  91
ENDBRANCH  61  84
ENDBRANCH  35  36
ENDBRANCH  28  30
ENDBRANCH  27  28
ENDBRANCH  26  27
ENDBRANCH  25  26
ENDBRANCH  24  25
ENDBRANCH   1  24
TORSDOF 23
