REMARK SMILES C=CC[C@@]1(C(=O)OCCOCCOC(=O)c2ccc(-c3c4nc(c(-c5cc(S(=O)(=O)[O-])ccc5F)c5ccc([nH]5)c(-c5cc(S(=O)(=O)[O-])ccc5F)c5nc(c(-c6cc(S(=O)(=O)[O-])ccc6F)c6ccc3[nH]6)C=C5)C=C4)cc2)CCCN(C(=O)c2ccc3c(c2)OCO3)C1
REMARK SMILES IDX 11 1 10 2 9 3 8 4 7 5 5 6 6 7 4 8 79 9 94 10 80 11 82 12
REMARK SMILES IDX 81 13 3 14 2 15 1 16 83 17 84 18 85 19 86 20 90 21 87 22
REMARK SMILES IDX 89 23 88 24 91 25 93 26 92 27 12 28 13 29 14 30 15 31 16 32
REMARK SMILES IDX 17 33 78 34 18 35 77 36 19 37 20 38 21 39 71 40 22 41 76 42
REMARK SMILES IDX 70 43 72 44 23 45 75 46 69 47 68 48 24 50 56 51 36 52 55 53
REMARK SMILES IDX 37 54 40 55 54 56 73 57 38 58 39 59 53 61 74 62 41 63 25 64
REMARK SMILES IDX 26 65 34 66 27 67 33 68 35 69 32 70 28 71 29 72 30 73 31 74
REMARK SMILES IDX 57 75 58 76 66 77 59 78 65 79 67 80 64 81 60 82 61 83 62 84
REMARK SMILES IDX 63 85 42 86 43 87 51 88 44 89 50 90 52 91 49 92 45 93 46 94
REMARK SMILES IDX 47 95 48 96
REMARK H PARENT 72 49 40 60
REMARK Flexibility Score: inf
ROOT
ATOM      1  C   UNL     1      -1.353  -2.132  -2.882  1.00  0.00     0.202 C 
ENDROOT
BRANCH   1   2
ATOM      2  O   UNL     1      -0.083  -2.485  -2.339  1.00  0.00    -0.374 OA
BRANCH   2   3
ATOM      3  C   UNL     1       0.043  -2.299  -0.927  1.00  0.00     0.202 C 
BRANCH   3   4
ATOM      4  C   UNL     1       0.566  -0.918  -0.519  1.00  0.00     0.261 C 
BRANCH   4   5
ATOM      5  O   UNL     1      -0.498   0.066  -0.474  1.00  0.00    -0.463 OA
BRANCH   5   6
ATOM      6  C   UNL     1      -0.365   1.142  -1.291  1.00  0.00     0.314 C 
ATOM      7  O   UNL     1       0.606   1.301  -2.024  1.00  0.00    -0.252 OA
BRANCH   6   8
ATOM      8  C   UNL     1      -1.518   2.175  -1.165  1.00  0.00     0.089 C 
ATOM      9  C   UNL     1      -1.389   2.959   0.184  1.00  0.00     0.023 C 
ATOM     10  C   UNL     1      -2.902   1.491  -1.268  1.00  0.00     0.138 C 
ATOM     11  C   UNL     1      -2.004   2.290   1.420  1.00  0.00     0.023 C 
ATOM     12  N   UNL     1      -3.328   0.900  -0.009  1.00  0.00    -0.337 N 
ATOM     13  C   UNL     1      -3.412   1.815   1.116  1.00  0.00     0.120 C 
BRANCH   8  14
ATOM     14  C   UNL     1      -1.392   3.122  -2.427  1.00  0.00     0.047 C 
BRANCH  14  15
ATOM     15  C   UNL     1      -1.412   4.606  -2.174  1.00  0.00    -0.034 C 
ATOM     16  C   UNL     1      -0.295   5.329  -2.019  1.00  0.00     0.004 C 
ENDBRANCH  14  15
ENDBRANCH   8  14
BRANCH  12  17
ATOM     17  C   UNL     1      -3.435  -0.474   0.087  1.00  0.00     0.254 C 
ATOM     18  O   UNL     1      -3.417  -1.214  -0.888  1.00  0.00    -0.269 OA
BRANCH  17  19
ATOM     19  C   UNL     1      -3.624  -1.063   1.414  1.00  0.00     0.043 A 
ATOM     20  C   UNL     1      -2.541  -1.194   2.306  1.00  0.00     0.018 A 
ATOM     21  C   UNL     1      -4.934  -1.365   1.784  1.00  0.00     0.064 A 
ATOM     22  C   UNL     1      -2.789  -1.560   3.627  1.00  0.00     0.051 A 
ATOM     23  C   UNL     1      -5.134  -1.736   3.089  1.00  0.00     0.166 A 
ATOM     24  C   UNL     1      -4.095  -1.819   3.988  1.00  0.00     0.165 A 
ATOM     25  O   UNL     1      -6.335  -2.034   3.649  1.00  0.00    -0.454 OA
ATOM     26  O   UNL     1      -4.519  -2.176   5.227  1.00  0.00    -0.454 OA
ATOM     27  C   UNL     1      -5.944  -2.241   5.025  1.00  0.00     0.468 C 
ENDBRANCH  17  19
ENDBRANCH  12  17
ENDBRANCH   6   8
ENDBRANCH   5   6
ENDBRANCH   4   5
ENDBRANCH   3   4
ENDBRANCH   2   3
ENDBRANCH   1   2
BRANCH   1  28
ATOM     28  C   UNL     1      -2.455  -3.214  -2.795  1.00  0.00     0.261 C 
BRANCH  28  29
ATOM     29  O   UNL     1      -2.782  -3.655  -1.461  1.00  0.00    -0.460 OA
BRANCH  29  30
ATOM     30  C   UNL     1      -2.125  -4.736  -0.987  1.00  0.00     0.338 C 
ATOM     31  O   UNL     1      -1.331  -5.425  -1.605  1.00  0.00    -0.246 OA
BRANCH  30  32
ATOM     32  C   UNL     1      -2.373  -4.885   0.476  1.00  0.00     0.060 A 
ATOM     33  C   UNL     1      -1.295  -5.256   1.289  1.00  0.00     0.016 A 
ATOM     34  C   UNL     1      -3.627  -4.697   1.061  1.00  0.00     0.016 A 
ATOM     35  C   UNL     1      -1.467  -5.473   2.667  1.00  0.00     0.010 A 
ATOM     36  C   UNL     1      -3.790  -4.899   2.446  1.00  0.00     0.010 A 
ATOM     37  C   UNL     1      -2.721  -5.313   3.272  1.00  0.00    -0.014 A 
BRANCH  37  38
ATOM     38  C   UNL     1      -2.951  -5.678   4.716  1.00  0.00     0.031 A 
ATOM     39  C   UNL     1      -3.914  -6.794   5.057  1.00  0.00     0.074 A 
ATOM     40  C   UNL     1      -2.344  -5.041   5.744  1.00  0.00     0.049 A 
ATOM     41  N   UNL     1      -4.285  -7.248   6.231  1.00  0.00    -0.248 NA
ATOM     42  C   UNL     1      -4.542  -7.487   3.925  1.00  0.00     0.031 C 
ATOM     43  C   UNL     1      -1.353  -3.976   5.623  1.00  0.00     0.029 A 
ATOM     44  N   UNL     1      -2.504  -5.176   7.109  1.00  0.00    -0.354 N 
ATOM     45  C   UNL     1      -5.166  -8.293   5.974  1.00  0.00     0.074 A 
ATOM     46  C   UNL     1      -5.366  -8.318   4.540  1.00  0.00     0.031 C 
ATOM     47  C   UNL     1      -1.069  -3.489   6.845  1.00  0.00     0.029 A 
ATOM     48  C   UNL     1      -1.827  -4.231   7.849  1.00  0.00     0.049 A 
ATOM     49  H   UNL     1      -3.053  -5.885   7.517  1.00  0.00     0.167 HD
ATOM     50  C   UNL     1      -5.712  -9.194   6.832  1.00  0.00     0.034 A 
ATOM     51  C   UNL     1      -1.805  -3.980   9.176  1.00  0.00     0.034 A 
ATOM     52  C   UNL     1      -5.516  -9.186   8.260  1.00  0.00     0.049 A 
ATOM     53  C   UNL     1      -2.518  -4.910  10.129  1.00  0.00     0.074 A 
ATOM     54  C   UNL     1      -5.966 -10.103   9.196  1.00  0.00     0.029 A 
ATOM     55  N   UNL     1      -4.833  -8.207   8.967  1.00  0.00    -0.354 N 
ATOM     56  N   UNL     1      -3.261  -5.957   9.861  1.00  0.00    -0.248 NA
ATOM     57  C   UNL     1      -2.337  -4.658  11.568  1.00  0.00     0.031 C 
ATOM     58  C   UNL     1      -5.629  -9.635  10.471  1.00  0.00     0.029 A 
ATOM     59  C   UNL     1      -4.892  -8.471  10.329  1.00  0.00     0.049 A 
ATOM     60  H   UNL     1      -4.373  -7.436   8.562  1.00  0.00     0.167 HD
ATOM     61  C   UNL     1      -3.572  -6.528  11.095  1.00  0.00     0.074 A 
ATOM     62  C   UNL     1      -2.953  -5.700  12.107  1.00  0.00     0.031 C 
ATOM     63  C   UNL     1      -4.281  -7.657  11.354  1.00  0.00     0.034 A 
BRANCH  50  64
ATOM     64  C   UNL     1      -6.583 -10.269   6.224  1.00  0.00     0.023 A 
ATOM     65  C   UNL     1      -6.069 -11.174   5.276  1.00  0.00     0.031 A 
ATOM     66  C   UNL     1      -7.949 -10.355   6.540  1.00  0.00     0.131 A 
ATOM     67  C   UNL     1      -6.935 -12.037   4.592  1.00  0.00     0.055 A 
ATOM     68  C   UNL     1      -8.787 -11.290   5.930  1.00  0.00     0.041 A 
ATOM     69  F   UNL     1      -8.500  -9.512   7.428  1.00  0.00    -0.206 F 
ATOM     70  C   UNL     1      -8.287 -12.122   4.931  1.00  0.00     0.022 A 
BRANCH  67  71
ATOM     71  S   UNL     1      -6.306 -12.895   3.123  1.00  0.00     0.124 S 
ATOM     72  O   UNL     1      -5.873 -11.774   2.292  1.00  0.00    -0.237 OA
ATOM     73  O   UNL     1      -5.245 -13.729   3.675  1.00  0.00    -0.237 OA
ATOM     74  O   UNL     1      -7.474 -13.617   2.623  1.00  0.00    -0.744 OA
ENDBRANCH  67  71
ENDBRANCH  50  64
BRANCH  51  75
ATOM     75  C   UNL     1      -1.068  -2.796   9.712  1.00  0.00     0.023 A 
ATOM     76  C   UNL     1       0.091  -2.944  10.491  1.00  0.00     0.031 A 
ATOM     77  C   UNL     1      -1.565  -1.496   9.511  1.00  0.00     0.131 A 
ATOM     78  C   UNL     1       0.686  -1.818  11.083  1.00  0.00     0.055 A 
ATOM     79  C   UNL     1      -0.945  -0.374  10.067  1.00  0.00     0.041 A 
ATOM     80  F   UNL     1      -2.672  -1.298   8.777  1.00  0.00    -0.206 F 
ATOM     81  C   UNL     1       0.181  -0.533  10.869  1.00  0.00     0.022 A 
BRANCH  78  82
ATOM     82  S   UNL     1       2.091  -2.063  12.205  1.00  0.00     0.124 S 
ATOM     83  O   UNL     1       1.503  -2.911  13.236  1.00  0.00    -0.237 OA
ATOM     84  O   UNL     1       3.069  -2.700  11.329  1.00  0.00    -0.237 OA
ATOM     85  O   UNL     1       2.429  -0.706  12.629  1.00  0.00    -0.744 OA
ENDBRANCH  78  82
ENDBRANCH  51  75
BRANCH  63  86
ATOM     86  C   UNL     1      -4.373  -8.118  12.791  1.00  0.00     0.023 A 
ATOM     87  C   UNL     1      -5.045  -7.376  13.777  1.00  0.00     0.031 A 
ATOM     88  C   UNL     1      -3.779  -9.335  13.177  1.00  0.00     0.131 A 
ATOM     89  C   UNL     1      -5.065  -7.831  15.106  1.00  0.00     0.055 A 
ATOM     90  C   UNL     1      -3.858  -9.814  14.486  1.00  0.00     0.041 A 
ATOM     91  F   UNL     1      -3.117 -10.086  12.282  1.00  0.00    -0.206 F 
ATOM     92  C   UNL     1      -4.494  -9.055  15.462  1.00  0.00     0.022 A 
BRANCH  89  93
ATOM     93  S   UNL     1      -5.775  -6.759  16.387  1.00  0.00     0.124 S 
ATOM     94  O   UNL     1      -4.952  -5.560  16.269  1.00  0.00    -0.237 OA
ATOM     95  O   UNL     1      -7.161  -6.626  15.950  1.00  0.00    -0.237 OA
ATOM     96  O   UNL     1      -5.586  -7.523  17.619  1.00  0.00    -0.744 OA
ENDBRANCH  89  93
ENDBRANCH  63  86
ENDBRANCH  37  38
ENDBRANCH  30  32
ENDBRANCH  29  30
ENDBRANCH  28  29
ENDBRANCH   1  28
TORSDOF 21
