REMARK SMILES Cc1ccc(Oc2cc(C(=O)OCCOCCOC(=O)c3ccc(-c4c5nc(c(-c6cc(S(=O)(=O)[O-])ccc6F)c6ccc([nH]6)c(-c6cc(S(=O)(=O)[O-])ccc6F)c6nc(c(-c7cc(S(=O)(=O)[O-])ccc7F)c7ccc4[nH]7)C=C6)C=C5)cc3)nc3ccccc23)cc1
REMARK SMILES IDX 16 1 15 2 14 3 13 4 12 5 10 6 11 7 9 8 7 9 8 10 90 11 85 12
REMARK SMILES IDX 89 13 84 14 86 15 88 16 87 17 6 18 5 19 1 20 2 21 3 22 92 23
REMARK SMILES IDX 4 24 91 25 17 26 18 27 19 28 20 29 21 30 22 31 83 32 23 33
REMARK SMILES IDX 82 34 24 35 25 36 26 37 76 38 27 39 81 40 75 41 77 42 28 43
REMARK SMILES IDX 80 44 74 45 73 46 29 48 61 49 41 50 60 51 42 52 45 53 59 54
REMARK SMILES IDX 78 55 43 56 44 57 58 59 79 60 46 61 30 62 31 63 39 64 32 65
REMARK SMILES IDX 38 66 40 67 37 68 33 69 34 70 35 71 36 72 62 73 63 74 71 75
REMARK SMILES IDX 64 76 70 77 72 78 69 79 65 80 66 81 67 82 68 83 47 84 48 85
REMARK SMILES IDX 56 86 49 87 55 88 57 89 54 90 50 91 51 92 52 93 53 94
REMARK H PARENT 77 47 45 58
REMARK Flexibility Score: inf
ROOT
ATOM      1  C   UNL     1      -8.873   1.218   0.993  1.00  0.00     0.202 C 
ENDROOT
BRANCH   1   2
ATOM      2  O   UNL     1      -8.381   2.462   1.422  1.00  0.00    -0.374 OA
BRANCH   2   3
ATOM      3  C   UNL     1      -8.611   3.563   0.561  1.00  0.00     0.202 C 
BRANCH   3   4
ATOM      4  C   UNL     1      -7.763   4.676   1.094  1.00  0.00     0.261 C 
BRANCH   4   5
ATOM      5  O   UNL     1      -6.357   4.389   1.000  1.00  0.00    -0.459 OA
BRANCH   5   6
ATOM      6  C   UNL     1      -5.774   3.270   1.510  1.00  0.00     0.357 C 
ATOM      7  O   UNL     1      -5.999   2.653   2.523  1.00  0.00    -0.244 OA
BRANCH   6   8
ATOM      8  C   UNL     1      -4.831   2.812   0.473  1.00  0.00     0.152 A 
ATOM      9  C   UNL     1      -3.527   1.160  -0.548  1.00  0.00     0.139 A 
ATOM     10  C   UNL     1      -4.280   1.556   0.547  1.00  0.00     0.084 A 
ATOM     11  C   UNL     1      -3.384   1.989  -1.694  1.00  0.00     0.043 A 
ATOM     12  C   UNL     1      -3.990   3.251  -1.624  1.00  0.00     0.075 A 
ATOM     13  C   UNL     1      -2.656   1.677  -2.862  1.00  0.00     0.014 A 
ATOM     14  N   UNL     1      -4.676   3.648  -0.574  1.00  0.00    -0.240 NA
ATOM     15  C   UNL     1      -3.886   4.157  -2.657  1.00  0.00     0.029 A 
ATOM     16  C   UNL     1      -2.533   2.610  -3.896  1.00  0.00     0.001 A 
ATOM     17  C   UNL     1      -3.152   3.852  -3.794  1.00  0.00     0.002 A 
BRANCH   9  18
ATOM     18  O   UNL     1      -2.894  -0.057  -0.440  1.00  0.00    -0.457 OA
BRANCH  18  19
ATOM     19  C   UNL     1      -1.542  -0.016  -0.162  1.00  0.00     0.127 A 
ATOM     20  C   UNL     1       2.740  -0.144   0.103  1.00  0.00     0.044 C 
ATOM     21  C   UNL     1       1.244  -0.108   0.079  1.00  0.00    -0.051 A 
ATOM     22  C   UNL     1       0.506  -1.290  -0.065  1.00  0.00     0.007 A 
ATOM     23  C   UNL     1       0.570   1.109   0.193  1.00  0.00     0.007 A 
ATOM     24  C   UNL     1      -0.883  -1.244  -0.189  1.00  0.00     0.047 A 
ATOM     25  C   UNL     1      -0.816   1.153   0.090  1.00  0.00     0.047 A 
ENDBRANCH  18  19
ENDBRANCH   9  18
ENDBRANCH   6   8
ENDBRANCH   5   6
ENDBRANCH   4   5
ENDBRANCH   3   4
ENDBRANCH   2   3
ENDBRANCH   1   2
BRANCH   1  26
ATOM     26  C   UNL     1     -10.401   1.218   0.971  1.00  0.00     0.261 C 
BRANCH  26  27
ATOM     27  O   UNL     1     -10.935   1.396   2.306  1.00  0.00    -0.460 OA
BRANCH  27  28
ATOM     28  C   UNL     1     -11.258   2.677   2.660  1.00  0.00     0.338 C 
ATOM     29  O   UNL     1     -12.141   3.336   2.138  1.00  0.00    -0.246 OA
BRANCH  28  30
ATOM     30  C   UNL     1     -10.301   3.200   3.683  1.00  0.00     0.060 A 
ATOM     31  C   UNL     1     -10.197   4.582   3.948  1.00  0.00     0.016 A 
ATOM     32  C   UNL     1      -9.310   2.338   4.127  1.00  0.00     0.016 A 
ATOM     33  C   UNL     1      -9.014   5.115   4.497  1.00  0.00     0.010 A 
ATOM     34  C   UNL     1      -8.110   2.883   4.514  1.00  0.00     0.010 A 
ATOM     35  C   UNL     1      -7.929   4.266   4.694  1.00  0.00    -0.014 A 
BRANCH  35  36
ATOM     36  C   UNL     1      -6.549   4.637   5.035  1.00  0.00     0.031 A 
ATOM     37  C   UNL     1      -5.973   4.041   6.268  1.00  0.00     0.074 A 
ATOM     38  C   UNL     1      -5.709   5.233   4.147  1.00  0.00     0.049 A 
ATOM     39  N   UNL     1      -4.897   4.462   6.833  1.00  0.00    -0.248 NA
ATOM     40  C   UNL     1      -6.598   2.956   7.030  1.00  0.00     0.031 C 
ATOM     41  C   UNL     1      -4.255   5.061   4.059  1.00  0.00     0.029 A 
ATOM     42  N   UNL     1      -5.982   6.090   3.081  1.00  0.00    -0.354 N 
ATOM     43  C   UNL     1      -4.498   3.493   7.726  1.00  0.00     0.074 A 
ATOM     44  C   UNL     1      -5.662   2.683   7.940  1.00  0.00     0.031 C 
ATOM     45  C   UNL     1      -3.742   5.926   3.166  1.00  0.00     0.029 A 
ATOM     46  C   UNL     1      -4.818   6.793   2.728  1.00  0.00     0.049 A 
ATOM     47  H   UNL     1      -6.858   6.188   2.643  1.00  0.00     0.167 HD
ATOM     48  C   UNL     1      -3.175   3.393   8.030  1.00  0.00     0.034 A 
ATOM     49  C   UNL     1      -4.811   8.150   2.631  1.00  0.00     0.034 A 
ATOM     50  C   UNL     1      -2.408   4.410   7.301  1.00  0.00     0.049 A 
ATOM     51  C   UNL     1      -3.940   8.682   3.736  1.00  0.00     0.074 A 
ATOM     52  C   UNL     1      -1.543   4.345   6.221  1.00  0.00     0.029 A 
ATOM     53  N   UNL     1      -2.705   5.754   7.485  1.00  0.00    -0.354 N 
ATOM     54  N   UNL     1      -3.614   7.947   4.764  1.00  0.00    -0.248 NA
ATOM     55  C   UNL     1      -3.299   9.991   3.768  1.00  0.00     0.031 C 
ATOM     56  C   UNL     1      -1.341   5.669   5.747  1.00  0.00     0.029 A 
ATOM     57  C   UNL     1      -2.059   6.536   6.555  1.00  0.00     0.049 A 
ATOM     58  H   UNL     1      -3.300   6.102   8.188  1.00  0.00     0.167 HD
ATOM     59  C   UNL     1      -2.704   8.596   5.533  1.00  0.00     0.074 A 
ATOM     60  C   UNL     1      -2.566   9.895   4.894  1.00  0.00     0.031 C 
ATOM     61  C   UNL     1      -2.148   7.987   6.620  1.00  0.00     0.034 A 
BRANCH  48  62
ATOM     62  C   UNL     1      -2.487   2.257   8.761  1.00  0.00     0.023 A 
ATOM     63  C   UNL     1      -1.075   2.247   8.759  1.00  0.00     0.031 A 
ATOM     64  C   UNL     1      -3.081   1.172   9.435  1.00  0.00     0.131 A 
ATOM     65  C   UNL     1      -0.334   1.198   9.327  1.00  0.00     0.055 A 
ATOM     66  C   UNL     1      -2.344   0.122  10.002  1.00  0.00     0.041 A 
ATOM     67  F   UNL     1      -4.398   1.062   9.619  1.00  0.00    -0.206 F 
ATOM     68  C   UNL     1      -0.962   0.126   9.945  1.00  0.00     0.022 A 
BRANCH  65  69
ATOM     69  S   UNL     1       1.472   1.268   9.236  1.00  0.00     0.124 S 
ATOM     70  O   UNL     1       1.709   1.182   7.799  1.00  0.00    -0.237 OA
ATOM     71  O   UNL     1       1.767   2.549   9.867  1.00  0.00    -0.237 OA
ATOM     72  O   UNL     1       1.892   0.094  10.002  1.00  0.00    -0.744 OA
ENDBRANCH  65  69
ENDBRANCH  48  62
BRANCH  49  73
ATOM     73  C   UNL     1      -6.115   8.673   2.114  1.00  0.00     0.023 A 
ATOM     74  C   UNL     1      -6.377   8.490   0.731  1.00  0.00     0.031 A 
ATOM     75  C   UNL     1      -7.219   8.792   2.975  1.00  0.00     0.131 A 
ATOM     76  C   UNL     1      -7.694   8.287   0.274  1.00  0.00     0.055 A 
ATOM     77  C   UNL     1      -8.525   8.571   2.517  1.00  0.00     0.041 A 
ATOM     78  F   UNL     1      -7.038   8.939   4.296  1.00  0.00    -0.206 F 
ATOM     79  C   UNL     1      -8.764   8.284   1.173  1.00  0.00     0.022 A 
BRANCH  76  80
ATOM     80  S   UNL     1      -7.976   7.738  -1.448  1.00  0.00     0.124 S 
ATOM     81  O   UNL     1      -7.937   8.996  -2.184  1.00  0.00    -0.237 OA
ATOM     82  O   UNL     1      -6.864   6.826  -1.693  1.00  0.00    -0.237 OA
ATOM     83  O   UNL     1      -9.285   7.087  -1.384  1.00  0.00    -0.744 OA
ENDBRANCH  76  80
ENDBRANCH  49  73
BRANCH  61  84
ATOM     84  C   UNL     1      -1.554   8.712   7.792  1.00  0.00     0.023 A 
ATOM     85  C   UNL     1      -1.685  10.094   7.942  1.00  0.00     0.031 A 
ATOM     86  C   UNL     1      -0.929   8.031   8.865  1.00  0.00     0.131 A 
ATOM     87  C   UNL     1      -1.107  10.761   9.026  1.00  0.00     0.055 A 
ATOM     88  C   UNL     1      -0.451   8.686  10.000  1.00  0.00     0.041 A 
ATOM     89  F   UNL     1      -0.773   6.700   8.877  1.00  0.00    -0.206 F 
ATOM     90  C   UNL     1      -0.511  10.068  10.073  1.00  0.00     0.022 A 
BRANCH  87  91
ATOM     91  S   UNL     1      -1.066  12.564   8.950  1.00  0.00     0.124 S 
ATOM     92  O   UNL     1      -0.300  12.793   7.727  1.00  0.00    -0.237 OA
ATOM     93  O   UNL     1      -2.483  12.909   8.880  1.00  0.00    -0.237 OA
ATOM     94  O   UNL     1      -0.391  12.944  10.188  1.00  0.00    -0.744 OA
ENDBRANCH  87  91
ENDBRANCH  61  84
ENDBRANCH  35  36
ENDBRANCH  28  30
ENDBRANCH  27  28
ENDBRANCH  26  27
ENDBRANCH   1  26
TORSDOF 19
