REMARK SMILES Cc1c(-c2nn(-c3ccccc3)cc2/C=N/O)nnn1-c1ccc(C(=O)OCCOCCOC(=O)c2ccc(-c3c4nc(c(-c5cc(S(=O)(=O)[O-])ccc5F)c5ccc([nH]5)c(-c5cc(S(=O)(=O)[O-])ccc5F)c5nc(c(-c6cc(S(=O)(=O)[O-])ccc6F)c6ccc3[nH]6)C=C5)C=C4)cc2)cc1
REMARK SMILES IDX 29 1 28 2 27 3 25 4 26 5 24 6 21 7 22 8 100 9 23 10 99 11
REMARK SMILES IDX 20 12 1 13 2 14 3 15 18 16 19 17 4 18 5 19 14 20 6 21 13 22
REMARK SMILES IDX 15 23 16 24 17 25 7 27 8 28 12 29 9 30 11 31 10 32 30 33
REMARK SMILES IDX 31 34 32 35 33 36 34 37 35 38 36 39 37 40 98 41 38 42 97 43
REMARK SMILES IDX 39 44 40 45 41 46 91 47 42 48 96 49 90 50 92 51 43 52 95 53
REMARK SMILES IDX 89 54 88 55 44 57 76 58 56 59 75 60 57 61 60 62 74 63 93 64
REMARK SMILES IDX 58 65 59 66 73 68 94 69 61 70 45 71 46 72 54 73 47 74 53 75
REMARK SMILES IDX 55 76 52 77 48 78 49 79 50 80 51 81 77 82 78 83 86 84 79 85
REMARK SMILES IDX 85 86 87 87 84 88 80 89 81 90 82 91 83 92 62 93 63 94 71 95
REMARK SMILES IDX 64 96 70 97 72 98 69 99 65 100 66 101 67 102 68 103
REMARK H PARENT 17 26 92 56 60 67
REMARK Flexibility Score: inf
ROOT
ATOM      1  C   UNL     1       6.595   3.778  -6.103  1.00  0.00     0.202 C 
ENDROOT
BRANCH   1   2
ATOM      2  C   UNL     1       6.166   2.397  -5.603  1.00  0.00     0.261 C 
BRANCH   2   3
ATOM      3  O   UNL     1       4.994   2.432  -4.772  1.00  0.00    -0.460 OA
BRANCH   3   4
ATOM      4  C   UNL     1       5.245   2.221  -3.458  1.00  0.00     0.338 C 
ATOM      5  O   UNL     1       6.324   1.975  -2.944  1.00  0.00    -0.246 OA
BRANCH   4   6
ATOM      6  C   UNL     1       4.037   2.461  -2.644  1.00  0.00     0.060 A 
ATOM      7  C   UNL     1       1.955   2.599  -0.812  1.00  0.00     0.067 A 
ATOM      8  C   UNL     1       3.147   3.275  -0.540  1.00  0.00     0.029 A 
ATOM      9  C   UNL     1       1.758   1.962  -2.049  1.00  0.00     0.029 A 
ATOM     10  C   UNL     1       4.200   3.171  -1.445  1.00  0.00     0.018 A 
ATOM     11  C   UNL     1       2.797   1.914  -2.982  1.00  0.00     0.018 A 
BRANCH   7  12
ATOM     12  N   UNL     1       1.008   2.463   0.229  1.00  0.00    -0.217 N 
ATOM     13  C   UNL     1       0.699  -0.058   0.155  1.00  0.00     0.069 C 
ATOM     14  C   UNL     1       0.394   1.300   0.664  1.00  0.00     0.071 A 
ATOM     15  C   UNL     1      -0.392   1.733   1.713  1.00  0.00     0.137 A 
ATOM     16  N   UNL     1      -0.173   3.058   1.950  1.00  0.00    -0.128 NA
ATOM     17  N   UNL     1       0.745   3.477   1.088  1.00  0.00    -0.061 NA
BRANCH  15  18
ATOM     18  C   UNL     1      -1.271   0.946   2.573  1.00  0.00     0.124 A 
ATOM     19  N   UNL     1      -0.797   0.058   3.458  1.00  0.00    -0.165 NA
ATOM     20  C   UNL     1      -2.685   0.987   2.551  1.00  0.00     0.044 A 
ATOM     21  N   UNL     1      -1.899  -0.562   3.932  1.00  0.00    -0.240 N 
ATOM     22  C   UNL     1      -3.054  -0.034   3.407  1.00  0.00     0.125 A 
BRANCH  20  23
ATOM     23  C   UNL     1      -3.610   1.833   1.841  1.00  0.00     0.166 C 
ATOM     24  N   UNL     1      -3.180   2.658   0.946  1.00  0.00    -0.097 NA
BRANCH  24  25
ATOM     25  O   UNL     1      -4.263   3.383   0.434  1.00  0.00    -0.411 OA
ATOM     26  H   UNL     1      -4.122   4.029  -0.230  1.00  0.00     0.330 HD
ENDBRANCH  24  25
ENDBRANCH  20  23
BRANCH  21  27
ATOM     27  C   UNL     1      -1.795  -1.645   4.836  1.00  0.00     0.065 A 
ATOM     28  C   UNL     1      -0.783  -1.638   5.804  1.00  0.00     0.028 A 
ATOM     29  C   UNL     1      -2.688  -2.721   4.754  1.00  0.00     0.028 A 
ATOM     30  C   UNL     1      -0.686  -2.697   6.709  1.00  0.00     0.002 A 
ATOM     31  C   UNL     1      -2.546  -3.802   5.627  1.00  0.00     0.002 A 
ATOM     32  C   UNL     1      -1.556  -3.783   6.610  1.00  0.00     0.000 A 
ENDBRANCH  21  27
ENDBRANCH  15  18
ENDBRANCH   7  12
ENDBRANCH   4   6
ENDBRANCH   3   4
ENDBRANCH   2   3
ENDBRANCH   1   2
BRANCH   1  33
ATOM     33  O   UNL     1       6.959   4.768  -5.142  1.00  0.00    -0.374 OA
BRANCH  33  34
ATOM     34  C   UNL     1       5.966   5.340  -4.298  1.00  0.00     0.202 C 
BRANCH  34  35
ATOM     35  C   UNL     1       4.891   6.224  -4.912  1.00  0.00     0.261 C 
BRANCH  35  36
ATOM     36  O   UNL     1       4.162   5.560  -5.929  1.00  0.00    -0.460 OA
BRANCH  36  37
ATOM     37  C   UNL     1       4.519   5.934  -7.183  1.00  0.00     0.338 C 
ATOM     38  O   UNL     1       5.562   6.454  -7.525  1.00  0.00    -0.246 OA
BRANCH  37  39
ATOM     39  C   UNL     1       3.358   5.751  -8.059  1.00  0.00     0.060 A 
ATOM     40  C   UNL     1       3.507   6.160  -9.385  1.00  0.00     0.016 A 
ATOM     41  C   UNL     1       2.103   5.531  -7.477  1.00  0.00     0.016 A 
ATOM     42  C   UNL     1       2.387   6.602 -10.053  1.00  0.00     0.010 A 
ATOM     43  C   UNL     1       0.997   6.005  -8.129  1.00  0.00     0.010 A 
ATOM     44  C   UNL     1       1.170   6.621  -9.366  1.00  0.00    -0.014 A 
BRANCH  44  45
ATOM     45  C   UNL     1       0.001   7.170 -10.015  1.00  0.00     0.031 A 
ATOM     46  C   UNL     1      -0.577   6.191 -10.960  1.00  0.00     0.074 A 
ATOM     47  C   UNL     1      -0.546   8.345  -9.651  1.00  0.00     0.049 A 
ATOM     48  N   UNL     1      -0.435   6.170 -12.243  1.00  0.00    -0.248 NA
ATOM     49  C   UNL     1      -1.109   4.933 -10.401  1.00  0.00     0.031 C 
ATOM     50  C   UNL     1      -0.171   9.226  -8.542  1.00  0.00     0.029 A 
ATOM     51  N   UNL     1      -1.638   8.968 -10.164  1.00  0.00    -0.354 N 
ATOM     52  C   UNL     1      -1.138   5.045 -12.653  1.00  0.00     0.074 A 
ATOM     53  C   UNL     1      -1.209   4.192 -11.505  1.00  0.00     0.031 C 
ATOM     54  C   UNL     1      -1.157  10.134  -8.335  1.00  0.00     0.029 A 
ATOM     55  C   UNL     1      -2.170   9.983  -9.368  1.00  0.00     0.049 A 
ATOM     56  H   UNL     1      -2.027   8.722 -11.034  1.00  0.00     0.167 HD
ATOM     57  C   UNL     1      -1.919   5.085 -13.767  1.00  0.00     0.034 A 
ATOM     58  C   UNL     1      -3.386  10.584  -9.530  1.00  0.00     0.034 A 
ATOM     59  C   UNL     1      -1.566   6.226 -14.589  1.00  0.00     0.049 A 
ATOM     60  C   UNL     1      -3.790  10.327 -10.941  1.00  0.00     0.074 A 
ATOM     61  C   UNL     1      -0.397   6.656 -15.188  1.00  0.00     0.029 A 
ATOM     62  N   UNL     1      -2.385   7.335 -14.532  1.00  0.00    -0.354 N 
ATOM     63  N   UNL     1      -3.141  10.816 -11.966  1.00  0.00    -0.248 NA
ATOM     64  C   UNL     1      -4.548   9.113 -11.216  1.00  0.00     0.031 C 
ATOM     65  C   UNL     1      -0.387   8.070 -15.004  1.00  0.00     0.029 A 
ATOM     66  C   UNL     1      -1.591   8.449 -14.405  1.00  0.00     0.049 A 
ATOM     67  H   UNL     1      -3.368   7.329 -14.575  1.00  0.00     0.167 HD
ATOM     68  C   UNL     1      -3.051   9.769 -12.873  1.00  0.00     0.074 A 
ATOM     69  C   UNL     1      -3.996   8.764 -12.384  1.00  0.00     0.031 C 
ATOM     70  C   UNL     1      -2.006   9.678 -13.749  1.00  0.00     0.034 A 
BRANCH  57  71
ATOM     71  C   UNL     1      -3.255   4.378 -13.892  1.00  0.00     0.023 A 
ATOM     72  C   UNL     1      -3.950   4.567 -15.098  1.00  0.00     0.031 A 
ATOM     73  C   UNL     1      -4.002   3.779 -12.848  1.00  0.00     0.131 A 
ATOM     74  C   UNL     1      -5.325   4.292 -15.191  1.00  0.00     0.055 A 
ATOM     75  C   UNL     1      -5.354   3.449 -12.966  1.00  0.00     0.041 A 
ATOM     76  F   UNL     1      -3.515   3.546 -11.625  1.00  0.00    -0.206 F 
ATOM     77  C   UNL     1      -6.034   3.737 -14.132  1.00  0.00     0.022 A 
BRANCH  74  78
ATOM     78  S   UNL     1      -6.203   4.842 -16.672  1.00  0.00     0.124 S 
ATOM     79  O   UNL     1      -5.872   6.262 -16.695  1.00  0.00    -0.237 OA
ATOM     80  O   UNL     1      -5.587   4.017 -17.706  1.00  0.00    -0.237 OA
ATOM     81  O   UNL     1      -7.598   4.528 -16.371  1.00  0.00    -0.744 OA
ENDBRANCH  74  78
ENDBRANCH  57  71
BRANCH  58  82
ATOM     82  C   UNL     1      -4.360  10.973  -8.458  1.00  0.00     0.023 A 
ATOM     83  C   UNL     1      -5.446  11.861  -8.664  1.00  0.00     0.031 A 
ATOM     84  C   UNL     1      -4.368  10.254  -7.240  1.00  0.00     0.131 A 
ATOM     85  C   UNL     1      -6.462  11.997  -7.679  1.00  0.00     0.055 A 
ATOM     86  C   UNL     1      -5.372  10.389  -6.278  1.00  0.00     0.041 A 
ATOM     87  F   UNL     1      -3.438   9.323  -6.978  1.00  0.00    -0.206 F 
ATOM     88  C   UNL     1      -6.429  11.255  -6.497  1.00  0.00     0.022 A 
BRANCH  85  89
ATOM     89  S   UNL     1      -7.898  13.099  -7.941  1.00  0.00     0.124 S 
ATOM     90  O   UNL     1      -7.280  14.419  -7.958  1.00  0.00    -0.237 OA
ATOM     91  O   UNL     1      -8.439  12.616  -9.206  1.00  0.00    -0.237 OA
ATOM     92  O   UNL     1      -8.748  12.838  -6.777  1.00  0.00    -0.744 OA
ENDBRANCH  85  89
ENDBRANCH  58  82
BRANCH  70  93
ATOM     93  C   UNL     1      -1.105  10.885 -13.941  1.00  0.00     0.023 A 
ATOM     94  C   UNL     1      -0.324  11.506 -12.936  1.00  0.00     0.031 A 
ATOM     95  C   UNL     1      -0.940  11.334 -15.263  1.00  0.00     0.131 A 
ATOM     96  C   UNL     1       0.580  12.534 -13.285  1.00  0.00     0.055 A 
ATOM     97  C   UNL     1      -0.028  12.329 -15.605  1.00  0.00     0.041 A 
ATOM     98  F   UNL     1      -1.639  10.771 -16.263  1.00  0.00    -0.206 F 
ATOM     99  C   UNL     1       0.734  12.936 -14.616  1.00  0.00     0.022 A 
BRANCH  96 100
ATOM    100  S   UNL     1       1.572  13.389 -12.014  1.00  0.00     0.124 S 
ATOM    101  O   UNL     1       0.591  13.727 -10.990  1.00  0.00    -0.237 OA
ATOM    102  O   UNL     1       2.558  12.376 -11.647  1.00  0.00    -0.237 OA
ATOM    103  O   UNL     1       2.124  14.541 -12.731  1.00  0.00    -0.744 OA
ENDBRANCH  96 100
ENDBRANCH  70  93
ENDBRANCH  44  45
ENDBRANCH  37  39
ENDBRANCH  36  37
ENDBRANCH  35  36
ENDBRANCH  34  35
ENDBRANCH  33  34
ENDBRANCH   1  33
TORSDOF 22
