REMARK SMILES O=C(OCCOCCOC(=O)C1(Cc2cccc(Cl)c2)CCCC1)c1ccc(-c2c3nc(c(-c4cc(S(=O)(=O)[O-])ccc4F)c4ccc([nH]4)c(-c4cc(S(=O)(=O)[O-])ccc4F)c4nc(c(-c5cc(S(=O)(=O)[O-])ccc5F)c5ccc2[nH]5)C=C4)C=C3)cc1
REMARK SMILES IDX 5 1 4 2 3 3 2 4 1 5 25 6 26 7 87 8 27 9 86 10 28 11 29 12
REMARK SMILES IDX 30 13 80 14 31 15 85 16 79 17 81 18 32 19 84 20 78 21 77 22
REMARK SMILES IDX 33 24 65 25 45 26 64 27 46 28 49 29 63 30 82 31 47 32 48 33
REMARK SMILES IDX 62 35 83 36 50 37 34 38 35 39 43 40 36 41 42 42 44 43 41 44
REMARK SMILES IDX 37 45 38 46 39 47 40 48 66 49 67 50 75 51 68 52 74 53 76 54
REMARK SMILES IDX 73 55 69 56 70 57 71 58 72 59 51 60 52 61 60 62 53 63 59 64
REMARK SMILES IDX 61 65 58 66 54 67 55 68 56 69 57 70 6 71 7 72 8 73 9 74
REMARK SMILES IDX 10 75 11 76 12 77 21 78 24 79 22 80 23 81 13 82 14 83 15 84
REMARK SMILES IDX 20 85 16 86 18 87 17 88 19 89
REMARK H PARENT 81 23 49 34
REMARK Flexibility Score: inf
ROOT
ATOM      1  C   UNL     1       4.288   1.254   0.560  1.00  0.00     0.202 C 
ENDROOT
BRANCH   1   2
ATOM      2  C   UNL     1       4.002   1.237  -0.944  1.00  0.00     0.261 C 
BRANCH   2   3
ATOM      3  O   UNL     1       2.614   0.965  -1.194  1.00  0.00    -0.460 OA
BRANCH   3   4
ATOM      4  C   UNL     1       2.064  -0.232  -1.514  1.00  0.00     0.338 C 
ATOM      5  O   UNL     1       0.847  -0.302  -1.673  1.00  0.00    -0.246 OA
BRANCH   4   6
ATOM      6  C   UNL     1       2.869  -1.479  -1.675  1.00  0.00     0.060 A 
ATOM      7  C   UNL     1       4.028  -1.762  -0.955  1.00  0.00     0.016 A 
ATOM      8  C   UNL     1       2.374  -2.469  -2.536  1.00  0.00     0.016 A 
ATOM      9  C   UNL     1       4.701  -2.953  -1.076  1.00  0.00     0.010 A 
ATOM     10  C   UNL     1       3.037  -3.695  -2.659  1.00  0.00     0.010 A 
ATOM     11  C   UNL     1       4.199  -3.929  -1.917  1.00  0.00    -0.014 A 
BRANCH  11  12
ATOM     12  C   UNL     1       5.038  -5.120  -2.065  1.00  0.00     0.031 A 
ATOM     13  C   UNL     1       5.907  -5.199  -3.275  1.00  0.00     0.074 A 
ATOM     14  C   UNL     1       5.156  -5.962  -1.022  1.00  0.00     0.049 A 
ATOM     15  N   UNL     1       6.680  -6.167  -3.670  1.00  0.00    -0.248 NA
ATOM     16  C   UNL     1       5.924  -4.011  -4.149  1.00  0.00     0.031 C 
ATOM     17  C   UNL     1       4.489  -5.795   0.276  1.00  0.00     0.029 A 
ATOM     18  N   UNL     1       5.906  -7.092  -0.864  1.00  0.00    -0.354 N 
ATOM     19  C   UNL     1       7.236  -5.731  -4.865  1.00  0.00     0.074 A 
ATOM     20  C   UNL     1       6.731  -4.403  -5.122  1.00  0.00     0.031 C 
ATOM     21  C   UNL     1       4.871  -6.786   1.097  1.00  0.00     0.029 A 
ATOM     22  C   UNL     1       5.718  -7.706   0.353  1.00  0.00     0.049 A 
ATOM     23  H   UNL     1       6.521  -7.433  -1.553  1.00  0.00     0.167 HD
ATOM     24  C   UNL     1       8.073  -6.417  -5.675  1.00  0.00     0.034 A 
ATOM     25  C   UNL     1       6.138  -8.915   0.771  1.00  0.00     0.034 A 
ATOM     26  C   UNL     1       8.528  -7.744  -5.353  1.00  0.00     0.049 A 
ATOM     27  C   UNL     1       6.955  -9.718  -0.212  1.00  0.00     0.074 A 
ATOM     28  C   UNL     1       9.296  -8.607  -6.108  1.00  0.00     0.029 A 
ATOM     29  N   UNL     1       8.242  -8.400  -4.157  1.00  0.00    -0.354 N 
ATOM     30  N   UNL     1       7.387  -9.365  -1.405  1.00  0.00    -0.248 NA
ATOM     31  C   UNL     1       7.327 -11.077   0.186  1.00  0.00     0.031 C 
ATOM     32  C   UNL     1       9.412  -9.808  -5.400  1.00  0.00     0.029 A 
ATOM     33  C   UNL     1       8.791  -9.668  -4.166  1.00  0.00     0.049 A 
ATOM     34  H   UNL     1       7.724  -8.015  -3.414  1.00  0.00     0.167 HD
ATOM     35  C   UNL     1       8.099 -10.454  -1.891  1.00  0.00     0.074 A 
ATOM     36  C   UNL     1       8.062 -11.461  -0.846  1.00  0.00     0.031 C 
ATOM     37  C   UNL     1       8.720 -10.626  -3.087  1.00  0.00     0.034 A 
BRANCH  24  38
ATOM     38  C   UNL     1       8.403  -5.795  -7.005  1.00  0.00     0.023 A 
ATOM     39  C   UNL     1       9.161  -4.617  -7.121  1.00  0.00     0.031 A 
ATOM     40  C   UNL     1       7.867  -6.353  -8.180  1.00  0.00     0.131 A 
ATOM     41  C   UNL     1       9.307  -4.002  -8.375  1.00  0.00     0.055 A 
ATOM     42  C   UNL     1       8.079  -5.778  -9.433  1.00  0.00     0.041 A 
ATOM     43  F   UNL     1       7.098  -7.453  -8.124  1.00  0.00    -0.206 F 
ATOM     44  C   UNL     1       8.793  -4.589  -9.535  1.00  0.00     0.022 A 
BRANCH  41  45
ATOM     45  S   UNL     1      10.061  -2.354  -8.458  1.00  0.00     0.124 S 
ATOM     46  O   UNL     1       9.110  -1.556  -7.687  1.00  0.00    -0.237 OA
ATOM     47  O   UNL     1      11.363  -2.568  -7.837  1.00  0.00    -0.237 OA
ATOM     48  O   UNL     1      10.093  -2.062  -9.889  1.00  0.00    -0.744 OA
ENDBRANCH  41  45
ENDBRANCH  24  38
BRANCH  25  49
ATOM     49  C   UNL     1       5.707  -9.482   2.085  1.00  0.00     0.023 A 
ATOM     50  C   UNL     1       6.643  -9.947   3.022  1.00  0.00     0.031 A 
ATOM     51  C   UNL     1       4.342  -9.654   2.390  1.00  0.00     0.131 A 
ATOM     52  C   UNL     1       6.207 -10.619   4.177  1.00  0.00     0.055 A 
ATOM     53  C   UNL     1       3.913 -10.257   3.575  1.00  0.00     0.041 A 
ATOM     54  F   UNL     1       3.393  -9.246   1.533  1.00  0.00    -0.206 F 
ATOM     55  C   UNL     1       4.848 -10.764   4.467  1.00  0.00     0.022 A 
BRANCH  52  56
ATOM     56  S   UNL     1       7.444 -11.432   5.227  1.00  0.00     0.124 S 
ATOM     57  O   UNL     1       8.153 -12.262   4.260  1.00  0.00    -0.237 OA
ATOM     58  O   UNL     1       8.182 -10.293   5.761  1.00  0.00    -0.237 OA
ATOM     59  O   UNL     1       6.636 -12.162   6.201  1.00  0.00    -0.744 OA
ENDBRANCH  52  56
ENDBRANCH  25  49
BRANCH  37  60
ATOM     60  C   UNL     1       9.439 -11.932  -3.281  1.00  0.00     0.023 A 
ATOM     61  C   UNL     1       8.740 -13.145  -3.378  1.00  0.00     0.031 A 
ATOM     62  C   UNL     1      10.841 -11.955  -3.372  1.00  0.00     0.131 A 
ATOM     63  C   UNL     1       9.452 -14.345  -3.499  1.00  0.00     0.055 A 
ATOM     64  C   UNL     1      11.539 -13.144  -3.566  1.00  0.00     0.041 A 
ATOM     65  F   UNL     1      11.551 -10.818  -3.284  1.00  0.00    -0.206 F 
ATOM     66  C   UNL     1      10.845 -14.350  -3.616  1.00  0.00     0.022 A 
BRANCH  63  67
ATOM     67  S   UNL     1       8.537 -15.905  -3.401  1.00  0.00     0.124 S 
ATOM     68  O   UNL     1       7.916 -15.809  -2.084  1.00  0.00    -0.237 OA
ATOM     69  O   UNL     1       7.630 -15.808  -4.541  1.00  0.00    -0.237 OA
ATOM     70  O   UNL     1       9.580 -16.921  -3.525  1.00  0.00    -0.744 OA
ENDBRANCH  63  67
ENDBRANCH  37  60
ENDBRANCH  11  12
ENDBRANCH   4   6
ENDBRANCH   3   4
ENDBRANCH   2   3
ENDBRANCH   1   2
BRANCH   1  71
ATOM     71  O   UNL     1       3.889   0.085   1.270  1.00  0.00    -0.374 OA
BRANCH  71  72
ATOM     72  C   UNL     1       2.516  -0.022   1.652  1.00  0.00     0.202 C 
BRANCH  72  73
ATOM     73  C   UNL     1       2.465  -0.251   3.153  1.00  0.00     0.261 C 
BRANCH  73  74
ATOM     74  O   UNL     1       3.042   0.911   3.754  1.00  0.00    -0.463 OA
BRANCH  74  75
ATOM     75  C   UNL     1       4.393   0.886   3.918  1.00  0.00     0.312 C 
ATOM     76  O   UNL     1       5.111  -0.111   3.836  1.00  0.00    -0.252 OA
BRANCH  75  77
ATOM     77  C   UNL     1       4.901   2.256   4.330  1.00  0.00     0.072 C 
ATOM     78  C   UNL     1       6.248   2.506   3.624  1.00  0.00     0.019 C 
ATOM     79  C   UNL     1       4.029   3.398   3.762  1.00  0.00     0.019 C 
ATOM     80  C   UNL     1       6.371   4.011   3.445  1.00  0.00     0.001 C 
ATOM     81  C   UNL     1       4.956   4.563   3.449  1.00  0.00     0.001 C 
BRANCH  77  82
ATOM     82  C   UNL     1       5.023   2.253   5.877  1.00  0.00     0.054 C 
BRANCH  82  83
ATOM     83  C   UNL     1       3.725   1.869   6.573  1.00  0.00    -0.045 A 
ATOM     84  C   UNL     1       3.342   0.517   6.672  1.00  0.00     0.004 A 
ATOM     85  C   UNL     1       2.812   2.855   6.962  1.00  0.00     0.024 A 
ATOM     86  C   UNL     1       2.034   0.170   7.014  1.00  0.00     0.002 A 
ATOM     87  C   UNL     1       1.516   2.499   7.339  1.00  0.00     0.041 A 
ATOM     88  C   UNL     1       1.114   1.164   7.335  1.00  0.00     0.020 A 
ATOM     89  Cl  UNL     1       0.388   3.728   7.761  1.00  0.00    -0.084 Cl
ENDBRANCH  82  83
ENDBRANCH  77  82
ENDBRANCH  75  77
ENDBRANCH  74  75
ENDBRANCH  73  74
ENDBRANCH  72  73
ENDBRANCH  71  72
ENDBRANCH   1  71
TORSDOF 19
