REMARK SMILES C[C@H](NC(=O)N1CC[C@H](C(=O)OCCOCCOC(=O)c2ccc(-c3c4nc(c(-c5cc(S(=O)(=O)[O-])ccc5F)c5ccc([nH]5)c(-c5cc(S(=O)(=O)[O-])ccc5F)c5nc(c(-c6cc(S(=O)(=O)[O-])ccc6F)c6ccc3[nH]6)C=C5)C=C4)cc2)[C@H]1C)c1ccsc1
REMARK SMILES IDX 15 1 14 2 13 3 12 4 10 5 11 6 9 7 6 8 7 9 84 10 8 11 85 12
REMARK SMILES IDX 4 13 3 14 5 16 2 17 1 18 86 19 87 20 90 21 88 22 89 23 16 24
REMARK SMILES IDX 17 25 18 26 19 27 20 28 21 29 22 30 83 31 23 32 82 33 24 34
REMARK SMILES IDX 25 35 26 36 76 37 27 38 81 39 75 40 77 41 28 42 80 43 74 44
REMARK SMILES IDX 73 45 29 47 61 48 41 49 60 50 42 51 45 52 59 53 78 54 43 55
REMARK SMILES IDX 44 56 58 58 79 59 46 60 30 61 31 62 39 63 32 64 38 65 40 66
REMARK SMILES IDX 37 67 33 68 34 69 35 70 36 71 62 72 63 73 71 74 64 75 70 76
REMARK SMILES IDX 72 77 69 78 65 79 66 80 67 81 68 82 47 83 48 84 56 85 49 86
REMARK SMILES IDX 55 87 57 88 54 89 50 90 51 91 52 92 53 93
REMARK H PARENT 3 15 77 46 45 57
REMARK Flexibility Score: inf
ROOT
ATOM      1  O   UNL     1       7.416   0.880   1.390  1.00  0.00    -0.374 OA
ENDROOT
BRANCH   1   2
ATOM      2  C   UNL     1       8.017   2.037   1.978  1.00  0.00     0.202 C 
BRANCH   2   3
ATOM      3  C   UNL     1       7.239   3.345   1.797  1.00  0.00     0.261 C 
BRANCH   3   4
ATOM      4  O   UNL     1       6.000   3.286   2.526  1.00  0.00    -0.463 OA
BRANCH   4   5
ATOM      5  C   UNL     1       4.866   3.545   1.820  1.00  0.00     0.311 C 
ATOM      6  O   UNL     1       4.825   3.970   0.676  1.00  0.00    -0.252 OA
BRANCH   5   7
ATOM      7  C   UNL     1       3.652   3.177   2.650  1.00  0.00     0.123 C 
ATOM      8  N   UNL     1       1.857   2.038   1.515  1.00  0.00    -0.321 N 
ATOM      9  C   UNL     1       1.752   3.465   1.250  1.00  0.00     0.122 C 
ATOM     10  C   UNL     1       3.115   1.795   2.231  1.00  0.00     0.098 C 
ATOM     11  C   UNL     1       2.486   4.127   2.398  1.00  0.00     0.039 C 
ATOM     12  C   UNL     1       2.922   0.898   3.449  1.00  0.00     0.032 C 
BRANCH   8  13
ATOM     13  C   UNL     1       1.538   1.215   0.469  1.00  0.00     0.318 C 
ATOM     14  N   UNL     1       0.579   0.285   0.638  1.00  0.00    -0.331 N 
ATOM     15  H   UNL     1       0.400  -0.215  -0.192  1.00  0.00     0.165 HD
ATOM     16  O   UNL     1       2.060   1.318  -0.640  1.00  0.00    -0.249 OA
BRANCH  14  17
ATOM     17  C   UNL     1      -0.258  -0.168   1.738  1.00  0.00     0.112 C 
ATOM     18  C   UNL     1      -0.387   0.697   2.989  1.00  0.00     0.036 C 
BRANCH  17  19
ATOM     19  C   UNL     1      -1.636  -0.424   1.165  1.00  0.00    -0.015 A 
ATOM     20  C   UNL     1      -2.337  -1.673   1.263  1.00  0.00     0.017 A 
ATOM     21  C   UNL     1      -2.422   0.529   0.537  1.00  0.00     0.070 A 
ATOM     22  C   UNL     1      -3.619  -1.600   0.764  1.00  0.00     0.065 A 
ATOM     23  S   UNL     1      -3.975  -0.055   0.130  1.00  0.00    -0.152 S 
ENDBRANCH  17  19
ENDBRANCH  14  17
ENDBRANCH   8  13
ENDBRANCH   5   7
ENDBRANCH   4   5
ENDBRANCH   3   4
ENDBRANCH   2   3
ENDBRANCH   1   2
BRANCH   1  24
ATOM     24  C   UNL     1       6.347   0.280   2.121  1.00  0.00     0.202 C 
BRANCH  24  25
ATOM     25  C   UNL     1       6.745  -0.701   3.226  1.00  0.00     0.261 C 
BRANCH  25  26
ATOM     26  O   UNL     1       7.338  -0.007   4.337  1.00  0.00    -0.460 OA
BRANCH  26  27
ATOM     27  C   UNL     1       8.673  -0.203   4.468  1.00  0.00     0.338 C 
ATOM     28  O   UNL     1       9.365  -0.977   3.834  1.00  0.00    -0.246 OA
BRANCH  27  29
ATOM     29  C   UNL     1       9.234   0.822   5.369  1.00  0.00     0.060 A 
ATOM     30  C   UNL     1      10.321   1.563   4.889  1.00  0.00     0.016 A 
ATOM     31  C   UNL     1       8.752   1.021   6.665  1.00  0.00     0.016 A 
ATOM     32  C   UNL     1      10.967   2.471   5.722  1.00  0.00     0.010 A 
ATOM     33  C   UNL     1       9.411   1.923   7.505  1.00  0.00     0.010 A 
ATOM     34  C   UNL     1      10.544   2.622   7.048  1.00  0.00    -0.014 A 
BRANCH  34  35
ATOM     35  C   UNL     1      11.403   3.371   7.995  1.00  0.00     0.031 A 
ATOM     36  C   UNL     1      12.352   2.595   8.867  1.00  0.00     0.074 A 
ATOM     37  C   UNL     1      11.374   4.714   8.039  1.00  0.00     0.049 A 
ATOM     38  N   UNL     1      13.180   3.025   9.783  1.00  0.00    -0.248 NA
ATOM     39  C   UNL     1      12.365   1.136   8.679  1.00  0.00     0.031 C 
ATOM     40  C   UNL     1      10.534   5.566   7.199  1.00  0.00     0.029 A 
ATOM     41  N   UNL     1      12.069   5.596   8.826  1.00  0.00    -0.354 N 
ATOM     42  C   UNL     1      13.813   1.891  10.282  1.00  0.00     0.074 A 
ATOM     43  C   UNL     1      13.243   0.753   9.593  1.00  0.00     0.031 C 
ATOM     44  C   UNL     1      10.757   6.852   7.524  1.00  0.00     0.029 A 
ATOM     45  C   UNL     1      11.724   6.911   8.618  1.00  0.00     0.049 A 
ATOM     46  H   UNL     1      12.752   5.315   9.478  1.00  0.00     0.167 HD
ATOM     47  C   UNL     1      14.785   1.810  11.223  1.00  0.00     0.034 A 
ATOM     48  C   UNL     1      12.125   8.027   9.258  1.00  0.00     0.034 A 
ATOM     49  C   UNL     1      15.330   2.956  11.909  1.00  0.00     0.049 A 
ATOM     50  C   UNL     1      13.141   7.904  10.369  1.00  0.00     0.074 A 
ATOM     51  C   UNL     1      16.320   2.995  12.874  1.00  0.00     0.029 A 
ATOM     52  N   UNL     1      14.918   4.269  11.710  1.00  0.00    -0.354 N 
ATOM     53  N   UNL     1      13.734   6.827  10.832  1.00  0.00    -0.248 NA
ATOM     54  C   UNL     1      13.547   9.148  11.037  1.00  0.00     0.031 C 
ATOM     55  C   UNL     1      16.456   4.317  13.310  1.00  0.00     0.029 A 
ATOM     56  C   UNL     1      15.608   5.119  12.560  1.00  0.00     0.049 A 
ATOM     57  H   UNL     1      14.236   4.553  11.060  1.00  0.00     0.167 HD
ATOM     58  C   UNL     1      14.605   7.270  11.825  1.00  0.00     0.074 A 
ATOM     59  C   UNL     1      14.468   8.711  11.883  1.00  0.00     0.031 C 
ATOM     60  C   UNL     1      15.448   6.553  12.613  1.00  0.00     0.034 A 
BRANCH  47  61
ATOM     61  C   UNL     1      15.270   0.430  11.600  1.00  0.00     0.023 A 
ATOM     62  C   UNL     1      15.931  -0.402  10.680  1.00  0.00     0.031 A 
ATOM     63  C   UNL     1      15.032  -0.074  12.891  1.00  0.00     0.131 A 
ATOM     64  C   UNL     1      16.268  -1.716  11.041  1.00  0.00     0.055 A 
ATOM     65  C   UNL     1      15.440  -1.355  13.268  1.00  0.00     0.041 A 
ATOM     66  F   UNL     1      14.382   0.664  13.804  1.00  0.00    -0.206 F 
ATOM     67  C   UNL     1      16.049  -2.190  12.336  1.00  0.00     0.022 A 
BRANCH  64  68
ATOM     68  S   UNL     1      16.864  -2.845   9.752  1.00  0.00     0.124 S 
ATOM     69  O   UNL     1      15.752  -2.825   8.805  1.00  0.00    -0.237 OA
ATOM     70  O   UNL     1      18.093  -2.197   9.309  1.00  0.00    -0.237 OA
ATOM     71  O   UNL     1      17.046  -4.110  10.461  1.00  0.00    -0.744 OA
ENDBRANCH  64  68
ENDBRANCH  47  61
BRANCH  48  72
ATOM     72  C   UNL     1      11.538   9.352   8.906  1.00  0.00     0.023 A 
ATOM     73  C   UNL     1      12.331  10.388   8.389  1.00  0.00     0.031 A 
ATOM     74  C   UNL     1      10.175   9.617   9.134  1.00  0.00     0.131 A 
ATOM     75  C   UNL     1      11.766  11.652   8.158  1.00  0.00     0.055 A 
ATOM     76  C   UNL     1       9.607  10.861   8.854  1.00  0.00     0.041 A 
ATOM     77  F   UNL     1       9.371   8.663   9.630  1.00  0.00    -0.206 F 
ATOM     78  C   UNL     1      10.407  11.892   8.374  1.00  0.00     0.022 A 
BRANCH  75  79
ATOM     79  S   UNL     1      12.855  13.011   7.647  1.00  0.00     0.124 S 
ATOM     80  O   UNL     1      13.812  13.053   8.747  1.00  0.00    -0.237 OA
ATOM     81  O   UNL     1      13.366  12.524   6.370  1.00  0.00    -0.237 OA
ATOM     82  O   UNL     1      11.952  14.156   7.560  1.00  0.00    -0.744 OA
ENDBRANCH  75  79
ENDBRANCH  48  72
BRANCH  60  83
ATOM     83  C   UNL     1      16.317   7.330  13.573  1.00  0.00     0.023 A 
ATOM     84  C   UNL     1      15.774   8.023  14.668  1.00  0.00     0.031 A 
ATOM     85  C   UNL     1      17.709   7.378  13.382  1.00  0.00     0.131 A 
ATOM     86  C   UNL     1      16.613   8.780  15.501  1.00  0.00     0.055 A 
ATOM     87  C   UNL     1      18.546   8.083  14.248  1.00  0.00     0.041 A 
ATOM     88  F   UNL     1      18.281   6.735  12.351  1.00  0.00    -0.206 F 
ATOM     89  C   UNL     1      17.997   8.800  15.308  1.00  0.00     0.022 A 
BRANCH  86  90
ATOM     90  S   UNL     1      15.863   9.811  16.790  1.00  0.00     0.124 S 
ATOM     91  O   UNL     1      14.990  10.684  16.010  1.00  0.00    -0.237 OA
ATOM     92  O   UNL     1      15.191   8.824  17.629  1.00  0.00    -0.237 OA
ATOM     93  O   UNL     1      17.008  10.474  17.410  1.00  0.00    -0.744 OA
ENDBRANCH  86  90
ENDBRANCH  60  83
ENDBRANCH  34  35
ENDBRANCH  27  29
ENDBRANCH  26  27
ENDBRANCH  25  26
ENDBRANCH  24  25
ENDBRANCH   1  24
TORSDOF 20
