REMARK SMILES O=C(OCCOCCOC(=O)C1(Cc2cc(F)cc(Br)c2)CCCCCC1)c1ccc(-c2c3nc(c(-c4cc(S(=O)(=O)[O-])ccc4F)c4ccc([nH]4)c(-c4cc(S(=O)(=O)[O-])ccc4F)c4nc(c(-c5cc(S(=O)(=O)[O-])ccc5F)c5ccc2[nH]5)C=C4)C=C3)cc1
REMARK SMILES IDX 6 1 5 2 4 3 3 4 2 5 1 6 28 7 29 8 90 9 30 10 89 11 31 12
REMARK SMILES IDX 32 13 33 14 83 15 34 16 88 17 82 18 84 19 35 20 87 21 81 22
REMARK SMILES IDX 80 23 36 25 68 26 48 27 67 28 49 29 52 30 66 31 85 32 50 33
REMARK SMILES IDX 51 34 65 36 86 37 53 38 37 39 38 40 46 41 39 42 45 43 47 44
REMARK SMILES IDX 44 45 40 46 41 47 42 48 43 49 69 50 70 51 78 52 71 53 77 54
REMARK SMILES IDX 79 55 76 56 72 57 73 58 74 59 75 60 54 61 55 62 63 63 56 64
REMARK SMILES IDX 62 65 64 66 61 67 57 68 58 69 59 70 60 71 7 72 8 73 9 74
REMARK SMILES IDX 10 75 11 76 12 77 13 78 14 79 15 80 21 81 16 82 19 83 17 84
REMARK SMILES IDX 18 85 20 86 22 87 23 88 24 89 27 91 26 92 25 93
REMARK H PARENT 84 24 52 35
REMARK Flexibility Score: 100.00
ROOT
ATOM      1  O   UNL     1       2.380   1.174   0.735  1.00  0.00    -0.374 OA
ENDROOT
BRANCH   1   2
ATOM      2  C   UNL     1       2.693   1.094  -0.651  1.00  0.00     0.202 C 
BRANCH   2   3
ATOM      3  C   UNL     1       2.857  -0.347  -1.147  1.00  0.00     0.261 C 
BRANCH   3   4
ATOM      4  O   UNL     1       1.735  -1.153  -0.775  1.00  0.00    -0.460 OA
BRANCH   4   5
ATOM      5  C   UNL     1       1.437  -1.386   0.530  1.00  0.00     0.338 C 
ATOM      6  O   UNL     1       0.266  -1.426   0.900  1.00  0.00    -0.246 OA
BRANCH   5   7
ATOM      7  C   UNL     1       2.521  -1.833   1.456  1.00  0.00     0.060 A 
ATOM      8  C   UNL     1       3.745  -1.178   1.639  1.00  0.00     0.016 A 
ATOM      9  C   UNL     1       2.230  -2.946   2.255  1.00  0.00     0.016 A 
ATOM     10  C   UNL     1       4.675  -1.632   2.557  1.00  0.00     0.010 A 
ATOM     11  C   UNL     1       3.138  -3.375   3.224  1.00  0.00     0.010 A 
ATOM     12  C   UNL     1       4.360  -2.708   3.379  1.00  0.00    -0.014 A 
BRANCH  12  13
ATOM     13  C   UNL     1       5.366  -3.136   4.364  1.00  0.00     0.031 A 
ATOM     14  C   UNL     1       6.096  -4.415   4.122  1.00  0.00     0.074 A 
ATOM     15  C   UNL     1       5.675  -2.311   5.383  1.00  0.00     0.049 A 
ATOM     16  N   UNL     1       6.941  -5.041   4.892  1.00  0.00    -0.248 NA
ATOM     17  C   UNL     1       5.836  -5.079   2.834  1.00  0.00     0.031 C 
ATOM     18  C   UNL     1       5.079  -0.988   5.605  1.00  0.00     0.029 A 
ATOM     19  N   UNL     1       6.579  -2.439   6.401  1.00  0.00    -0.354 N 
ATOM     20  C   UNL     1       7.301  -6.186   4.192  1.00  0.00     0.074 A 
ATOM     21  C   UNL     1       6.559  -6.181   2.951  1.00  0.00     0.031 C 
ATOM     22  C   UNL     1       5.655  -0.419   6.674  1.00  0.00     0.029 A 
ATOM     23  C   UNL     1       6.586  -1.369   7.267  1.00  0.00     0.049 A 
ATOM     24  H   UNL     1       7.168  -3.221   6.505  1.00  0.00     0.167 HD
ATOM     25  C   UNL     1       8.181  -7.144   4.567  1.00  0.00     0.034 A 
ATOM     26  C   UNL     1       7.238  -1.210   8.435  1.00  0.00     0.034 A 
ATOM     27  C   UNL     1       8.884  -7.100   5.825  1.00  0.00     0.049 A 
ATOM     28  C   UNL     1       8.124  -2.346   8.883  1.00  0.00     0.074 A 
ATOM     29  C   UNL     1       9.723  -8.042   6.386  1.00  0.00     0.029 A 
ATOM     30  N   UNL     1       8.825  -6.033   6.720  1.00  0.00    -0.354 N 
ATOM     31  N   UNL     1       8.385  -3.481   8.268  1.00  0.00    -0.248 NA
ATOM     32  C   UNL     1       8.798  -2.189  10.174  1.00  0.00     0.031 C 
ATOM     33  C   UNL     1      10.126  -7.571   7.642  1.00  0.00     0.029 A 
ATOM     34  C   UNL     1       9.602  -6.299   7.833  1.00  0.00     0.049 A 
ATOM     35  H   UNL     1       8.305  -5.209   6.580  1.00  0.00     0.167 HD
ATOM     36  C   UNL     1       9.269  -4.166   9.094  1.00  0.00     0.074 A 
ATOM     37  C   UNL     1       9.522  -3.297  10.229  1.00  0.00     0.031 C 
ATOM     38  C   UNL     1       9.818  -5.400   8.944  1.00  0.00     0.034 A 
BRANCH  25  39
ATOM     39  C   UNL     1       8.336  -8.324   3.642  1.00  0.00     0.023 A 
ATOM     40  C   UNL     1       8.847  -8.181   2.338  1.00  0.00     0.031 A 
ATOM     41  C   UNL     1       7.873  -9.593   4.031  1.00  0.00     0.131 A 
ATOM     42  C   UNL     1       8.801  -9.264   1.446  1.00  0.00     0.055 A 
ATOM     43  C   UNL     1       7.909 -10.688   3.164  1.00  0.00     0.041 A 
ATOM     44  F   UNL     1       7.342  -9.783   5.249  1.00  0.00    -0.206 F 
ATOM     45  C   UNL     1       8.359 -10.523   1.858  1.00  0.00     0.022 A 
BRANCH  42  46
ATOM     46  S   UNL     1       9.175  -8.964  -0.305  1.00  0.00     0.124 S 
ATOM     47  O   UNL     1       8.125  -8.017  -0.672  1.00  0.00    -0.237 OA
ATOM     48  O   UNL     1      10.530  -8.428  -0.254  1.00  0.00    -0.237 OA
ATOM     49  O   UNL     1       9.050 -10.287  -0.913  1.00  0.00    -0.744 OA
ENDBRANCH  42  46
ENDBRANCH  25  39
BRANCH  26  50
ATOM     50  C   UNL     1       7.013  -0.005   9.291  1.00  0.00     0.023 A 
ATOM     51  C   UNL     1       8.074   0.821   9.693  1.00  0.00     0.031 A 
ATOM     52  C   UNL     1       5.729   0.299   9.785  1.00  0.00     0.131 A 
ATOM     53  C   UNL     1       7.845   1.866  10.605  1.00  0.00     0.055 A 
ATOM     54  C   UNL     1       5.494   1.381  10.635  1.00  0.00     0.041 A 
ATOM     55  F   UNL     1       4.671  -0.457   9.448  1.00  0.00    -0.206 F 
ATOM     56  C   UNL     1       6.561   2.161  11.066  1.00  0.00     0.022 A 
BRANCH  53  57
ATOM     57  S   UNL     1       9.272   2.757  11.286  1.00  0.00     0.124 S 
ATOM     58  O   UNL     1      10.082   1.665  11.813  1.00  0.00    -0.237 OA
ATOM     59  O   UNL     1       9.798   3.434  10.105  1.00  0.00    -0.237 OA
ATOM     60  O   UNL     1       8.677   3.635  12.292  1.00  0.00    -0.744 OA
ENDBRANCH  53  57
ENDBRANCH  26  50
BRANCH  38  61
ATOM     61  C   UNL     1      10.773  -5.838  10.024  1.00  0.00     0.023 A 
ATOM     62  C   UNL     1      10.340  -6.066  11.341  1.00  0.00     0.031 A 
ATOM     63  C   UNL     1      12.138  -6.002   9.733  1.00  0.00     0.131 A 
ATOM     64  C   UNL     1      11.277  -6.370  12.337  1.00  0.00     0.055 A 
ATOM     65  C   UNL     1      13.054  -6.381  10.713  1.00  0.00     0.041 A 
ATOM     66  F   UNL     1      12.603  -5.794   8.491  1.00  0.00    -0.206 F 
ATOM     67  C   UNL     1      12.628  -6.550  12.028  1.00  0.00     0.022 A 
BRANCH  64  68
ATOM     68  S   UNL     1      10.723  -6.407  14.062  1.00  0.00     0.124 S 
ATOM     69  O   UNL     1      10.168  -5.068  14.230  1.00  0.00    -0.237 OA
ATOM     70  O   UNL     1       9.757  -7.501  14.057  1.00  0.00    -0.237 OA
ATOM     71  O   UNL     1      11.951  -6.669  14.810  1.00  0.00    -0.744 OA
ENDBRANCH  64  68
ENDBRANCH  38  61
ENDBRANCH  12  13
ENDBRANCH   5   7
ENDBRANCH   4   5
ENDBRANCH   3   4
ENDBRANCH   2   3
ENDBRANCH   1   2
BRANCH   1  72
ATOM     72  C   UNL     1       1.715   2.360   1.148  1.00  0.00     0.202 C 
BRANCH  72  73
ATOM     73  C   UNL     1       2.645   3.555   1.355  1.00  0.00     0.261 C 
BRANCH  73  74
ATOM     74  O   UNL     1       3.340   3.889   0.141  1.00  0.00    -0.463 OA
BRANCH  74  75
ATOM     75  C   UNL     1       4.670   3.576   0.060  1.00  0.00     0.312 C 
ATOM     76  O   UNL     1       5.293   3.015   0.941  1.00  0.00    -0.252 OA
BRANCH  75  77
ATOM     77  C   UNL     1       5.278   4.002  -1.301  1.00  0.00     0.072 C 
BRANCH  77  78
ATOM     78  C   UNL     1       5.472   2.790  -2.271  1.00  0.00     0.054 C 
BRANCH  78  79
ATOM     79  C   UNL     1       6.567   1.759  -2.076  1.00  0.00    -0.043 A 
ATOM     80  C   UNL     1       6.574   0.835  -1.026  1.00  0.00     0.043 A 
ATOM     81  C   UNL     1       7.570   1.642  -3.058  1.00  0.00     0.019 A 
ATOM     82  C   UNL     1       7.528  -0.186  -0.988  1.00  0.00     0.124 A 
ATOM     83  C   UNL     1       8.525   0.621  -3.000  1.00  0.00     0.021 A 
ATOM     84  F   UNL     1       7.482  -1.084   0.004  1.00  0.00    -0.207 F 
ATOM     85  C   UNL     1       8.502  -0.308  -1.969  1.00  0.00     0.055 A 
ATOM     86  Br  UNL     1       9.834   0.496  -4.359  1.00  0.00    -0.051 Br
ENDBRANCH  78  79
ENDBRANCH  77  78
BRANCH  77  87
ATOM     87  C   UNL     1       4.288   4.965  -2.037  1.00  0.00     0.019 C 
BRANCH  87  88
ATOM     88  C   UNL     1       4.208   6.370  -1.440  1.00  0.00     0.001 C 
BRANCH  88  89
ATOM     89  C   UNL     1       5.177   7.329  -2.124  1.00  0.00     0.000 CG0
ATOM     90  G   UNL     1       6.662   7.063  -1.882  1.00  0.00     0.000 G0
ENDBRANCH  88  89
ENDBRANCH  87  88
ENDBRANCH  77  87
BRANCH  77  91
ATOM     91  C   UNL     1       6.627   4.689  -0.986  1.00  0.00     0.019 C 
BRANCH  91  92
ATOM     92  C   UNL     1       7.139   5.624  -2.081  1.00  0.00     0.001 C 
BRANCH  92  93
ATOM     93  C   UNL     1       6.662   7.063  -1.882  1.00  0.00     0.000 CG0
ATOM     94  G   UNL     1       5.177   7.329  -2.124  1.00  0.00     0.000 G0
ENDBRANCH  92  93
ENDBRANCH  91  92
ENDBRANCH  77  91
ENDBRANCH  75  77
ENDBRANCH  74  75
ENDBRANCH  73  74
ENDBRANCH  72  73
ENDBRANCH   1  72
TORSDOF 19
