REMARK SMILES O=C(OCCOCCOC(=O)c1ccc2c(c1)[C@@H](C1CCOCC1)C(=O)N2)c1ccc(-c2c3nc(c(-c4cc(S(=O)(=O)[O-])ccc4F)c4ccc([nH]4)c(-c4cc(S(=O)(=O)[O-])ccc4F)c4nc(c(-c5cc(S(=O)(=O)[O-])ccc5F)c5ccc2[nH]5)C=C4)C=C3)cc1
REMARK SMILES IDX 5 1 4 2 3 3 2 4 1 5 28 6 29 7 90 8 30 9 89 10 31 11 32 12
REMARK SMILES IDX 33 13 83 14 34 15 88 16 82 17 84 18 35 19 87 20 81 21 80 22
REMARK SMILES IDX 36 24 68 25 48 26 67 27 49 28 52 29 66 30 85 31 50 32 51 33
REMARK SMILES IDX 65 35 86 36 53 37 37 38 38 39 46 40 39 41 45 42 47 43 44 44
REMARK SMILES IDX 40 45 41 46 42 47 43 48 69 49 70 50 78 51 71 52 77 53 79 54
REMARK SMILES IDX 76 55 72 56 73 57 74 58 75 59 54 60 55 61 63 62 56 63 62 64
REMARK SMILES IDX 64 65 61 66 57 67 58 68 59 69 60 70 6 71 7 72 8 73 9 74
REMARK SMILES IDX 10 75 11 76 12 77 13 78 17 79 14 80 16 81 15 82 18 83 27 84
REMARK SMILES IDX 25 85 26 87 19 88 20 89 24 90 21 91 23 92 22 93
REMARK H PARENT 84 23 52 34 27 86
REMARK Flexibility Score: inf
ROOT
ATOM      1  C   UNL     1       4.495  -1.268   0.955  1.00  0.00     0.202 C 
ENDROOT
BRANCH   1   2
ATOM      2  C   UNL     1       4.213   0.177   1.369  1.00  0.00     0.261 C 
BRANCH   2   3
ATOM      3  O   UNL     1       2.813   0.460   1.241  1.00  0.00    -0.460 OA
BRANCH   3   4
ATOM      4  C   UNL     1       2.191   1.095   0.220  1.00  0.00     0.338 C 
ATOM      5  O   UNL     1       0.966   1.197   0.254  1.00  0.00    -0.246 OA
BRANCH   4   6
ATOM      6  C   UNL     1       2.911   1.690  -0.945  1.00  0.00     0.060 A 
ATOM      7  C   UNL     1       4.078   1.175  -1.516  1.00  0.00     0.016 A 
ATOM      8  C   UNL     1       2.300   2.787  -1.570  1.00  0.00     0.016 A 
ATOM      9  C   UNL     1       4.644   1.727  -2.651  1.00  0.00     0.010 A 
ATOM     10  C   UNL     1       2.850   3.343  -2.726  1.00  0.00     0.010 A 
ATOM     11  C   UNL     1       4.028   2.809  -3.261  1.00  0.00    -0.014 A 
BRANCH  11  12
ATOM     12  C   UNL     1       4.723   3.446  -4.385  1.00  0.00     0.031 A 
ATOM     13  C   UNL     1       5.468   4.707  -4.109  1.00  0.00     0.074 A 
ATOM     14  C   UNL     1       4.750   2.836  -5.581  1.00  0.00     0.049 A 
ATOM     15  N   UNL     1       6.031   5.536  -4.940  1.00  0.00    -0.248 NA
ATOM     16  C   UNL     1       5.590   5.082  -2.692  1.00  0.00     0.031 C 
ATOM     17  C   UNL     1       4.170   1.522  -5.868  1.00  0.00     0.029 A 
ATOM     18  N   UNL     1       5.286   3.235  -6.773  1.00  0.00    -0.354 N 
ATOM     19  C   UNL     1       6.540   6.560  -4.150  1.00  0.00     0.074 A 
ATOM     20  C   UNL     1       6.211   6.245  -2.777  1.00  0.00     0.031 C 
ATOM     21  C   UNL     1       4.364   1.233  -7.164  1.00  0.00     0.029 A 
ATOM     22  C   UNL     1       5.002   2.376  -7.808  1.00  0.00     0.049 A 
ATOM     23  H   UNL     1       5.821   4.055  -6.880  1.00  0.00     0.167 HD
ATOM     24  C   UNL     1       7.204   7.667  -4.559  1.00  0.00     0.034 A 
ATOM     25  C   UNL     1       5.176   2.542  -9.133  1.00  0.00     0.034 A 
ATOM     26  C   UNL     1       7.467   7.927  -5.953  1.00  0.00     0.049 A 
ATOM     27  C   UNL     1       5.804   3.835  -9.588  1.00  0.00     0.074 A 
ATOM     28  C   UNL     1       8.064   9.027  -6.535  1.00  0.00     0.029 A 
ATOM     29  N   UNL     1       7.122   7.062  -6.991  1.00  0.00    -0.354 N 
ATOM     30  N   UNL     1       6.215   4.850  -8.858  1.00  0.00    -0.248 NA
ATOM     31  C   UNL     1       5.985   4.016 -11.031  1.00  0.00     0.031 C 
ATOM     32  C   UNL     1       8.007   8.863  -7.924  1.00  0.00     0.029 A 
ATOM     33  C   UNL     1       7.462   7.618  -8.210  1.00  0.00     0.049 A 
ATOM     34  H   UNL     1       6.697   6.182  -6.872  1.00  0.00     0.167 HD
ATOM     35  C   UNL     1       6.729   5.782  -9.751  1.00  0.00     0.074 A 
ATOM     36  C   UNL     1       6.573   5.205 -11.075  1.00  0.00     0.031 C 
ATOM     37  C   UNL     1       7.286   6.997  -9.507  1.00  0.00     0.034 A 
BRANCH  24  38
ATOM     38  C   UNL     1       7.537   8.687  -3.498  1.00  0.00     0.023 A 
ATOM     39  C   UNL     1       8.354   8.376  -2.395  1.00  0.00     0.031 A 
ATOM     40  C   UNL     1       6.904   9.943  -3.508  1.00  0.00     0.131 A 
ATOM     41  C   UNL     1       8.409   9.248  -1.296  1.00  0.00     0.055 A 
ATOM     42  C   UNL     1       7.049  10.852  -2.458  1.00  0.00     0.041 A 
ATOM     43  F   UNL     1       6.086  10.288  -4.514  1.00  0.00    -0.206 F 
ATOM     44  C   UNL     1       7.783  10.496  -1.330  1.00  0.00     0.022 A 
BRANCH  41  45
ATOM     45  S   UNL     1       9.110   8.632   0.262  1.00  0.00     0.124 S 
ATOM     46  O   UNL     1       8.280   7.455   0.515  1.00  0.00    -0.237 OA
ATOM     47  O   UNL     1      10.498   8.367  -0.098  1.00  0.00    -0.237 OA
ATOM     48  O   UNL     1       8.905   9.739   1.194  1.00  0.00    -0.744 OA
ENDBRANCH  41  45
ENDBRANCH  24  38
BRANCH  25  49
ATOM     49  C   UNL     1       4.662   1.518 -10.087  1.00  0.00     0.023 A 
ATOM     50  C   UNL     1       5.520   0.787 -10.922  1.00  0.00     0.031 A 
ATOM     51  C   UNL     1       3.282   1.240 -10.159  1.00  0.00     0.131 A 
ATOM     52  C   UNL     1       4.988  -0.173 -11.802  1.00  0.00     0.055 A 
ATOM     53  C   UNL     1       2.765   0.252 -10.998  1.00  0.00     0.041 A 
ATOM     54  F   UNL     1       2.413   1.910  -9.385  1.00  0.00    -0.206 F 
ATOM     55  C   UNL     1       3.620  -0.457 -11.832  1.00  0.00     0.022 A 
BRANCH  52  56
ATOM     56  S   UNL     1       6.107  -1.019 -12.953  1.00  0.00     0.124 S 
ATOM     57  O   UNL     1       6.665   0.101 -13.702  1.00  0.00    -0.237 OA
ATOM     58  O   UNL     1       7.020  -1.702 -12.043  1.00  0.00    -0.237 OA
ATOM     59  O   UNL     1       5.217  -1.895 -13.712  1.00  0.00    -0.744 OA
ENDBRANCH  52  56
ENDBRANCH  25  49
BRANCH  37  60
ATOM     60  C   UNL     1       7.826   7.750 -10.693  1.00  0.00     0.023 A 
ATOM     61  C   UNL     1       6.983   8.331 -11.652  1.00  0.00     0.031 A 
ATOM     62  C   UNL     1       9.215   7.934 -10.821  1.00  0.00     0.131 A 
ATOM     63  C   UNL     1       7.541   9.053 -12.716  1.00  0.00     0.055 A 
ATOM     64  C   UNL     1       9.759   8.701 -11.848  1.00  0.00     0.041 A 
ATOM     65  F   UNL     1      10.060   7.394  -9.927  1.00  0.00    -0.206 F 
ATOM     66  C   UNL     1       8.921   9.261 -12.807  1.00  0.00     0.022 A 
BRANCH  63  67
ATOM     67  S   UNL     1       6.443   9.678 -14.017  1.00  0.00     0.124 S 
ATOM     68  O   UNL     1       5.872   8.444 -14.547  1.00  0.00    -0.237 OA
ATOM     69  O   UNL     1       5.528  10.535 -13.270  1.00  0.00    -0.237 OA
ATOM     70  O   UNL     1       7.351  10.380 -14.922  1.00  0.00    -0.744 OA
ENDBRANCH  63  67
ENDBRANCH  37  60
ENDBRANCH  11  12
ENDBRANCH   4   6
ENDBRANCH   3   4
ENDBRANCH   2   3
ENDBRANCH   1   2
BRANCH   1  71
ATOM     71  O   UNL     1       4.152  -1.576  -0.394  1.00  0.00    -0.374 OA
BRANCH  71  72
ATOM     72  C   UNL     1       2.808  -2.005  -0.634  1.00  0.00     0.202 C 
BRANCH  72  73
ATOM     73  C   UNL     1       2.836  -3.377  -1.310  1.00  0.00     0.261 C 
BRANCH  73  74
ATOM     74  O   UNL     1       3.421  -4.314  -0.391  1.00  0.00    -0.460 OA
BRANCH  74  75
ATOM     75  C   UNL     1       4.781  -4.356  -0.418  1.00  0.00     0.338 C 
ATOM     76  O   UNL     1       5.524  -3.985  -1.298  1.00  0.00    -0.246 OA
BRANCH  75  77
ATOM     77  C   UNL     1       5.240  -4.784   0.923  1.00  0.00     0.060 A 
ATOM     78  C   UNL     1       4.568  -5.825   1.594  1.00  0.00     0.018 A 
ATOM     79  C   UNL     1       6.346  -4.129   1.504  1.00  0.00     0.022 A 
ATOM     80  C   UNL     1       5.035  -6.280   2.823  1.00  0.00     0.027 A 
ATOM     81  C   UNL     1       6.763  -4.548   2.755  1.00  0.00    -0.011 A 
ATOM     82  C   UNL     1       6.143  -5.649   3.349  1.00  0.00     0.045 A 
ATOM     83  C   UNL     1       7.917  -4.092   3.628  1.00  0.00     0.114 C 
ATOM     84  N   UNL     1       6.870  -6.057   4.451  1.00  0.00    -0.325 N 
ATOM     85  C   UNL     1       8.009  -5.284   4.618  1.00  0.00     0.232 C 
ATOM     86  H   UNL     1       6.612  -6.802   5.041  1.00  0.00     0.169 HD
ATOM     87  O   UNL     1       8.901  -5.529   5.412  1.00  0.00    -0.274 OA
BRANCH  83  88
ATOM     88  C   UNL     1       7.700  -2.742   4.380  1.00  0.00     0.010 C 
ATOM     89  C   UNL     1       8.925  -2.387   5.255  1.00  0.00     0.033 C 
ATOM     90  C   UNL     1       6.416  -2.697   5.238  1.00  0.00     0.033 C 
ATOM     91  C   UNL     1       8.689  -1.175   6.149  1.00  0.00     0.160 C 
ATOM     92  C   UNL     1       6.350  -1.448   6.111  1.00  0.00     0.160 C 
ATOM     93  O   UNL     1       7.510  -1.351   6.931  1.00  0.00    -0.381 OA
ENDBRANCH  83  88
ENDBRANCH  75  77
ENDBRANCH  74  75
ENDBRANCH  73  74
ENDBRANCH  72  73
ENDBRANCH  71  72
ENDBRANCH   1  71
TORSDOF 18
