REMARK SMILES COc1ccccc1CCNC(=O)[C@@H]1[C@@H](C(=O)OCCOCCOC(=O)c2ccc(-c3c4nc(c(-c5cc(S(=O)(=O)[O-])ccc5F)c5ccc([nH]5)c(-c5cc(S(=O)(=O)[O-])ccc5F)c5nc(c(-c6cc(S(=O)(=O)[O-])ccc6F)c6ccc3[nH]6)C=C5)C=C4)cc2)[C@H]2C=C[C@@H]1CC2
REMARK SMILES IDX 20 1 19 2 18 3 16 4 17 5 15 6 14 7 93 8 90 9 92 10 94 11
REMARK SMILES IDX 91 12 95 13 12 14 11 15 13 17 10 18 9 19 8 20 3 21 4 22 5 23
REMARK SMILES IDX 7 24 6 25 2 26 1 27 21 28 22 29 23 30 24 31 25 32 26 33
REMARK SMILES IDX 27 34 28 35 89 36 29 37 88 38 30 39 31 40 32 41 82 42 33 43
REMARK SMILES IDX 87 44 81 45 83 46 34 47 86 48 80 49 79 50 35 52 67 53 47 54
REMARK SMILES IDX 66 55 48 56 51 57 65 58 84 59 49 60 50 61 64 63 85 64 52 65
REMARK SMILES IDX 36 66 37 67 45 68 38 69 44 70 46 71 43 72 39 73 40 74 41 75
REMARK SMILES IDX 42 76 68 77 69 78 77 79 70 80 76 81 78 82 75 83 71 84 72 85
REMARK SMILES IDX 73 86 74 87 53 88 54 89 62 90 55 91 61 92 63 93 60 94 56 95
REMARK SMILES IDX 57 96 58 97 59 98
REMARK H PARENT 11 16 83 51 51 62
REMARK Flexibility Score: inf
ROOT
ATOM      1  C   UNL     1      11.512   1.361  -3.369  1.00  0.00     0.202 C 
ENDROOT
BRANCH   1   2
ATOM      2  C   UNL     1      10.411   2.373  -3.047  1.00  0.00     0.261 C 
BRANCH   2   3
ATOM      3  O   UNL     1       9.490   1.863  -2.065  1.00  0.00    -0.463 OA
BRANCH   3   4
ATOM      4  C   UNL     1       8.231   1.629  -2.505  1.00  0.00     0.310 C 
ATOM      5  O   UNL     1       7.845   1.796  -3.658  1.00  0.00    -0.252 OA
BRANCH   4   6
ATOM      6  C   UNL     1       7.306   1.097  -1.434  1.00  0.00     0.119 C 
ATOM      7  C   UNL     1       7.156   2.080  -0.256  1.00  0.00     0.100 C 
ATOM      8  C   UNL     1       7.013   1.291   1.075  1.00  0.00     0.025 C 
ATOM      9  C   UNL     1       7.639  -0.318  -0.881  1.00  0.00     0.026 C 
ATOM     10  C   UNL     1       8.353   0.583   1.242  1.00  0.00    -0.027 C 
ATOM     11  C   UNL     1       5.994   0.130   0.986  1.00  0.00     0.009 C 
ATOM     12  C   UNL     1       8.681  -0.229   0.220  1.00  0.00    -0.027 C 
ATOM     13  C   UNL     1       6.359  -0.831  -0.174  1.00  0.00     0.009 C 
BRANCH   7  14
ATOM     14  C   UNL     1       6.205   3.243  -0.498  1.00  0.00     0.224 C 
ATOM     15  N   UNL     1       5.001   3.137  -1.102  1.00  0.00    -0.355 N 
ATOM     16  H   UNL     1       4.695   3.970  -1.528  1.00  0.00     0.163 HD
ATOM     17  O   UNL     1       6.543   4.384  -0.166  1.00  0.00    -0.275 OA
BRANCH  15  18
ATOM     18  C   UNL     1       4.072   2.032  -1.242  1.00  0.00     0.120 C 
BRANCH  18  19
ATOM     19  C   UNL     1       3.092   1.997  -0.070  1.00  0.00     0.060 C 
BRANCH  19  20
ATOM     20  C   UNL     1       1.906   2.890  -0.311  1.00  0.00    -0.004 A 
ATOM     21  C   UNL     1       0.696   2.395  -0.815  1.00  0.00     0.122 A 
ATOM     22  C   UNL     1      -0.335   3.268  -1.160  1.00  0.00     0.047 A 
ATOM     23  C   UNL     1      -0.177   4.643  -0.978  1.00  0.00     0.004 A 
ATOM     24  C   UNL     1       2.043   4.273  -0.112  1.00  0.00     0.007 A 
ATOM     25  C   UNL     1       1.010   5.145  -0.450  1.00  0.00     0.001 A 
BRANCH  21  26
ATOM     26  O   UNL     1       0.512   1.066  -1.093  1.00  0.00    -0.496 OA
ATOM     27  C   UNL     1       0.277   0.298   0.091  1.00  0.00     0.278 C 
ENDBRANCH  21  26
ENDBRANCH  19  20
ENDBRANCH  18  19
ENDBRANCH  15  18
ENDBRANCH   7  14
ENDBRANCH   4   6
ENDBRANCH   3   4
ENDBRANCH   2   3
ENDBRANCH   1   2
BRANCH   1  28
ATOM     28  O   UNL     1      11.119   0.199  -4.101  1.00  0.00    -0.374 OA
BRANCH  28  29
ATOM     29  C   UNL     1      10.389  -0.802  -3.397  1.00  0.00     0.202 C 
BRANCH  29  30
ATOM     30  C   UNL     1      11.182  -1.711  -2.452  1.00  0.00     0.261 C 
BRANCH  30  31
ATOM     31  O   UNL     1      11.726  -0.991  -1.331  1.00  0.00    -0.460 OA
BRANCH  31  32
ATOM     32  C   UNL     1      13.077  -0.892  -1.330  1.00  0.00     0.338 C 
ATOM     33  O   UNL     1      13.847  -1.421  -2.121  1.00  0.00    -0.246 OA
BRANCH  32  34
ATOM     34  C   UNL     1      13.527   0.112  -0.347  1.00  0.00     0.060 A 
ATOM     35  C   UNL     1      14.396   1.107  -0.811  1.00  0.00     0.016 A 
ATOM     36  C   UNL     1      13.194   0.040   1.008  1.00  0.00     0.016 A 
ATOM     37  C   UNL     1      14.996   1.987   0.085  1.00  0.00     0.010 A 
ATOM     38  C   UNL     1      13.805   0.923   1.910  1.00  0.00     0.010 A 
ATOM     39  C   UNL     1      14.744   1.869   1.457  1.00  0.00    -0.014 A 
BRANCH  39  40
ATOM     40  C   UNL     1      15.610   2.615   2.407  1.00  0.00     0.031 A 
ATOM     41  C   UNL     1      16.758   1.893   3.063  1.00  0.00     0.074 A 
ATOM     42  C   UNL     1      15.433   3.932   2.617  1.00  0.00     0.049 A 
ATOM     43  N   UNL     1      17.657   2.345   3.900  1.00  0.00    -0.248 NA
ATOM     44  C   UNL     1      16.912   0.469   2.727  1.00  0.00     0.031 C 
ATOM     45  C   UNL     1      14.393   4.752   1.998  1.00  0.00     0.029 A 
ATOM     46  N   UNL     1      16.131   4.814   3.405  1.00  0.00    -0.354 N 
ATOM     47  C   UNL     1      18.482   1.263   4.192  1.00  0.00     0.074 A 
ATOM     48  C   UNL     1      17.950   0.124   3.474  1.00  0.00     0.031 C 
ATOM     49  C   UNL     1      14.520   6.018   2.432  1.00  0.00     0.029 A 
ATOM     50  C   UNL     1      15.626   6.093   3.384  1.00  0.00     0.049 A 
ATOM     51  H   UNL     1      16.919   4.554   3.935  1.00  0.00     0.167 HD
ATOM     52  C   UNL     1      19.587   1.225   4.977  1.00  0.00     0.034 A 
ATOM     53  C   UNL     1      16.001   7.192   4.070  1.00  0.00     0.034 A 
ATOM     54  C   UNL     1      20.104   2.366   5.692  1.00  0.00     0.049 A 
ATOM     55  C   UNL     1      17.184   7.106   5.005  1.00  0.00     0.074 A 
ATOM     56  C   UNL     1      21.224   2.441   6.503  1.00  0.00     0.029 A 
ATOM     57  N   UNL     1      19.531   3.632   5.694  1.00  0.00    -0.354 N 
ATOM     58  N   UNL     1      17.959   6.078   5.267  1.00  0.00    -0.248 NA
ATOM     59  C   UNL     1      17.549   8.332   5.728  1.00  0.00     0.031 C 
ATOM     60  C   UNL     1      21.284   3.726   7.052  1.00  0.00     0.029 A 
ATOM     61  C   UNL     1      20.251   4.481   6.521  1.00  0.00     0.049 A 
ATOM     62  H   UNL     1      18.729   3.888   5.183  1.00  0.00     0.167 HD
ATOM     63  C   UNL     1      18.920   6.545   6.162  1.00  0.00     0.074 A 
ATOM     64  C   UNL     1      18.635   7.947   6.382  1.00  0.00     0.031 C 
ATOM     65  C   UNL     1      19.950   5.876   6.743  1.00  0.00     0.034 A 
BRANCH  52  66
ATOM     66  C   UNL     1      20.274  -0.110   5.145  1.00  0.00     0.023 A 
ATOM     67  C   UNL     1      20.888  -0.772   4.067  1.00  0.00     0.031 A 
ATOM     68  C   UNL     1      20.291  -0.742   6.401  1.00  0.00     0.131 A 
ATOM     69  C   UNL     1      21.434  -2.052   4.252  1.00  0.00     0.055 A 
ATOM     70  C   UNL     1      20.904  -1.981   6.595  1.00  0.00     0.041 A 
ATOM     71  F   UNL     1      19.699  -0.170   7.462  1.00  0.00    -0.206 F 
ATOM     72  C   UNL     1      21.468  -2.650   5.513  1.00  0.00     0.022 A 
BRANCH  69  73
ATOM     73  S   UNL     1      21.976  -2.985   2.793  1.00  0.00     0.124 S 
ATOM     74  O   UNL     1      20.747  -3.042   2.006  1.00  0.00    -0.237 OA
ATOM     75  O   UNL     1      23.040  -2.144   2.258  1.00  0.00    -0.237 OA
ATOM     76  O   UNL     1      22.411  -4.266   3.347  1.00  0.00    -0.744 OA
ENDBRANCH  69  73
ENDBRANCH  52  66
BRANCH  53  77
ATOM     77  C   UNL     1      15.228   8.462   3.941  1.00  0.00     0.023 A 
ATOM     78  C   UNL     1      15.815   9.628   3.427  1.00  0.00     0.031 A 
ATOM     79  C   UNL     1      13.897   8.537   4.391  1.00  0.00     0.131 A 
ATOM     80  C   UNL     1      15.088  10.830   3.416  1.00  0.00     0.055 A 
ATOM     81  C   UNL     1      13.161   9.721   4.327  1.00  0.00     0.041 A 
ATOM     82  F   UNL     1      13.289   7.452   4.897  1.00  0.00    -0.206 F 
ATOM     83  C   UNL     1      13.762  10.881   3.849  1.00  0.00     0.022 A 
BRANCH  80  84
ATOM     84  S   UNL     1      15.933  12.353   2.906  1.00  0.00     0.124 S 
ATOM     85  O   UNL     1      17.034  12.415   3.860  1.00  0.00    -0.237 OA
ATOM     86  O   UNL     1      16.296  12.051   1.526  1.00  0.00    -0.237 OA
ATOM     87  O   UNL     1      14.907  13.382   3.069  1.00  0.00    -0.744 OA
ENDBRANCH  80  84
ENDBRANCH  53  77
BRANCH  65  88
ATOM     88  C   UNL     1      20.870   6.671   7.639  1.00  0.00     0.023 A 
ATOM     89  C   UNL     1      20.432   7.214   8.860  1.00  0.00     0.031 A 
ATOM     90  C   UNL     1      22.205   6.896   7.258  1.00  0.00     0.131 A 
ATOM     91  C   UNL     1      21.305   8.000   9.630  1.00  0.00     0.055 A 
ATOM     92  C   UNL     1      23.086   7.627   8.057  1.00  0.00     0.041 A 
ATOM     93  F   UNL     1      22.678   6.403   6.102  1.00  0.00    -0.206 F 
ATOM     94  C   UNL     1      22.633   8.195   9.244  1.00  0.00     0.022 A 
BRANCH  91  95
ATOM     95  S   UNL     1      20.655   8.842  11.099  1.00  0.00     0.124 S 
ATOM     96  O   UNL     1      19.578   9.650  10.535  1.00  0.00    -0.237 OA
ATOM     97  O   UNL     1      20.240   7.725  11.941  1.00  0.00    -0.237 OA
ATOM     98  O   UNL     1      21.802   9.599  11.597  1.00  0.00    -0.744 OA
ENDBRANCH  91  95
ENDBRANCH  65  88
ENDBRANCH  39  40
ENDBRANCH  32  34
ENDBRANCH  31  32
ENDBRANCH  30  31
ENDBRANCH  29  30
ENDBRANCH  28  29
ENDBRANCH   1  28
TORSDOF 22
