REMARK SMILES C[C@@H](C(=O)OCCOCCOC(=O)c1ccc(-c2c3nc(c(-c4cc(S(=O)(=O)[O-])ccc4F)c4ccc([nH]4)c(-c4cc(S(=O)(=O)[O-])ccc4F)c4nc(c(-c5cc(S(=O)(=O)[O-])ccc5F)c5ccc2[nH]5)C=C4)C=C3)cc1)c1cccn(C(F)F)c1=O
REMARK SMILES IDX 9 1 8 2 7 3 6 4 5 5 3 6 4 7 2 8 1 9 77 10 78 11 85 12 79 13
REMARK SMILES IDX 81 14 86 15 80 16 82 17 83 18 84 19 10 20 11 21 12 22 13 23
REMARK SMILES IDX 14 24 15 25 76 26 16 27 75 28 17 29 18 30 19 31 69 32 20 33
REMARK SMILES IDX 74 34 68 35 70 36 21 37 73 38 67 39 66 40 22 42 54 43 34 44
REMARK SMILES IDX 53 45 35 46 38 47 52 48 71 49 36 50 37 51 51 53 72 54 39 55
REMARK SMILES IDX 23 56 24 57 32 58 25 59 31 60 33 61 30 62 26 63 27 64 28 65
REMARK SMILES IDX 29 66 55 67 56 68 64 69 57 70 63 71 65 72 62 73 58 74 59 75
REMARK SMILES IDX 60 76 61 77 40 78 41 79 49 80 42 81 48 82 50 83 47 84 43 85
REMARK SMILES IDX 44 86 45 87 46 88
REMARK H PARENT 70 41 38 52
REMARK Flexibility Score: inf
ROOT
ATOM      1  C   UNL     1       0.629  -3.593  -0.369  1.00  0.00     0.202 C 
ENDROOT
BRANCH   1   2
ATOM      2  O   UNL     1       1.031  -4.408  -1.470  1.00  0.00    -0.374 OA
BRANCH   2   3
ATOM      3  C   UNL     1       2.290  -4.103  -2.077  1.00  0.00     0.202 C 
BRANCH   3   4
ATOM      4  C   UNL     1       2.298  -2.916  -3.044  1.00  0.00     0.261 C 
BRANCH   4   5
ATOM      5  O   UNL     1       1.972  -1.700  -2.348  1.00  0.00    -0.463 OA
BRANCH   5   6
ATOM      6  C   UNL     1       0.942  -0.974  -2.856  1.00  0.00     0.313 C 
ATOM      7  O   UNL     1       0.410  -1.190  -3.940  1.00  0.00    -0.252 OA
BRANCH   6   8
ATOM      8  C   UNL     1       0.461   0.121  -1.897  1.00  0.00     0.132 C 
ATOM      9  C   UNL     1       1.215   0.223  -0.566  1.00  0.00     0.025 C 
BRANCH   8  10
ATOM     10  C   UNL     1      -1.034  -0.015  -1.653  1.00  0.00     0.032 A 
ATOM     11  C   UNL     1      -1.732  -1.168  -1.636  1.00  0.00     0.012 A 
ATOM     12  C   UNL     1      -1.794   1.269  -1.466  1.00  0.00     0.259 A 
ATOM     13  C   UNL     1      -3.154  -1.198  -1.414  1.00  0.00     0.019 A 
ATOM     14  N   UNL     1      -3.166   1.160  -1.322  1.00  0.00    -0.258 N 
ATOM     15  O   UNL     1      -1.196   2.343  -1.453  1.00  0.00    -0.269 OA
ATOM     16  C   UNL     1      -3.825  -0.052  -1.281  1.00  0.00     0.095 A 
BRANCH  14  17
ATOM     17  C   UNL     1      -3.926   2.379  -1.237  1.00  0.00     0.451 C 
ATOM     18  F   UNL     1      -4.814   2.429  -2.268  1.00  0.00    -0.185 F 
ATOM     19  F   UNL     1      -4.673   2.376  -0.100  1.00  0.00    -0.185 F 
ENDBRANCH  14  17
ENDBRANCH   8  10
ENDBRANCH   6   8
ENDBRANCH   5   6
ENDBRANCH   4   5
ENDBRANCH   3   4
ENDBRANCH   2   3
ENDBRANCH   1   2
BRANCH   1  20
ATOM     20  C   UNL     1       1.260  -3.876   0.997  1.00  0.00     0.261 C 
BRANCH  20  21
ATOM     21  O   UNL     1       2.669  -3.608   1.011  1.00  0.00    -0.460 OA
BRANCH  21  22
ATOM     22  C   UNL     1       3.444  -4.718   1.028  1.00  0.00     0.338 C 
ATOM     23  O   UNL     1       3.059  -5.878   1.111  1.00  0.00    -0.246 OA
BRANCH  22  24
ATOM     24  C   UNL     1       4.841  -4.364   0.724  1.00  0.00     0.060 A 
ATOM     25  C   UNL     1       5.490  -5.119  -0.262  1.00  0.00     0.016 A 
ATOM     26  C   UNL     1       5.523  -3.360   1.415  1.00  0.00     0.016 A 
ATOM     27  C   UNL     1       6.842  -4.916  -0.517  1.00  0.00     0.010 A 
ATOM     28  C   UNL     1       6.884  -3.162   1.162  1.00  0.00     0.010 A 
ATOM     29  C   UNL     1       7.556  -3.967   0.224  1.00  0.00    -0.014 A 
BRANCH  29  30
ATOM     30  C   UNL     1       9.036  -3.948   0.134  1.00  0.00     0.031 A 
ATOM     31  C   UNL     1       9.832  -4.639   1.207  1.00  0.00     0.074 A 
ATOM     32  C   UNL     1       9.653  -3.371  -0.912  1.00  0.00     0.049 A 
ATOM     33  N   UNL     1      11.128  -4.740   1.347  1.00  0.00    -0.248 NA
ATOM     34  C   UNL     1       9.059  -5.304   2.267  1.00  0.00     0.031 C 
ATOM     35  C   UNL     1       8.978  -2.722  -2.035  1.00  0.00     0.029 A 
ATOM     36  N   UNL     1      10.988  -3.241  -1.200  1.00  0.00    -0.354 N 
ATOM     37  C   UNL     1      11.328  -5.473   2.512  1.00  0.00     0.074 A 
ATOM     38  C   UNL     1      10.018  -5.758   3.059  1.00  0.00     0.031 C 
ATOM     39  C   UNL     1       9.906  -2.259  -2.891  1.00  0.00     0.029 A 
ATOM     40  C   UNL     1      11.236  -2.542  -2.358  1.00  0.00     0.049 A 
ATOM     41  H   UNL     1      11.700  -3.612  -0.632  1.00  0.00     0.167 HD
ATOM     42  C   UNL     1      12.496  -5.878   3.068  1.00  0.00     0.034 A 
ATOM     43  C   UNL     1      12.405  -2.156  -2.908  1.00  0.00     0.034 A 
ATOM     44  C   UNL     1      13.792  -5.576   2.510  1.00  0.00     0.049 A 
ATOM     45  C   UNL     1      13.695  -2.540  -2.221  1.00  0.00     0.074 A 
ATOM     46  C   UNL     1      15.040  -5.949   2.977  1.00  0.00     0.029 A 
ATOM     47  N   UNL     1      14.008  -4.815   1.367  1.00  0.00    -0.354 N 
ATOM     48  N   UNL     1      13.871  -3.240  -1.124  1.00  0.00    -0.248 NA
ATOM     49  C   UNL     1      14.941  -2.087  -2.852  1.00  0.00     0.031 C 
ATOM     50  C   UNL     1      16.009  -5.350   2.164  1.00  0.00     0.029 A 
ATOM     51  C   UNL     1      15.368  -4.674   1.138  1.00  0.00     0.049 A 
ATOM     52  H   UNL     1      13.298  -4.431   0.803  1.00  0.00     0.167 HD
ATOM     53  C   UNL     1      15.251  -3.339  -0.954  1.00  0.00     0.074 A 
ATOM     54  C   UNL     1      15.855  -2.637  -2.067  1.00  0.00     0.031 C 
ATOM     55  C   UNL     1      15.955  -3.959   0.028  1.00  0.00     0.034 A 
BRANCH  42  56
ATOM     56  C   UNL     1      12.419  -6.633   4.374  1.00  0.00     0.023 A 
ATOM     57  C   UNL     1      11.801  -7.892   4.471  1.00  0.00     0.031 A 
ATOM     58  C   UNL     1      12.945  -6.067   5.549  1.00  0.00     0.131 A 
ATOM     59  C   UNL     1      11.661  -8.509   5.724  1.00  0.00     0.055 A 
ATOM     60  C   UNL     1      12.874  -6.722   6.779  1.00  0.00     0.041 A 
ATOM     61  F   UNL     1      13.524  -4.856   5.524  1.00  0.00    -0.206 F 
ATOM     62  C   UNL     1      12.216  -7.944   6.875  1.00  0.00     0.022 A 
BRANCH  59  63
ATOM     63  S   UNL     1      10.617  -9.987   5.854  1.00  0.00     0.124 S 
ATOM     64  O   UNL     1       9.337  -9.489   5.354  1.00  0.00    -0.237 OA
ATOM     65  O   UNL     1      11.311 -10.940   4.996  1.00  0.00    -0.237 OA
ATOM     66  O   UNL     1      10.640 -10.299   7.281  1.00  0.00    -0.744 OA
ENDBRANCH  59  63
ENDBRANCH  42  56
BRANCH  43  67
ATOM     67  C   UNL     1      12.421  -1.333  -4.151  1.00  0.00     0.023 A 
ATOM     68  C   UNL     1      13.005  -1.813  -5.334  1.00  0.00     0.031 A 
ATOM     69  C   UNL     1      11.899  -0.027  -4.157  1.00  0.00     0.131 A 
ATOM     70  C   UNL     1      13.094  -0.978  -6.459  1.00  0.00     0.055 A 
ATOM     71  C   UNL     1      11.940   0.780  -5.295  1.00  0.00     0.041 A 
ATOM     72  F   UNL     1      11.331   0.483  -3.053  1.00  0.00    -0.206 F 
ATOM     73  C   UNL     1      12.553   0.310  -6.452  1.00  0.00     0.022 A 
BRANCH  70  74
ATOM     74  S   UNL     1      14.006  -1.571  -7.910  1.00  0.00     0.124 S 
ATOM     75  O   UNL     1      15.325  -1.833  -7.345  1.00  0.00    -0.237 OA
ATOM     76  O   UNL     1      13.229  -2.743  -8.298  1.00  0.00    -0.237 OA
ATOM     77  O   UNL     1      13.937  -0.445  -8.839  1.00  0.00    -0.744 OA
ENDBRANCH  70  74
ENDBRANCH  43  67
BRANCH  55  78
ATOM     78  C   UNL     1      17.460  -3.943  -0.091  1.00  0.00     0.023 A 
ATOM     79  C   UNL     1      18.202  -2.754   0.019  1.00  0.00     0.031 A 
ATOM     80  C   UNL     1      18.162  -5.139  -0.328  1.00  0.00     0.131 A 
ATOM     81  C   UNL     1      19.593  -2.778  -0.164  1.00  0.00     0.055 A 
ATOM     82  C   UNL     1      19.552  -5.166  -0.446  1.00  0.00     0.041 A 
ATOM     83  F   UNL     1      17.505  -6.305  -0.445  1.00  0.00    -0.206 F 
ATOM     84  C   UNL     1      20.274  -3.979  -0.378  1.00  0.00     0.022 A 
BRANCH  81  85
ATOM     85  S   UNL     1      20.492  -1.203  -0.215  1.00  0.00     0.124 S 
ATOM     86  O   UNL     1      19.832  -0.512  -1.318  1.00  0.00    -0.237 OA
ATOM     87  O   UNL     1      20.247  -0.660   1.117  1.00  0.00    -0.237 OA
ATOM     88  O   UNL     1      21.874  -1.606  -0.474  1.00  0.00    -0.744 OA
ENDBRANCH  81  85
ENDBRANCH  55  78
ENDBRANCH  29  30
ENDBRANCH  22  24
ENDBRANCH  21  22
ENDBRANCH  20  21
ENDBRANCH   1  20
TORSDOF 19
