REMARK SMILES C=C(C(=O)OCCOCCOC(=O)c1ccc(-c2c3nc(c(-c4cc(S(=O)(=O)[O-])ccc4F)c4ccc([nH]4)c(-c4cc(S(=O)(=O)[O-])ccc4F)c4nc(c(-c5cc(S(=O)(=O)[O-])ccc5F)c5ccc2[nH]5)C=C4)C=C3)cc1)[C@@H]1CC[C@]2(C)C[C@@H](O)CC(=C)[C@H]2C1
REMARK SMILES IDX 9 1 8 2 7 3 6 4 5 5 3 6 4 7 2 8 1 9 77 10 78 11 89 12 79 13
REMARK SMILES IDX 88 14 80 15 86 16 81 17 82 18 85 19 87 20 83 21 84 22 10 24
REMARK SMILES IDX 11 25 12 26 13 27 14 28 15 29 76 30 16 31 75 32 17 33 18 34
REMARK SMILES IDX 19 35 69 36 20 37 74 38 68 39 70 40 21 41 73 42 67 43 66 44
REMARK SMILES IDX 22 46 54 47 34 48 53 49 35 50 38 51 52 52 71 53 36 54 37 55
REMARK SMILES IDX 51 57 72 58 39 59 23 60 24 61 32 62 25 63 31 64 33 65 30 66
REMARK SMILES IDX 26 67 27 68 28 69 29 70 55 71 56 72 64 73 57 74 63 75 65 76
REMARK SMILES IDX 62 77 58 78 59 79 60 80 61 81 40 82 41 83 49 84 42 85 48 86
REMARK SMILES IDX 50 87 47 88 43 89 44 90 45 91 46 92
REMARK H PARENT 84 23 70 45 38 56
REMARK Flexibility Score: inf
ROOT
ATOM      1  C   UNL     1      -2.555  -2.651   0.066  1.00  0.00     0.202 C 
ENDROOT
BRANCH   1   2
ATOM      2  O   UNL     1      -3.812  -2.038   0.323  1.00  0.00    -0.374 OA
BRANCH   2   3
ATOM      3  C   UNL     1      -3.975  -0.690  -0.128  1.00  0.00     0.202 C 
BRANCH   3   4
ATOM      4  C   UNL     1      -3.226   0.376   0.678  1.00  0.00     0.261 C 
BRANCH   4   5
ATOM      5  O   UNL     1      -1.820   0.242   0.422  1.00  0.00    -0.460 OA
BRANCH   5   6
ATOM      6  C   UNL     1      -0.997   0.389   1.489  1.00  0.00     0.333 C 
ATOM      7  O   UNL     1      -1.300   0.873   2.565  1.00  0.00    -0.247 OA
BRANCH   6   8
ATOM      8  C   UNL     1       0.322  -0.245   1.181  1.00  0.00     0.033 C 
ATOM      9  C   UNL     1       0.862   0.088  -0.009  1.00  0.00     0.020 C 
BRANCH   8  10
ATOM     10  C   UNL     1       1.041  -1.105   2.227  1.00  0.00     0.026 C 
ATOM     11  C   UNL     1       1.755  -2.354   1.638  1.00  0.00     0.009 C 
ATOM     12  C   UNL     1       0.238  -1.540   3.483  1.00  0.00     0.017 C 
ATOM     13  C   UNL     1       0.860  -3.587   1.458  1.00  0.00     0.008 C 
ATOM     14  C   UNL     1      -0.708  -2.731   3.221  1.00  0.00     0.021 C 
ATOM     15  C   UNL     1       0.070  -3.990   2.733  1.00  0.00    -0.024 C 
ATOM     16  C   UNL     1      -1.668  -3.113   4.335  1.00  0.00    -0.071 C 
ATOM     17  C   UNL     1       1.067  -4.509   3.799  1.00  0.00     0.012 C 
ATOM     18  C   UNL     1      -0.903  -5.163   2.376  1.00  0.00     0.039 C 
ATOM     19  C   UNL     1      -2.719  -4.107   3.883  1.00  0.00     0.062 C 
ATOM     20  C   UNL     1      -1.642  -2.640   5.590  1.00  0.00     0.008 C 
ATOM     21  C   UNL     1      -2.076  -5.394   3.346  1.00  0.00     0.119 C 
BRANCH  21  22
ATOM     22  O   UNL     1      -1.647  -6.225   4.428  1.00  0.00    -0.393 OA
ATOM     23  H   UNL     1      -0.953  -5.770   4.930  1.00  0.00     0.210 HD
ENDBRANCH  21  22
ENDBRANCH   8  10
ENDBRANCH   6   8
ENDBRANCH   5   6
ENDBRANCH   4   5
ENDBRANCH   3   4
ENDBRANCH   2   3
ENDBRANCH   1   2
BRANCH   1  24
ATOM     24  C   UNL     1      -2.350  -3.382  -1.260  1.00  0.00     0.261 C 
BRANCH  24  25
ATOM     25  O   UNL     1      -2.696  -2.574  -2.376  1.00  0.00    -0.460 OA
BRANCH  25  26
ATOM     26  C   UNL     1      -3.976  -2.741  -2.790  1.00  0.00     0.338 C 
ATOM     27  O   UNL     1      -4.787  -3.563  -2.400  1.00  0.00    -0.246 OA
BRANCH  26  28
ATOM     28  C   UNL     1      -4.291  -1.605  -3.664  1.00  0.00     0.060 A 
ATOM     29  C   UNL     1      -5.436  -0.854  -3.372  1.00  0.00     0.016 A 
ATOM     30  C   UNL     1      -3.429  -1.245  -4.702  1.00  0.00     0.016 A 
ATOM     31  C   UNL     1      -5.726   0.274  -4.129  1.00  0.00     0.010 A 
ATOM     32  C   UNL     1      -3.727  -0.125  -5.467  1.00  0.00     0.010 A 
ATOM     33  C   UNL     1      -4.882   0.626  -5.190  1.00  0.00    -0.014 A 
BRANCH  33  34
ATOM     34  C   UNL     1      -5.266   1.706  -6.117  1.00  0.00     0.031 A 
ATOM     35  C   UNL     1      -5.906   1.317  -7.415  1.00  0.00     0.074 A 
ATOM     36  C   UNL     1      -4.987   2.985  -5.814  1.00  0.00     0.049 A 
ATOM     37  N   UNL     1      -6.203   2.060  -8.445  1.00  0.00    -0.248 NA
ATOM     38  C   UNL     1      -6.242  -0.109  -7.580  1.00  0.00     0.031 C 
ATOM     39  C   UNL     1      -4.386   3.443  -4.559  1.00  0.00     0.029 A 
ATOM     40  N   UNL     1      -5.144   4.130  -6.549  1.00  0.00    -0.354 N 
ATOM     41  C   UNL     1      -6.741   1.194  -9.388  1.00  0.00     0.074 A 
ATOM     42  C   UNL     1      -6.715  -0.134  -8.816  1.00  0.00     0.031 C 
ATOM     43  C   UNL     1      -4.196   4.772  -4.627  1.00  0.00     0.029 A 
ATOM     44  C   UNL     1      -4.617   5.247  -5.943  1.00  0.00     0.049 A 
ATOM     45  H   UNL     1      -5.591   4.152  -7.426  1.00  0.00     0.167 HD
ATOM     46  C   UNL     1      -7.208   1.492 -10.623  1.00  0.00     0.034 A 
ATOM     47  C   UNL     1      -4.454   6.496  -6.424  1.00  0.00     0.034 A 
ATOM     48  C   UNL     1      -7.213   2.828 -11.159  1.00  0.00     0.049 A 
ATOM     49  C   UNL     1      -4.926   6.784  -7.832  1.00  0.00     0.074 A 
ATOM     50  C   UNL     1      -7.718   3.266 -12.369  1.00  0.00     0.029 A 
ATOM     51  N   UNL     1      -6.668   3.937 -10.525  1.00  0.00    -0.354 N 
ATOM     52  N   UNL     1      -5.492   5.970  -8.695  1.00  0.00    -0.248 NA
ATOM     53  C   UNL     1      -4.741   8.152  -8.330  1.00  0.00     0.031 C 
ATOM     54  C   UNL     1      -7.403   4.621 -12.503  1.00  0.00     0.029 A 
ATOM     55  C   UNL     1      -6.776   5.049 -11.342  1.00  0.00     0.049 A 
ATOM     56  H   UNL     1      -6.264   3.933  -9.628  1.00  0.00     0.167 HD
ATOM     57  C   UNL     1      -5.751   6.737  -9.828  1.00  0.00     0.074 A 
ATOM     58  C   UNL     1      -5.300   8.081  -9.528  1.00  0.00     0.031 C 
ATOM     59  C   UNL     1      -6.307   6.373 -11.012  1.00  0.00     0.034 A 
BRANCH  46  60
ATOM     60  C   UNL     1      -7.687   0.357 -11.489  1.00  0.00     0.023 A 
ATOM     61  C   UNL     1      -8.833  -0.392 -11.172  1.00  0.00     0.031 A 
ATOM     62  C   UNL     1      -6.984   0.027 -12.660  1.00  0.00     0.131 A 
ATOM     63  C   UNL     1      -9.219  -1.459 -11.997  1.00  0.00     0.055 A 
ATOM     64  C   UNL     1      -7.410  -0.993 -13.512  1.00  0.00     0.041 A 
ATOM     65  F   UNL     1      -5.865   0.690 -12.995  1.00  0.00    -0.206 F 
ATOM     66  C   UNL     1      -8.530  -1.748 -13.178  1.00  0.00     0.022 A 
BRANCH  63  67
ATOM     67  S   UNL     1     -10.582  -2.528 -11.460  1.00  0.00     0.124 S 
ATOM     68  O   UNL     1     -10.057  -3.070 -10.209  1.00  0.00    -0.237 OA
ATOM     69  O   UNL     1     -11.690  -1.588 -11.333  1.00  0.00    -0.237 OA
ATOM     70  O   UNL     1     -10.708  -3.497 -12.547  1.00  0.00    -0.744 OA
ENDBRANCH  63  67
ENDBRANCH  46  60
BRANCH  47  71
ATOM     71  C   UNL     1      -3.762   7.546  -5.620  1.00  0.00     0.023 A 
ATOM     72  C   UNL     1      -4.412   8.741  -5.275  1.00  0.00     0.031 A 
ATOM     73  C   UNL     1      -2.410   7.407  -5.255  1.00  0.00     0.131 A 
ATOM     74  C   UNL     1      -3.696   9.774  -4.649  1.00  0.00     0.055 A 
ATOM     75  C   UNL     1      -1.720   8.411  -4.573  1.00  0.00     0.041 A 
ATOM     76  F   UNL     1      -1.734   6.288  -5.561  1.00  0.00    -0.206 F 
ATOM     77  C   UNL     1      -2.358   9.612  -4.283  1.00  0.00     0.022 A 
BRANCH  74  78
ATOM     78  S   UNL     1      -4.506  11.383  -4.436  1.00  0.00     0.124 S 
ATOM     79  O   UNL     1      -4.927  11.685  -5.799  1.00  0.00    -0.237 OA
ATOM     80  O   UNL     1      -5.570  11.062  -3.491  1.00  0.00    -0.237 OA
ATOM     81  O   UNL     1      -3.440  12.233  -3.909  1.00  0.00    -0.744 OA
ENDBRANCH  74  78
ENDBRANCH  47  71
BRANCH  59  82
ATOM     82  C   UNL     1      -6.482   7.455 -12.046  1.00  0.00     0.023 A 
ATOM     83  C   UNL     1      -5.379   8.049 -12.681  1.00  0.00     0.031 A 
ATOM     84  C   UNL     1      -7.771   7.883 -12.411  1.00  0.00     0.131 A 
ATOM     85  C   UNL     1      -5.583   9.075 -13.614  1.00  0.00     0.055 A 
ATOM     86  C   UNL     1      -7.969   8.860 -13.386  1.00  0.00     0.041 A 
ATOM     87  F   UNL     1      -8.858   7.347 -11.834  1.00  0.00    -0.206 F 
ATOM     88  C   UNL     1      -6.871   9.469 -13.986  1.00  0.00     0.022 A 
BRANCH  85  89
ATOM     89  S   UNL     1      -4.137   9.940 -14.284  1.00  0.00     0.124 S 
ATOM     90  O   UNL     1      -3.540  10.507 -13.080  1.00  0.00    -0.237 OA
ATOM     91  O   UNL     1      -3.390   8.858 -14.918  1.00  0.00    -0.237 OA
ATOM     92  O   UNL     1      -4.718  10.913 -15.207  1.00  0.00    -0.744 OA
ENDBRANCH  85  89
ENDBRANCH  59  82
ENDBRANCH  33  34
ENDBRANCH  26  28
ENDBRANCH  25  26
ENDBRANCH  24  25
ENDBRANCH   1  24
TORSDOF 19
