REMARK SMILES CCn1ncc(NC(=O)[C@@H]2CCCC[C@@H]2C(=O)OCCOCCOC(=O)c2ccc(-c3c4nc(c(-c5cc(S(=O)(=O)[O-])ccc5F)c5ccc([nH]5)c(-c5cc(S(=O)(=O)[O-])ccc5F)c5nc(c(-c6cc(S(=O)(=O)[O-])ccc6F)c6ccc3[nH]6)C=C5)C=C4)cc2)c1C(=O)Nc1cnn(C)c1C
REMARK SMILES IDX 20 1 19 2 18 3 16 4 17 5 15 6 10 7 11 8 12 9 14 10 13 11
REMARK SMILES IDX 8 12 7 13 9 15 6 16 3 17 4 18 90 19 5 20 2 21 1 22 91 23
REMARK SMILES IDX 92 24 93 25 94 27 95 28 99 29 96 30 97 31 100 32 98 33 21 34
REMARK SMILES IDX 22 35 23 36 24 37 25 38 26 39 27 40 28 41 89 42 29 43 88 44
REMARK SMILES IDX 30 45 31 46 32 47 82 48 33 49 87 50 81 51 83 52 34 53 86 54
REMARK SMILES IDX 80 55 79 56 35 58 67 59 47 60 66 61 48 62 51 63 65 64 84 65
REMARK SMILES IDX 49 66 50 67 64 69 85 70 52 71 36 72 37 73 45 74 38 75 44 76
REMARK SMILES IDX 46 77 43 78 39 79 40 80 41 81 42 82 68 83 69 84 77 85 70 86
REMARK SMILES IDX 76 87 78 88 75 89 71 90 72 91 73 92 74 93 53 94 54 95 62 96
REMARK SMILES IDX 55 97 61 98 63 99 60 100 56 101 57 102 58 103 59 104
REMARK H PARENT 7 14 93 26 83 57 51 68
REMARK Flexibility Score: inf
ROOT
ATOM      1  C   UNL     1       5.346  -4.949  -1.106  1.00  0.00     0.202 C 
ENDROOT
BRANCH   1   2
ATOM      2  C   UNL     1       4.518  -5.678  -0.043  1.00  0.00     0.261 C 
BRANCH   2   3
ATOM      3  O   UNL     1       3.134  -5.903  -0.357  1.00  0.00    -0.463 OA
BRANCH   3   4
ATOM      4  C   UNL     1       2.295  -4.985   0.188  1.00  0.00     0.309 C 
ATOM      5  O   UNL     1       2.677  -3.941   0.706  1.00  0.00    -0.252 OA
BRANCH   4   6
ATOM      6  C   UNL     1       0.838  -5.437   0.172  1.00  0.00     0.111 C 
ATOM      7  C   UNL     1      -0.103  -4.471  -0.577  1.00  0.00     0.093 C 
ATOM      8  C   UNL     1      -0.049  -3.099   0.041  1.00  0.00     0.014 C 
ATOM      9  C   UNL     1      -0.248  -3.047   1.551  1.00  0.00     0.001 C 
ATOM     10  C   UNL     1       0.370  -5.530   1.642  1.00  0.00     0.016 C 
ATOM     11  C   UNL     1       0.362  -4.180   2.363  1.00  0.00     0.001 C 
BRANCH   7  12
ATOM     12  C   UNL     1      -0.025  -4.555  -2.112  1.00  0.00     0.228 C 
ATOM     13  N   UNL     1      -0.544  -3.575  -2.944  1.00  0.00    -0.322 N 
ATOM     14  H   UNL     1      -1.357  -3.780  -3.459  1.00  0.00     0.170 HD
ATOM     15  O   UNL     1       0.295  -5.627  -2.635  1.00  0.00    -0.274 OA
BRANCH  13  16
ATOM     16  C   UNL     1       0.035  -2.308  -3.085  1.00  0.00     0.092 A 
ATOM     17  N   UNL     1       0.848  -0.320  -2.794  1.00  0.00    -0.258 N 
ATOM     18  N   UNL     1       1.463  -0.748  -3.915  1.00  0.00    -0.178 NA
ATOM     19  C   UNL     1      -0.255  -1.087  -2.464  1.00  0.00     0.150 A 
ATOM     20  C   UNL     1       0.937  -1.952  -4.112  1.00  0.00     0.162 A 
BRANCH  17  21
ATOM     21  C   UNL     1       1.490   0.773  -2.095  1.00  0.00     0.142 C 
ATOM     22  C   UNL     1       2.272   0.302  -0.879  1.00  0.00     0.029 C 
ENDBRANCH  17  21
BRANCH  19  23
ATOM     23  C   UNL     1      -1.452  -0.723  -1.712  1.00  0.00     0.276 C 
ATOM     24  O   UNL     1      -2.575  -1.109  -2.040  1.00  0.00    -0.267 OA
ATOM     25  N   UNL     1      -1.280  -0.235  -0.436  1.00  0.00    -0.318 N 
ATOM     26  H   UNL     1      -1.302  -0.894   0.295  1.00  0.00     0.170 HD
BRANCH  25  27
ATOM     27  C   UNL     1      -1.081   1.075  -0.076  1.00  0.00     0.082 A 
ATOM     28  C   UNL     1      -1.298   2.271  -0.781  1.00  0.00     0.161 A 
ATOM     29  C   UNL     1      -0.565   1.456   1.146  1.00  0.00     0.059 A 
ATOM     30  N   UNL     1      -0.814   3.326  -0.122  1.00  0.00    -0.179 NA
ATOM     31  N   UNL     1      -0.288   2.792   1.000  1.00  0.00    -0.271 N 
ATOM     32  C   UNL     1      -0.176   0.658   2.337  1.00  0.00     0.068 C 
ATOM     33  C   UNL     1       0.614   3.600   1.787  1.00  0.00     0.174 C 
ENDBRANCH  25  27
ENDBRANCH  19  23
ENDBRANCH  13  16
ENDBRANCH   7  12
ENDBRANCH   4   6
ENDBRANCH   3   4
ENDBRANCH   2   3
ENDBRANCH   1   2
BRANCH   1  34
ATOM     34  O   UNL     1       4.967  -3.635  -1.498  1.00  0.00    -0.374 OA
BRANCH  34  35
ATOM     35  C   UNL     1       3.795  -3.438  -2.286  1.00  0.00     0.202 C 
BRANCH  35  36
ATOM     36  C   UNL     1       3.658  -4.201  -3.593  1.00  0.00     0.261 C 
BRANCH  36  37
ATOM     37  O   UNL     1       3.484  -5.591  -3.361  1.00  0.00    -0.460 OA
BRANCH  37  38
ATOM     38  C   UNL     1       4.455  -6.372  -3.863  1.00  0.00     0.338 C 
ATOM     39  O   UNL     1       5.566  -6.011  -4.250  1.00  0.00    -0.246 OA
BRANCH  38  40
ATOM     40  C   UNL     1       3.942  -7.733  -3.990  1.00  0.00     0.060 A 
ATOM     41  C   UNL     1       4.664  -8.560  -4.846  1.00  0.00     0.016 A 
ATOM     42  C   UNL     1       2.670  -8.088  -3.504  1.00  0.00     0.016 A 
ATOM     43  C   UNL     1       4.019  -9.639  -5.395  1.00  0.00     0.010 A 
ATOM     44  C   UNL     1       2.026  -9.177  -4.052  1.00  0.00     0.010 A 
ATOM     45  C   UNL     1       2.681  -9.881  -5.056  1.00  0.00    -0.014 A 
BRANCH  45  46
ATOM     46  C   UNL     1       2.011 -10.881  -5.854  1.00  0.00     0.031 A 
ATOM     47  C   UNL     1       2.477 -12.259  -5.639  1.00  0.00     0.074 A 
ATOM     48  C   UNL     1       1.094 -10.583  -6.787  1.00  0.00     0.049 A 
ATOM     49  N   UNL     1       3.206 -12.972  -6.429  1.00  0.00    -0.248 NA
ATOM     50  C   UNL     1       2.211 -12.863  -4.331  1.00  0.00     0.031 C 
ATOM     51  C   UNL     1       0.355  -9.336  -6.983  1.00  0.00     0.029 A 
ATOM     52  N   UNL     1       0.586 -11.414  -7.735  1.00  0.00    -0.354 N 
ATOM     53  C   UNL     1       3.351 -14.198  -5.800  1.00  0.00     0.074 A 
ATOM     54  C   UNL     1       2.849 -14.026  -4.459  1.00  0.00     0.031 C 
ATOM     55  C   UNL     1      -0.657  -9.564  -7.851  1.00  0.00     0.029 A 
ATOM     56  C   UNL     1      -0.540 -10.920  -8.366  1.00  0.00     0.049 A 
ATOM     57  H   UNL     1       0.983 -12.288  -7.952  1.00  0.00     0.167 HD
ATOM     58  C   UNL     1       3.712 -15.312  -6.489  1.00  0.00     0.034 A 
ATOM     59  C   UNL     1      -1.366 -11.619  -9.180  1.00  0.00     0.034 A 
ATOM     60  C   UNL     1       4.307 -14.986  -7.763  1.00  0.00     0.049 A 
ATOM     61  C   UNL     1      -0.578 -12.734  -9.763  1.00  0.00     0.074 A 
ATOM     62  C   UNL     1       5.428 -14.278  -8.153  1.00  0.00     0.029 A 
ATOM     63  N   UNL     1       3.539 -15.111  -8.898  1.00  0.00    -0.354 N 
ATOM     64  N   UNL     1       0.424 -12.553 -10.581  1.00  0.00    -0.248 NA
ATOM     65  C   UNL     1      -0.604 -14.038  -9.115  1.00  0.00     0.031 C 
ATOM     66  C   UNL     1       5.053 -13.614  -9.358  1.00  0.00     0.029 A 
ATOM     67  C   UNL     1       3.735 -13.974  -9.647  1.00  0.00     0.049 A 
ATOM     68  H   UNL     1       2.958 -15.871  -9.131  1.00  0.00     0.167 HD
ATOM     69  C   UNL     1       1.359 -13.516 -10.235  1.00  0.00     0.074 A 
ATOM     70  C   UNL     1       0.622 -14.475  -9.419  1.00  0.00     0.031 C 
ATOM     71  C   UNL     1       2.698 -13.303 -10.410  1.00  0.00     0.034 A 
BRANCH  58  72
ATOM     72  C   UNL     1       3.276 -16.705  -6.122  1.00  0.00     0.023 A 
ATOM     73  C   UNL     1       3.834 -17.781  -6.834  1.00  0.00     0.031 A 
ATOM     74  C   UNL     1       2.169 -17.013  -5.298  1.00  0.00     0.131 A 
ATOM     75  C   UNL     1       3.272 -19.066  -6.749  1.00  0.00     0.055 A 
ATOM     76  C   UNL     1       1.664 -18.306  -5.156  1.00  0.00     0.041 A 
ATOM     77  F   UNL     1       1.456 -16.071  -4.668  1.00  0.00    -0.206 F 
ATOM     78  C   UNL     1       2.200 -19.339  -5.903  1.00  0.00     0.022 A 
BRANCH  75  79
ATOM     79  S   UNL     1       3.844 -20.337  -7.906  1.00  0.00     0.124 S 
ATOM     80  O   UNL     1       3.805 -19.627  -9.180  1.00  0.00    -0.237 OA
ATOM     81  O   UNL     1       5.169 -20.646  -7.380  1.00  0.00    -0.237 OA
ATOM     82  O   UNL     1       2.850 -21.398  -7.758  1.00  0.00    -0.744 OA
ENDBRANCH  75  79
ENDBRANCH  58  72
BRANCH  59  83
ATOM     83  C   UNL     1      -2.845 -11.541  -9.149  1.00  0.00     0.023 A 
ATOM     84  C   UNL     1      -3.647 -11.970 -10.220  1.00  0.00     0.031 A 
ATOM     85  C   UNL     1      -3.510 -11.216  -7.942  1.00  0.00     0.131 A 
ATOM     86  C   UNL     1      -5.049 -12.039 -10.067  1.00  0.00     0.055 A 
ATOM     87  C   UNL     1      -4.896 -11.265  -7.803  1.00  0.00     0.041 A 
ATOM     88  F   UNL     1      -2.826 -10.917  -6.826  1.00  0.00    -0.206 F 
ATOM     89  C   UNL     1      -5.674 -11.682  -8.869  1.00  0.00     0.022 A 
BRANCH  86  90
ATOM     90  S   UNL     1      -6.077 -12.702 -11.413  1.00  0.00     0.124 S 
ATOM     91  O   UNL     1      -5.969 -11.660 -12.427  1.00  0.00    -0.237 OA
ATOM     92  O   UNL     1      -5.418 -13.969 -11.712  1.00  0.00    -0.237 OA
ATOM     93  O   UNL     1      -7.399 -12.832 -10.800  1.00  0.00    -0.744 OA
ENDBRANCH  86  90
ENDBRANCH  59  83
BRANCH  71  94
ATOM     94  C   UNL     1       3.123 -12.111 -11.243  1.00  0.00     0.023 A 
ATOM     95  C   UNL     1       2.812 -10.773 -10.912  1.00  0.00     0.031 A 
ATOM     96  C   UNL     1       3.981 -12.330 -12.334  1.00  0.00     0.131 A 
ATOM     97  C   UNL     1       3.337  -9.714 -11.676  1.00  0.00     0.055 A 
ATOM     98  C   UNL     1       4.516 -11.277 -13.078  1.00  0.00     0.041 A 
ATOM     99  F   UNL     1       4.348 -13.577 -12.672  1.00  0.00    -0.206 F 
ATOM    100  C   UNL     1       4.190  -9.963 -12.755  1.00  0.00     0.022 A 
BRANCH  97 101
ATOM    101  S   UNL     1       2.923  -7.991 -11.257  1.00  0.00     0.124 S 
ATOM    102  O   UNL     1       1.464  -7.981 -11.271  1.00  0.00    -0.237 OA
ATOM    103  O   UNL     1       3.553  -7.820  -9.951  1.00  0.00    -0.237 OA
ATOM    104  O   UNL     1       3.546  -7.219 -12.335  1.00  0.00    -0.744 OA
ENDBRANCH  97 101
ENDBRANCH  71  94
ENDBRANCH  45  46
ENDBRANCH  38  40
ENDBRANCH  37  38
ENDBRANCH  36  37
ENDBRANCH  35  36
ENDBRANCH  34  35
ENDBRANCH   1  34
TORSDOF 22
