REMARK SMILES O=C(OCCOCCOC(=O)[C@H]1O[C@@H](Oc2c(-c3cc(O)c(O)c(O)c3)oc3cc(O)cc(O)c3c2=O)[C@H](O)[C@@H](O)[C@@H]1O)c1ccc(-c2c3nc(c(-c4cc(S(=O)(=O)[O-])ccc4F)c4ccc([nH]4)c(-c4cc(S(=O)(=O)[O-])ccc4F)c4nc(c(-c5cc(S(=O)(=O)[O-])ccc5F)c5ccc2[nH]5)C=C4)C=C3)cc1
REMARK SMILES IDX 7 1 6 2 5 3 4 4 3 5 2 6 1 7 44 8 45 9 106 10 46 11 105 12
REMARK SMILES IDX 47 13 48 14 49 15 99 16 50 17 104 18 98 19 100 20 51 21
REMARK SMILES IDX 103 22 97 23 96 24 52 26 84 27 64 28 83 29 65 30 68 31 82 32
REMARK SMILES IDX 101 33 66 34 67 35 81 37 102 38 69 39 53 40 54 41 62 42
REMARK SMILES IDX 55 43 61 44 63 45 60 46 56 47 57 48 58 49 59 50 85 51 86 52
REMARK SMILES IDX 94 53 87 54 93 55 95 56 92 57 88 58 89 59 90 60 91 61 70 62
REMARK SMILES IDX 71 63 79 64 72 65 78 66 80 67 77 68 73 69 74 70 75 71 76 72
REMARK SMILES IDX 8 73 9 74 10 75 11 76 12 77 13 78 42 79 14 80 40 81 38 82
REMARK SMILES IDX 43 83 15 85 16 86 17 87 36 88 27 89 35 90 37 91 28 92 33 93
REMARK SMILES IDX 29 94 32 95 30 96 18 97 19 98 26 99 20 100 24 101 22 102
REMARK SMILES IDX 21 103 25 105 23 107 34 109 31 111 41 113 39 115
REMARK H PARENT 100 25 68 36 43 84 21 104 25 106 23 108 34 110 31 112 41 114
REMARK H PARENT 39 116
REMARK Flexibility Score: inf
ROOT
ATOM      1  C   UNL     1       6.824  -4.128   3.747  1.00  0.00     0.202 C 
ENDROOT
BRANCH   1   2
ATOM      2  O   UNL     1       7.174  -3.065   4.640  1.00  0.00    -0.374 OA
BRANCH   2   3
ATOM      3  C   UNL     1       7.613  -1.842   4.061  1.00  0.00     0.202 C 
BRANCH   3   4
ATOM      4  C   UNL     1       8.995  -1.761   3.398  1.00  0.00     0.261 C 
BRANCH   4   5
ATOM      5  O   UNL     1       9.237  -2.867   2.495  1.00  0.00    -0.460 OA
BRANCH   5   6
ATOM      6  C   UNL     1      10.145  -3.863   2.703  1.00  0.00     0.338 C 
ATOM      7  O   UNL     1      10.427  -4.670   1.828  1.00  0.00    -0.246 OA
BRANCH   6   8
ATOM      8  C   UNL     1      10.785  -3.937   4.031  1.00  0.00     0.060 A 
ATOM      9  C   UNL     1       9.987  -3.829   5.156  1.00  0.00     0.016 A 
ATOM     10  C   UNL     1      12.160  -4.066   4.188  1.00  0.00     0.016 A 
ATOM     11  C   UNL     1      10.513  -3.512   6.375  1.00  0.00     0.010 A 
ATOM     12  C   UNL     1      12.695  -4.015   5.481  1.00  0.00     0.010 A 
ATOM     13  C   UNL     1      11.866  -3.710   6.576  1.00  0.00    -0.014 A 
BRANCH  13  14
ATOM     14  C   UNL     1      12.338  -3.599   7.966  1.00  0.00     0.031 A 
ATOM     15  C   UNL     1      13.364  -2.568   8.288  1.00  0.00     0.074 A 
ATOM     16  C   UNL     1      11.744  -4.351   8.918  1.00  0.00     0.049 A 
ATOM     17  N   UNL     1      14.074  -2.433   9.369  1.00  0.00    -0.248 NA
ATOM     18  C   UNL     1      13.637  -1.560   7.249  1.00  0.00     0.031 C 
ATOM     19  C   UNL     1      10.616  -5.272   8.697  1.00  0.00     0.029 A 
ATOM     20  N   UNL     1      11.966  -4.442  10.264  1.00  0.00    -0.354 N 
ATOM     21  C   UNL     1      14.943  -1.381   9.113  1.00  0.00     0.074 A 
ATOM     22  C   UNL     1      14.647  -0.892   7.784  1.00  0.00     0.031 C 
ATOM     23  C   UNL     1      10.210  -5.776   9.868  1.00  0.00     0.029 A 
ATOM     24  C   UNL     1      11.156  -5.367  10.888  1.00  0.00     0.049 A 
ATOM     25  H   UNL     1      12.636  -3.902  10.740  1.00  0.00     0.167 HD
ATOM     26  C   UNL     1      15.919  -0.913   9.924  1.00  0.00     0.034 A 
ATOM     27  C   UNL     1      11.242  -5.902  12.119  1.00  0.00     0.034 A 
ATOM     28  C   UNL     1      16.135  -1.449  11.245  1.00  0.00     0.049 A 
ATOM     29  C   UNL     1      12.393  -5.434  12.966  1.00  0.00     0.074 A 
ATOM     30  C   UNL     1      17.110  -1.123  12.166  1.00  0.00     0.029 A 
ATOM     31  N   UNL     1      15.345  -2.438  11.829  1.00  0.00    -0.354 N 
ATOM     32  N   UNL     1      13.295  -4.517  12.688  1.00  0.00    -0.248 NA
ATOM     33  C   UNL     1      12.567  -6.086  14.264  1.00  0.00     0.031 C 
ATOM     34  C   UNL     1      16.949  -1.961  13.276  1.00  0.00     0.029 A 
ATOM     35  C   UNL     1      15.829  -2.758  13.083  1.00  0.00     0.049 A 
ATOM     36  H   UNL     1      14.555  -2.849  11.408  1.00  0.00     0.167 HD
ATOM     37  C   UNL     1      14.146  -4.479  13.782  1.00  0.00     0.074 A 
ATOM     38  C   UNL     1      13.626  -5.443  14.736  1.00  0.00     0.031 C 
ATOM     39  C   UNL     1      15.261  -3.733  13.986  1.00  0.00     0.034 A 
BRANCH  26  40
ATOM     40  C   UNL     1      16.869   0.101   9.342  1.00  0.00     0.023 A 
ATOM     41  C   UNL     1      16.455   1.385   8.948  1.00  0.00     0.031 A 
ATOM     42  C   UNL     1      18.201  -0.270   9.084  1.00  0.00     0.131 A 
ATOM     43  C   UNL     1      17.342   2.219   8.247  1.00  0.00     0.055 A 
ATOM     44  C   UNL     1      19.101   0.595   8.459  1.00  0.00     0.041 A 
ATOM     45  F   UNL     1      18.643  -1.497   9.402  1.00  0.00    -0.206 F 
ATOM     46  C   UNL     1      18.669   1.843   8.022  1.00  0.00     0.022 A 
BRANCH  43  47
ATOM     47  S   UNL     1      16.695   3.738   7.493  1.00  0.00     0.124 S 
ATOM     48  O   UNL     1      15.708   3.203   6.556  1.00  0.00    -0.237 OA
ATOM     49  O   UNL     1      16.158   4.458   8.642  1.00  0.00    -0.237 OA
ATOM     50  O   UNL     1      17.871   4.342   6.871  1.00  0.00    -0.744 OA
ENDBRANCH  43  47
ENDBRANCH  26  40
BRANCH  27  51
ATOM     51  C   UNL     1      10.331  -7.006  12.549  1.00  0.00     0.023 A 
ATOM     52  C   UNL     1       9.543  -6.892  13.702  1.00  0.00     0.031 A 
ATOM     53  C   UNL     1      10.266  -8.221  11.833  1.00  0.00     0.131 A 
ATOM     54  C   UNL     1       8.761  -7.980  14.129  1.00  0.00     0.055 A 
ATOM     55  C   UNL     1       9.434  -9.272  12.222  1.00  0.00     0.041 A 
ATOM     56  F   UNL     1      11.004  -8.402  10.726  1.00  0.00    -0.206 F 
ATOM     57  C   UNL     1       8.687  -9.161  13.388  1.00  0.00     0.022 A 
BRANCH  54  58
ATOM     58  S   UNL     1       7.926  -7.870  15.735  1.00  0.00     0.124 S 
ATOM     59  O   UNL     1       9.033  -7.531  16.623  1.00  0.00    -0.237 OA
ATOM     60  O   UNL     1       6.949  -6.813  15.496  1.00  0.00    -0.237 OA
ATOM     61  O   UNL     1       7.365  -9.207  15.920  1.00  0.00    -0.744 OA
ENDBRANCH  54  58
ENDBRANCH  27  51
BRANCH  39  62
ATOM     62  C   UNL     1      15.946  -3.922  15.309  1.00  0.00     0.023 A 
ATOM     63  C   UNL     1      16.632  -5.108  15.612  1.00  0.00     0.031 A 
ATOM     64  C   UNL     1      15.913  -2.897  16.269  1.00  0.00     0.131 A 
ATOM     65  C   UNL     1      17.225  -5.259  16.870  1.00  0.00     0.055 A 
ATOM     66  C   UNL     1      16.560  -3.029  17.495  1.00  0.00     0.041 A 
ATOM     67  F   UNL     1      15.264  -1.748  16.020  1.00  0.00    -0.206 F 
ATOM     68  C   UNL     1      17.212  -4.219  17.805  1.00  0.00     0.022 A 
BRANCH  65  69
ATOM     69  S   UNL     1      17.954  -6.862  17.296  1.00  0.00     0.124 S 
ATOM     70  O   UNL     1      16.795  -7.746  17.231  1.00  0.00    -0.237 OA
ATOM     71  O   UNL     1      18.952  -7.042  16.247  1.00  0.00    -0.237 OA
ATOM     72  O   UNL     1      18.496  -6.645  18.636  1.00  0.00    -0.744 OA
ENDBRANCH  65  69
ENDBRANCH  39  62
ENDBRANCH  13  14
ENDBRANCH   6   8
ENDBRANCH   5   6
ENDBRANCH   4   5
ENDBRANCH   3   4
ENDBRANCH   2   3
ENDBRANCH   1   2
BRANCH   1  73
ATOM     73  C   UNL     1       5.351  -4.480   3.902  1.00  0.00     0.261 C 
BRANCH  73  74
ATOM     74  O   UNL     1       4.579  -3.425   3.306  1.00  0.00    -0.461 OA
BRANCH  74  75
ATOM     75  C   UNL     1       4.234  -2.413   4.157  1.00  0.00     0.338 C 
ATOM     76  O   UNL     1       4.416  -2.414   5.368  1.00  0.00    -0.249 OA
BRANCH  75  77
ATOM     77  C   UNL     1       3.645  -1.265   3.352  1.00  0.00     0.263 C 
ATOM     78  O   UNL     1       3.050  -0.370   4.286  1.00  0.00    -0.322 OA
ATOM     79  C   UNL     1       4.747  -0.515   2.599  1.00  0.00     0.186 C 
ATOM     80  C   UNL     1       2.278   0.630   3.649  1.00  0.00     0.340 C 
ATOM     81  C   UNL     1       4.186   0.722   1.905  1.00  0.00     0.181 C 
ATOM     82  C   UNL     1       3.159   1.495   2.727  1.00  0.00     0.214 C 
BRANCH  79  83
ATOM     83  O   UNL     1       5.364  -1.294   1.565  1.00  0.00    -0.387 OA
ATOM     84  H   UNL     1       4.705  -1.511   0.887  1.00  0.00     0.211 HD
ENDBRANCH  79  83
BRANCH  80  85
ATOM     85  O   UNL     1       1.557   1.475   4.570  1.00  0.00    -0.454 OA
BRANCH  85  86
ATOM     86  C   UNL     1       2.089   1.605   5.846  1.00  0.00     0.214 A 
ATOM     87  C   UNL     1       2.807   2.679   6.236  1.00  0.00     0.181 A 
ATOM     88  C   UNL     1       1.696   0.601   6.888  1.00  0.00     0.239 A 
ATOM     89  O   UNL     1       3.277   2.892   7.512  1.00  0.00    -0.452 OA
ATOM     90  C   UNL     1       2.079   0.920   8.292  1.00  0.00     0.111 A 
ATOM     91  O   UNL     1       1.044  -0.390   6.578  1.00  0.00    -0.285 OA
ATOM     92  C   UNL     1       2.834   2.073   8.515  1.00  0.00     0.146 A 
ATOM     93  C   UNL     1       1.692   0.153   9.402  1.00  0.00     0.134 A 
ATOM     94  C   UNL     1       3.171   2.477   9.809  1.00  0.00     0.094 A 
ATOM     95  C   UNL     1       2.024   0.555  10.704  1.00  0.00     0.093 A 
ATOM     96  C   UNL     1       2.752   1.724  10.894  1.00  0.00     0.123 A 
BRANCH  87  97
ATOM     97  C   UNL     1       3.250   3.720   5.290  1.00  0.00     0.029 A 
ATOM     98  C   UNL     1       4.631   3.929   5.109  1.00  0.00     0.062 A 
ATOM     99  C   UNL     1       2.334   4.383   4.455  1.00  0.00     0.062 A 
ATOM    100  C   UNL     1       5.076   4.688   4.032  1.00  0.00     0.162 A 
ATOM    101  C   UNL     1       2.803   5.160   3.403  1.00  0.00     0.162 A 
ATOM    102  C   UNL     1       4.167   5.306   3.182  1.00  0.00     0.200 A 
BRANCH 100 103
ATOM    103  O   UNL     1       6.415   4.725   3.768  1.00  0.00    -0.504 OA
ATOM    104  H   UNL     1       7.018   4.305   4.348  1.00  0.00     0.293 HD
ENDBRANCH 100 103
BRANCH 101 105
ATOM    105  O   UNL     1       1.905   5.727   2.544  1.00  0.00    -0.504 OA
ATOM    106  H   UNL     1       2.208   6.253   1.830  1.00  0.00     0.293 HD
ENDBRANCH 101 105
BRANCH 102 107
ATOM    107  O   UNL     1       4.585   6.049   2.112  1.00  0.00    -0.502 OA
ATOM    108  H   UNL     1       5.500   6.159   1.947  1.00  0.00     0.293 HD
ENDBRANCH 102 107
ENDBRANCH  87  97
BRANCH  93 109
ATOM    109  O   UNL     1       0.953  -0.986   9.252  1.00  0.00    -0.507 OA
ATOM    110  H   UNL     1       0.703  -1.486  10.004  1.00  0.00     0.293 HD
ENDBRANCH  93 109
BRANCH  96 111
ATOM    111  O   UNL     1       3.064   2.183  12.138  1.00  0.00    -0.508 OA
ATOM    112  H   UNL     1       3.556   2.974  12.236  1.00  0.00     0.293 HD
ENDBRANCH  96 111
ENDBRANCH  85  86
ENDBRANCH  80  85
BRANCH  81 113
ATOM    113  O   UNL     1       5.255   1.639   1.554  1.00  0.00    -0.387 OA
ATOM    114  H   UNL     1       5.683   1.961   2.363  1.00  0.00     0.211 HD
ENDBRANCH  81 113
BRANCH  82 115
ATOM    115  O   UNL     1       2.340   2.261   1.829  1.00  0.00    -0.384 OA
ATOM    116  H   UNL     1       1.855   1.659   1.242  1.00  0.00     0.211 HD
ENDBRANCH  82 115
ENDBRANCH  75  77
ENDBRANCH  74  75
ENDBRANCH  73  74
ENDBRANCH   1  73
TORSDOF 28
