REMARK SMILES CC(=O)Oc1ccc(Br)cc1C(=O)NCC(=O)OCCOCCOC(=O)c1ccc(-c2c3nc(c(-c4cc(S(=O)(=O)[O-])ccc4F)c4ccc([nH]4)c(-c4cc(S(=O)(=O)[O-])ccc4F)c4nc(c(-c5cc(S(=O)(=O)[O-])ccc5F)c5ccc2[nH]5)C=C4)C=C3)cc1
REMARK SMILES IDX 20 1 19 2 18 3 16 4 17 5 15 6 14 7 12 8 13 9 11 11 5 12 6 13
REMARK SMILES IDX 7 14 10 15 8 16 9 17 4 18 2 19 1 20 3 21 21 22 22 23 23 24
REMARK SMILES IDX 24 25 25 26 26 27 27 28 28 29 89 30 29 31 88 32 30 33 31 34
REMARK SMILES IDX 32 35 82 36 33 37 87 38 81 39 83 40 34 41 86 42 80 43 79 44
REMARK SMILES IDX 35 46 67 47 47 48 66 49 48 50 51 51 65 52 84 53 49 54 50 55
REMARK SMILES IDX 64 57 85 58 52 59 36 60 37 61 45 62 38 63 44 64 46 65 43 66
REMARK SMILES IDX 39 67 40 68 41 69 42 70 68 71 69 72 77 73 70 74 76 75 78 76
REMARK SMILES IDX 75 77 71 78 72 79 73 80 74 81 53 82 54 83 62 84 55 85 61 86
REMARK SMILES IDX 63 87 60 88 56 89 57 90 58 91 59 92
REMARK H PARENT 14 10 83 45 51 56
REMARK Flexibility Score: inf
ROOT
ATOM      1  C   UNL     1       4.637  -0.238   2.074  1.00  0.00     0.202 C 
ENDROOT
BRANCH   1   2
ATOM      2  C   UNL     1       3.141  -0.433   1.817  1.00  0.00     0.261 C 
BRANCH   2   3
ATOM      3  O   UNL     1       2.903  -1.445   0.823  1.00  0.00    -0.462 OA
BRANCH   3   4
ATOM      4  C   UNL     1       2.548  -1.010  -0.416  1.00  0.00     0.325 C 
ATOM      5  O   UNL     1       2.309   0.154  -0.714  1.00  0.00    -0.250 OA
BRANCH   4   6
ATOM      6  C   UNL     1       2.510  -2.142  -1.444  1.00  0.00     0.239 C 
BRANCH   6   7
ATOM      7  N   UNL     1       2.924  -3.442  -0.954  1.00  0.00    -0.341 N 
ATOM      8  C   UNL     1       2.292  -4.545  -0.469  1.00  0.00     0.255 C 
ATOM      9  O   UNL     1       3.047  -5.503  -0.269  1.00  0.00    -0.269 OA
ATOM     10  H   UNL     1       3.902  -3.554  -0.977  1.00  0.00     0.164 HD
BRANCH   8  11
ATOM     11  C   UNL     1       0.830  -4.728  -0.205  1.00  0.00     0.083 A 
ATOM     12  C   UNL     1      -0.180  -3.772  -0.019  1.00  0.00     0.143 A 
ATOM     13  C   UNL     1      -1.509  -4.172   0.239  1.00  0.00     0.049 A 
ATOM     14  C   UNL     1      -1.841  -5.515   0.385  1.00  0.00     0.019 A 
ATOM     15  C   UNL     1       0.457  -6.089  -0.062  1.00  0.00     0.033 A 
ATOM     16  C   UNL     1      -0.852  -6.472   0.236  1.00  0.00     0.019 A 
ATOM     17  Br  UNL     1      -1.279  -8.302   0.436  1.00  0.00    -0.051 Br
BRANCH  12  18
ATOM     18  O   UNL     1       0.032  -2.392  -0.172  1.00  0.00    -0.426 OA
BRANCH  18  19
ATOM     19  C   UNL     1      -0.452  -1.546   0.830  1.00  0.00     0.308 C 
ATOM     20  C   UNL     1      -0.525  -0.136   0.319  1.00  0.00     0.139 C 
ATOM     21  O   UNL     1      -0.789  -1.881   1.956  1.00  0.00    -0.252 OA
ENDBRANCH  18  19
ENDBRANCH  12  18
ENDBRANCH   8  11
ENDBRANCH   6   7
ENDBRANCH   4   6
ENDBRANCH   3   4
ENDBRANCH   2   3
ENDBRANCH   1   2
BRANCH   1  22
ATOM     22  O   UNL     1       5.421   0.232   0.977  1.00  0.00    -0.374 OA
BRANCH  22  23
ATOM     23  C   UNL     1       5.781  -0.702  -0.038  1.00  0.00     0.202 C 
BRANCH  23  24
ATOM     24  C   UNL     1       6.905  -1.702   0.252  1.00  0.00     0.261 C 
BRANCH  24  25
ATOM     25  O   UNL     1       6.622  -2.552   1.371  1.00  0.00    -0.460 OA
BRANCH  25  26
ATOM     26  C   UNL     1       7.283  -2.202   2.500  1.00  0.00     0.338 C 
ATOM     27  O   UNL     1       8.096  -1.291   2.614  1.00  0.00    -0.246 OA
BRANCH  26  28
ATOM     28  C   UNL     1       6.763  -2.943   3.662  1.00  0.00     0.060 A 
ATOM     29  C   UNL     1       6.480  -2.199   4.814  1.00  0.00     0.016 A 
ATOM     30  C   UNL     1       6.636  -4.334   3.663  1.00  0.00     0.016 A 
ATOM     31  C   UNL     1       6.149  -2.848   5.998  1.00  0.00     0.010 A 
ATOM     32  C   UNL     1       6.307  -4.985   4.857  1.00  0.00     0.010 A 
ATOM     33  C   UNL     1       6.113  -4.247   6.039  1.00  0.00    -0.014 A 
BRANCH  33  34
ATOM     34  C   UNL     1       6.059  -4.926   7.356  1.00  0.00     0.031 A 
ATOM     35  C   UNL     1       7.336  -5.472   7.938  1.00  0.00     0.074 A 
ATOM     36  C   UNL     1       4.908  -4.999   8.046  1.00  0.00     0.049 A 
ATOM     37  N   UNL     1       7.530  -6.123   9.055  1.00  0.00    -0.248 NA
ATOM     38  C   UNL     1       8.558  -5.254   7.148  1.00  0.00     0.031 C 
ATOM     39  C   UNL     1       3.626  -4.451   7.606  1.00  0.00     0.029 A 
ATOM     40  N   UNL     1       4.632  -5.564   9.265  1.00  0.00    -0.354 N 
ATOM     41  C   UNL     1       8.893  -6.400   9.100  1.00  0.00     0.074 A 
ATOM     42  C   UNL     1       9.468  -5.880   7.877  1.00  0.00     0.031 C 
ATOM     43  C   UNL     1       2.697  -4.712   8.541  1.00  0.00     0.029 A 
ATOM     44  C   UNL     1       3.307  -5.483   9.622  1.00  0.00     0.049 A 
ATOM     45  H   UNL     1       5.318  -5.987   9.831  1.00  0.00     0.167 HD
ATOM     46  C   UNL     1       9.599  -7.022  10.076  1.00  0.00     0.034 A 
ATOM     47  C   UNL     1       2.658  -5.998  10.686  1.00  0.00     0.034 A 
ATOM     48  C   UNL     1       9.002  -7.541  11.283  1.00  0.00     0.049 A 
ATOM     49  C   UNL     1       3.449  -6.771  11.715  1.00  0.00     0.074 A 
ATOM     50  C   UNL     1       9.619  -8.182  12.343  1.00  0.00     0.029 A 
ATOM     51  N   UNL     1       7.647  -7.490  11.586  1.00  0.00    -0.354 N 
ATOM     52  N   UNL     1       4.737  -7.029  11.748  1.00  0.00    -0.248 NA
ATOM     53  C   UNL     1       2.699  -7.315  12.855  1.00  0.00     0.031 C 
ATOM     54  C   UNL     1       8.630  -8.589  13.245  1.00  0.00     0.029 A 
ATOM     55  C   UNL     1       7.404  -8.121  12.797  1.00  0.00     0.049 A 
ATOM     56  H   UNL     1       6.958  -7.068  11.023  1.00  0.00     0.167 HD
ATOM     57  C   UNL     1       4.954  -7.734  12.931  1.00  0.00     0.074 A 
ATOM     58  C   UNL     1       3.667  -7.848  13.585  1.00  0.00     0.031 C 
ATOM     59  C   UNL     1       6.112  -8.234  13.434  1.00  0.00     0.034 A 
BRANCH  46  60
ATOM     60  C   UNL     1      11.078  -7.226   9.844  1.00  0.00     0.023 A 
ATOM     61  C   UNL     1      11.969  -6.145   9.717  1.00  0.00     0.031 A 
ATOM     62  C   UNL     1      11.601  -8.526   9.720  1.00  0.00     0.131 A 
ATOM     63  C   UNL     1      13.317  -6.381   9.405  1.00  0.00     0.055 A 
ATOM     64  C   UNL     1      12.959  -8.756   9.491  1.00  0.00     0.041 A 
ATOM     65  F   UNL     1      10.798  -9.598   9.805  1.00  0.00    -0.206 F 
ATOM     66  C   UNL     1      13.824  -7.680   9.317  1.00  0.00     0.022 A 
BRANCH  63  67
ATOM     67  S   UNL     1      14.368  -4.968   8.969  1.00  0.00     0.124 S 
ATOM     68  O   UNL     1      13.645  -4.401   7.833  1.00  0.00    -0.237 OA
ATOM     69  O   UNL     1      14.358  -4.177  10.194  1.00  0.00    -0.237 OA
ATOM     70  O   UNL     1      15.651  -5.585   8.635  1.00  0.00    -0.744 OA
ENDBRANCH  63  67
ENDBRANCH  46  60
BRANCH  47  71
ATOM     71  C   UNL     1       1.181  -5.843  10.818  1.00  0.00     0.023 A 
ATOM     72  C   UNL     1       0.614  -5.152  11.900  1.00  0.00     0.031 A 
ATOM     73  C   UNL     1       0.309  -6.434   9.884  1.00  0.00     0.131 A 
ATOM     74  C   UNL     1      -0.782  -5.110  12.049  1.00  0.00     0.055 A 
ATOM     75  C   UNL     1      -1.078  -6.338  10.005  1.00  0.00     0.041 A 
ATOM     76  F   UNL     1       0.797  -7.111   8.832  1.00  0.00    -0.206 F 
ATOM     77  C   UNL     1      -1.631  -5.684  11.100  1.00  0.00     0.022 A 
BRANCH  74  78
ATOM     78  S   UNL     1      -1.472  -4.372  13.556  1.00  0.00     0.124 S 
ATOM     79  O   UNL     1      -0.849  -5.183  14.595  1.00  0.00    -0.237 OA
ATOM     80  O   UNL     1      -1.013  -2.991  13.455  1.00  0.00    -0.237 OA
ATOM     81  O   UNL     1      -2.913  -4.560  13.397  1.00  0.00    -0.744 OA
ENDBRANCH  74  78
ENDBRANCH  47  71
BRANCH  59  82
ATOM     82  C   UNL     1       6.044  -8.900  14.789  1.00  0.00     0.023 A 
ATOM     83  C   UNL     1       5.335 -10.096  14.997  1.00  0.00     0.031 A 
ATOM     84  C   UNL     1       6.699  -8.320  15.891  1.00  0.00     0.131 A 
ATOM     85  C   UNL     1       5.248 -10.641  16.287  1.00  0.00     0.055 A 
ATOM     86  C   UNL     1       6.665  -8.903  17.158  1.00  0.00     0.041 A 
ATOM     87  F   UNL     1       7.388  -7.176  15.753  1.00  0.00    -0.206 F 
ATOM     88  C   UNL     1       5.924 -10.063  17.365  1.00  0.00     0.022 A 
BRANCH  85  89
ATOM     89  S   UNL     1       4.154 -12.062  16.561  1.00  0.00     0.124 S 
ATOM     90  O   UNL     1       2.865 -11.543  16.116  1.00  0.00    -0.237 OA
ATOM     91  O   UNL     1       4.755 -13.087  15.715  1.00  0.00    -0.237 OA
ATOM     92  O   UNL     1       4.261 -12.305  17.999  1.00  0.00    -0.744 OA
ENDBRANCH  85  89
ENDBRANCH  59  82
ENDBRANCH  33  34
ENDBRANCH  26  28
ENDBRANCH  25  26
ENDBRANCH  24  25
ENDBRANCH  23  24
ENDBRANCH  22  23
ENDBRANCH   1  22
TORSDOF 21
