REMARK SMILES CCc1cc(S(F)(F)(F)(F)F)cc2c1O[C@@H](C(F)(F)F)C(C(=O)OCCOCCOC(=O)c1ccc(-c3c4nc(c(-c5cc(S(=O)(=O)[O-])ccc5F)c5ccc([nH]5)c(-c5cc(S(=O)(=O)[O-])ccc5F)c5nc(c(-c6cc(S(=O)(=O)[O-])ccc6F)c6ccc3[nH]6)C=C5)C=C4)cc1)=C2
REMARK SMILES IDX 28 1 27 2 26 3 25 4 24 5 22 6 23 7 21 8 3 9 4 10 14 11 5 12
REMARK SMILES IDX 13 13 15 14 12 15 96 16 16 17 2 18 1 19 6 20 7 21 8 22 9 23
REMARK SMILES IDX 10 24 11 25 17 26 18 27 19 28 20 29 29 30 30 31 31 32 32 33
REMARK SMILES IDX 33 34 34 35 95 36 35 37 94 38 36 39 37 40 38 41 88 42 39 43
REMARK SMILES IDX 93 44 87 45 89 46 40 47 92 48 86 49 85 50 41 52 73 53 53 54
REMARK SMILES IDX 72 55 54 56 57 57 71 58 90 59 55 60 56 61 70 63 91 64 58 65
REMARK SMILES IDX 42 66 43 67 51 68 44 69 50 70 52 71 49 72 45 73 46 74 47 75
REMARK SMILES IDX 48 76 74 77 75 78 83 79 76 80 82 81 84 82 81 83 77 84 78 85
REMARK SMILES IDX 79 86 80 87 59 88 60 89 68 90 61 91 67 92 69 93 66 94 62 95
REMARK SMILES IDX 63 96 64 97 65 98
REMARK H PARENT 89 51 57 62
REMARK Flexibility Score: inf
ROOT
ATOM      1  C   UNL     1       0.726   6.790   1.583  1.00  0.00     0.202 C 
ENDROOT
BRANCH   1   2
ATOM      2  O   UNL     1       0.315   8.149   1.611  1.00  0.00    -0.374 OA
BRANCH   2   3
ATOM      3  C   UNL     1       0.387   8.637   2.943  1.00  0.00     0.202 C 
BRANCH   3   4
ATOM      4  C   UNL     1      -0.527   7.812   3.835  1.00  0.00     0.261 C 
BRANCH   4   5
ATOM      5  O   UNL     1      -0.117   6.454   3.806  1.00  0.00    -0.460 OA
BRANCH   5   6
ATOM      6  C   UNL     1      -0.103   5.742   2.577  1.00  0.00     0.338 C 
ATOM      7  O   UNL     1      -0.458   6.321   1.503  1.00  0.00    -0.246 OA
BRANCH   6   8
ATOM      8  C   UNL     1       0.337   4.287   2.547  1.00  0.00     0.087 C 
ATOM      9  C   UNL     1       1.046   0.172   2.460  1.00  0.00    -0.004 A 
ATOM     10  C   UNL     1       1.621  -0.453   3.553  1.00  0.00     0.032 A 
ATOM     11  C   UNL     1       0.775   1.516   2.536  1.00  0.00     0.131 A 
ATOM     12  C   UNL     1       1.912   0.249   4.693  1.00  0.00     0.108 A 
ATOM     13  C   UNL     1       1.072   2.260   3.663  1.00  0.00     0.019 A 
ATOM     14  O   UNL     1       0.103   2.098   1.489  1.00  0.00    -0.475 OA
ATOM     15  C   UNL     1       1.644   1.601   4.745  1.00  0.00     0.036 A 
ATOM     16  C   UNL     1       0.711   3.668   3.660  1.00  0.00     0.027 C 
ATOM     17  C   UNL     1       0.358   3.508   1.238  1.00  0.00     0.316 C 
BRANCH   9  18
ATOM     18  C   UNL     1       0.540  -0.587   1.245  1.00  0.00     0.036 C 
ATOM     19  C   UNL     1       1.046   0.086  -0.020  1.00  0.00     0.009 C 
ENDBRANCH   9  18
BRANCH  12  20
ATOM     20  S   UNL     1       2.641  -0.592   6.120  1.00  0.00     0.310 S 
ATOM     21  F   UNL     1       1.268  -0.307   6.862  1.00  0.00    -0.094 F 
ATOM     22  F   UNL     1       3.161   0.776   6.703  1.00  0.00    -0.094 F 
ATOM     23  F   UNL     1       3.105  -1.345   7.399  1.00  0.00    -0.094 F 
ATOM     24  F   UNL     1       1.990  -1.926   5.580  1.00  0.00    -0.094 F 
ATOM     25  F   UNL     1       2.064   0.180   4.867  1.00  0.00    -0.094 F 
ENDBRANCH  12  20
BRANCH  17  26
ATOM     26  C   UNL     1      -0.724   4.052   0.319  1.00  0.00     0.430 C 
ATOM     27  F   UNL     1      -0.496   5.341   0.081  1.00  0.00    -0.167 F 
ATOM     28  F   UNL     1      -0.710   3.380  -0.828  1.00  0.00    -0.167 F 
ATOM     29  F   UNL     1      -1.911   3.912   0.901  1.00  0.00    -0.167 F 
ENDBRANCH  17  26
ENDBRANCH   6   8
ENDBRANCH   5   6
ENDBRANCH   4   5
ENDBRANCH   3   4
ENDBRANCH   2   3
ENDBRANCH   1   2
BRANCH   1  30
ATOM     30  C   UNL     1       2.156   6.682   2.086  1.00  0.00     0.261 C 
BRANCH  30  31
ATOM     31  O   UNL     1       2.228   7.170   3.417  1.00  0.00    -0.460 OA
BRANCH  31  32
ATOM     32  C   UNL     1       1.864   8.513   3.702  1.00  0.00     0.338 C 
ATOM     33  O   UNL     1       1.475   9.278   2.765  1.00  0.00    -0.246 OA
BRANCH  32  34
ATOM     34  C   UNL     1       1.941   9.036   5.127  1.00  0.00     0.060 A 
ATOM     35  C   UNL     1       0.899   9.822   5.591  1.00  0.00     0.016 A 
ATOM     36  C   UNL     1       3.000   8.779   5.885  1.00  0.00     0.016 A 
ATOM     37  C   UNL     1       1.202  10.535   6.775  1.00  0.00     0.010 A 
ATOM     38  C   UNL     1       3.166   9.411   7.094  1.00  0.00     0.010 A 
ATOM     39  C   UNL     1       2.203  10.248   7.587  1.00  0.00    -0.014 A 
BRANCH  39  40
ATOM     40  C   UNL     1       2.280  10.816   8.995  1.00  0.00     0.031 A 
ATOM     41  C   UNL     1       3.386  11.602   9.324  1.00  0.00     0.074 A 
ATOM     42  C   UNL     1       1.224  10.569   9.854  1.00  0.00     0.049 A 
ATOM     43  N   UNL     1       3.606  12.261  10.463  1.00  0.00    -0.248 NA
ATOM     44  C   UNL     1       4.526  11.838   8.426  1.00  0.00     0.031 C 
ATOM     45  C   UNL     1       0.101   9.784   9.526  1.00  0.00     0.029 A 
ATOM     46  N   UNL     1       1.061  11.018  11.146  1.00  0.00    -0.354 N 
ATOM     47  C   UNL     1       4.766  12.918  10.398  1.00  0.00     0.074 A 
ATOM     48  C   UNL     1       5.377  12.651   9.089  1.00  0.00     0.031 C 
ATOM     49  C   UNL     1      -0.721   9.751  10.608  1.00  0.00     0.029 A 
ATOM     50  C   UNL     1      -0.126  10.515  11.630  1.00  0.00     0.049 A 
ATOM     51  H   UNL     1       1.686  11.598  11.638  1.00  0.00     0.167 HD
ATOM     52  C   UNL     1       5.336  13.732  11.379  1.00  0.00     0.034 A 
ATOM     53  C   UNL     1      -0.675  10.699  12.889  1.00  0.00     0.034 A 
ATOM     54  C   UNL     1       4.765  13.951  12.623  1.00  0.00     0.049 A 
ATOM     55  C   UNL     1      -0.076  11.466  13.891  1.00  0.00     0.074 A 
ATOM     56  C   UNL     1       5.323  14.775  13.619  1.00  0.00     0.029 A 
ATOM     57  N   UNL     1       3.590  13.428  13.116  1.00  0.00    -0.354 N 
ATOM     58  N   UNL     1       1.064  12.155  13.813  1.00  0.00    -0.248 NA
ATOM     59  C   UNL     1      -0.632  11.642  15.239  1.00  0.00     0.031 C 
ATOM     60  C   UNL     1       4.501  14.742  14.702  1.00  0.00     0.029 A 
ATOM     61  C   UNL     1       3.417  13.896  14.400  1.00  0.00     0.049 A 
ATOM     62  H   UNL     1       2.980  12.825  12.634  1.00  0.00     0.167 HD
ATOM     63  C   UNL     1       1.303  12.780  14.967  1.00  0.00     0.074 A 
ATOM     64  C   UNL     1       0.220  12.453  15.904  1.00  0.00     0.031 C 
ATOM     65  C   UNL     1       2.380  13.614  15.275  1.00  0.00     0.034 A 
BRANCH  52  66
ATOM     66  C   UNL     1       6.656  14.416  11.064  1.00  0.00     0.023 A 
ATOM     67  C   UNL     1       6.737  15.296   9.998  1.00  0.00     0.031 A 
ATOM     68  C   UNL     1       7.713  14.157  11.826  1.00  0.00     0.131 A 
ATOM     69  C   UNL     1       8.062  15.638   9.636  1.00  0.00     0.055 A 
ATOM     70  C   UNL     1       8.954  14.637  11.486  1.00  0.00     0.041 A 
ATOM     71  F   UNL     1       7.567  13.428  12.929  1.00  0.00    -0.206 F 
ATOM     72  C   UNL     1       9.118  15.464  10.410  1.00  0.00     0.022 A 
BRANCH  69  73
ATOM     73  S   UNL     1       8.328  16.362   7.999  1.00  0.00     0.124 S 
ATOM     74  O   UNL     1       7.858  15.379   6.924  1.00  0.00    -0.237 OA
ATOM     75  O   UNL     1       7.532  17.664   7.882  1.00  0.00    -0.237 OA
ATOM     76  O   UNL     1       9.992  16.690   7.784  1.00  0.00    -0.744 OA
ENDBRANCH  69  73
ENDBRANCH  52  66
BRANCH  53  77
ATOM     77  C   UNL     1      -2.004  10.028  13.197  1.00  0.00     0.023 A 
ATOM     78  C   UNL     1      -3.097  10.802  13.552  1.00  0.00     0.031 A 
ATOM     79  C   UNL     1      -2.090   8.705  13.124  1.00  0.00     0.131 A 
ATOM     80  C   UNL     1      -4.172  10.060  14.095  1.00  0.00     0.055 A 
ATOM     81  C   UNL     1      -3.224   8.054  13.547  1.00  0.00     0.041 A 
ATOM     82  F   UNL     1      -1.071   8.004  12.638  1.00  0.00    -0.206 F 
ATOM     83  C   UNL     1      -4.322   8.754  13.966  1.00  0.00     0.022 A 
BRANCH  80  84
ATOM     84  S   UNL     1      -5.429  10.963  15.033  1.00  0.00     0.124 S 
ATOM     85  O   UNL     1      -4.774  11.655  16.230  1.00  0.00    -0.237 OA
ATOM     86  O   UNL     1      -6.082  12.013  14.131  1.00  0.00    -0.237 OA
ATOM     87  O   UNL     1      -6.620   9.869  15.589  1.00  0.00    -0.744 OA
ENDBRANCH  80  84
ENDBRANCH  53  77
BRANCH  65  88
ATOM     88  C   UNL     1       2.418  14.250  16.655  1.00  0.00     0.023 A 
ATOM     89  C   UNL     1       2.432  13.417  17.762  1.00  0.00     0.031 A 
ATOM     90  C   UNL     1       2.422  15.571  16.787  1.00  0.00     0.131 A 
ATOM     91  C   UNL     1       2.157  14.080  18.982  1.00  0.00     0.055 A 
ATOM     92  C   UNL     1       2.285  16.151  18.025  1.00  0.00     0.041 A 
ATOM     93  F   UNL     1       2.561  16.340  15.711  1.00  0.00    -0.206 F 
ATOM     94  C   UNL     1       2.233  15.387  19.158  1.00  0.00     0.022 A 
BRANCH  91  95
ATOM     95  S   UNL     1       1.665  13.067  20.399  1.00  0.00     0.124 S 
ATOM     96  O   UNL     1       0.383  12.303  20.060  1.00  0.00    -0.237 OA
ATOM     97  O   UNL     1       2.781  12.072  20.726  1.00  0.00    -0.237 OA
ATOM     98  O   UNL     1       1.386  14.076  21.751  1.00  0.00    -0.744 OA
ENDBRANCH  91  95
ENDBRANCH  65  88
ENDBRANCH  39  40
ENDBRANCH  32  34
ENDBRANCH  31  32
ENDBRANCH  30  31
ENDBRANCH   1  30
TORSDOF 20
