REMARK SMILES CC1(C)Oc2ccc(NC(=O)[C@H]3CC=CC[C@@H]3C(=O)OCCOCCOC(=O)c3ccc(-c4c5nc(c(-c6cc(S(=O)(=O)[O-])ccc6F)c6ccc([nH]6)c(-c6cc(S(=O)(=O)[O-])ccc6F)c6nc(c(-c7cc(S(=O)(=O)[O-])ccc7F)c7ccc4[nH]7)C=C6)C=C5)cc3)cc2NC1=O
REMARK SMILES IDX 24 1 23 2 22 3 21 4 20 5 18 6 19 7 17 8 12 9 13 10 14 11
REMARK SMILES IDX 16 12 15 13 10 14 9 15 11 17 8 18 1 19 2 20 3 21 4 22 95 23
REMARK SMILES IDX 5 24 94 25 96 26 6 27 93 28 7 30 92 31 25 32 26 33 27 34
REMARK SMILES IDX 28 35 29 36 30 37 91 38 31 39 90 40 32 41 33 42 34 43 84 44
REMARK SMILES IDX 35 45 89 46 83 47 85 48 36 49 88 50 82 51 81 52 37 54 69 55
REMARK SMILES IDX 49 56 68 57 50 58 53 59 67 60 86 61 51 62 52 63 66 65 87 66
REMARK SMILES IDX 54 67 38 68 39 69 47 70 40 71 46 72 48 73 45 74 41 75 42 76
REMARK SMILES IDX 43 77 44 78 70 79 71 80 79 81 72 82 78 83 80 84 77 85 73 86
REMARK SMILES IDX 74 87 75 88 76 89 55 90 56 91 64 92 57 93 63 94 65 95 62 96
REMARK SMILES IDX 58 97 59 98 60 99 61 100
REMARK H PARENT 9 16 94 29 85 53 53 64
REMARK Flexibility Score: inf
ROOT
ATOM      1  C   UNL     1       2.384  -5.042  -2.756  1.00  0.00     0.202 C 
ENDROOT
BRANCH   1   2
ATOM      2  O   UNL     1       2.563  -6.255  -2.026  1.00  0.00    -0.374 OA
BRANCH   2   3
ATOM      3  C   UNL     1       2.987  -7.419  -2.734  1.00  0.00     0.202 C 
BRANCH   3   4
ATOM      4  C   UNL     1       1.969  -8.072  -3.675  1.00  0.00     0.261 C 
BRANCH   4   5
ATOM      5  O   UNL     1       1.554  -7.162  -4.706  1.00  0.00    -0.463 OA
BRANCH   5   6
ATOM      6  C   UNL     1       0.232  -6.875  -4.721  1.00  0.00     0.310 C 
ATOM      7  O   UNL     1      -0.615  -7.440  -4.033  1.00  0.00    -0.252 OA
BRANCH   6   8
ATOM      8  C   UNL     1      -0.118  -5.652  -5.551  1.00  0.00     0.116 C 
ATOM      9  C   UNL     1      -1.373  -5.965  -6.368  1.00  0.00     0.097 C 
ATOM     10  C   UNL     1      -0.930  -6.817  -7.600  1.00  0.00     0.041 C 
ATOM     11  C   UNL     1       0.366  -6.388  -8.243  1.00  0.00    -0.030 C 
ATOM     12  C   UNL     1       0.961  -4.928  -6.348  1.00  0.00     0.043 C 
ATOM     13  C   UNL     1       1.214  -5.517  -7.685  1.00  0.00    -0.030 C 
BRANCH   9  14
ATOM     14  C   UNL     1      -2.261  -4.779  -6.779  1.00  0.00     0.228 C 
ATOM     15  N   UNL     1      -2.518  -3.659  -6.042  1.00  0.00    -0.326 N 
ATOM     16  H   UNL     1      -3.099  -3.027  -6.523  1.00  0.00     0.169 HD
ATOM     17  O   UNL     1      -2.849  -4.803  -7.871  1.00  0.00    -0.274 OA
BRANCH  15  18
ATOM     18  C   UNL     1      -2.162  -3.182  -4.771  1.00  0.00     0.043 A 
ATOM     19  C   UNL     1       0.687   0.091  -0.151  1.00  0.00     0.067 C 
ATOM     20  C   UNL     1       0.367  -0.312  -1.595  1.00  0.00     0.182 C 
ATOM     21  C   UNL     1       1.652  -0.161  -2.437  1.00  0.00     0.067 C 
ATOM     22  O   UNL     1      -0.033  -1.691  -1.533  1.00  0.00    -0.476 OA
ATOM     23  C   UNL     1      -0.670   0.645  -2.228  1.00  0.00     0.268 C 
ATOM     24  C   UNL     1      -0.851  -2.114  -2.545  1.00  0.00     0.144 A 
ATOM     25  N   UNL     1      -1.320   0.117  -3.318  1.00  0.00    -0.319 N 
ATOM     26  O   UNL     1      -0.835   1.817  -1.900  1.00  0.00    -0.270 OA
ATOM     27  C   UNL     1      -1.194  -3.462  -2.573  1.00  0.00     0.051 A 
ATOM     28  C   UNL     1      -1.377  -1.265  -3.515  1.00  0.00     0.086 A 
ATOM     29  H   UNL     1      -1.750   0.719  -3.968  1.00  0.00     0.170 HD
ATOM     30  C   UNL     1      -1.914  -3.982  -3.659  1.00  0.00     0.030 A 
ATOM     31  C   UNL     1      -2.010  -1.794  -4.641  1.00  0.00     0.056 A 
ENDBRANCH  15  18
ENDBRANCH   9  14
ENDBRANCH   6   8
ENDBRANCH   5   6
ENDBRANCH   4   5
ENDBRANCH   3   4
ENDBRANCH   2   3
ENDBRANCH   1   2
BRANCH   1  32
ATOM     32  C   UNL     1       3.594  -4.451  -3.497  1.00  0.00     0.261 C 
BRANCH  32  33
ATOM     33  O   UNL     1       3.972  -5.236  -4.644  1.00  0.00    -0.460 OA
BRANCH  33  34
ATOM     34  C   UNL     1       5.243  -5.712  -4.641  1.00  0.00     0.338 C 
ATOM     35  O   UNL     1       6.104  -5.487  -3.814  1.00  0.00    -0.246 OA
BRANCH  34  36
ATOM     36  C   UNL     1       5.369  -6.747  -5.688  1.00  0.00     0.060 A 
ATOM     37  C   UNL     1       5.308  -6.427  -7.044  1.00  0.00     0.016 A 
ATOM     38  C   UNL     1       5.626  -8.062  -5.279  1.00  0.00     0.016 A 
ATOM     39  C   UNL     1       5.539  -7.429  -7.995  1.00  0.00     0.010 A 
ATOM     40  C   UNL     1       5.840  -9.060  -6.227  1.00  0.00     0.010 A 
ATOM     41  C   UNL     1       5.827  -8.746  -7.592  1.00  0.00    -0.014 A 
BRANCH  41  42
ATOM     42  C   UNL     1       6.296  -9.766  -8.565  1.00  0.00     0.031 A 
ATOM     43  C   UNL     1       5.426 -10.912  -8.985  1.00  0.00     0.074 A 
ATOM     44  C   UNL     1       7.572  -9.691  -8.992  1.00  0.00     0.049 A 
ATOM     45  N   UNL     1       5.707 -11.895  -9.800  1.00  0.00    -0.248 NA
ATOM     46  C   UNL     1       4.073 -10.970  -8.412  1.00  0.00     0.031 C 
ATOM     47  C   UNL     1       8.517  -8.645  -8.599  1.00  0.00     0.029 A 
ATOM     48  N   UNL     1       8.301 -10.505  -9.823  1.00  0.00    -0.354 N 
ATOM     49  C   UNL     1       4.565 -12.684  -9.855  1.00  0.00     0.074 A 
ATOM     50  C   UNL     1       3.603 -12.089  -8.951  1.00  0.00     0.031 C 
ATOM     51  C   UNL     1       9.694  -8.872  -9.197  1.00  0.00     0.029 A 
ATOM     52  C   UNL     1       9.608 -10.103  -9.979  1.00  0.00     0.049 A 
ATOM     53  H   UNL     1       7.925 -11.301 -10.264  1.00  0.00     0.167 HD
ATOM     54  C   UNL     1       4.344 -13.789 -10.607  1.00  0.00     0.034 A 
ATOM     55  C   UNL     1      10.628 -10.664 -10.662  1.00  0.00     0.034 A 
ATOM     56  C   UNL     1       5.327 -14.367 -11.492  1.00  0.00     0.049 A 
ATOM     57  C   UNL     1      10.369 -11.918 -11.457  1.00  0.00     0.074 A 
ATOM     58  C   UNL     1       5.173 -15.444 -12.347  1.00  0.00     0.029 A 
ATOM     59  N   UNL     1       6.640 -13.937 -11.629  1.00  0.00    -0.354 N 
ATOM     60  N   UNL     1       9.245 -12.580 -11.601  1.00  0.00    -0.248 NA
ATOM     61  C   UNL     1      11.503 -12.501 -12.188  1.00  0.00     0.031 C 
ATOM     62  C   UNL     1       6.408 -15.720 -12.931  1.00  0.00     0.029 A 
ATOM     63  C   UNL     1       7.317 -14.760 -12.516  1.00  0.00     0.049 A 
ATOM     64  H   UNL     1       7.032 -13.163 -11.165  1.00  0.00     0.167 HD
ATOM     65  C   UNL     1       9.530 -13.643 -12.453  1.00  0.00     0.074 A 
ATOM     66  C   UNL     1      10.927 -13.521 -12.814  1.00  0.00     0.031 C 
ATOM     67  C   UNL     1       8.708 -14.631 -12.888  1.00  0.00     0.034 A 
BRANCH  54  68
ATOM     68  C   UNL     1       2.988 -14.454 -10.556  1.00  0.00     0.023 A 
ATOM     69  C   UNL     1       2.876 -15.802 -10.160  1.00  0.00     0.031 A 
ATOM     70  C   UNL     1       1.844 -13.817 -11.069  1.00  0.00     0.131 A 
ATOM     71  C   UNL     1       1.662 -16.480 -10.329  1.00  0.00     0.055 A 
ATOM     72  C   UNL     1       0.624 -14.484 -11.192  1.00  0.00     0.041 A 
ATOM     73  F   UNL     1       1.900 -12.537 -11.472  1.00  0.00    -0.206 F 
ATOM     74  C   UNL     1       0.534 -15.826 -10.836  1.00  0.00     0.022 A 
BRANCH  71  75
ATOM     75  S   UNL     1       1.520 -18.256  -9.984  1.00  0.00     0.124 S 
ATOM     76  O   UNL     1       0.464 -18.281  -8.975  1.00  0.00    -0.237 OA
ATOM     77  O   UNL     1       1.147 -18.791 -11.291  1.00  0.00    -0.237 OA
ATOM     78  O   UNL     1       2.846 -18.626  -9.504  1.00  0.00    -0.744 OA
ENDBRANCH  71  75
ENDBRANCH  54  68
BRANCH  55  79
ATOM     79  C   UNL     1      11.960  -9.989 -10.655  1.00  0.00     0.023 A 
ATOM     80  C   UNL     1      12.662  -9.786  -9.452  1.00  0.00     0.031 A 
ATOM     81  C   UNL     1      12.485  -9.424 -11.829  1.00  0.00     0.131 A 
ATOM     82  C   UNL     1      13.799  -8.969  -9.438  1.00  0.00     0.055 A 
ATOM     83  C   UNL     1      13.664  -8.676 -11.822  1.00  0.00     0.041 A 
ATOM     84  F   UNL     1      11.846  -9.577 -12.998  1.00  0.00    -0.206 F 
ATOM     85  C   UNL     1      14.316  -8.428 -10.618  1.00  0.00     0.022 A 
BRANCH  82  86
ATOM     86  S   UNL     1      14.556  -8.458  -7.869  1.00  0.00     0.124 S 
ATOM     87  O   UNL     1      15.922  -8.949  -8.014  1.00  0.00    -0.237 OA
ATOM     88  O   UNL     1      14.398  -7.006  -7.923  1.00  0.00    -0.237 OA
ATOM     89  O   UNL     1      13.746  -9.132  -6.860  1.00  0.00    -0.744 OA
ENDBRANCH  82  86
ENDBRANCH  55  79
BRANCH  67  90
ATOM     90  C   UNL     1       9.263 -15.696 -13.806  1.00  0.00     0.023 A 
ATOM     91  C   UNL     1       8.715 -15.871 -15.092  1.00  0.00     0.031 A 
ATOM     92  C   UNL     1      10.180 -16.653 -13.340  1.00  0.00     0.131 A 
ATOM     93  C   UNL     1       9.033 -17.014 -15.836  1.00  0.00     0.055 A 
ATOM     94  C   UNL     1      10.539 -17.760 -14.110  1.00  0.00     0.041 A 
ATOM     95  F   UNL     1      10.725 -16.536 -12.118  1.00  0.00    -0.206 F 
ATOM     96  C   UNL     1       9.949 -17.955 -15.356  1.00  0.00     0.022 A 
BRANCH  93  97
ATOM     97  S   UNL     1       8.189 -17.377 -17.401  1.00  0.00     0.124 S 
ATOM     98  O   UNL     1       9.310 -17.503 -18.329  1.00  0.00    -0.237 OA
ATOM     99  O   UNL     1       7.493 -18.623 -17.091  1.00  0.00    -0.237 OA
ATOM    100  O   UNL     1       7.333 -16.215 -17.618  1.00  0.00    -0.744 OA
ENDBRANCH  93  97
ENDBRANCH  67  90
ENDBRANCH  41  42
ENDBRANCH  34  36
ENDBRANCH  33  34
ENDBRANCH  32  33
ENDBRANCH   1  32
TORSDOF 19
