REMARK SMILES CC(=O)N1CCC(C(=O)NC[C@@H]2CC[C@@H](C(=O)OCCOCCOC(=O)c3ccc(-c4c5nc(c(-c6cc(S(=O)(=O)[O-])ccc6F)c6ccc([nH]6)c(-c6cc(S(=O)(=O)[O-])ccc6F)c6nc(c(-c7cc(S(=O)(=O)[O-])ccc7F)c7ccc4[nH]7)C=C6)C=C5)cc3)O2)CC1
REMARK SMILES IDX 21 1 20 2 19 3 18 4 16 5 17 6 15 7 12 8 13 9 90 10 14 11
REMARK SMILES IDX 11 12 10 13 8 14 9 15 7 17 1 18 2 19 3 20 4 21 5 22 92 23
REMARK SMILES IDX 6 24 91 25 22 26 23 27 24 28 25 29 26 30 27 31 28 32 89 33
REMARK SMILES IDX 29 34 88 35 30 36 31 37 32 38 82 39 33 40 87 41 81 42 83 43
REMARK SMILES IDX 34 44 86 45 80 46 79 47 35 49 67 50 47 51 66 52 48 53 51 54
REMARK SMILES IDX 65 55 84 56 49 57 50 58 64 60 85 61 52 62 36 63 37 64 45 65
REMARK SMILES IDX 38 66 44 67 46 68 43 69 39 70 40 71 41 72 42 73 68 74 69 75
REMARK SMILES IDX 77 76 70 77 76 78 78 79 75 80 71 81 72 82 73 83 74 84 53 85
REMARK SMILES IDX 54 86 62 87 55 88 61 89 63 90 60 91 56 92 57 93 58 94 59 95
REMARK H PARENT 10 16 83 48 51 59
REMARK Flexibility Score: inf
ROOT
ATOM      1  O   UNL     1      -4.416  -6.126   4.017  1.00  0.00    -0.374 OA
ENDROOT
BRANCH   1   2
ATOM      2  C   UNL     1      -5.376  -6.094   2.963  1.00  0.00     0.202 C 
BRANCH   2   3
ATOM      3  C   UNL     1      -4.966  -5.473   1.624  1.00  0.00     0.261 C 
BRANCH   3   4
ATOM      4  O   UNL     1      -3.875  -6.165   0.990  1.00  0.00    -0.461 OA
BRANCH   4   5
ATOM      5  C   UNL     1      -2.699  -5.477   1.003  1.00  0.00     0.335 C 
ATOM      6  O   UNL     1      -2.561  -4.358   1.486  1.00  0.00    -0.249 OA
BRANCH   5   7
ATOM      7  C   UNL     1      -1.568  -6.253   0.334  1.00  0.00     0.228 C 
ATOM      8  C   UNL     1       0.670  -6.636   0.968  1.00  0.00     0.138 C 
ATOM      9  C   UNL     1       0.090  -7.934   0.434  1.00  0.00     0.037 C 
ATOM     10  O   UNL     1      -0.336  -5.643   0.762  1.00  0.00    -0.361 OA
ATOM     11  C   UNL     1      -1.400  -7.729   0.641  1.00  0.00     0.047 C 
BRANCH   8  12
ATOM     12  C   UNL     1       1.998  -6.122   0.377  1.00  0.00     0.147 C 
BRANCH  12  13
ATOM     13  N   UNL     1       2.296  -6.556  -0.984  1.00  0.00    -0.353 N 
ATOM     14  C   UNL     1       2.252  -5.958  -2.201  1.00  0.00     0.223 C 
ATOM     15  O   UNL     1       2.644  -6.641  -3.154  1.00  0.00    -0.275 OA
ATOM     16  H   UNL     1       2.596  -7.492  -1.030  1.00  0.00     0.163 HD
BRANCH  14  17
ATOM     17  C   UNL     1       1.774  -4.531  -2.454  1.00  0.00     0.082 C 
ATOM     18  C   UNL     1       1.293  -0.181   0.046  1.00  0.00     0.114 C 
ATOM     19  C   UNL     1       0.338  -1.204  -0.511  1.00  0.00     0.219 C 
ATOM     20  O   UNL     1      -0.799  -1.285  -0.048  1.00  0.00    -0.275 OA
ATOM     21  N   UNL     1       0.780  -1.981  -1.571  1.00  0.00    -0.343 N 
ATOM     22  C   UNL     1      -0.154  -2.893  -2.222  1.00  0.00     0.120 C 
ATOM     23  C   UNL     1       2.149  -2.055  -2.071  1.00  0.00     0.120 C 
ATOM     24  C   UNL     1       0.318  -4.327  -2.051  1.00  0.00     0.035 C 
ATOM     25  C   UNL     1       2.714  -3.465  -1.878  1.00  0.00     0.035 C 
ENDBRANCH  14  17
ENDBRANCH  12  13
ENDBRANCH   8  12
ENDBRANCH   5   7
ENDBRANCH   4   5
ENDBRANCH   3   4
ENDBRANCH   2   3
ENDBRANCH   1   2
BRANCH   1  26
ATOM     26  C   UNL     1      -3.322  -7.029   3.901  1.00  0.00     0.202 C 
BRANCH  26  27
ATOM     27  C   UNL     1      -3.606  -8.532   4.042  1.00  0.00     0.261 C 
BRANCH  27  28
ATOM     28  O   UNL     1      -4.529  -9.033   3.059  1.00  0.00    -0.460 OA
BRANCH  28  29
ATOM     29  C   UNL     1      -5.719  -9.438   3.570  1.00  0.00     0.338 C 
ATOM     30  O   UNL     1      -6.026  -9.493   4.755  1.00  0.00    -0.246 OA
BRANCH  29  31
ATOM     31  C   UNL     1      -6.709  -9.632   2.495  1.00  0.00     0.060 A 
ATOM     32  C   UNL     1      -7.903  -8.903   2.581  1.00  0.00     0.016 A 
ATOM     33  C   UNL     1      -6.521 -10.566   1.474  1.00  0.00     0.016 A 
ATOM     34  C   UNL     1      -8.935  -9.140   1.677  1.00  0.00     0.010 A 
ATOM     35  C   UNL     1      -7.566 -10.812   0.573  1.00  0.00     0.010 A 
ATOM     36  C   UNL     1      -8.789 -10.126   0.693  1.00  0.00    -0.014 A 
BRANCH  36  37
ATOM     37  C   UNL     1      -9.977 -10.543  -0.095  1.00  0.00     0.031 A 
ATOM     38  C   UNL     1     -10.729 -11.778   0.324  1.00  0.00     0.074 A 
ATOM     39  C   UNL     1     -10.405  -9.808  -1.138  1.00  0.00     0.049 A 
ATOM     40  N   UNL     1     -11.775 -12.340  -0.222  1.00  0.00    -0.248 NA
ATOM     41  C   UNL     1     -10.228 -12.472   1.521  1.00  0.00     0.031 C 
ATOM     42  C   UNL     1      -9.787  -8.568  -1.605  1.00  0.00     0.029 A 
ATOM     43  N   UNL     1     -11.460 -10.001  -1.995  1.00  0.00    -0.354 N 
ATOM     44  C   UNL     1     -12.056 -13.457   0.557  1.00  0.00     0.074 A 
ATOM     45  C   UNL     1     -11.048 -13.509   1.595  1.00  0.00     0.031 C 
ATOM     46  C   UNL     1     -10.466  -8.119  -2.674  1.00  0.00     0.029 A 
ATOM     47  C   UNL     1     -11.543  -9.056  -2.990  1.00  0.00     0.049 A 
ATOM     48  H   UNL     1     -12.096 -10.747  -1.906  1.00  0.00     0.167 HD
ATOM     49  C   UNL     1     -13.065 -14.353   0.422  1.00  0.00     0.034 A 
ATOM     50  C   UNL     1     -12.374  -8.972  -4.049  1.00  0.00     0.034 A 
ATOM     51  C   UNL     1     -14.060 -14.288  -0.621  1.00  0.00     0.049 A 
ATOM     52  C   UNL     1     -13.443 -10.025  -4.224  1.00  0.00     0.074 A 
ATOM     53  C   UNL     1     -15.143 -15.124  -0.833  1.00  0.00     0.029 A 
ATOM     54  N   UNL     1     -14.087 -13.341  -1.637  1.00  0.00    -0.354 N 
ATOM     55  N   UNL     1     -13.710 -11.066  -3.468  1.00  0.00    -0.248 NA
ATOM     56  C   UNL     1     -14.327  -9.888  -5.389  1.00  0.00     0.031 C 
ATOM     57  C   UNL     1     -15.777 -14.730  -2.016  1.00  0.00     0.029 A 
ATOM     58  C   UNL     1     -15.141 -13.598  -2.501  1.00  0.00     0.049 A 
ATOM     59  H   UNL     1     -13.450 -12.597  -1.731  1.00  0.00     0.167 HD
ATOM     60  C   UNL     1     -14.811 -11.688  -4.052  1.00  0.00     0.074 A 
ATOM     61  C   UNL     1     -15.165 -10.898  -5.213  1.00  0.00     0.031 C 
ATOM     62  C   UNL     1     -15.474 -12.808  -3.663  1.00  0.00     0.034 A 
BRANCH  49  63
ATOM     63  C   UNL     1     -13.103 -15.511   1.390  1.00  0.00     0.023 A 
ATOM     64  C   UNL     1     -13.325 -15.326   2.766  1.00  0.00     0.031 A 
ATOM     65  C   UNL     1     -12.892 -16.822   0.927  1.00  0.00     0.131 A 
ATOM     66  C   UNL     1     -13.269 -16.425   3.638  1.00  0.00     0.055 A 
ATOM     67  C   UNL     1     -12.911 -17.920   1.789  1.00  0.00     0.041 A 
ATOM     68  F   UNL     1     -12.651 -17.058  -0.372  1.00  0.00    -0.206 F 
ATOM     69  C   UNL     1     -13.088 -17.724   3.155  1.00  0.00     0.022 A 
BRANCH  66  70
ATOM     70  S   UNL     1     -13.304 -16.120   5.426  1.00  0.00     0.124 S 
ATOM     71  O   UNL     1     -12.143 -15.252   5.600  1.00  0.00    -0.237 OA
ATOM     72  O   UNL     1     -14.607 -15.492   5.613  1.00  0.00    -0.237 OA
ATOM     73  O   UNL     1     -13.166 -17.456   6.004  1.00  0.00    -0.744 OA
ENDBRANCH  66  70
ENDBRANCH  49  63
BRANCH  50  74
ATOM     74  C   UNL     1     -12.205  -7.888  -5.059  1.00  0.00     0.023 A 
ATOM     75  C   UNL     1     -13.210  -6.935  -5.287  1.00  0.00     0.031 A 
ATOM     76  C   UNL     1     -11.049  -7.829  -5.860  1.00  0.00     0.131 A 
ATOM     77  C   UNL     1     -13.061  -5.995  -6.319  1.00  0.00     0.055 A 
ATOM     78  C   UNL     1     -10.882  -6.859  -6.848  1.00  0.00     0.041 A 
ATOM     79  F   UNL     1     -10.057  -8.718  -5.687  1.00  0.00    -0.206 F 
ATOM     80  C   UNL     1     -11.899  -5.942  -7.092  1.00  0.00     0.022 A 
BRANCH  77  81
ATOM     81  S   UNL     1     -14.453  -4.895  -6.702  1.00  0.00     0.124 S 
ATOM     82  O   UNL     1     -15.516  -5.851  -6.989  1.00  0.00    -0.237 OA
ATOM     83  O   UNL     1     -14.588  -4.138  -5.462  1.00  0.00    -0.237 OA
ATOM     84  O   UNL     1     -13.975  -4.128  -7.850  1.00  0.00    -0.744 OA
ENDBRANCH  77  81
ENDBRANCH  50  74
BRANCH  62  85
ATOM     85  C   UNL     1     -16.676 -13.215  -4.480  1.00  0.00     0.023 A 
ATOM     86  C   UNL     1     -16.553 -13.669  -5.805  1.00  0.00     0.031 A 
ATOM     87  C   UNL     1     -17.966 -13.142  -3.924  1.00  0.00     0.131 A 
ATOM     88  C   UNL     1     -17.703 -13.982  -6.546  1.00  0.00     0.055 A 
ATOM     89  C   UNL     1     -19.101 -13.511  -4.646  1.00  0.00     0.041 A 
ATOM     90  F   UNL     1     -18.143 -12.714  -2.663  1.00  0.00    -0.206 F 
ATOM     91  C   UNL     1     -18.974 -13.922  -5.969  1.00  0.00     0.022 A 
BRANCH  88  92
ATOM     92  S   UNL     1     -17.524 -14.388  -8.305  1.00  0.00     0.124 S 
ATOM     93  O   UNL     1     -16.890 -13.183  -8.831  1.00  0.00    -0.237 OA
ATOM     94  O   UNL     1     -16.687 -15.583  -8.267  1.00  0.00    -0.237 OA
ATOM     95  O   UNL     1     -18.899 -14.609  -8.748  1.00  0.00    -0.744 OA
ENDBRANCH  88  92
ENDBRANCH  62  85
ENDBRANCH  36  37
ENDBRANCH  29  31
ENDBRANCH  28  29
ENDBRANCH  27  28
ENDBRANCH  26  27
ENDBRANCH   1  26
TORSDOF 20
