REMARK SMILES CCCCNC(=O)c1c(Cl)c(Cl)c(Cl)c(Cl)c1C(=O)OCCOCCOC(=O)c1ccc(-c2c3nc(c(-c4cc(S(=O)(=O)[O-])ccc4F)c4ccc([nH]4)c(-c4cc(S(=O)(=O)[O-])ccc4F)c4nc(c(-c5cc(S(=O)(=O)[O-])ccc5F)c5ccc2[nH]5)C=C4)C=C3)cc1
REMARK SMILES IDX 22 1 21 2 20 3 18 4 19 5 17 6 8 7 9 8 10 9 11 10 15 11 12 12
REMARK SMILES IDX 13 13 16 14 14 15 6 16 5 17 7 19 4 20 3 21 2 22 1 23 23 24
REMARK SMILES IDX 24 25 25 26 26 27 27 28 28 29 29 30 30 31 91 32 31 33 90 34
REMARK SMILES IDX 32 35 33 36 34 37 84 38 35 39 89 40 83 41 85 42 36 43 88 44
REMARK SMILES IDX 82 45 81 46 37 48 69 49 49 50 68 51 50 52 53 53 67 54 86 55
REMARK SMILES IDX 51 56 52 57 66 59 87 60 54 61 38 62 39 63 47 64 40 65 46 66
REMARK SMILES IDX 48 67 45 68 41 69 42 70 43 71 44 72 70 73 71 74 79 75 72 76
REMARK SMILES IDX 78 77 80 78 77 79 73 80 74 81 75 82 76 83 55 84 56 85 64 86
REMARK SMILES IDX 57 87 63 88 65 89 62 90 58 91 59 92 60 93 61 94
REMARK H PARENT 5 18 85 47 53 58
REMARK Flexibility Score: inf
ROOT
ATOM      1  C   UNL     1      -4.522   5.997   2.713  1.00  0.00     0.202 C 
ENDROOT
BRANCH   1   2
ATOM      2  C   UNL     1      -4.615   6.088   1.191  1.00  0.00     0.261 C 
BRANCH   2   3
ATOM      3  O   UNL     1      -3.333   5.839   0.589  1.00  0.00    -0.460 OA
BRANCH   3   4
ATOM      4  C   UNL     1      -3.142   6.487  -0.572  1.00  0.00     0.340 C 
ATOM      5  O   UNL     1      -3.961   7.142  -1.213  1.00  0.00    -0.246 OA
BRANCH   4   6
ATOM      6  C   UNL     1      -1.719   6.491  -0.938  1.00  0.00     0.094 A 
ATOM      7  C   UNL     1      -1.126   5.360  -1.516  1.00  0.00     0.076 A 
ATOM      8  C   UNL     1       0.064   5.503  -2.244  1.00  0.00     0.074 A 
ATOM      9  Cl  UNL     1       0.618   4.211  -3.270  1.00  0.00    -0.082 Cl
ATOM     10  C   UNL     1       0.765   6.723  -2.206  1.00  0.00     0.080 A 
ATOM     11  C   UNL     1      -1.021   7.709  -0.882  1.00  0.00     0.076 A 
ATOM     12  Cl  UNL     1       2.290   6.875  -3.034  1.00  0.00    -0.081 Cl
ATOM     13  C   UNL     1       0.245   7.812  -1.483  1.00  0.00     0.080 A 
ATOM     14  Cl  UNL     1      -1.696   9.064  -0.021  1.00  0.00    -0.082 Cl
ATOM     15  Cl  UNL     1       1.155   9.292  -1.356  1.00  0.00    -0.081 Cl
BRANCH   7  16
ATOM     16  C   UNL     1      -1.764   4.043  -1.324  1.00  0.00     0.253 C 
ATOM     17  N   UNL     1      -1.099   3.056  -0.629  1.00  0.00    -0.352 N 
ATOM     18  H   UNL     1      -1.644   2.271  -0.393  1.00  0.00     0.163 HD
ATOM     19  O   UNL     1      -2.905   3.876  -1.733  1.00  0.00    -0.269 OA
BRANCH  17  20
ATOM     20  C   UNL     1       0.291   3.000  -0.192  1.00  0.00     0.116 C 
BRANCH  20  21
ATOM     21  C   UNL     1       0.519   2.255   1.120  1.00  0.00     0.021 C 
BRANCH  21  22
ATOM     22  C   UNL     1       0.134   0.774   1.124  1.00  0.00    -0.002 C 
ATOM     23  C   UNL     1       0.843  -0.059   0.068  1.00  0.00     0.004 C 
ENDBRANCH  21  22
ENDBRANCH  20  21
ENDBRANCH  17  20
ENDBRANCH   7  16
ENDBRANCH   4   6
ENDBRANCH   3   4
ENDBRANCH   2   3
ENDBRANCH   1   2
BRANCH   1  24
ATOM     24  O   UNL     1      -3.672   6.962   3.340  1.00  0.00    -0.374 OA
BRANCH  24  25
ATOM     25  C   UNL     1      -2.265   6.819   3.160  1.00  0.00     0.202 C 
BRANCH  25  26
ATOM     26  C   UNL     1      -1.570   5.709   3.959  1.00  0.00     0.261 C 
BRANCH  26  27
ATOM     27  O   UNL     1      -2.037   4.389   3.629  1.00  0.00    -0.460 OA
BRANCH  27  28
ATOM     28  C   UNL     1      -2.758   3.789   4.609  1.00  0.00     0.338 C 
ATOM     29  O   UNL     1      -2.989   4.237   5.728  1.00  0.00    -0.246 OA
BRANCH  28  30
ATOM     30  C   UNL     1      -3.389   2.556   4.109  1.00  0.00     0.060 A 
ATOM     31  C   UNL     1      -4.775   2.421   4.262  1.00  0.00     0.016 A 
ATOM     32  C   UNL     1      -2.631   1.507   3.586  1.00  0.00     0.016 A 
ATOM     33  C   UNL     1      -5.402   1.222   3.926  1.00  0.00     0.010 A 
ATOM     34  C   UNL     1      -3.261   0.303   3.252  1.00  0.00     0.010 A 
ATOM     35  C   UNL     1      -4.644   0.143   3.452  1.00  0.00    -0.014 A 
BRANCH  35  36
ATOM     36  C   UNL     1      -5.276  -1.194   3.322  1.00  0.00     0.031 A 
ATOM     37  C   UNL     1      -5.089  -2.197   4.428  1.00  0.00     0.074 A 
ATOM     38  C   UNL     1      -6.030  -1.499   2.251  1.00  0.00     0.049 A 
ATOM     39  N   UNL     1      -5.526  -3.427   4.519  1.00  0.00    -0.248 NA
ATOM     40  C   UNL     1      -4.297  -1.750   5.583  1.00  0.00     0.031 C 
ATOM     41  C   UNL     1      -6.317  -0.596   1.138  1.00  0.00     0.029 A 
ATOM     42  N   UNL     1      -6.691  -2.656   1.926  1.00  0.00    -0.354 N 
ATOM     43  C   UNL     1      -5.065  -3.902   5.743  1.00  0.00     0.074 A 
ATOM     44  C   UNL     1      -4.277  -2.841   6.334  1.00  0.00     0.031 C 
ATOM     45  C   UNL     1      -7.094  -1.238   0.247  1.00  0.00     0.029 A 
ATOM     46  C   UNL     1      -7.330  -2.604   0.710  1.00  0.00     0.049 A 
ATOM     47  H   UNL     1      -6.707  -3.450   2.509  1.00  0.00     0.167 HD
ATOM     48  C   UNL     1      -5.288  -5.107   6.325  1.00  0.00     0.034 A 
ATOM     49  C   UNL     1      -8.009  -3.556   0.040  1.00  0.00     0.034 A 
ATOM     50  C   UNL     1      -6.062  -6.162   5.715  1.00  0.00     0.049 A 
ATOM     51  C   UNL     1      -8.167  -4.922   0.662  1.00  0.00     0.074 A 
ATOM     52  C   UNL     1      -6.362  -7.416   6.220  1.00  0.00     0.029 A 
ATOM     53  N   UNL     1      -6.646  -6.093   4.457  1.00  0.00    -0.354 N 
ATOM     54  N   UNL     1      -7.733  -5.358   1.823  1.00  0.00    -0.248 NA
ATOM     55  C   UNL     1      -8.911  -5.921  -0.116  1.00  0.00     0.031 C 
ATOM     56  C   UNL     1      -7.067  -8.127   5.240  1.00  0.00     0.029 A 
ATOM     57  C   UNL     1      -7.272  -7.293   4.153  1.00  0.00     0.049 A 
ATOM     58  H   UNL     1      -6.620  -5.306   3.866  1.00  0.00     0.167 HD
ATOM     59  C   UNL     1      -8.175  -6.675   1.924  1.00  0.00     0.074 A 
ATOM     60  C   UNL     1      -8.917  -6.957   0.712  1.00  0.00     0.031 C 
ATOM     61  C   UNL     1      -7.991  -7.568   2.930  1.00  0.00     0.034 A 
BRANCH  48  62
ATOM     62  C   UNL     1      -4.635  -5.355   7.664  1.00  0.00     0.023 A 
ATOM     63  C   UNL     1      -4.968  -4.597   8.801  1.00  0.00     0.031 A 
ATOM     64  C   UNL     1      -3.627  -6.326   7.793  1.00  0.00     0.131 A 
ATOM     65  C   UNL     1      -4.243  -4.765   9.991  1.00  0.00     0.055 A 
ATOM     66  C   UNL     1      -2.965  -6.545   9.003  1.00  0.00     0.041 A 
ATOM     67  F   UNL     1      -3.249  -7.065   6.737  1.00  0.00    -0.206 F 
ATOM     68  C   UNL     1      -3.260  -5.750  10.107  1.00  0.00     0.022 A 
BRANCH  65  69
ATOM     69  S   UNL     1      -4.492  -3.570  11.334  1.00  0.00     0.124 S 
ATOM     70  O   UNL     1      -4.181  -2.308  10.667  1.00  0.00    -0.237 OA
ATOM     71  O   UNL     1      -5.892  -3.780  11.686  1.00  0.00    -0.237 OA
ATOM     72  O   UNL     1      -3.524  -3.986  12.346  1.00  0.00    -0.744 OA
ENDBRANCH  65  69
ENDBRANCH  48  62
BRANCH  49  73
ATOM     73  C   UNL     1      -8.560  -3.272  -1.316  1.00  0.00     0.023 A 
ATOM     74  C   UNL     1      -9.943  -3.264  -1.553  1.00  0.00     0.031 A 
ATOM     75  C   UNL     1      -7.700  -3.047  -2.406  1.00  0.00     0.131 A 
ATOM     76  C   UNL     1     -10.426  -3.071  -2.857  1.00  0.00     0.055 A 
ATOM     77  C   UNL     1      -8.187  -2.808  -3.692  1.00  0.00     0.041 A 
ATOM     78  F   UNL     1      -6.369  -3.046  -2.232  1.00  0.00    -0.206 F 
ATOM     79  C   UNL     1      -9.559  -2.830  -3.925  1.00  0.00     0.022 A 
BRANCH  76  80
ATOM     80  S   UNL     1     -12.211  -3.203  -3.151  1.00  0.00     0.124 S 
ATOM     81  O   UNL     1     -12.482  -4.572  -2.728  1.00  0.00    -0.237 OA
ATOM     82  O   UNL     1     -12.740  -2.150  -2.291  1.00  0.00    -0.237 OA
ATOM     83  O   UNL     1     -12.339  -2.955  -4.586  1.00  0.00    -0.744 OA
ENDBRANCH  76  80
ENDBRANCH  49  73
BRANCH  61  84
ATOM     84  C   UNL     1      -8.638  -8.922   2.770  1.00  0.00     0.023 A 
ATOM     85  C   UNL     1      -8.203  -9.841   1.798  1.00  0.00     0.031 A 
ATOM     86  C   UNL     1      -9.715  -9.293   3.595  1.00  0.00     0.131 A 
ATOM     87  C   UNL     1      -8.874 -11.063   1.642  1.00  0.00     0.055 A 
ATOM     88  C   UNL     1     -10.344 -10.533   3.471  1.00  0.00     0.041 A 
ATOM     89  F   UNL     1     -10.173  -8.454   4.538  1.00  0.00    -0.206 F 
ATOM     90  C   UNL     1      -9.932 -11.421   2.482  1.00  0.00     0.022 A 
BRANCH  87  91
ATOM     91  S   UNL     1      -8.401 -12.149   0.268  1.00  0.00     0.124 S 
ATOM     92  O   UNL     1      -8.628 -11.290  -0.890  1.00  0.00    -0.237 OA
ATOM     93  O   UNL     1      -7.006 -12.451   0.573  1.00  0.00    -0.237 OA
ATOM     94  O   UNL     1      -9.320 -13.280   0.391  1.00  0.00    -0.744 OA
ENDBRANCH  87  91
ENDBRANCH  61  84
ENDBRANCH  35  36
ENDBRANCH  28  30
ENDBRANCH  27  28
ENDBRANCH  26  27
ENDBRANCH  25  26
ENDBRANCH  24  25
ENDBRANCH   1  24
TORSDOF 21
