REMARK SMILES C[C@H](NC(=O)N1CC[C@@H](C(=O)OCCOCCOC(=O)c2ccc(-c3c4nc(c(-c5cc(S(=O)(=O)[O-])ccc5F)c5ccc([nH]5)c(-c5cc(S(=O)(=O)[O-])ccc5F)c5nc(c(-c6cc(S(=O)(=O)[O-])ccc6F)c6ccc3[nH]6)C=C5)C=C4)cc2)[C@H]1C)c1ccc(Cl)cc1
REMARK SMILES IDX 15 1 14 2 13 3 12 4 10 5 11 6 9 7 6 8 7 9 84 10 8 11 85 12
REMARK SMILES IDX 4 13 3 14 5 16 2 17 1 18 86 19 87 20 92 21 88 22 91 23 89 24
REMARK SMILES IDX 90 25 16 26 17 27 18 28 19 29 20 30 21 31 22 32 83 33 23 34
REMARK SMILES IDX 82 35 24 36 25 37 26 38 76 39 27 40 81 41 75 42 77 43 28 44
REMARK SMILES IDX 80 45 74 46 73 47 29 49 61 50 41 51 60 52 42 53 45 54 59 55
REMARK SMILES IDX 78 56 43 57 44 58 58 60 79 61 46 62 30 63 31 64 39 65 32 66
REMARK SMILES IDX 38 67 40 68 37 69 33 70 34 71 35 72 36 73 62 74 63 75 71 76
REMARK SMILES IDX 64 77 70 78 72 79 69 80 65 81 66 82 67 83 68 84 47 85 48 86
REMARK SMILES IDX 56 87 49 88 55 89 57 90 54 91 50 92 51 93 52 94 53 95
REMARK H PARENT 3 15 77 48 45 59
REMARK Flexibility Score: inf
ROOT
ATOM      1  O   UNL     1       4.288   6.202  -3.081  1.00  0.00    -0.374 OA
ENDROOT
BRANCH   1   2
ATOM      2  C   UNL     1       4.036   5.556  -4.332  1.00  0.00     0.202 C 
BRANCH   2   3
ATOM      3  C   UNL     1       5.076   4.505  -4.751  1.00  0.00     0.261 C 
BRANCH   3   4
ATOM      4  O   UNL     1       4.863   3.262  -4.051  1.00  0.00    -0.463 OA
BRANCH   4   5
ATOM      5  C   UNL     1       5.575   3.049  -2.924  1.00  0.00     0.311 C 
ATOM      6  O   UNL     1       6.580   3.675  -2.610  1.00  0.00    -0.252 OA
BRANCH   5   7
ATOM      7  C   UNL     1       4.992   1.955  -2.044  1.00  0.00     0.123 C 
ATOM      8  N   UNL     1       3.334   0.416  -1.305  1.00  0.00    -0.321 N 
ATOM      9  C   UNL     1       4.585  -0.297  -1.554  1.00  0.00     0.122 C 
ATOM     10  C   UNL     1       3.458   1.827  -1.784  1.00  0.00     0.098 C 
ATOM     11  C   UNL     1       5.361   0.563  -2.533  1.00  0.00     0.039 C 
ATOM     12  C   UNL     1       2.631   2.144  -3.034  1.00  0.00     0.032 C 
BRANCH   8  13
ATOM     13  C   UNL     1       2.558  -0.071  -0.276  1.00  0.00     0.318 C 
ATOM     14  N   UNL     1       1.215   0.100  -0.267  1.00  0.00    -0.331 N 
ATOM     15  H   UNL     1       0.766  -0.145   0.575  1.00  0.00     0.165 HD
ATOM     16  O   UNL     1       3.033  -0.773   0.621  1.00  0.00    -0.249 OA
BRANCH  14  17
ATOM     17  C   UNL     1       0.346   0.587  -1.308  1.00  0.00     0.111 C 
ATOM     18  C   UNL     1       0.496  -0.206  -2.617  1.00  0.00     0.036 C 
BRANCH  17  19
ATOM     19  C   UNL     1      -1.129   0.632  -0.933  1.00  0.00    -0.026 A 
ATOM     20  C   UNL     1      -1.790   1.875  -0.902  1.00  0.00     0.007 A 
ATOM     21  C   UNL     1      -1.891  -0.538  -0.791  1.00  0.00     0.007 A 
ATOM     22  C   UNL     1      -3.180   1.942  -0.799  1.00  0.00     0.021 A 
ATOM     23  C   UNL     1      -3.283  -0.470  -0.700  1.00  0.00     0.021 A 
ATOM     24  C   UNL     1      -3.922   0.768  -0.717  1.00  0.00     0.041 A 
ATOM     25  Cl  UNL     1      -5.639   0.844  -0.663  1.00  0.00    -0.084 Cl
ENDBRANCH  17  19
ENDBRANCH  14  17
ENDBRANCH   8  13
ENDBRANCH   5   7
ENDBRANCH   4   5
ENDBRANCH   3   4
ENDBRANCH   2   3
ENDBRANCH   1   2
BRANCH   1  26
ATOM     26  C   UNL     1       3.766   5.588  -1.905  1.00  0.00     0.202 C 
BRANCH  26  27
ATOM     27  C   UNL     1       2.296   5.874  -1.566  1.00  0.00     0.261 C 
BRANCH  27  28
ATOM     28  O   UNL     1       1.393   5.377  -2.568  1.00  0.00    -0.460 OA
BRANCH  28  29
ATOM     29  C   UNL     1       0.954   6.330  -3.428  1.00  0.00     0.338 C 
ATOM     30  O   UNL     1       1.197   7.528  -3.366  1.00  0.00    -0.246 OA
BRANCH  29  31
ATOM     31  C   UNL     1       0.271   5.723  -4.588  1.00  0.00     0.060 A 
ATOM     32  C   UNL     1       0.583   6.251  -5.846  1.00  0.00     0.016 A 
ATOM     33  C   UNL     1      -0.700   4.724  -4.464  1.00  0.00     0.016 A 
ATOM     34  C   UNL     1      -0.127   5.845  -6.971  1.00  0.00     0.010 A 
ATOM     35  C   UNL     1      -1.409   4.311  -5.602  1.00  0.00     0.010 A 
ATOM     36  C   UNL     1      -1.159   4.905  -6.854  1.00  0.00    -0.014 A 
BRANCH  36  37
ATOM     37  C   UNL     1      -2.058   4.685  -8.019  1.00  0.00     0.031 A 
ATOM     38  C   UNL     1      -3.432   5.306  -8.017  1.00  0.00     0.074 A 
ATOM     39  C   UNL     1      -1.625   4.019  -9.107  1.00  0.00     0.049 A 
ATOM     40  N   UNL     1      -4.354   5.290  -8.946  1.00  0.00    -0.248 NA
ATOM     41  C   UNL     1      -3.817   6.041  -6.803  1.00  0.00     0.031 C 
ATOM     42  C   UNL     1      -0.304   3.410  -9.249  1.00  0.00     0.029 A 
ATOM     43  N   UNL     1      -2.246   3.757 -10.303  1.00  0.00    -0.354 N 
ATOM     44  C   UNL     1      -5.427   6.010  -8.431  1.00  0.00     0.074 A 
ATOM     45  C   UNL     1      -5.058   6.405  -7.088  1.00  0.00     0.031 C 
ATOM     46  C   UNL     1      -0.209   2.853 -10.468  1.00  0.00     0.029 A 
ATOM     47  C   UNL     1      -1.473   3.031 -11.180  1.00  0.00     0.049 A 
ATOM     48  H   UNL     1      -3.158   4.060 -10.514  1.00  0.00     0.167 HD
ATOM     49  C   UNL     1      -6.605   6.327  -9.026  1.00  0.00     0.034 A 
ATOM     50  C   UNL     1      -1.756   2.551 -12.409  1.00  0.00     0.034 A 
ATOM     51  C   UNL     1      -6.964   5.923 -10.365  1.00  0.00     0.049 A 
ATOM     52  C   UNL     1      -3.105   2.849 -13.021  1.00  0.00     0.074 A 
ATOM     53  C   UNL     1      -8.122   6.207 -11.068  1.00  0.00     0.029 A 
ATOM     54  N   UNL     1      -6.179   5.136 -11.199  1.00  0.00    -0.354 N 
ATOM     55  N   UNL     1      -4.103   3.547 -12.528  1.00  0.00    -0.248 NA
ATOM     56  C   UNL     1      -3.358   2.306 -14.362  1.00  0.00     0.031 C 
ATOM     57  C   UNL     1      -8.075   5.523 -12.288  1.00  0.00     0.029 A 
ATOM     58  C   UNL     1      -6.846   4.893 -12.392  1.00  0.00     0.049 A 
ATOM     59  H   UNL     1      -5.281   4.800 -10.977  1.00  0.00     0.167 HD
ATOM     60  C   UNL     1      -5.086   3.555 -13.516  1.00  0.00     0.074 A 
ATOM     61  C   UNL     1      -4.552   2.808 -14.636  1.00  0.00     0.031 C 
ATOM     62  C   UNL     1      -6.314   4.135 -13.502  1.00  0.00     0.034 A 
BRANCH  49  63
ATOM     63  C   UNL     1      -7.612   7.105  -8.209  1.00  0.00     0.023 A 
ATOM     64  C   UNL     1      -7.348   8.405  -7.742  1.00  0.00     0.031 A 
ATOM     65  C   UNL     1      -8.849   6.526  -7.874  1.00  0.00     0.131 A 
ATOM     66  C   UNL     1      -8.274   9.051  -6.908  1.00  0.00     0.055 A 
ATOM     67  C   UNL     1      -9.802   7.209  -7.116  1.00  0.00     0.041 A 
ATOM     68  F   UNL     1      -9.150   5.279  -8.269  1.00  0.00    -0.206 F 
ATOM     69  C   UNL     1      -9.511   8.474  -6.615  1.00  0.00     0.022 A 
BRANCH  66  70
ATOM     70  S   UNL     1      -7.774  10.590  -6.086  1.00  0.00     0.124 S 
ATOM     71  O   UNL     1      -6.581  10.161  -5.359  1.00  0.00    -0.237 OA
ATOM     72  O   UNL     1      -7.549  11.489  -7.211  1.00  0.00    -0.237 OA
ATOM     73  O   UNL     1      -8.923  10.917  -5.244  1.00  0.00    -0.744 OA
ENDBRANCH  66  70
ENDBRANCH  49  63
BRANCH  50  74
ATOM     74  C   UNL     1      -0.763   1.707 -13.136  1.00  0.00     0.023 A 
ATOM     75  C   UNL     1      -0.226   2.106 -14.370  1.00  0.00     0.031 A 
ATOM     76  C   UNL     1      -0.383   0.450 -12.629  1.00  0.00     0.131 A 
ATOM     77  C   UNL     1       0.621   1.237 -15.078  1.00  0.00     0.055 A 
ATOM     78  C   UNL     1       0.507  -0.383 -13.308  1.00  0.00     0.041 A 
ATOM     79  F   UNL     1      -0.869   0.016 -11.455  1.00  0.00    -0.206 F 
ATOM     80  C   UNL     1       1.003   0.003 -14.548  1.00  0.00     0.022 A 
BRANCH  77  81
ATOM     81  S   UNL     1       1.142   1.702 -16.753  1.00  0.00     0.124 S 
ATOM     82  O   UNL     1      -0.141   1.859 -17.429  1.00  0.00    -0.237 OA
ATOM     83  O   UNL     1       1.892   2.929 -16.506  1.00  0.00    -0.237 OA
ATOM     84  O   UNL     1       1.943   0.561 -17.189  1.00  0.00    -0.744 OA
ENDBRANCH  77  81
ENDBRANCH  50  74
BRANCH  62  85
ATOM     85  C   UNL     1      -7.146   4.027 -14.761  1.00  0.00     0.023 A 
ATOM     86  C   UNL     1      -7.604   2.791 -15.249  1.00  0.00     0.031 A 
ATOM     87  C   UNL     1      -7.465   5.183 -15.498  1.00  0.00     0.131 A 
ATOM     88  C   UNL     1      -8.294   2.731 -16.471  1.00  0.00     0.055 A 
ATOM     89  C   UNL     1      -8.215   5.125 -16.674  1.00  0.00     0.041 A 
ATOM     90  F   UNL     1      -7.052   6.393 -15.086  1.00  0.00    -0.206 F 
ATOM     91  C   UNL     1      -8.619   3.892 -17.176  1.00  0.00     0.022 A 
BRANCH  88  92
ATOM     92  S   UNL     1      -8.653   1.105 -17.191  1.00  0.00     0.124 S 
ATOM     93  O   UNL     1      -7.324   0.507 -17.267  1.00  0.00    -0.237 OA
ATOM     94  O   UNL     1      -9.558   0.521 -16.206  1.00  0.00    -0.237 OA
ATOM     95  O   UNL     1      -9.263   1.427 -18.479  1.00  0.00    -0.744 OA
ENDBRANCH  88  92
ENDBRANCH  62  85
ENDBRANCH  36  37
ENDBRANCH  29  31
ENDBRANCH  28  29
ENDBRANCH  27  28
ENDBRANCH  26  27
ENDBRANCH   1  26
TORSDOF 20
