REMARK SMILES CC(C)[C@@H](CCNC(=O)N1C[C@@H](C)[C@H](C)C1)CCC(=O)OCCOCCOC(=O)c1ccc(-c2c3nc(c(-c4cc(S(=O)(=O)[O-])ccc4F)c4ccc([nH]4)c(-c4cc(S(=O)(=O)[O-])ccc4F)c4nc(c(-c5cc(S(=O)(=O)[O-])ccc5F)c5ccc2[nH]5)C=C4)C=C3)cc1
REMARK SMILES IDX 23 1 22 2 21 3 19 4 20 5 18 6 17 7 4 8 2 9 1 10 3 11 5 12
REMARK SMILES IDX 6 13 7 14 8 15 9 17 10 18 11 19 16 20 12 21 14 22 13 23
REMARK SMILES IDX 15 24 24 25 25 26 26 27 27 28 28 29 29 30 30 31 31 32 92 33
REMARK SMILES IDX 32 34 91 35 33 36 34 37 35 38 85 39 36 40 90 41 84 42 86 43
REMARK SMILES IDX 37 44 89 45 83 46 82 47 38 49 70 50 50 51 69 52 51 53 54 54
REMARK SMILES IDX 68 55 87 56 52 57 53 58 67 60 88 61 55 62 39 63 40 64 48 65
REMARK SMILES IDX 41 66 47 67 49 68 46 69 42 70 43 71 44 72 45 73 71 74 72 75
REMARK SMILES IDX 80 76 73 77 79 78 81 79 78 80 74 81 75 82 76 83 77 84 56 85
REMARK SMILES IDX 57 86 65 87 58 88 64 89 66 90 63 91 59 92 60 93 61 94 62 95
REMARK H PARENT 7 16 86 48 54 59
REMARK Flexibility Score: inf
ROOT
ATOM      1  C   UNL     1      -2.867   0.202   4.452  1.00  0.00     0.202 C 
ENDROOT
BRANCH   1   2
ATOM      2  C   UNL     1      -1.446  -0.313   4.686  1.00  0.00     0.261 C 
BRANCH   2   3
ATOM      3  O   UNL     1      -1.061  -1.177   3.602  1.00  0.00    -0.463 OA
BRANCH   3   4
ATOM      4  C   UNL     1      -0.697  -2.433   3.929  1.00  0.00     0.305 C 
ATOM      5  O   UNL     1      -0.518  -2.836   5.074  1.00  0.00    -0.252 OA
BRANCH   4   6
ATOM      6  C   UNL     1      -0.534  -3.350   2.737  1.00  0.00     0.123 C 
BRANCH   6   7
ATOM      7  C   UNL     1      -0.962  -2.954   1.319  1.00  0.00     0.015 C 
BRANCH   7   8
ATOM      8  C   UNL     1      -0.586  -1.603   0.658  1.00  0.00    -0.006 C 
BRANCH   8   9
ATOM      9  C   UNL     1       0.938  -1.343   0.441  1.00  0.00    -0.014 C 
ATOM     10  C   UNL     1       1.186   0.014  -0.241  1.00  0.00     0.007 C 
ATOM     11  C   UNL     1       1.767  -1.354   1.728  1.00  0.00     0.007 C 
ENDBRANCH   8   9
BRANCH   8  12
ATOM     12  C   UNL     1      -1.418  -1.437  -0.664  1.00  0.00     0.025 C 
BRANCH  12  13
ATOM     13  C   UNL     1      -1.008  -2.274  -1.890  1.00  0.00     0.118 C 
BRANCH  13  14
ATOM     14  N   UNL     1      -1.533  -3.629  -1.851  1.00  0.00    -0.338 N 
ATOM     15  C   UNL     1      -2.595  -4.156  -2.507  1.00  0.00     0.317 C 
ATOM     16  H   UNL     1      -1.048  -4.253  -1.264  1.00  0.00     0.165 HD
ATOM     17  O   UNL     1      -3.243  -5.029  -1.930  1.00  0.00    -0.249 OA
ATOM     18  N   UNL     1      -2.879  -3.735  -3.773  1.00  0.00    -0.324 N 
ATOM     19  C   UNL     1      -4.128  -4.090  -4.417  1.00  0.00     0.125 C 
ATOM     20  C   UNL     1      -1.892  -3.327  -4.761  1.00  0.00     0.125 C 
ATOM     21  C   UNL     1      -3.707  -4.582  -5.796  1.00  0.00     0.010 C 
ATOM     22  C   UNL     1      -2.474  -3.718  -6.130  1.00  0.00     0.010 C 
ATOM     23  C   UNL     1      -4.820  -4.451  -6.825  1.00  0.00     0.010 C 
ATOM     24  C   UNL     1      -1.470  -4.440  -7.028  1.00  0.00     0.010 C 
ENDBRANCH  13  14
ENDBRANCH  12  13
ENDBRANCH   8  12
ENDBRANCH   7   8
ENDBRANCH   6   7
ENDBRANCH   4   6
ENDBRANCH   3   4
ENDBRANCH   2   3
ENDBRANCH   1   2
BRANCH   1  25
ATOM     25  O   UNL     1      -3.887  -0.798   4.504  1.00  0.00    -0.374 OA
BRANCH  25  26
ATOM     26  C   UNL     1      -4.070  -1.594   3.332  1.00  0.00     0.202 C 
BRANCH  26  27
ATOM     27  C   UNL     1      -4.893  -0.959   2.204  1.00  0.00     0.261 C 
BRANCH  27  28
ATOM     28  O   UNL     1      -4.196   0.127   1.569  1.00  0.00    -0.460 OA
BRANCH  28  29
ATOM     29  C   UNL     1      -4.655   1.359   1.895  1.00  0.00     0.338 C 
ATOM     30  O   UNL     1      -5.609   1.617   2.618  1.00  0.00    -0.246 OA
BRANCH  29  31
ATOM     31  C   UNL     1      -3.730   2.398   1.402  1.00  0.00     0.060 A 
ATOM     32  C   UNL     1      -3.373   3.421   2.292  1.00  0.00     0.016 A 
ATOM     33  C   UNL     1      -3.283   2.423   0.079  1.00  0.00     0.016 A 
ATOM     34  C   UNL     1      -2.623   4.508   1.846  1.00  0.00     0.010 A 
ATOM     35  C   UNL     1      -2.537   3.519  -0.369  1.00  0.00     0.010 A 
ATOM     36  C   UNL     1      -2.243   4.586   0.501  1.00  0.00    -0.014 A 
BRANCH  36  37
ATOM     37  C   UNL     1      -1.725   5.866  -0.046  1.00  0.00     0.031 A 
ATOM     38  C   UNL     1      -2.682   6.762  -0.787  1.00  0.00     0.074 A 
ATOM     39  C   UNL     1      -0.443   6.234   0.122  1.00  0.00     0.049 A 
ATOM     40  N   UNL     1      -2.447   7.861  -1.454  1.00  0.00    -0.248 NA
ATOM     41  C   UNL     1      -4.095   6.352  -0.777  1.00  0.00     0.031 C 
ATOM     42  C   UNL     1       0.557   5.488   0.883  1.00  0.00     0.029 A 
ATOM     43  N   UNL     1       0.239   7.329  -0.349  1.00  0.00    -0.354 N 
ATOM     44  C   UNL     1      -3.679   8.268  -1.957  1.00  0.00     0.074 A 
ATOM     45  C   UNL     1      -4.651   7.279  -1.542  1.00  0.00     0.031 C 
ATOM     46  C   UNL     1       1.732   6.138   0.810  1.00  0.00     0.029 A 
ATOM     47  C   UNL     1       1.579   7.317  -0.041  1.00  0.00     0.049 A 
ATOM     48  H   UNL     1      -0.190   8.053  -0.860  1.00  0.00     0.167 HD
ATOM     49  C   UNL     1      -3.972   9.368  -2.694  1.00  0.00     0.034 A 
ATOM     50  C   UNL     1       2.572   8.142  -0.434  1.00  0.00     0.034 A 
ATOM     51  C   UNL     1      -2.989  10.341  -3.102  1.00  0.00     0.049 A 
ATOM     52  C   UNL     1       2.243   9.309  -1.337  1.00  0.00     0.074 A 
ATOM     53  C   UNL     1      -3.172  11.489  -3.853  1.00  0.00     0.029 A 
ATOM     54  N   UNL     1      -1.635  10.275  -2.800  1.00  0.00    -0.354 N 
ATOM     55  N   UNL     1       1.080   9.671  -1.830  1.00  0.00    -0.248 NA
ATOM     56  C   UNL     1       3.358  10.181  -1.735  1.00  0.00     0.031 C 
ATOM     57  C   UNL     1      -1.921  12.079  -4.063  1.00  0.00     0.029 A 
ATOM     58  C   UNL     1      -0.969  11.347  -3.373  1.00  0.00     0.049 A 
ATOM     59  H   UNL     1      -1.211   9.571  -2.258  1.00  0.00     0.167 HD
ATOM     60  C   UNL     1       1.319  10.836  -2.555  1.00  0.00     0.074 A 
ATOM     61  C   UNL     1       2.736  11.113  -2.443  1.00  0.00     0.031 C 
ATOM     62  C   UNL     1       0.444  11.615  -3.240  1.00  0.00     0.034 A 
BRANCH  49  63
ATOM     63  C   UNL     1      -5.400   9.535  -3.154  1.00  0.00     0.023 A 
ATOM     64  C   UNL     1      -6.455   9.726  -2.245  1.00  0.00     0.031 A 
ATOM     65  C   UNL     1      -5.713   9.468  -4.523  1.00  0.00     0.131 A 
ATOM     66  C   UNL     1      -7.778   9.771  -2.710  1.00  0.00     0.055 A 
ATOM     67  C   UNL     1      -7.024   9.596  -4.986  1.00  0.00     0.041 A 
ATOM     68  F   UNL     1      -4.751   9.262  -5.435  1.00  0.00    -0.206 F 
ATOM     69  C   UNL     1      -8.068   9.733  -4.076  1.00  0.00     0.022 A 
BRANCH  66  70
ATOM     70  S   UNL     1      -9.126   9.732  -1.496  1.00  0.00     0.124 S 
ATOM     71  O   UNL     1      -8.851   8.481  -0.793  1.00  0.00    -0.237 OA
ATOM     72  O   UNL     1      -8.901  10.955  -0.736  1.00  0.00    -0.237 OA
ATOM     73  O   UNL     1     -10.331   9.722  -2.322  1.00  0.00    -0.744 OA
ENDBRANCH  66  70
ENDBRANCH  49  63
BRANCH  50  74
ATOM     74  C   UNL     1       3.982   7.875  -0.025  1.00  0.00     0.023 A 
ATOM     75  C   UNL     1       4.695   8.787   0.769  1.00  0.00     0.031 A 
ATOM     76  C   UNL     1       4.656   6.724  -0.473  1.00  0.00     0.131 A 
ATOM     77  C   UNL     1       6.050   8.556   1.053  1.00  0.00     0.055 A 
ATOM     78  C   UNL     1       5.989   6.472  -0.142  1.00  0.00     0.041 A 
ATOM     79  F   UNL     1       4.023   5.820  -1.238  1.00  0.00    -0.206 F 
ATOM     80  C   UNL     1       6.698   7.399   0.615  1.00  0.00     0.022 A 
BRANCH  77  81
ATOM     81  S   UNL     1       6.985   9.840   1.930  1.00  0.00     0.124 S 
ATOM     82  O   UNL     1       6.818  10.985   1.042  1.00  0.00    -0.237 OA
ATOM     83  O   UNL     1       6.280   9.908   3.206  1.00  0.00    -0.237 OA
ATOM     84  O   UNL     1       8.337   9.291   1.996  1.00  0.00    -0.744 OA
ENDBRANCH  77  81
ENDBRANCH  50  74
BRANCH  62  85
ATOM     85  C   UNL     1       0.973  12.888  -3.854  1.00  0.00     0.023 A 
ATOM     86  C   UNL     1       1.836  12.883  -4.963  1.00  0.00     0.031 A 
ATOM     87  C   UNL     1       0.569  14.130  -3.332  1.00  0.00     0.131 A 
ATOM     88  C   UNL     1       2.292  14.100  -5.494  1.00  0.00     0.055 A 
ATOM     89  C   UNL     1       0.985  15.336  -3.895  1.00  0.00     0.041 A 
ATOM     90  F   UNL     1      -0.256  14.190  -2.273  1.00  0.00    -0.206 F 
ATOM     91  C   UNL     1       1.858  15.325  -4.979  1.00  0.00     0.022 A 
BRANCH  88  92
ATOM     92  S   UNL     1       3.505  14.067  -6.843  1.00  0.00     0.124 S 
ATOM     93  O   UNL     1       4.631  13.378  -6.221  1.00  0.00    -0.237 OA
ATOM     94  O   UNL     1       2.799  13.324  -7.882  1.00  0.00    -0.237 OA
ATOM     95  O   UNL     1       3.729  15.481  -7.139  1.00  0.00    -0.744 OA
ENDBRANCH  88  92
ENDBRANCH  62  85
ENDBRANCH  36  37
ENDBRANCH  29  31
ENDBRANCH  28  29
ENDBRANCH  27  28
ENDBRANCH  26  27
ENDBRANCH  25  26
ENDBRANCH   1  25
TORSDOF 23
