REMARK SMILES CC(=O)Nc1nc(C[N@@H+]2CCO[C@@H](CC(=O)OCCOCCOC(=O)c3ccc(-c4c5nc(c(-c6cc(S(=O)(=O)[O-])ccc6F)c6ccc([nH]6)c(-c6cc(S(=O)(=O)[O-])ccc6F)c6nc(c(-c7cc(S(=O)(=O)[O-])ccc7F)c7ccc4[nH]7)C=C6)C=C5)cc3)C2)cs1
REMARK SMILES IDX 19 1 18 2 17 3 15 4 16 5 14 6 13 7 9 8 10 9 89 10 11 12
REMARK SMILES IDX 12 13 8 14 7 15 5 16 6 17 91 18 90 19 4 20 1 21 2 22 3 23
REMARK SMILES IDX 20 25 21 26 22 27 23 28 24 29 25 30 26 31 27 32 88 33 28 34
REMARK SMILES IDX 87 35 29 36 30 37 31 38 81 39 32 40 86 41 80 42 82 43 33 44
REMARK SMILES IDX 85 45 79 46 78 47 34 49 66 50 46 51 65 52 47 53 50 54 64 55
REMARK SMILES IDX 83 56 48 57 49 58 63 60 84 61 51 62 35 63 36 64 44 65 37 66
REMARK SMILES IDX 43 67 45 68 42 69 38 70 39 71 40 72 41 73 67 74 68 75 76 76
REMARK SMILES IDX 69 77 75 78 77 79 74 80 70 81 71 82 72 83 73 84 52 85 53 86
REMARK SMILES IDX 61 87 54 88 60 89 62 90 59 91 55 92 56 93 57 94 58 95
REMARK H PARENT 9 11 4 24 82 48 50 59
REMARK Flexibility Score: inf
ROOT
ATOM      1  C   UNL     1       6.431  -3.310  -0.823  1.00  0.00     0.202 C 
ENDROOT
BRANCH   1   2
ATOM      2  C   UNL     1       7.153  -3.195  -2.170  1.00  0.00     0.261 C 
BRANCH   2   3
ATOM      3  O   UNL     1       6.697  -2.121  -3.019  1.00  0.00    -0.463 OA
BRANCH   3   4
ATOM      4  C   UNL     1       6.062  -2.508  -4.157  1.00  0.00     0.308 C 
ATOM      5  O   UNL     1       5.706  -3.656  -4.405  1.00  0.00    -0.252 OA
BRANCH   4   6
ATOM      6  C   UNL     1       5.947  -1.405  -5.170  1.00  0.00     0.160 C 
BRANCH   6   7
ATOM      7  C   UNL     1       5.183  -0.123  -4.836  1.00  0.00     0.184 C 
ATOM      8  N   UNL     1       5.376   2.142  -3.676  1.00  0.00    -0.326 N 
ATOM      9  C   UNL     1       5.274   2.752  -4.998  1.00  0.00     0.291 C 
ATOM     10  C   UNL     1       5.841   0.749  -3.739  1.00  0.00     0.295 C 
ATOM     11  H   UNL     1       6.142   2.632  -3.213  1.00  0.00     0.348 HD
ATOM     12  C   UNL     1       4.581   1.863  -6.037  1.00  0.00     0.222 C 
ATOM     13  O   UNL     1       5.177   0.573  -6.109  1.00  0.00    -0.366 OA
BRANCH   8  14
ATOM     14  C   UNL     1       4.371   2.508  -2.674  1.00  0.00     0.320 C 
BRANCH  14  15
ATOM     15  C   UNL     1       2.954   2.115  -2.990  1.00  0.00     0.108 A 
ATOM     16  C   UNL     1       1.155   0.866  -2.706  1.00  0.00     0.189 A 
ATOM     17  N   UNL     1       2.324   1.159  -2.200  1.00  0.00    -0.219 NA
ATOM     18  S   UNL     1       0.682   1.742  -4.084  1.00  0.00    -0.105 S 
ATOM     19  C   UNL     1       2.117   2.675  -3.942  1.00  0.00     0.098 A 
BRANCH  16  20
ATOM     20  N   UNL     1       0.283  -0.102  -2.312  1.00  0.00    -0.302 N 
ATOM     21  C   UNL     1       0.762   0.113   0.108  1.00  0.00     0.114 C 
ATOM     22  C   UNL     1       0.237  -0.665  -1.073  1.00  0.00     0.223 C 
ATOM     23  O   UNL     1      -0.339  -1.745  -0.926  1.00  0.00    -0.275 OA
ATOM     24  H   UNL     1      -0.368  -0.422  -2.978  1.00  0.00     0.172 HD
ENDBRANCH  16  20
ENDBRANCH  14  15
ENDBRANCH   8  14
ENDBRANCH   6   7
ENDBRANCH   4   6
ENDBRANCH   3   4
ENDBRANCH   2   3
ENDBRANCH   1   2
BRANCH   1  25
ATOM     25  O   UNL     1       5.048  -3.649  -0.857  1.00  0.00    -0.374 OA
BRANCH  25  26
ATOM     26  C   UNL     1       4.150  -2.693  -1.405  1.00  0.00     0.202 C 
BRANCH  26  27
ATOM     27  C   UNL     1       3.998  -1.375  -0.649  1.00  0.00     0.261 C 
BRANCH  27  28
ATOM     28  O   UNL     1       5.229  -0.664  -0.460  1.00  0.00    -0.460 OA
BRANCH  28  29
ATOM     29  C   UNL     1       5.409  -0.185   0.793  1.00  0.00     0.338 C 
ATOM     30  O   UNL     1       4.611  -0.217   1.721  1.00  0.00    -0.246 OA
BRANCH  29  31
ATOM     31  C   UNL     1       6.785   0.304   0.950  1.00  0.00     0.060 A 
ATOM     32  C   UNL     1       7.680  -0.462   1.704  1.00  0.00     0.016 A 
ATOM     33  C   UNL     1       7.151   1.564   0.472  1.00  0.00     0.016 A 
ATOM     34  C   UNL     1       8.938   0.051   2.017  1.00  0.00     0.010 A 
ATOM     35  C   UNL     1       8.415   2.075   0.785  1.00  0.00     0.010 A 
ATOM     36  C   UNL     1       9.302   1.337   1.589  1.00  0.00    -0.014 A 
BRANCH  36  37
ATOM     37  C   UNL     1      10.553   1.954   2.099  1.00  0.00     0.031 A 
ATOM     38  C   UNL     1      10.479   2.936   3.236  1.00  0.00     0.074 A 
ATOM     39  C   UNL     1      11.744   1.611   1.577  1.00  0.00     0.049 A 
ATOM     40  N   UNL     1      11.443   3.574   3.850  1.00  0.00    -0.248 NA
ATOM     41  C   UNL     1       9.134   3.242   3.744  1.00  0.00     0.031 C 
ATOM     42  C   UNL     1      11.943   0.650   0.494  1.00  0.00     0.029 A 
ATOM     43  N   UNL     1      13.011   2.029   1.895  1.00  0.00    -0.354 N 
ATOM     44  C   UNL     1      10.824   4.349   4.825  1.00  0.00     0.074 A 
ATOM     45  C   UNL     1       9.397   4.143   4.677  1.00  0.00     0.031 C 
ATOM     46  C   UNL     1      13.259   0.544   0.243  1.00  0.00     0.029 A 
ATOM     47  C   UNL     1      13.992   1.451   1.125  1.00  0.00     0.049 A 
ATOM     48  H   UNL     1      13.201   2.682   2.607  1.00  0.00     0.167 HD
ATOM     49  C   UNL     1      11.391   5.145   5.768  1.00  0.00     0.034 A 
ATOM     50  C   UNL     1      15.327   1.638   1.126  1.00  0.00     0.034 A 
ATOM     51  C   UNL     1      12.814   5.362   5.884  1.00  0.00     0.049 A 
ATOM     52  C   UNL     1      15.932   2.599   2.119  1.00  0.00     0.074 A 
ATOM     53  C   UNL     1      13.499   6.143   6.798  1.00  0.00     0.029 A 
ATOM     54  N   UNL     1      13.773   4.806   5.045  1.00  0.00    -0.354 N 
ATOM     55  N   UNL     1      15.337   3.317   3.045  1.00  0.00    -0.248 NA
ATOM     56  C   UNL     1      17.390   2.765   2.071  1.00  0.00     0.031 C 
ATOM     57  C   UNL     1      14.861   6.114   6.471  1.00  0.00     0.029 A 
ATOM     58  C   UNL     1      15.038   5.254   5.399  1.00  0.00     0.049 A 
ATOM     59  H   UNL     1      13.583   4.184   4.306  1.00  0.00     0.167 HD
ATOM     60  C   UNL     1      16.355   3.995   3.711  1.00  0.00     0.074 A 
ATOM     61  C   UNL     1      17.599   3.594   3.084  1.00  0.00     0.031 C 
ATOM     62  C   UNL     1      16.270   4.861   4.753  1.00  0.00     0.034 A 
BRANCH  49  63
ATOM     63  C   UNL     1      10.453   5.871   6.705  1.00  0.00     0.023 A 
ATOM     64  C   UNL     1       9.596   5.173   7.576  1.00  0.00     0.031 A 
ATOM     65  C   UNL     1      10.366   7.274   6.685  1.00  0.00     0.131 A 
ATOM     66  C   UNL     1       8.628   5.870   8.315  1.00  0.00     0.055 A 
ATOM     67  C   UNL     1       9.459   7.968   7.490  1.00  0.00     0.041 A 
ATOM     68  F   UNL     1      11.142   7.996   5.862  1.00  0.00    -0.206 F 
ATOM     69  C   UNL     1       8.569   7.264   8.297  1.00  0.00     0.022 A 
BRANCH  66  70
ATOM     70  S   UNL     1       7.333   4.918   9.159  1.00  0.00     0.124 S 
ATOM     71  O   UNL     1       6.767   4.147   8.055  1.00  0.00    -0.237 OA
ATOM     72  O   UNL     1       8.092   4.161  10.147  1.00  0.00    -0.237 OA
ATOM     73  O   UNL     1       6.451   5.949   9.704  1.00  0.00    -0.744 OA
ENDBRANCH  66  70
ENDBRANCH  49  63
BRANCH  50  74
ATOM     74  C   UNL     1      16.186   0.913   0.149  1.00  0.00     0.023 A 
ATOM     75  C   UNL     1      17.118  -0.046   0.575  1.00  0.00     0.031 A 
ATOM     76  C   UNL     1      16.106   1.192  -1.227  1.00  0.00     0.131 A 
ATOM     77  C   UNL     1      17.958  -0.668  -0.362  1.00  0.00     0.055 A 
ATOM     78  C   UNL     1      16.912   0.538  -2.160  1.00  0.00     0.041 A 
ATOM     79  F   UNL     1      15.228   2.099  -1.685  1.00  0.00    -0.206 F 
ATOM     80  C   UNL     1      17.852  -0.392  -1.727  1.00  0.00     0.022 A 
BRANCH  77  81
ATOM     81  S   UNL     1      19.234  -1.810   0.237  1.00  0.00     0.124 S 
ATOM     82  O   UNL     1      20.034  -0.940   1.090  1.00  0.00    -0.237 OA
ATOM     83  O   UNL     1      18.437  -2.824   0.920  1.00  0.00    -0.237 OA
ATOM     84  O   UNL     1      19.890  -2.259  -0.989  1.00  0.00    -0.744 OA
ENDBRANCH  77  81
ENDBRANCH  50  74
BRANCH  62  85
ATOM     85  C   UNL     1      17.570   5.397   5.306  1.00  0.00     0.023 A 
ATOM     86  C   UNL     1      18.391   6.264   4.563  1.00  0.00     0.031 A 
ATOM     87  C   UNL     1      18.000   5.018   6.590  1.00  0.00     0.131 A 
ATOM     88  C   UNL     1      19.625   6.679   5.088  1.00  0.00     0.055 A 
ATOM     89  C   UNL     1      19.201   5.479   7.130  1.00  0.00     0.041 A 
ATOM     90  F   UNL     1      17.257   4.190   7.342  1.00  0.00    -0.206 F 
ATOM     91  C   UNL     1      20.028   6.304   6.373  1.00  0.00     0.022 A 
BRANCH  88  92
ATOM     92  S   UNL     1      20.743   7.642   4.032  1.00  0.00     0.124 S 
ATOM     93  O   UNL     1      20.931   6.748   2.894  1.00  0.00    -0.237 OA
ATOM     94  O   UNL     1      19.966   8.849   3.774  1.00  0.00    -0.237 OA
ATOM     95  O   UNL     1      21.926   7.834   4.870  1.00  0.00    -0.744 OA
ENDBRANCH  88  92
ENDBRANCH  62  85
ENDBRANCH  36  37
ENDBRANCH  29  31
ENDBRANCH  28  29
ENDBRANCH  27  28
ENDBRANCH  26  27
ENDBRANCH  25  26
ENDBRANCH   1  25
TORSDOF 21
