REMARK SMILES O=C(COc1cccc(C(=O)OCCOCCOC(=O)c2ccc(-c3c4nc(c(-c5cc(S(=O)(=O)[O-])ccc5F)c5ccc([nH]5)c(-c5cc(S(=O)(=O)[O-])ccc5F)c5nc(c(-c6cc(S(=O)(=O)[O-])ccc6F)c6ccc3[nH]6)C=C5)C=C4)cc2)c1)NCCc1cccs1
REMARK SMILES IDX 13 1 12 2 10 3 11 4 9 5 5 6 6 7 84 8 7 9 8 10 4 11 3 12 2 13
REMARK SMILES IDX 1 14 85 15 86 17 87 18 88 19 89 20 92 21 90 22 91 23 14 24
REMARK SMILES IDX 15 25 16 26 17 27 18 28 19 29 20 30 21 31 22 32 83 33 23 34
REMARK SMILES IDX 82 35 24 36 25 37 26 38 76 39 27 40 81 41 75 42 77 43 28 44
REMARK SMILES IDX 80 45 74 46 73 47 29 49 61 50 41 51 60 52 42 53 45 54 59 55
REMARK SMILES IDX 78 56 43 57 44 58 58 60 79 61 46 62 30 63 31 64 39 65 32 66
REMARK SMILES IDX 38 67 40 68 37 69 33 70 34 71 35 72 36 73 62 74 63 75 71 76
REMARK SMILES IDX 64 77 70 78 72 79 69 80 65 81 66 82 67 83 68 84 47 85 48 86
REMARK SMILES IDX 56 87 49 88 55 89 57 90 54 91 50 92 51 93 52 94 53 95
REMARK H PARENT 85 16 77 48 45 59
REMARK Flexibility Score: inf
ROOT
ATOM      1  C   UNL     1      -1.107  -0.950  -4.099  1.00  0.00     0.261 C 
ENDROOT
BRANCH   1   2
ATOM      2  O   UNL     1      -0.134  -1.452  -3.172  1.00  0.00    -0.460 OA
BRANCH   2   3
ATOM      3  C   UNL     1      -0.120  -2.792  -2.973  1.00  0.00     0.338 C 
ATOM      4  O   UNL     1      -0.923  -3.609  -3.402  1.00  0.00    -0.246 OA
BRANCH   3   5
ATOM      5  C   UNL     1       1.138  -3.171  -2.280  1.00  0.00     0.063 A 
ATOM      6  C   UNL     1       3.039  -2.611  -0.882  1.00  0.00     0.120 A 
ATOM      7  C   UNL     1       3.582  -3.872  -1.128  1.00  0.00     0.046 A 
ATOM      8  C   UNL     1       1.831  -2.255  -1.482  1.00  0.00     0.062 A 
ATOM      9  C   UNL     1       2.896  -4.792  -1.925  1.00  0.00     0.005 A 
ATOM     10  C   UNL     1       1.670  -4.446  -2.494  1.00  0.00     0.016 A 
BRANCH   6  11
ATOM     11  O   UNL     1       3.791  -1.758  -0.117  1.00  0.00    -0.484 OA
BRANCH  11  12
ATOM     12  C   UNL     1       3.056  -1.043   0.881  1.00  0.00     0.329 C 
BRANCH  12  13
ATOM     13  C   UNL     1       2.266   0.170   0.379  1.00  0.00     0.257 C 
ATOM     14  O   UNL     1       1.163   0.467   0.824  1.00  0.00    -0.271 OA
ATOM     15  N   UNL     1       2.892   0.840  -0.644  1.00  0.00    -0.353 N 
ATOM     16  H   UNL     1       3.820   0.588  -0.857  1.00  0.00     0.163 HD
BRANCH  15  17
ATOM     17  C   UNL     1       2.278   1.892  -1.431  1.00  0.00     0.121 C 
BRANCH  17  18
ATOM     18  C   UNL     1       2.842   3.277  -1.123  1.00  0.00     0.068 C 
BRANCH  18  19
ATOM     19  C   UNL     1       4.296   3.522  -1.468  1.00  0.00     0.006 A 
ATOM     20  C   UNL     1       4.907   4.762  -1.542  1.00  0.00     0.015 A 
ATOM     21  S   UNL     1       5.426   2.273  -1.797  1.00  0.00    -0.149 S 
ATOM     22  C   UNL     1       6.297   4.677  -1.841  1.00  0.00     0.012 A 
ATOM     23  C   UNL     1       6.712   3.375  -1.992  1.00  0.00     0.065 A 
ENDBRANCH  18  19
ENDBRANCH  17  18
ENDBRANCH  15  17
ENDBRANCH  12  13
ENDBRANCH  11  12
ENDBRANCH   6  11
ENDBRANCH   3   5
ENDBRANCH   2   3
ENDBRANCH   1   2
BRANCH   1  24
ATOM     24  C   UNL     1      -0.441  -0.507  -5.406  1.00  0.00     0.202 C 
BRANCH  24  25
ATOM     25  O   UNL     1       0.173  -1.539  -6.180  1.00  0.00    -0.374 OA
BRANCH  25  26
ATOM     26  C   UNL     1       1.488  -1.938  -5.795  1.00  0.00     0.202 C 
BRANCH  26  27
ATOM     27  C   UNL     1       2.652  -1.064  -6.277  1.00  0.00     0.261 C 
BRANCH  27  28
ATOM     28  O   UNL     1       2.611   0.265  -5.730  1.00  0.00    -0.460 OA
BRANCH  28  29
ATOM     29  C   UNL     1       2.155   1.207  -6.593  1.00  0.00     0.338 C 
ATOM     30  O   UNL     1       1.830   1.041  -7.757  1.00  0.00    -0.246 OA
BRANCH  29  31
ATOM     31  C   UNL     1       1.934   2.475  -5.875  1.00  0.00     0.060 A 
ATOM     32  C   UNL     1       0.677   3.080  -5.992  1.00  0.00     0.016 A 
ATOM     33  C   UNL     1       2.959   3.102  -5.167  1.00  0.00     0.016 A 
ATOM     34  C   UNL     1       0.452   4.338  -5.437  1.00  0.00     0.010 A 
ATOM     35  C   UNL     1       2.732   4.368  -4.619  1.00  0.00     0.010 A 
ATOM     36  C   UNL     1       1.487   5.007  -4.772  1.00  0.00    -0.014 A 
BRANCH  36  37
ATOM     37  C   UNL     1       1.318   6.428  -4.367  1.00  0.00     0.031 A 
ATOM     38  C   UNL     1       2.038   7.497  -5.147  1.00  0.00     0.074 A 
ATOM     39  C   UNL     1       0.520   6.765  -3.336  1.00  0.00     0.049 A 
ATOM     40  N   UNL     1       2.083   8.788  -4.942  1.00  0.00    -0.248 NA
ATOM     41  C   UNL     1       2.820   7.045  -6.308  1.00  0.00     0.031 C 
ATOM     42  C   UNL     1      -0.260   5.826  -2.530  1.00  0.00     0.029 A 
ATOM     43  N   UNL     1       0.234   7.992  -2.789  1.00  0.00    -0.354 N 
ATOM     44  C   UNL     1       2.905   9.302  -5.940  1.00  0.00     0.074 A 
ATOM     45  C   UNL     1       3.375   8.175  -6.718  1.00  0.00     0.031 C 
ATOM     46  C   UNL     1      -0.934   6.512  -1.590  1.00  0.00     0.029 A 
ATOM     47  C   UNL     1      -0.603   7.931  -1.698  1.00  0.00     0.049 A 
ATOM     48  H   UNL     1       0.596   8.836  -3.143  1.00  0.00     0.167 HD
ATOM     49  C   UNL     1       3.226  10.594  -6.193  1.00  0.00     0.034 A 
ATOM     50  C   UNL     1      -1.036   8.905  -0.871  1.00  0.00     0.034 A 
ATOM     51  C   UNL     1       2.745  11.708  -5.413  1.00  0.00     0.049 A 
ATOM     52  C   UNL     1      -0.603  10.331  -1.128  1.00  0.00     0.074 A 
ATOM     53  C   UNL     1       2.992  13.057  -5.596  1.00  0.00     0.029 A 
ATOM     54  N   UNL     1       1.927  11.604  -4.295  1.00  0.00    -0.354 N 
ATOM     55  N   UNL     1       0.168  10.803  -2.082  1.00  0.00    -0.248 NA
ATOM     56  C   UNL     1      -1.108  11.356  -0.205  1.00  0.00     0.031 C 
ATOM     57  C   UNL     1       2.393  13.760  -4.546  1.00  0.00     0.029 A 
ATOM     58  C   UNL     1       1.691  12.861  -3.760  1.00  0.00     0.049 A 
ATOM     59  H   UNL     1       1.567  10.761  -3.936  1.00  0.00     0.167 HD
ATOM     60  C   UNL     1       0.202  12.184  -1.895  1.00  0.00     0.074 A 
ATOM     61  C   UNL     1      -0.633  12.467  -0.747  1.00  0.00     0.031 C 
ATOM     62  C   UNL     1       0.857  13.133  -2.612  1.00  0.00     0.034 A 
BRANCH  49  63
ATOM     63  C   UNL     1       4.179  10.867  -7.333  1.00  0.00     0.023 A 
ATOM     64  C   UNL     1       3.853  10.562  -8.666  1.00  0.00     0.031 A 
ATOM     65  C   UNL     1       5.443  11.429  -7.078  1.00  0.00     0.131 A 
ATOM     66  C   UNL     1       4.802  10.759  -9.681  1.00  0.00     0.055 A 
ATOM     67  C   UNL     1       6.350  11.701  -8.103  1.00  0.00     0.041 A 
ATOM     68  F   UNL     1       5.822  11.717  -5.822  1.00  0.00    -0.206 F 
ATOM     69  C   UNL     1       6.037  11.353  -9.413  1.00  0.00     0.022 A 
BRANCH  66  70
ATOM     70  S   UNL     1       4.453  10.100 -11.335  1.00  0.00     0.124 S 
ATOM     71  O   UNL     1       4.271   8.678 -11.051  1.00  0.00    -0.237 OA
ATOM     72  O   UNL     1       3.253  10.833 -11.720  1.00  0.00    -0.237 OA
ATOM     73  O   UNL     1       5.657  10.427 -12.095  1.00  0.00    -0.744 OA
ENDBRANCH  66  70
ENDBRANCH  49  63
BRANCH  50  74
ATOM     74  C   UNL     1      -1.897   8.578   0.305  1.00  0.00     0.023 A 
ATOM     75  C   UNL     1      -3.187   9.116   0.436  1.00  0.00     0.031 A 
ATOM     76  C   UNL     1      -1.409   7.779   1.355  1.00  0.00     0.131 A 
ATOM     77  C   UNL     1      -3.921   8.899   1.613  1.00  0.00     0.055 A 
ATOM     78  C   UNL     1      -2.169   7.512   2.496  1.00  0.00     0.041 A 
ATOM     79  F   UNL     1      -0.180   7.243   1.287  1.00  0.00    -0.206 F 
ATOM     80  C   UNL     1      -3.428   8.087   2.637  1.00  0.00     0.022 A 
BRANCH  77  81
ATOM     81  S   UNL     1      -5.487   9.789   1.837  1.00  0.00     0.124 S 
ATOM     82  O   UNL     1      -5.059  11.177   1.703  1.00  0.00    -0.237 OA
ATOM     83  O   UNL     1      -6.295   9.258   0.744  1.00  0.00    -0.237 OA
ATOM     84  O   UNL     1      -5.914   9.393   3.177  1.00  0.00    -0.744 OA
ENDBRANCH  77  81
ENDBRANCH  50  74
BRANCH  62  85
ATOM     85  C   UNL     1       0.644  14.575  -2.213  1.00  0.00     0.023 A 
ATOM     86  C   UNL     1       1.075  15.080  -0.974  1.00  0.00     0.031 A 
ATOM     87  C   UNL     1      -0.010  15.459  -3.092  1.00  0.00     0.131 A 
ATOM     88  C   UNL     1       0.793  16.410  -0.624  1.00  0.00     0.055 A 
ATOM     89  C   UNL     1      -0.225  16.798  -2.767  1.00  0.00     0.041 A 
ATOM     90  F   UNL     1      -0.447  15.033  -4.289  1.00  0.00    -0.206 F 
ATOM     91  C   UNL     1       0.164  17.277  -1.520  1.00  0.00     0.022 A 
BRANCH  88  92
ATOM     92  S   UNL     1       1.166  16.965   1.062  1.00  0.00     0.124 S 
ATOM     93  O   UNL     1       0.402  16.018   1.869  1.00  0.00    -0.237 OA
ATOM     94  O   UNL     1       2.617  16.827   1.122  1.00  0.00    -0.237 OA
ATOM     95  O   UNL     1       0.673  18.341   1.088  1.00  0.00    -0.744 OA
ENDBRANCH  88  92
ENDBRANCH  62  85
ENDBRANCH  36  37
ENDBRANCH  29  31
ENDBRANCH  28  29
ENDBRANCH  27  28
ENDBRANCH  26  27
ENDBRANCH  25  26
ENDBRANCH  24  25
ENDBRANCH   1  24
TORSDOF 23
