REMARK SMILES CN(C)S(=O)(=O)c1c[nH]c(C(=O)OCCOCCOC(=O)c2ccc(-c3c4nc(c(-c5cc(S(=O)(=O)[O-])ccc5F)c5ccc([nH]5)c(-c5cc(S(=O)(=O)[O-])ccc5F)c5nc(c(-c6cc(S(=O)(=O)[O-])ccc6F)c6ccc3[nH]6)C=C5)C=C4)cc2)c1
REMARK SMILES IDX 17 1 16 2 15 3 14 4 13 5 11 6 12 7 10 8 7 9 8 10 85 11 9 12
REMARK SMILES IDX 4 14 5 15 6 16 2 17 1 18 3 19 18 20 19 21 20 22 21 23 22 24
REMARK SMILES IDX 23 25 84 26 24 27 83 28 25 29 26 30 27 31 77 32 28 33 82 34
REMARK SMILES IDX 76 35 78 36 29 37 81 38 75 39 74 40 30 42 62 43 42 44 61 45
REMARK SMILES IDX 43 46 46 47 60 48 79 49 44 50 45 51 59 53 80 54 47 55 31 56
REMARK SMILES IDX 32 57 40 58 33 59 39 60 41 61 38 62 34 63 35 64 36 65 37 66
REMARK SMILES IDX 63 67 64 68 72 69 65 70 71 71 73 72 70 73 66 74 67 75 68 76
REMARK SMILES IDX 69 77 48 78 49 79 57 80 50 81 56 82 58 83 55 84 51 85 52 86
REMARK SMILES IDX 53 87 54 88
REMARK H PARENT 9 13 78 41 46 52
REMARK Flexibility Score: inf
ROOT
ATOM      1  C   UNL     1      -0.155   6.844   6.375  1.00  0.00     0.202 C 
ENDROOT
BRANCH   1   2
ATOM      2  O   UNL     1      -1.407   7.302   6.874  1.00  0.00    -0.374 OA
BRANCH   2   3
ATOM      3  C   UNL     1      -2.438   6.375   7.212  1.00  0.00     0.202 C 
BRANCH   3   4
ATOM      4  C   UNL     1      -3.206   5.711   6.071  1.00  0.00     0.261 C 
BRANCH   4   5
ATOM      5  O   UNL     1      -2.376   4.832   5.297  1.00  0.00    -0.459 OA
BRANCH   5   6
ATOM      6  C   UNL     1      -1.961   5.348   4.113  1.00  0.00     0.354 C 
ATOM      7  O   UNL     1      -2.323   6.416   3.630  1.00  0.00    -0.244 OA
BRANCH   6   8
ATOM      8  C   UNL     1      -0.891   4.558   3.562  1.00  0.00     0.126 A 
ATOM      9  C   UNL     1       0.524   2.975   2.794  1.00  0.00     0.100 A 
ATOM     10  C   UNL     1       0.960   4.198   2.330  1.00  0.00     0.105 A 
ATOM     11  C   UNL     1      -0.594   3.207   3.641  1.00  0.00     0.057 A 
ATOM     12  N   UNL     1       0.098   5.145   2.800  1.00  0.00    -0.354 N 
ATOM     13  H   UNL     1       0.171   6.111   2.622  1.00  0.00     0.166 HD
BRANCH   9  14
ATOM     14  S   UNL     1       1.121   1.434   2.287  1.00  0.00     0.244 S 
ATOM     15  O   UNL     1       0.468   0.470   3.135  1.00  0.00    -0.207 OA
ATOM     16  O   UNL     1       2.564   1.592   2.247  1.00  0.00    -0.207 OA
BRANCH  14  17
ATOM     17  N   UNL     1       0.560   1.210   0.683  1.00  0.00    -0.204 NA
ATOM     18  C   UNL     1       1.155   0.032   0.022  1.00  0.00     0.124 C 
ATOM     19  C   UNL     1      -0.912   1.238   0.545  1.00  0.00     0.124 C 
ENDBRANCH  14  17
ENDBRANCH   9  14
ENDBRANCH   6   8
ENDBRANCH   5   6
ENDBRANCH   4   5
ENDBRANCH   3   4
ENDBRANCH   2   3
ENDBRANCH   1   2
BRANCH   1  20
ATOM     20  C   UNL     1       0.794   6.069   7.277  1.00  0.00     0.261 C 
BRANCH  20  21
ATOM     21  O   UNL     1       0.182   4.958   7.904  1.00  0.00    -0.460 OA
BRANCH  21  22
ATOM     22  C   UNL     1      -0.255   5.288   9.140  1.00  0.00     0.338 C 
ATOM     23  O   UNL     1      -0.555   6.399   9.548  1.00  0.00    -0.246 OA
BRANCH  22  24
ATOM     24  C   UNL     1      -0.110   4.148  10.029  1.00  0.00     0.060 A 
ATOM     25  C   UNL     1      -0.648   4.338  11.303  1.00  0.00     0.016 A 
ATOM     26  C   UNL     1       0.927   3.246   9.754  1.00  0.00     0.016 A 
ATOM     27  C   UNL     1       0.018   3.785  12.362  1.00  0.00     0.010 A 
ATOM     28  C   UNL     1       1.625   2.733  10.816  1.00  0.00     0.010 A 
ATOM     29  C   UNL     1       1.177   3.040  12.106  1.00  0.00    -0.014 A 
BRANCH  29  30
ATOM     30  C   UNL     1       1.758   2.337  13.241  1.00  0.00     0.031 A 
ATOM     31  C   UNL     1       0.932   1.018  13.436  1.00  0.00     0.074 A 
ATOM     32  C   UNL     1       2.777   3.021  13.857  1.00  0.00     0.049 A 
ATOM     33  N   UNL     1       0.666   0.318  14.496  1.00  0.00    -0.248 NA
ATOM     34  C   UNL     1       0.186   0.452  12.255  1.00  0.00     0.031 C 
ATOM     35  C   UNL     1       3.394   4.310  13.423  1.00  0.00     0.029 A 
ATOM     36  N   UNL     1       3.510   2.786  14.987  1.00  0.00    -0.354 N 
ATOM     37  C   UNL     1       0.011  -0.865  14.062  1.00  0.00     0.074 A 
ATOM     38  C   UNL     1      -0.398  -0.649  12.717  1.00  0.00     0.031 C 
ATOM     39  C   UNL     1       4.291   4.771  14.337  1.00  0.00     0.029 A 
ATOM     40  C   UNL     1       4.363   3.843  15.447  1.00  0.00     0.049 A 
ATOM     41  H   UNL     1       3.454   1.928  15.465  1.00  0.00     0.167 HD
ATOM     42  C   UNL     1       0.022  -2.027  14.772  1.00  0.00     0.034 A 
ATOM     43  C   UNL     1       4.984   3.945  16.675  1.00  0.00     0.034 A 
ATOM     44  C   UNL     1       0.681  -1.818  16.012  1.00  0.00     0.049 A 
ATOM     45  C   UNL     1       4.565   2.685  17.310  1.00  0.00     0.074 A 
ATOM     46  C   UNL     1       0.322  -1.442  17.279  1.00  0.00     0.029 A 
ATOM     47  N   UNL     1       2.045  -1.944  15.965  1.00  0.00    -0.354 N 
ATOM     48  N   UNL     1       5.020   1.512  17.010  1.00  0.00    -0.248 NA
ATOM     49  C   UNL     1       3.343   2.744  18.108  1.00  0.00     0.031 C 
ATOM     50  C   UNL     1       1.544  -1.157  17.937  1.00  0.00     0.029 A 
ATOM     51  C   UNL     1       2.550  -1.173  16.970  1.00  0.00     0.049 A 
ATOM     52  H   UNL     1       2.561  -2.488  15.327  1.00  0.00     0.167 HD
ATOM     53  C   UNL     1       4.004   0.659  17.365  1.00  0.00     0.074 A 
ATOM     54  C   UNL     1       3.029   1.455  18.107  1.00  0.00     0.031 C 
ATOM     55  C   UNL     1       3.815  -0.533  16.745  1.00  0.00     0.034 A 
BRANCH  42  56
ATOM     56  C   UNL     1      -0.202  -3.477  14.382  1.00  0.00     0.023 A 
ATOM     57  C   UNL     1      -0.170  -4.399  15.459  1.00  0.00     0.031 A 
ATOM     58  C   UNL     1      -0.058  -4.029  13.101  1.00  0.00     0.131 A 
ATOM     59  C   UNL     1       0.190  -5.739  15.276  1.00  0.00     0.055 A 
ATOM     60  C   UNL     1       0.209  -5.399  12.910  1.00  0.00     0.041 A 
ATOM     61  F   UNL     1      -0.078  -3.271  11.996  1.00  0.00    -0.206 F 
ATOM     62  C   UNL     1       0.384  -6.250  14.001  1.00  0.00     0.022 A 
BRANCH  59  63
ATOM     63  S   UNL     1       0.595  -6.711  16.756  1.00  0.00     0.124 S 
ATOM     64  O   UNL     1       1.665  -5.924  17.358  1.00  0.00    -0.237 OA
ATOM     65  O   UNL     1      -0.677  -6.713  17.474  1.00  0.00    -0.237 OA
ATOM     66  O   UNL     1       1.001  -8.004  16.211  1.00  0.00    -0.744 OA
ENDBRANCH  59  63
ENDBRANCH  42  56
BRANCH  43  67
ATOM     67  C   UNL     1       5.732   4.908  17.602  1.00  0.00     0.023 A 
ATOM     68  C   UNL     1       6.330   6.141  17.280  1.00  0.00     0.031 A 
ATOM     69  C   UNL     1       5.808   4.571  18.999  1.00  0.00     0.131 A 
ATOM     70  C   UNL     1       6.873   6.973  18.316  1.00  0.00     0.055 A 
ATOM     71  C   UNL     1       6.258   5.422  20.009  1.00  0.00     0.041 A 
ATOM     72  F   UNL     1       5.432   3.373  19.467  1.00  0.00    -0.206 F 
ATOM     73  C   UNL     1       6.780   6.644  19.672  1.00  0.00     0.022 A 
BRANCH  70  74
ATOM     74  S   UNL     1       7.734   8.538  17.946  1.00  0.00     0.124 S 
ATOM     75  O   UNL     1       9.085   8.077  17.647  1.00  0.00    -0.237 OA
ATOM     76  O   UNL     1       6.970   9.070  16.823  1.00  0.00    -0.237 OA
ATOM     77  O   UNL     1       7.605   9.301  19.189  1.00  0.00    -0.744 OA
ENDBRANCH  70  74
ENDBRANCH  43  67
BRANCH  55  78
ATOM     78  C   UNL     1       4.765  -0.806  15.573  1.00  0.00     0.023 A 
ATOM     79  C   UNL     1       6.110  -1.137  15.778  1.00  0.00     0.031 A 
ATOM     80  C   UNL     1       4.381  -0.613  14.224  1.00  0.00     0.131 A 
ATOM     81  C   UNL     1       6.995  -1.260  14.683  1.00  0.00     0.055 A 
ATOM     82  C   UNL     1       5.254  -0.730  13.136  1.00  0.00     0.041 A 
ATOM     83  F   UNL     1       3.122  -0.309  13.911  1.00  0.00    -0.206 F 
ATOM     84  C   UNL     1       6.577  -1.057  13.365  1.00  0.00     0.022 A 
BRANCH  81  85
ATOM     85  S   UNL     1       8.722  -1.720  14.987  1.00  0.00     0.124 S 
ATOM     86  O   UNL     1       9.255  -0.535  15.649  1.00  0.00    -0.237 OA
ATOM     87  O   UNL     1       8.588  -2.912  15.818  1.00  0.00    -0.237 OA
ATOM     88  O   UNL     1       9.253  -1.968  13.646  1.00  0.00    -0.744 OA
ENDBRANCH  81  85
ENDBRANCH  55  78
ENDBRANCH  29  30
ENDBRANCH  22  24
ENDBRANCH  21  22
ENDBRANCH  20  21
ENDBRANCH   1  20
TORSDOF 19
