REMARK SMILES C=C[C@@H]1[C@@H](O)C[C@@H]2[C@@]3(CC[C@@]4(C)[C@@H]([C@H](C)CCC=C(C)C)CC[C@@]24C)C[C@@]13CCC(=O)OCCOCCOC(=O)c1ccc(-c2c3nc(c(-c4cc(S(=O)(=O)[O-])ccc4F)c4ccc([nH]4)c(-c4cc(S(=O)(=O)[O-])ccc4F)c4nc(c(-c5cc(S(=O)(=O)[O-])ccc5F)c5ccc2[nH]5)C=C4)C=C3)cc1
REMARK SMILES IDX 33 1 32 2 30 3 31 4 29 5 28 6 27 7 3 8 4 9 6 10 8 11 26 12
REMARK SMILES IDX 7 13 9 14 24 15 10 16 11 17 23 18 25 19 12 20 13 21 22 22
REMARK SMILES IDX 2 23 1 24 5 25 14 27 15 28 16 29 17 30 18 31 19 32 20 33
REMARK SMILES IDX 21 34 34 35 35 36 36 37 37 38 38 39 39 40 40 41 41 42 42 43
REMARK SMILES IDX 103 44 43 45 102 46 44 47 45 48 46 49 96 50 47 51 101 52
REMARK SMILES IDX 95 53 97 54 48 55 100 56 94 57 93 58 49 60 81 61 61 62 80 63
REMARK SMILES IDX 62 64 65 65 79 66 98 67 63 68 64 69 78 71 99 72 66 73 50 74
REMARK SMILES IDX 51 75 59 76 52 77 58 78 60 79 57 80 53 81 54 82 55 83 56 84
REMARK SMILES IDX 82 85 83 86 91 87 84 88 90 89 92 90 89 91 85 92 86 93 87 94
REMARK SMILES IDX 88 95 67 96 68 97 76 98 69 99 75 100 77 101 74 102 70 103
REMARK SMILES IDX 71 104 72 105 73 106
REMARK H PARENT 5 26 97 59 65 70
REMARK Flexibility Score: inf
ROOT
ATOM      1  C   UNL     1      -0.533  -5.203   4.188  1.00  0.00     0.261 C 
ENDROOT
BRANCH   1   2
ATOM      2  O   UNL     1      -0.156  -6.324   4.964  1.00  0.00    -0.463 OA
BRANCH   2   3
ATOM      3  C   UNL     1      -1.188  -7.239   4.953  1.00  0.00     0.305 C 
ATOM      4  O   UNL     1      -2.025  -7.367   4.098  1.00  0.00    -0.252 OA
BRANCH   3   5
ATOM      5  C   UNL     1      -1.196  -8.050   6.208  1.00  0.00     0.123 C 
BRANCH   5   6
ATOM      6  C   UNL     1      -1.446  -7.186   7.445  1.00  0.00     0.020 C 
BRANCH   6   7
ATOM      7  C   UNL     1      -2.779  -6.421   7.469  1.00  0.00    -0.014 C 
ATOM      8  C   UNL     1      -4.075  -7.271   7.676  1.00  0.00     0.047 C 
ATOM      9  C   UNL     1      -5.212  -6.865   6.706  1.00  0.00     0.122 C 
ATOM     10  C   UNL     1      -5.302  -5.357   6.494  1.00  0.00     0.037 C 
ATOM     11  C   UNL     1      -2.829  -4.955   6.850  1.00  0.00    -0.019 C 
ATOM     12  C   UNL     1      -2.894  -5.213   8.348  1.00  0.00     0.016 C 
ATOM     13  C   UNL     1      -4.011  -4.827   5.839  1.00  0.00     0.005 C 
ATOM     14  C   UNL     1      -1.660  -3.993   6.647  1.00  0.00     0.008 C 
ATOM     15  C   UNL     1      -4.198  -3.398   5.224  1.00  0.00    -0.023 C 
ATOM     16  C   UNL     1      -1.820  -2.899   5.574  1.00  0.00     0.008 C 
ATOM     17  C   UNL     1      -2.907  -2.929   4.459  1.00  0.00    -0.024 C 
ATOM     18  C   UNL     1      -5.246  -3.317   4.096  1.00  0.00     0.008 C 
ATOM     19  C   UNL     1      -4.624  -2.492   6.410  1.00  0.00     0.012 C 
ATOM     20  C   UNL     1      -3.007  -1.379   4.086  1.00  0.00     0.012 C 
ATOM     21  C   UNL     1      -2.981  -3.581   2.904  1.00  0.00    -0.002 C 
ATOM     22  C   UNL     1      -4.544  -3.427   2.728  1.00  0.00     0.005 C 
BRANCH   8  23
ATOM     23  C   UNL     1      -3.948  -8.780   7.715  1.00  0.00    -0.028 C 
ATOM     24  C   UNL     1      -3.798  -9.493   8.841  1.00  0.00     0.004 C 
ENDBRANCH   8  23
BRANCH   9  25
ATOM     25  O   UNL     1      -6.476  -7.307   7.222  1.00  0.00    -0.392 OA
ATOM     26  H   UNL     1      -6.651  -6.868   8.069  1.00  0.00     0.210 HD
ENDBRANCH   9  25
BRANCH  21  27
ATOM     27  C   UNL     1      -2.514  -4.821   1.837  1.00  0.00    -0.010 C 
ATOM     28  C   UNL     1      -3.415  -6.062   1.784  1.00  0.00     0.008 C 
BRANCH  27  29
ATOM     29  C   UNL     1      -1.077  -5.077   1.065  1.00  0.00     0.008 C 
BRANCH  29  30
ATOM     30  C   UNL     1       0.177  -6.014   1.392  1.00  0.00     0.027 C 
BRANCH  30  31
ATOM     31  C   UNL     1       0.489  -7.450   1.023  1.00  0.00    -0.028 C 
ATOM     32  C   UNL     1       1.321  -8.251   1.752  1.00  0.00    -0.080 C 
ATOM     33  C   UNL     1       1.876  -9.543   1.205  1.00  0.00     0.039 C 
ATOM     34  C   UNL     1       1.885  -7.948   3.131  1.00  0.00     0.039 C 
ENDBRANCH  30  31
ENDBRANCH  29  30
ENDBRANCH  27  29
ENDBRANCH  21  27
ENDBRANCH   6   7
ENDBRANCH   5   6
ENDBRANCH   3   5
ENDBRANCH   2   3
ENDBRANCH   1   2
BRANCH   1  35
ATOM     35  C   UNL     1       0.504  -4.105   3.875  1.00  0.00     0.202 C 
BRANCH  35  36
ATOM     36  O   UNL     1       1.271  -3.748   5.014  1.00  0.00    -0.374 OA
BRANCH  36  37
ATOM     37  C   UNL     1       2.064  -2.574   4.777  1.00  0.00     0.202 C 
BRANCH  37  38
ATOM     38  C   UNL     1       2.156  -1.801   6.093  1.00  0.00     0.261 C 
BRANCH  38  39
ATOM     39  O   UNL     1       0.899  -1.190   6.476  1.00  0.00    -0.460 OA
BRANCH  39  40
ATOM     40  C   UNL     1       0.568  -0.022   5.860  1.00  0.00     0.338 C 
ATOM     41  O   UNL     1       1.231   0.516   4.988  1.00  0.00    -0.246 OA
BRANCH  40  42
ATOM     42  C   UNL     1      -0.782   0.460   6.309  1.00  0.00     0.060 A 
ATOM     43  C   UNL     1      -1.492   1.354   5.490  1.00  0.00     0.016 A 
ATOM     44  C   UNL     1      -1.408  -0.022   7.467  1.00  0.00     0.016 A 
ATOM     45  C   UNL     1      -2.833   1.694   5.776  1.00  0.00     0.010 A 
ATOM     46  C   UNL     1      -2.753   0.305   7.744  1.00  0.00     0.010 A 
ATOM     47  C   UNL     1      -3.493   1.156   6.893  1.00  0.00    -0.014 A 
BRANCH  47  48
ATOM     48  C   UNL     1      -4.808   1.728   7.346  1.00  0.00     0.031 A 
ATOM     49  C   UNL     1      -4.698   2.899   8.286  1.00  0.00     0.074 A 
ATOM     50  C   UNL     1      -6.043   1.316   6.970  1.00  0.00     0.049 A 
ATOM     51  N   UNL     1      -5.634   3.674   8.764  1.00  0.00    -0.248 NA
ATOM     52  C   UNL     1      -3.334   3.265   8.703  1.00  0.00     0.031 C 
ATOM     53  C   UNL     1      -6.350   0.280   5.991  1.00  0.00     0.029 A 
ATOM     54  N   UNL     1      -7.299   1.722   7.386  1.00  0.00    -0.354 N 
ATOM     55  C   UNL     1      -4.964   4.658   9.477  1.00  0.00     0.074 A 
ATOM     56  C   UNL     1      -3.557   4.330   9.447  1.00  0.00     0.031 C 
ATOM     57  C   UNL     1      -7.676   0.045   5.966  1.00  0.00     0.029 A 
ATOM     58  C   UNL     1      -8.345   0.983   6.859  1.00  0.00     0.049 A 
ATOM     59  H   UNL     1      -7.438   2.475   8.005  1.00  0.00     0.167 HD
ATOM     60  C   UNL     1      -5.461   5.766  10.073  1.00  0.00     0.034 A 
ATOM     61  C   UNL     1      -9.685   1.072   7.039  1.00  0.00     0.034 A 
ATOM     62  C   UNL     1      -6.861   6.060  10.179  1.00  0.00     0.049 A 
ATOM     63  C   UNL     1     -10.228   2.231   7.850  1.00  0.00     0.074 A 
ATOM     64  C   UNL     1      -7.471   7.122  10.819  1.00  0.00     0.029 A 
ATOM     65  N   UNL     1      -7.875   5.264   9.663  1.00  0.00    -0.354 N 
ATOM     66  N   UNL     1      -9.570   3.204   8.438  1.00  0.00    -0.248 NA
ATOM     67  C   UNL     1     -11.691   2.341   7.974  1.00  0.00     0.031 C 
ATOM     68  C   UNL     1      -8.855   6.933  10.750  1.00  0.00     0.029 A 
ATOM     69  C   UNL     1      -9.108   5.791  10.005  1.00  0.00     0.049 A 
ATOM     70  H   UNL     1      -7.737   4.446   9.133  1.00  0.00     0.167 HD
ATOM     71  C   UNL     1     -10.539   4.067   8.944  1.00  0.00     0.074 A 
ATOM     72  C   UNL     1     -11.825   3.506   8.590  1.00  0.00     0.031 C 
ATOM     73  C   UNL     1     -10.381   5.227   9.630  1.00  0.00     0.034 A 
BRANCH  60  74
ATOM     74  C   UNL     1      -4.445   6.677  10.701  1.00  0.00     0.023 A 
ATOM     75  C   UNL     1      -3.502   7.361   9.910  1.00  0.00     0.031 A 
ATOM     76  C   UNL     1      -4.318   6.737  12.097  1.00  0.00     0.131 A 
ATOM     77  C   UNL     1      -2.410   7.988  10.525  1.00  0.00     0.055 A 
ATOM     78  C   UNL     1      -3.276   7.438  12.703  1.00  0.00     0.041 A 
ATOM     79  F   UNL     1      -5.169   6.067  12.889  1.00  0.00    -0.206 F 
ATOM     80  C   UNL     1      -2.304   8.052  11.916  1.00  0.00     0.022 A 
BRANCH  77  81
ATOM     81  S   UNL     1      -1.038   8.555   9.482  1.00  0.00     0.124 S 
ATOM     82  O   UNL     1      -0.542   7.292   8.940  1.00  0.00    -0.237 OA
ATOM     83  O   UNL     1      -1.702   9.441   8.533  1.00  0.00    -0.237 OA
ATOM     84  O   UNL     1      -0.141   9.215  10.428  1.00  0.00    -0.744 OA
ENDBRANCH  77  81
ENDBRANCH  60  74
BRANCH  61  85
ATOM     85  C   UNL     1     -10.641   0.070   6.452  1.00  0.00     0.023 A 
ATOM     86  C   UNL     1     -11.644   0.443   5.536  1.00  0.00     0.031 A 
ATOM     87  C   UNL     1     -10.657  -1.258   6.920  1.00  0.00     0.131 A 
ATOM     88  C   UNL     1     -12.656  -0.470   5.179  1.00  0.00     0.055 A 
ATOM     89  C   UNL     1     -11.635  -2.177   6.522  1.00  0.00     0.041 A 
ATOM     90  F   UNL     1      -9.736  -1.677   7.802  1.00  0.00    -0.206 F 
ATOM     91  C   UNL     1     -12.654  -1.779   5.662  1.00  0.00     0.022 A 
BRANCH  88  92
ATOM     92  S   UNL     1     -14.059   0.116   4.181  1.00  0.00     0.124 S 
ATOM     93  O   UNL     1     -14.520   1.262   4.956  1.00  0.00    -0.237 OA
ATOM     94  O   UNL     1     -13.416   0.418   2.907  1.00  0.00    -0.237 OA
ATOM     95  O   UNL     1     -14.968  -1.029   4.162  1.00  0.00    -0.744 OA
ENDBRANCH  88  92
ENDBRANCH  61  85
BRANCH  73  96
ATOM     96  C   UNL     1     -11.624   5.997   9.997  1.00  0.00     0.023 A 
ATOM     97  C   UNL     1     -12.547   5.508  10.936  1.00  0.00     0.031 A 
ATOM     98  C   UNL     1     -11.867   7.256   9.418  1.00  0.00     0.131 A 
ATOM     99  C   UNL     1     -13.694   6.257  11.241  1.00  0.00     0.055 A 
ATOM    100  C   UNL     1     -12.980   8.021   9.767  1.00  0.00     0.041 A 
ATOM    101  F   UNL     1     -11.015   7.769   8.516  1.00  0.00    -0.206 F 
ATOM    102  C   UNL     1     -13.906   7.518  10.676  1.00  0.00     0.022 A 
BRANCH  99 103
ATOM    103  S   UNL     1     -14.937   5.534  12.344  1.00  0.00     0.124 S 
ATOM    104  O   UNL     1     -15.330   4.333  11.614  1.00  0.00    -0.237 OA
ATOM    105  O   UNL     1     -14.177   5.314  13.570  1.00  0.00    -0.237 OA
ATOM    106  O   UNL     1     -15.963   6.572  12.431  1.00  0.00    -0.744 OA
ENDBRANCH  99 103
ENDBRANCH  73  96
ENDBRANCH  47  48
ENDBRANCH  40  42
ENDBRANCH  39  40
ENDBRANCH  38  39
ENDBRANCH  37  38
ENDBRANCH  36  37
ENDBRANCH  35  36
ENDBRANCH   1  35
TORSDOF 25
