REMARK SMILES CO[C@@H]1C[C@H](C(=O)OCCOCCOC(=O)c2ccc(-c3c4nc(c(-c5cc(S(=O)(=O)[O-])ccc5F)c5ccc([nH]5)c(-c5cc(S(=O)(=O)[O-])ccc5F)c5nc(c(-c6cc(S(=O)(=O)[O-])ccc6F)c6ccc3[nH]6)C=C5)C=C4)cc2)N(C(=O)c2ccn(C)c(=O)c2)C1
REMARK SMILES IDX 12 1 11 2 10 3 9 4 8 5 6 6 7 7 5 8 3 9 4 10 91 11 80 12 2 13
REMARK SMILES IDX 1 14 81 15 82 16 83 17 84 18 90 19 85 20 88 21 86 22 89 23
REMARK SMILES IDX 87 24 13 25 14 26 15 27 16 28 17 29 18 30 79 31 19 32 78 33
REMARK SMILES IDX 20 34 21 35 22 36 72 37 23 38 77 39 71 40 73 41 24 42 76 43
REMARK SMILES IDX 70 44 69 45 25 47 57 48 37 49 56 50 38 51 41 52 55 53 74 54
REMARK SMILES IDX 39 55 40 56 54 58 75 59 42 60 26 61 27 62 35 63 28 64 34 65
REMARK SMILES IDX 36 66 33 67 29 68 30 69 31 70 32 71 58 72 59 73 67 74 60 75
REMARK SMILES IDX 66 76 68 77 65 78 61 79 62 80 63 81 64 82 43 83 44 84 52 85
REMARK SMILES IDX 45 86 51 87 53 88 50 89 46 90 47 91 48 92 49 93
REMARK H PARENT 73 46 41 57
REMARK Flexibility Score: inf
ROOT
ATOM      1  C   UNL     1       4.273   2.192  -0.467  1.00  0.00     0.202 C 
ENDROOT
BRANCH   1   2
ATOM      2  O   UNL     1       4.320   1.741  -1.817  1.00  0.00    -0.374 OA
BRANCH   2   3
ATOM      3  C   UNL     1       3.179   1.042  -2.320  1.00  0.00     0.202 C 
BRANCH   3   4
ATOM      4  C   UNL     1       3.116  -0.444  -1.966  1.00  0.00     0.261 C 
BRANCH   4   5
ATOM      5  O   UNL     1       2.712  -0.589  -0.590  1.00  0.00    -0.462 OA
BRANCH   5   6
ATOM      6  C   UNL     1       3.671  -0.993   0.276  1.00  0.00     0.329 C 
ATOM      7  O   UNL     1       4.775  -1.411  -0.055  1.00  0.00    -0.250 OA
BRANCH   6   8
ATOM      8  C   UNL     1       3.219  -0.899   1.741  1.00  0.00     0.198 C 
ATOM      9  C   UNL     1       0.903  -0.410   2.383  1.00  0.00     0.140 C 
ATOM     10  C   UNL     1       2.259   0.240   2.095  1.00  0.00     0.071 C 
ATOM     11  C   UNL     1       1.112  -1.923   2.257  1.00  0.00     0.152 C 
ATOM     12  N   UNL     1       2.550  -2.121   2.165  1.00  0.00    -0.322 N 
BRANCH   9  13
ATOM     13  O   UNL     1      -0.191   0.137   1.657  1.00  0.00    -0.380 OA
ATOM     14  C   UNL     1      -0.109   0.144   0.240  1.00  0.00     0.195 C 
ENDBRANCH   9  13
BRANCH  12  15
ATOM     15  C   UNL     1       3.120  -3.349   2.420  1.00  0.00     0.254 C 
ATOM     16  O   UNL     1       2.462  -4.345   2.710  1.00  0.00    -0.269 OA
BRANCH  15  17
ATOM     17  C   UNL     1       4.600  -3.461   2.295  1.00  0.00     0.046 A 
ATOM     18  C   UNL     1       5.181  -4.244   1.230  1.00  0.00     0.032 A 
ATOM     19  C   UNL     1       5.376  -2.843   3.195  1.00  0.00     0.085 A 
ATOM     20  C   UNL     1       6.512  -4.314   1.110  1.00  0.00     0.089 A 
ATOM     21  C   UNL     1       6.854  -2.892   3.053  1.00  0.00     0.251 A 
ATOM     22  N   UNL     1       7.346  -3.655   1.996  1.00  0.00    -0.319 N 
ATOM     23  O   UNL     1       7.543  -2.267   3.855  1.00  0.00    -0.269 OA
ATOM     24  C   UNL     1       8.783  -3.767   1.810  1.00  0.00     0.153 C 
ENDBRANCH  15  17
ENDBRANCH  12  15
ENDBRANCH   6   8
ENDBRANCH   5   6
ENDBRANCH   4   5
ENDBRANCH   3   4
ENDBRANCH   2   3
ENDBRANCH   1   2
BRANCH   1  25
ATOM     25  C   UNL     1       3.514   3.497  -0.195  1.00  0.00     0.261 C 
BRANCH  25  26
ATOM     26  O   UNL     1       2.111   3.396  -0.493  1.00  0.00    -0.460 OA
BRANCH  26  27
ATOM     27  C   UNL     1       1.757   3.949  -1.679  1.00  0.00     0.338 C 
ATOM     28  O   UNL     1       2.499   4.535  -2.457  1.00  0.00    -0.246 OA
BRANCH  27  29
ATOM     29  C   UNL     1       0.370   3.590  -2.030  1.00  0.00     0.060 A 
ATOM     30  C   UNL     1       0.144   3.114  -3.328  1.00  0.00     0.016 A 
ATOM     31  C   UNL     1      -0.699   3.776  -1.150  1.00  0.00     0.016 A 
ATOM     32  C   UNL     1      -1.155   2.886  -3.773  1.00  0.00     0.010 A 
ATOM     33  C   UNL     1      -2.006   3.547  -1.601  1.00  0.00     0.010 A 
ATOM     34  C   UNL     1      -2.243   3.140  -2.927  1.00  0.00    -0.014 A 
BRANCH  34  35
ATOM     35  C   UNL     1      -3.619   3.117  -3.487  1.00  0.00     0.031 A 
ATOM     36  C   UNL     1      -4.306   4.420  -3.800  1.00  0.00     0.074 A 
ATOM     37  C   UNL     1      -4.226   1.952  -3.778  1.00  0.00     0.049 A 
ATOM     38  N   UNL     1      -5.509   4.634  -4.269  1.00  0.00    -0.248 NA
ATOM     39  C   UNL     1      -3.530   5.644  -3.552  1.00  0.00     0.031 C 
ATOM     40  C   UNL     1      -3.641   0.626  -3.580  1.00  0.00     0.029 A 
ATOM     41  N   UNL     1      -5.466   1.697  -4.309  1.00  0.00    -0.354 N 
ATOM     42  C   UNL     1      -5.634   6.016  -4.376  1.00  0.00     0.074 A 
ATOM     43  C   UNL     1      -4.401   6.588  -3.877  1.00  0.00     0.031 C 
ATOM     44  C   UNL     1      -4.523  -0.303  -3.986  1.00  0.00     0.029 A 
ATOM     45  C   UNL     1      -5.749   0.357  -4.430  1.00  0.00     0.049 A 
ATOM     46  H   UNL     1      -6.093   2.407  -4.577  1.00  0.00     0.167 HD
ATOM     47  C   UNL     1      -6.674   6.740  -4.859  1.00  0.00     0.034 A 
ATOM     48  C   UNL     1      -6.876  -0.268  -4.830  1.00  0.00     0.034 A 
ATOM     49  C   UNL     1      -7.905   6.159  -5.340  1.00  0.00     0.049 A 
ATOM     50  C   UNL     1      -8.062   0.559  -5.264  1.00  0.00     0.074 A 
ATOM     51  C   UNL     1      -9.027   6.804  -5.834  1.00  0.00     0.029 A 
ATOM     52  N   UNL     1      -8.182   4.798  -5.383  1.00  0.00    -0.354 N 
ATOM     53  N   UNL     1      -8.181   1.865  -5.328  1.00  0.00    -0.248 NA
ATOM     54  C   UNL     1      -9.261  -0.175  -5.687  1.00  0.00     0.031 C 
ATOM     55  C   UNL     1     -10.004   5.841  -6.105  1.00  0.00     0.029 A 
ATOM     56  C   UNL     1      -9.465   4.587  -5.867  1.00  0.00     0.049 A 
ATOM     57  H   UNL     1      -7.559   4.087  -5.109  1.00  0.00     0.167 HD
ATOM     58  C   UNL     1      -9.459   2.107  -5.827  1.00  0.00     0.074 A 
ATOM     59  C   UNL     1     -10.065   0.811  -6.057  1.00  0.00     0.031 C 
ATOM     60  C   UNL     1     -10.071   3.292  -6.079  1.00  0.00     0.034 A 
BRANCH  47  61
ATOM     61  C   UNL     1      -6.538   8.244  -4.847  1.00  0.00     0.023 A 
ATOM     62  C   UNL     1      -5.569   8.904  -5.623  1.00  0.00     0.031 A 
ATOM     63  C   UNL     1      -7.377   9.028  -4.037  1.00  0.00     0.131 A 
ATOM     64  C   UNL     1      -5.423  10.296  -5.525  1.00  0.00     0.055 A 
ATOM     65  C   UNL     1      -7.280  10.421  -4.004  1.00  0.00     0.041 A 
ATOM     66  F   UNL     1      -8.305   8.453  -3.254  1.00  0.00    -0.206 F 
ATOM     67  C   UNL     1      -6.289  11.062  -4.741  1.00  0.00     0.022 A 
BRANCH  64  68
ATOM     68  S   UNL     1      -3.998  11.078  -6.331  1.00  0.00     0.124 S 
ATOM     69  O   UNL     1      -2.882  10.393  -5.684  1.00  0.00    -0.237 OA
ATOM     70  O   UNL     1      -4.216  10.759  -7.737  1.00  0.00    -0.237 OA
ATOM     71  O   UNL     1      -4.139  12.490  -5.982  1.00  0.00    -0.744 OA
ENDBRANCH  64  68
ENDBRANCH  47  61
BRANCH  48  72
ATOM     72  C   UNL     1      -6.954  -1.756  -4.801  1.00  0.00     0.023 A 
ATOM     73  C   UNL     1      -7.103  -2.502  -5.980  1.00  0.00     0.031 A 
ATOM     74  C   UNL     1      -6.909  -2.453  -3.580  1.00  0.00     0.131 A 
ATOM     75  C   UNL     1      -7.231  -3.898  -5.911  1.00  0.00     0.055 A 
ATOM     76  C   UNL     1      -6.987  -3.845  -3.520  1.00  0.00     0.041 A 
ATOM     77  F   UNL     1      -6.770  -1.786  -2.423  1.00  0.00    -0.206 F 
ATOM     78  C   UNL     1      -7.159  -4.575  -4.691  1.00  0.00     0.022 A 
BRANCH  75  79
ATOM     79  S   UNL     1      -7.558  -4.819  -7.440  1.00  0.00     0.124 S 
ATOM     80  O   UNL     1      -8.827  -4.243  -7.868  1.00  0.00    -0.237 OA
ATOM     81  O   UNL     1      -6.393  -4.481  -8.251  1.00  0.00    -0.237 OA
ATOM     82  O   UNL     1      -7.620  -6.209  -6.993  1.00  0.00    -0.744 OA
ENDBRANCH  75  79
ENDBRANCH  48  72
BRANCH  60  83
ATOM     83  C   UNL     1     -11.458   3.244  -6.678  1.00  0.00     0.023 A 
ATOM     84  C   UNL     1     -12.558   2.732  -5.969  1.00  0.00     0.031 A 
ATOM     85  C   UNL     1     -11.679   3.720  -7.984  1.00  0.00     0.131 A 
ATOM     86  C   UNL     1     -13.816   2.656  -6.587  1.00  0.00     0.055 A 
ATOM     87  C   UNL     1     -12.946   3.702  -8.570  1.00  0.00     0.041 A 
ATOM     88  F   UNL     1     -10.666   4.218  -8.711  1.00  0.00    -0.206 F 
ATOM     89  C   UNL     1     -14.021   3.155  -7.876  1.00  0.00     0.022 A 
BRANCH  86  90
ATOM     90  S   UNL     1     -15.163   1.804  -5.721  1.00  0.00     0.124 S 
ATOM     91  O   UNL     1     -14.595   0.478  -5.506  1.00  0.00    -0.237 OA
ATOM     92  O   UNL     1     -15.335   2.626  -4.527  1.00  0.00    -0.237 OA
ATOM     93  O   UNL     1     -16.271   1.857  -6.674  1.00  0.00    -0.744 OA
ENDBRANCH  86  90
ENDBRANCH  60  83
ENDBRANCH  34  35
ENDBRANCH  27  29
ENDBRANCH  26  27
ENDBRANCH  25  26
ENDBRANCH   1  25
TORSDOF 20
