REMARK SMILES CC(C)C[C@H](NC(=O)CNC(=O)[C@@H](NC(=O)OCc1ccccc1)C(C)C)C(=O)OCCOCCOC(=O)c1ccc(-c2c3nc(c(-c4cc(S(=O)(=O)[O-])ccc4F)c4ccc([nH]4)c(-c4cc(S(=O)(=O)[O-])ccc4F)c4nc(c(-c5cc(S(=O)(=O)[O-])ccc5F)c5ccc2[nH]5)C=C4)C=C3)cc1
REMARK SMILES IDX 31 1 30 2 28 3 29 4 5 5 4 6 2 7 1 8 3 9 6 10 7 11 8 13 9 14
REMARK SMILES IDX 10 15 11 16 12 18 13 19 14 20 15 21 16 23 17 24 18 25 19 26
REMARK SMILES IDX 20 27 24 28 21 29 23 30 22 31 25 32 26 33 27 34 32 35 33 36
REMARK SMILES IDX 34 37 35 38 36 39 37 40 38 41 39 42 40 43 101 44 41 45
REMARK SMILES IDX 100 46 42 47 43 48 44 49 94 50 45 51 99 52 93 53 95 54 46 55
REMARK SMILES IDX 98 56 92 57 91 58 47 60 79 61 59 62 78 63 60 64 63 65 77 66
REMARK SMILES IDX 96 67 61 68 62 69 76 71 97 72 64 73 48 74 49 75 57 76 50 77
REMARK SMILES IDX 56 78 58 79 55 80 51 81 52 82 53 83 54 84 80 85 81 86 89 87
REMARK SMILES IDX 82 88 88 89 90 90 87 91 83 92 84 93 85 94 86 95 65 96 66 97
REMARK SMILES IDX 74 98 67 99 73 100 75 101 72 102 68 103 69 104 70 105 71 106
REMARK H PARENT 6 12 10 17 14 22 95 59 63 70
REMARK Flexibility Score: inf
ROOT
ATOM      1  C   UNL     1      -5.664   1.193   0.865  1.00  0.00     0.261 C 
ENDROOT
BRANCH   1   2
ATOM      2  O   UNL     1      -4.279   1.469   0.681  1.00  0.00    -0.462 OA
BRANCH   2   3
ATOM      3  C   UNL     1      -3.432   0.718   1.445  1.00  0.00     0.328 C 
ATOM      4  O   UNL     1      -3.743  -0.243   2.137  1.00  0.00    -0.250 OA
BRANCH   3   5
ATOM      5  C   UNL     1      -2.047   1.343   1.446  1.00  0.00     0.192 C 
BRANCH   5   6
ATOM      6  C   UNL     1      -1.894   2.056   2.793  1.00  0.00     0.040 C 
BRANCH   6   7
ATOM      7  C   UNL     1      -3.027   2.868   3.454  1.00  0.00    -0.015 C 
ATOM      8  C   UNL     1      -4.008   2.006   4.257  1.00  0.00     0.007 C 
ATOM      9  C   UNL     1      -2.386   3.841   4.460  1.00  0.00     0.007 C 
ENDBRANCH   6   7
ENDBRANCH   5   6
BRANCH   5  10
ATOM     10  N   UNL     1      -1.835   2.183   0.243  1.00  0.00    -0.341 N 
ATOM     11  C   UNL     1      -0.677   2.329  -0.470  1.00  0.00     0.240 C 
ATOM     12  H   UNL     1      -2.614   2.692  -0.078  1.00  0.00     0.164 HD
ATOM     13  O   UNL     1      -0.683   1.957  -1.649  1.00  0.00    -0.273 OA
BRANCH  11  14
ATOM     14  C   UNL     1       0.623   2.838   0.163  1.00  0.00     0.216 C 
BRANCH  14  15
ATOM     15  N   UNL     1       0.471   3.918   1.114  1.00  0.00    -0.345 N 
ATOM     16  C   UNL     1       0.812   4.109   2.409  1.00  0.00     0.243 C 
ATOM     17  H   UNL     1       0.011   4.698   0.728  1.00  0.00     0.164 HD
ATOM     18  O   UNL     1       0.627   5.265   2.813  1.00  0.00    -0.273 OA
BRANCH  16  19
ATOM     19  C   UNL     1       1.307   3.001   3.406  1.00  0.00     0.177 C 
BRANCH  19  20
ATOM     20  N   UNL     1       1.203   1.602   2.969  1.00  0.00    -0.309 N 
ATOM     21  C   UNL     1       2.035   0.776   2.299  1.00  0.00     0.408 C 
ATOM     22  H   UNL     1       0.349   1.179   3.215  1.00  0.00     0.167 HD
ATOM     23  O   UNL     1       1.596  -0.278   1.849  1.00  0.00    -0.225 OA
BRANCH  21  24
ATOM     24  O   UNL     1       3.297   1.228   2.190  1.00  0.00    -0.445 OA
BRANCH  24  25
ATOM     25  C   UNL     1       4.211   0.328   1.543  1.00  0.00     0.270 C 
BRANCH  25  26
ATOM     26  C   UNL     1       4.379  -1.010   2.234  1.00  0.00    -0.011 A 
ATOM     27  C   UNL     1       4.339  -1.130   3.631  1.00  0.00     0.007 A 
ATOM     28  C   UNL     1       4.566  -2.167   1.466  1.00  0.00     0.007 A 
ATOM     29  C   UNL     1       4.423  -2.381   4.243  1.00  0.00     0.000 A 
ATOM     30  C   UNL     1       4.674  -3.417   2.080  1.00  0.00     0.000 A 
ATOM     31  C   UNL     1       4.592  -3.524   3.467  1.00  0.00     0.000 A 
ENDBRANCH  25  26
ENDBRANCH  24  25
ENDBRANCH  21  24
ENDBRANCH  19  20
BRANCH  19  32
ATOM     32  C   UNL     1       2.618   3.370   4.141  1.00  0.00     0.015 C 
ATOM     33  C   UNL     1       2.524   4.712   4.885  1.00  0.00     0.010 C 
ATOM     34  C   UNL     1       2.990   2.317   5.194  1.00  0.00     0.010 C 
ENDBRANCH  19  32
ENDBRANCH  16  19
ENDBRANCH  14  15
ENDBRANCH  11  14
ENDBRANCH   5  10
ENDBRANCH   3   5
ENDBRANCH   2   3
ENDBRANCH   1   2
BRANCH   1  35
ATOM     35  C   UNL     1      -6.247   0.267  -0.198  1.00  0.00     0.202 C 
BRANCH  35  36
ATOM     36  O   UNL     1      -5.569  -0.950  -0.473  1.00  0.00    -0.374 OA
BRANCH  36  37
ATOM     37  C   UNL     1      -4.301  -0.927  -1.126  1.00  0.00     0.202 C 
BRANCH  37  38
ATOM     38  C   UNL     1      -4.136  -0.193  -2.462  1.00  0.00     0.261 C 
BRANCH  38  39
ATOM     39  O   UNL     1      -4.385   1.223  -2.384  1.00  0.00    -0.460 OA
BRANCH  39  40
ATOM     40  C   UNL     1      -5.433   1.637  -3.140  1.00  0.00     0.338 C 
ATOM     41  O   UNL     1      -6.175   0.941  -3.814  1.00  0.00    -0.246 OA
BRANCH  40  42
ATOM     42  C   UNL     1      -5.699   3.066  -2.926  1.00  0.00     0.060 A 
ATOM     43  C   UNL     1      -6.879   3.425  -2.262  1.00  0.00     0.016 A 
ATOM     44  C   UNL     1      -4.900   4.032  -3.537  1.00  0.00     0.016 A 
ATOM     45  C   UNL     1      -7.287   4.755  -2.244  1.00  0.00     0.010 A 
ATOM     46  C   UNL     1      -5.317   5.367  -3.523  1.00  0.00     0.010 A 
ATOM     47  C   UNL     1      -6.530   5.728  -2.908  1.00  0.00    -0.014 A 
BRANCH  47  48
ATOM     48  C   UNL     1      -7.081   7.095  -3.066  1.00  0.00     0.031 A 
ATOM     49  C   UNL     1      -7.683   7.498  -4.385  1.00  0.00     0.074 A 
ATOM     50  C   UNL     1      -7.078   7.949  -2.027  1.00  0.00     0.049 A 
ATOM     51  N   UNL     1      -8.165   8.655  -4.757  1.00  0.00    -0.248 NA
ATOM     52  C   UNL     1      -7.751   6.456  -5.423  1.00  0.00     0.031 C 
ATOM     53  C   UNL     1      -6.579   7.639  -0.687  1.00  0.00     0.029 A 
ATOM     54  N   UNL     1      -7.503   9.249  -1.935  1.00  0.00    -0.354 N 
ATOM     55  C   UNL     1      -8.583   8.488  -6.073  1.00  0.00     0.074 A 
ATOM     56  C   UNL     1      -8.273   7.123  -6.442  1.00  0.00     0.031 C 
ATOM     57  C   UNL     1      -6.718   8.725   0.091  1.00  0.00     0.029 A 
ATOM     58  C   UNL     1      -7.263   9.820  -0.707  1.00  0.00     0.049 A 
ATOM     59  H   UNL     1      -7.939   9.728  -2.677  1.00  0.00     0.167 HD
ATOM     60  C   UNL     1      -9.174   9.392  -6.893  1.00  0.00     0.034 A 
ATOM     61  C   UNL     1      -7.429  11.092  -0.290  1.00  0.00     0.034 A 
ATOM     62  C   UNL     1      -9.470  10.750  -6.504  1.00  0.00     0.049 A 
ATOM     63  C   UNL     1      -7.997  12.105  -1.256  1.00  0.00     0.074 A 
ATOM     64  C   UNL     1     -10.082  11.744  -7.247  1.00  0.00     0.029 A 
ATOM     65  N   UNL     1      -9.163  11.312  -5.271  1.00  0.00    -0.354 N 
ATOM     66  N   UNL     1      -8.393  11.934  -2.497  1.00  0.00    -0.248 NA
ATOM     67  C   UNL     1      -8.146  13.480  -0.762  1.00  0.00     0.031 C 
ATOM     68  C   UNL     1     -10.067  12.925  -6.499  1.00  0.00     0.029 A 
ATOM     69  C   UNL     1      -9.534  12.648  -5.250  1.00  0.00     0.049 A 
ATOM     70  H   UNL     1      -8.743  10.831  -4.521  1.00  0.00     0.167 HD
ATOM     71  C   UNL     1      -8.870  13.174  -2.917  1.00  0.00     0.074 A 
ATOM     72  C   UNL     1      -8.730  14.074  -1.792  1.00  0.00     0.031 C 
ATOM     73  C   UNL     1      -9.381  13.537  -4.122  1.00  0.00     0.034 A 
BRANCH  60  74
ATOM     74  C   UNL     1      -9.485   8.965  -8.307  1.00  0.00     0.023 A 
ATOM     75  C   UNL     1     -10.429   7.964  -8.596  1.00  0.00     0.031 A 
ATOM     76  C   UNL     1      -8.828   9.581  -9.388  1.00  0.00     0.131 A 
ATOM     77  C   UNL     1     -10.653   7.577  -9.927  1.00  0.00     0.055 A 
ATOM     78  C   UNL     1      -9.110   9.244 -10.713  1.00  0.00     0.041 A 
ATOM     79  F   UNL     1      -7.897  10.525  -9.173  1.00  0.00    -0.206 F 
ATOM     80  C   UNL     1     -10.020   8.229 -10.988  1.00  0.00     0.022 A 
BRANCH  77  81
ATOM     81  S   UNL     1     -11.697   6.130 -10.248  1.00  0.00     0.124 S 
ATOM     82  O   UNL     1     -10.986   5.084  -9.517  1.00  0.00    -0.237 OA
ATOM     83  O   UNL     1     -12.982   6.537  -9.692  1.00  0.00    -0.237 OA
ATOM     84  O   UNL     1     -11.661   5.997 -11.703  1.00  0.00    -0.744 OA
ENDBRANCH  77  81
ENDBRANCH  60  74
BRANCH  61  85
ATOM     85  C   UNL     1      -7.004  11.503   1.080  1.00  0.00     0.023 A 
ATOM     86  C   UNL     1      -7.923  12.039   1.996  1.00  0.00     0.031 A 
ATOM     87  C   UNL     1      -5.652  11.440   1.467  1.00  0.00     0.131 A 
ATOM     88  C   UNL     1      -7.472  12.547   3.224  1.00  0.00     0.055 A 
ATOM     89  C   UNL     1      -5.219  11.883   2.718  1.00  0.00     0.041 A 
ATOM     90  F   UNL     1      -4.728  10.943   0.630  1.00  0.00    -0.206 F 
ATOM     91  C   UNL     1      -6.129  12.457   3.598  1.00  0.00     0.022 A 
BRANCH  88  92
ATOM     92  S   UNL     1      -8.649  13.441   4.275  1.00  0.00     0.124 S 
ATOM     93  O   UNL     1      -9.122  14.482   3.369  1.00  0.00    -0.237 OA
ATOM     94  O   UNL     1      -9.610  12.395   4.609  1.00  0.00    -0.237 OA
ATOM     95  O   UNL     1      -7.824  13.908   5.388  1.00  0.00    -0.744 OA
ENDBRANCH  88  92
ENDBRANCH  61  85
BRANCH  73  96
ATOM     96  C   UNL     1      -9.873  14.958  -4.262  1.00  0.00     0.023 A 
ATOM     97  C   UNL     1      -8.999  16.057  -4.186  1.00  0.00     0.031 A 
ATOM     98  C   UNL     1     -11.241  15.216  -4.462  1.00  0.00     0.131 A 
ATOM     99  C   UNL     1      -9.511  17.363  -4.245  1.00  0.00     0.055 A 
ATOM    100  C   UNL     1     -11.735  16.515  -4.592  1.00  0.00     0.041 A 
ATOM    101  F   UNL     1     -12.123  14.206  -4.538  1.00  0.00    -0.206 F 
ATOM    102  C   UNL     1     -10.870  17.598  -4.468  1.00  0.00     0.022 A 
BRANCH  99 103
ATOM    103  S   UNL     1      -8.392  18.752  -3.918  1.00  0.00     0.124 S 
ATOM    104  O   UNL     1      -7.900  18.436  -2.581  1.00  0.00    -0.237 OA
ATOM    105  O   UNL     1      -7.420  18.632  -5.000  1.00  0.00    -0.237 OA
ATOM    106  O   UNL     1      -9.265  19.922  -3.997  1.00  0.00    -0.744 OA
ENDBRANCH  99 103
ENDBRANCH  73  96
ENDBRANCH  47  48
ENDBRANCH  40  42
ENDBRANCH  39  40
ENDBRANCH  38  39
ENDBRANCH  37  38
ENDBRANCH  36  37
ENDBRANCH  35  36
ENDBRANCH   1  35
TORSDOF 28
