REMARK SMILES Cc1c(C[NH2+]C2CCCCCC2)c(C(=O)OCCOCCOC(=O)c2ccc(-c3c4nc(c(-c5cc(S(=O)(=O)[O-])ccc5F)c5ccc([nH]5)c(-c5cc(S(=O)(=O)[O-])ccc5F)c5nc(c(-c6cc(S(=O)(=O)[O-])ccc6F)c6ccc3[nH]6)C=C5)C=C4)cc2)c(C)n1Cc1cccc(F)c1
REMARK SMILES IDX 17 1 16 2 14 3 15 4 13 5 1 6 2 7 3 8 90 9 88 10 89 11 4 12
REMARK SMILES IDX 5 13 6 16 7 17 8 18 12 20 11 21 10 22 9 23 91 25 92 26 93 27
REMARK SMILES IDX 98 28 94 29 96 30 95 31 97 32 18 33 19 34 20 35 21 36 22 37
REMARK SMILES IDX 23 38 24 39 25 40 26 41 87 42 27 43 86 44 28 45 29 46 30 47
REMARK SMILES IDX 80 48 31 49 85 50 79 51 81 52 32 53 84 54 78 55 77 56 33 58
REMARK SMILES IDX 65 59 45 60 64 61 46 62 49 63 63 64 82 65 47 66 48 67 62 69
REMARK SMILES IDX 83 70 50 71 34 72 35 73 43 74 36 75 42 76 44 77 41 78 37 79
REMARK SMILES IDX 38 80 39 81 40 82 66 83 67 84 75 85 68 86 74 87 76 88 73 89
REMARK SMILES IDX 69 90 70 91 71 92 72 93 51 94 52 95 60 96 53 97 59 98 61 99
REMARK SMILES IDX 58 100 54 101 55 102 56 103 57 104
REMARK H PARENT 5 14 5 15 81 57 49 68
REMARK Flexibility Score: 80.00
ROOT
ATOM      1  C   UNL     1      -0.036  -5.902   5.036  1.00  0.00     0.261 C 
ENDROOT
BRANCH   1   2
ATOM      2  O   UNL     1       0.120  -4.580   4.514  1.00  0.00    -0.460 OA
BRANCH   2   3
ATOM      3  C   UNL     1       0.957  -4.412   3.459  1.00  0.00     0.340 C 
ATOM      4  O   UNL     1       1.751  -5.289   3.070  1.00  0.00    -0.246 OA
BRANCH   3   5
ATOM      5  C   UNL     1       0.777  -3.107   2.816  1.00  0.00     0.089 A 
ATOM      6  C   UNL     1       0.862  -0.510   0.129  1.00  0.00     0.065 C 
ATOM      7  C   UNL     1       0.666  -1.384   1.327  1.00  0.00     0.025 A 
ATOM      8  C   UNL     1       1.039  -2.726   1.455  1.00  0.00     0.042 A 
ATOM      9  N   UNL     1       0.053  -0.989   2.511  1.00  0.00    -0.343 N 
ATOM     10  C   UNL     1       0.292  -1.966   3.466  1.00  0.00     0.030 A 
ATOM     11  C   UNL     1       0.034  -1.799   4.931  1.00  0.00     0.065 C 
BRANCH   8  12
ATOM     12  C   UNL     1       1.554  -3.611   0.343  1.00  0.00     0.300 C 
BRANCH  12  13
ATOM     13  N   UNL     1       2.867  -4.153   0.671  1.00  0.00    -0.340 N 
ATOM     14  H   UNL     1       2.791  -4.693   1.533  1.00  0.00     0.346 HD
ATOM     15  H   UNL     1       3.508  -3.366   0.774  1.00  0.00     0.346 HD
BRANCH  13  16
ATOM     16  C   UNL     1       3.402  -5.027  -0.386  1.00  0.00     0.182 C 
BRANCH  16  17
ATOM     17  C   UNL     1       4.793  -4.542  -0.825  1.00  0.00     0.065 C 
BRANCH  17  18
ATOM     18  C   UNL     1       5.956  -5.026   0.039  1.00  0.00     0.006 CG0
ATOM     19  G   UNL     1       6.526  -6.356  -0.455  1.00  0.00     0.000 G0
ENDBRANCH  17  18
ENDBRANCH  16  17
BRANCH  16  20
ATOM     20  C   UNL     1       3.360  -6.486   0.110  1.00  0.00     0.065 C 
BRANCH  20  21
ATOM     21  C   UNL     1       4.201  -7.466  -0.715  1.00  0.00     0.006 C 
BRANCH  21  22
ATOM     22  C   UNL     1       5.644  -7.579  -0.220  1.00  0.00     0.000 C 
BRANCH  22  23
ATOM     23  C   UNL     1       6.526  -6.356  -0.455  1.00  0.00     0.000 CG0
ATOM     24  G   UNL     1       5.956  -5.026   0.039  1.00  0.00     0.000 G0
ENDBRANCH  22  23
ENDBRANCH  21  22
ENDBRANCH  20  21
ENDBRANCH  16  20
ENDBRANCH  13  16
ENDBRANCH  12  13
ENDBRANCH   8  12
BRANCH   9  25
ATOM     25  C   UNL     1      -0.562   0.323   2.778  1.00  0.00     0.157 C 
BRANCH  25  26
ATOM     26  C   UNL     1      -2.079   0.373   2.870  1.00  0.00    -0.025 A 
ATOM     27  C   UNL     1      -2.792   1.364   2.164  1.00  0.00     0.006 A 
ATOM     28  C   UNL     1      -2.806  -0.404   3.780  1.00  0.00     0.044 A 
ATOM     29  C   UNL     1      -4.163   1.576   2.381  1.00  0.00     0.003 A 
ATOM     30  C   UNL     1      -4.159  -0.166   4.011  1.00  0.00     0.123 A 
ATOM     31  C   UNL     1      -4.848   0.815   3.321  1.00  0.00     0.039 A 
ATOM     32  F   UNL     1      -4.782  -0.864   4.964  1.00  0.00    -0.207 F 
ENDBRANCH  25  26
ENDBRANCH   9  25
ENDBRANCH   3   5
ENDBRANCH   2   3
ENDBRANCH   1   2
BRANCH   1  33
ATOM     33  C   UNL     1      -1.462  -6.425   4.787  1.00  0.00     0.202 C 
BRANCH  33  34
ATOM     34  O   UNL     1      -1.894  -6.365   3.426  1.00  0.00    -0.374 OA
BRANCH  34  35
ATOM     35  C   UNL     1      -2.518  -5.128   3.011  1.00  0.00     0.202 C 
BRANCH  35  36
ATOM     36  C   UNL     1      -4.070  -5.037   3.212  1.00  0.00     0.261 C 
BRANCH  36  37
ATOM     37  O   UNL     1      -4.638  -3.897   3.991  1.00  0.00    -0.460 OA
BRANCH  37  38
ATOM     38  C   UNL     1      -5.584  -4.201   4.960  1.00  0.00     0.338 C 
ATOM     39  O   UNL     1      -5.673  -5.334   5.423  1.00  0.00    -0.246 OA
BRANCH  38  40
ATOM     40  C   UNL     1      -6.491  -3.063   5.529  1.00  0.00     0.060 A 
ATOM     41  C   UNL     1      -6.433  -2.776   6.890  1.00  0.00     0.016 A 
ATOM     42  C   UNL     1      -7.583  -2.433   4.885  1.00  0.00     0.016 A 
ATOM     43  C   UNL     1      -7.372  -1.870   7.542  1.00  0.00     0.010 A 
ATOM     44  C   UNL     1      -8.599  -1.565   5.582  1.00  0.00     0.010 A 
ATOM     45  C   UNL     1      -8.546  -1.242   6.957  1.00  0.00    -0.014 A 
BRANCH  45  46
ATOM     46  C   UNL     1      -9.779  -0.743   8.032  1.00  0.00     0.031 A 
ATOM     47  C   UNL     1      -9.716  -1.860   9.021  1.00  0.00     0.074 A 
ATOM     48  C   UNL     1     -10.858   0.152   8.310  1.00  0.00     0.049 A 
ATOM     49  N   UNL     1      -9.795  -3.088   8.587  1.00  0.00    -0.248 NA
ATOM     50  C   UNL     1      -9.161  -1.737  10.370  1.00  0.00     0.031 C 
ATOM     51  C   UNL     1     -11.413   1.222   7.452  1.00  0.00     0.029 A 
ATOM     52  N   UNL     1     -11.771   0.330   9.452  1.00  0.00    -0.354 N 
ATOM     53  C   UNL     1      -9.697  -3.890   9.688  1.00  0.00     0.074 A 
ATOM     54  C   UNL     1      -9.043  -3.037  10.675  1.00  0.00     0.031 C 
ATOM     55  C   UNL     1     -12.361   1.989   8.087  1.00  0.00     0.029 A 
ATOM     56  C   UNL     1     -12.650   1.518   9.450  1.00  0.00     0.049 A 
ATOM     57  H   UNL     1     -11.795  -0.320  10.191  1.00  0.00     0.167 HD
ATOM     58  C   UNL     1     -10.755  -4.737   9.860  1.00  0.00     0.034 A 
ATOM     59  C   UNL     1     -13.595   2.034  10.382  1.00  0.00     0.034 A 
ATOM     60  C   UNL     1     -11.674  -4.252  10.855  1.00  0.00     0.049 A 
ATOM     61  C   UNL     1     -14.156   0.877  11.074  1.00  0.00     0.074 A 
ATOM     62  C   UNL     1     -11.508  -3.638  12.080  1.00  0.00     0.029 A 
ATOM     63  N   UNL     1     -12.949  -3.950  10.430  1.00  0.00    -0.354 N 
ATOM     64  N   UNL     1     -15.027   0.104  10.507  1.00  0.00    -0.248 NA
ATOM     65  C   UNL     1     -13.877   0.603  12.478  1.00  0.00     0.031 C 
ATOM     66  C   UNL     1     -12.456  -2.594  12.082  1.00  0.00     0.029 A 
ATOM     67  C   UNL     1     -13.412  -2.844  11.104  1.00  0.00     0.049 A 
ATOM     68  H   UNL     1     -13.453  -4.450   9.747  1.00  0.00     0.167 HD
ATOM     69  C   UNL     1     -14.943  -1.024  11.261  1.00  0.00     0.074 A 
ATOM     70  C   UNL     1     -14.489  -0.580  12.568  1.00  0.00     0.031 C 
ATOM     71  C   UNL     1     -14.566  -2.138  10.584  1.00  0.00     0.034 A 
BRANCH  58  72
ATOM     72  C   UNL     1     -11.202  -5.436   8.596  1.00  0.00     0.023 A 
ATOM     73  C   UNL     1     -11.008  -6.814   8.471  1.00  0.00     0.031 A 
ATOM     74  C   UNL     1     -11.750  -4.747   7.487  1.00  0.00     0.131 A 
ATOM     75  C   UNL     1     -11.292  -7.448   7.249  1.00  0.00     0.055 A 
ATOM     76  C   UNL     1     -11.964  -5.366   6.258  1.00  0.00     0.041 A 
ATOM     77  F   UNL     1     -12.109  -3.456   7.586  1.00  0.00    -0.206 F 
ATOM     78  C   UNL     1     -11.726  -6.727   6.131  1.00  0.00     0.022 A 
BRANCH  75  79
ATOM     79  S   UNL     1     -11.133  -9.250   7.154  1.00  0.00     0.124 S 
ATOM     80  O   UNL     1      -9.704  -9.451   7.368  1.00  0.00    -0.237 OA
ATOM     81  O   UNL     1     -12.001  -9.694   8.241  1.00  0.00    -0.237 OA
ATOM     82  O   UNL     1     -11.612  -9.573   5.811  1.00  0.00    -0.744 OA
ENDBRANCH  75  79
ENDBRANCH  58  72
BRANCH  59  83
ATOM     83  C   UNL     1     -14.481   3.290  10.877  1.00  0.00     0.023 A 
ATOM     84  C   UNL     1     -15.775   3.160  11.574  1.00  0.00     0.031 A 
ATOM     85  C   UNL     1     -13.871   4.533  11.097  1.00  0.00     0.131 A 
ATOM     86  C   UNL     1     -16.329   4.182  12.425  1.00  0.00     0.055 A 
ATOM     87  C   UNL     1     -14.428   5.541  11.937  1.00  0.00     0.041 A 
ATOM     88  F   UNL     1     -12.650   4.778  10.601  1.00  0.00    -0.206 F 
ATOM     89  C   UNL     1     -15.636   5.368  12.613  1.00  0.00     0.022 A 
BRANCH  86  90
ATOM     90  S   UNL     1     -17.863   3.955  13.463  1.00  0.00     0.124 S 
ATOM     91  O   UNL     1     -18.939   4.033  12.484  1.00  0.00    -0.237 OA
ATOM     92  O   UNL     1     -17.644   2.660  14.097  1.00  0.00    -0.237 OA
ATOM     93  O   UNL     1     -17.819   5.086  14.397  1.00  0.00    -0.744 OA
ENDBRANCH  86  90
ENDBRANCH  59  83
BRANCH  71  94
ATOM     94  C   UNL     1     -15.255  -2.418   9.250  1.00  0.00     0.023 A 
ATOM     95  C   UNL     1     -15.494  -1.492   8.198  1.00  0.00     0.031 A 
ATOM     96  C   UNL     1     -15.766  -3.712   9.067  1.00  0.00     0.131 A 
ATOM     97  C   UNL     1     -16.221  -1.872   7.049  1.00  0.00     0.055 A 
ATOM     98  C   UNL     1     -16.447  -4.101   7.914  1.00  0.00     0.041 A 
ATOM     99  F   UNL     1     -15.607  -4.639  10.026  1.00  0.00    -0.206 F 
ATOM    100  C   UNL     1     -16.688  -3.178   6.904  1.00  0.00     0.022 A 
BRANCH  97 101
ATOM    101  S   UNL     1     -16.640  -0.651   5.754  1.00  0.00     0.124 S 
ATOM    102  O   UNL     1     -17.171   0.478   6.510  1.00  0.00    -0.237 OA
ATOM    103  O   UNL     1     -15.356  -0.427   5.096  1.00  0.00    -0.237 OA
ATOM    104  O   UNL     1     -17.631  -1.349   4.934  1.00  0.00    -0.744 OA
ENDBRANCH  97 101
ENDBRANCH  71  94
ENDBRANCH  45  46
ENDBRANCH  38  40
ENDBRANCH  37  38
ENDBRANCH  36  37
ENDBRANCH  35  36
ENDBRANCH  34  35
ENDBRANCH  33  34
ENDBRANCH   1  33
TORSDOF 22
