REMARK SMILES CCCc1cc(O[C@@H]2CCOC3(CCC3)C2)c(C(=O)OCCOCCOC(=O)c2ccc(-c3c4nc(c(-c5cc(S(=O)(=O)[O-])ccc5F)c5ccc([nH]5)c(-c5cc(S(=O)(=O)[O-])ccc5F)c5nc(c(-c6cc(S(=O)(=O)[O-])ccc6F)c6ccc3[nH]6)C=C5)C=C4)cc2)s1
REMARK SMILES IDX 24 1 23 2 22 3 21 4 20 5 18 6 19 7 17 8 4 9 5 10 92 11 6 12
REMARK SMILES IDX 3 13 2 14 1 15 7 16 8 17 9 18 16 19 10 20 12 21 11 22 13 23
REMARK SMILES IDX 15 24 14 25 25 26 26 27 27 28 28 29 29 30 30 31 91 32 31 33
REMARK SMILES IDX 90 34 32 35 33 36 34 37 84 38 35 39 89 40 83 41 85 42 36 43
REMARK SMILES IDX 88 44 82 45 81 46 37 48 69 49 49 50 68 51 50 52 53 53 67 54
REMARK SMILES IDX 86 55 51 56 52 57 66 59 87 60 54 61 38 62 39 63 47 64 40 65
REMARK SMILES IDX 46 66 48 67 45 68 41 69 42 70 43 71 44 72 70 73 71 74 79 75
REMARK SMILES IDX 72 76 78 77 80 78 77 79 73 80 74 81 75 82 76 83 55 84 56 85
REMARK SMILES IDX 64 86 57 87 63 88 65 89 62 90 58 91 59 92 60 93 61 94
REMARK H PARENT 85 47 53 58
REMARK Flexibility Score: inf
ROOT
ATOM      1  C   UNL     1       2.093   3.882   5.250  1.00  0.00     0.202 C 
ENDROOT
BRANCH   1   2
ATOM      2  O   UNL     1       1.530   5.198   5.250  1.00  0.00    -0.374 OA
BRANCH   2   3
ATOM      3  C   UNL     1       0.360   5.368   6.059  1.00  0.00     0.202 C 
BRANCH   3   4
ATOM      4  C   UNL     1      -0.941   5.108   5.296  1.00  0.00     0.261 C 
BRANCH   4   5
ATOM      5  O   UNL     1      -1.030   3.702   5.021  1.00  0.00    -0.459 OA
BRANCH   5   6
ATOM      6  C   UNL     1      -1.063   3.357   3.706  1.00  0.00     0.352 C 
ATOM      7  O   UNL     1      -1.386   4.123   2.802  1.00  0.00    -0.245 OA
BRANCH   6   8
ATOM      8  C   UNL     1      -0.502   2.032   3.529  1.00  0.00     0.155 A 
ATOM      9  C   UNL     1       0.794   0.191   2.507  1.00  0.00     0.009 A 
ATOM     10  C   UNL     1       0.369  -0.092   3.789  1.00  0.00     0.062 A 
ATOM     11  S   UNL     1       0.365   1.773   2.070  1.00  0.00    -0.130 S 
ATOM     12  C   UNL     1      -0.460   0.920   4.359  1.00  0.00     0.145 A 
BRANCH   9  13
ATOM     13  C   UNL     1       1.564  -0.711   1.586  1.00  0.00     0.046 C 
BRANCH  13  14
ATOM     14  C   UNL     1       0.801  -1.088   0.311  1.00  0.00     0.002 C 
ATOM     15  C   UNL     1       0.973  -0.081  -0.821  1.00  0.00     0.004 C 
ENDBRANCH  13  14
ENDBRANCH   9  13
BRANCH  12  16
ATOM     16  O   UNL     1      -1.093   0.951   5.562  1.00  0.00    -0.488 OA
BRANCH  16  17
ATOM     17  C   UNL     1      -1.444  -0.245   6.275  1.00  0.00     0.178 C 
ATOM     18  C   UNL     1      -0.325  -1.224   6.643  1.00  0.00     0.074 C 
ATOM     19  C   UNL     1      -2.717  -0.950   5.792  1.00  0.00     0.080 C 
ATOM     20  C   UNL     1      -0.541  -2.600   6.013  1.00  0.00     0.165 C 
ATOM     21  C   UNL     1      -2.438  -1.881   4.614  1.00  0.00     0.072 C 
ATOM     22  O   UNL     1      -1.122  -2.495   4.715  1.00  0.00    -0.375 OA
ATOM     23  C   UNL     1      -3.577  -2.905   4.297  1.00  0.00     0.036 C 
ATOM     24  C   UNL     1      -2.786  -1.246   3.228  1.00  0.00     0.036 C 
ATOM     25  C   UNL     1      -3.356  -2.604   2.804  1.00  0.00     0.006 C 
ENDBRANCH  16  17
ENDBRANCH  12  16
ENDBRANCH   6   8
ENDBRANCH   5   6
ENDBRANCH   4   5
ENDBRANCH   3   4
ENDBRANCH   2   3
ENDBRANCH   1   2
BRANCH   1  26
ATOM     26  C   UNL     1       3.108   3.630   6.369  1.00  0.00     0.261 C 
BRANCH  26  27
ATOM     27  O   UNL     1       2.438   3.492   7.634  1.00  0.00    -0.460 OA
BRANCH  27  28
ATOM     28  C   UNL     1       2.525   4.573   8.447  1.00  0.00     0.338 C 
ATOM     29  O   UNL     1       3.219   5.561   8.276  1.00  0.00    -0.246 OA
BRANCH  28  30
ATOM     30  C   UNL     1       1.493   4.483   9.502  1.00  0.00     0.060 A 
ATOM     31  C   UNL     1       0.795   5.656   9.815  1.00  0.00     0.016 A 
ATOM     32  C   UNL     1       1.219   3.295  10.187  1.00  0.00     0.016 A 
ATOM     33  C   UNL     1      -0.140   5.660  10.847  1.00  0.00     0.010 A 
ATOM     34  C   UNL     1       0.284   3.301  11.229  1.00  0.00     0.010 A 
ATOM     35  C   UNL     1      -0.372   4.493  11.586  1.00  0.00    -0.014 A 
BRANCH  35  36
ATOM     36  C   UNL     1      -1.168   4.574  12.835  1.00  0.00     0.031 A 
ATOM     37  C   UNL     1      -0.439   4.710  14.144  1.00  0.00     0.074 A 
ATOM     38  C   UNL     1      -2.512   4.574  12.801  1.00  0.00     0.049 A 
ATOM     39  N   UNL     1      -0.916   4.794  15.358  1.00  0.00    -0.248 NA
ATOM     40  C   UNL     1       1.030   4.754  14.069  1.00  0.00     0.031 C 
ATOM     41  C   UNL     1      -3.326   4.490  11.589  1.00  0.00     0.029 A 
ATOM     42  N   UNL     1      -3.430   4.647  13.819  1.00  0.00    -0.354 N 
ATOM     43  C   UNL     1       0.191   4.906  16.193  1.00  0.00     0.074 A 
ATOM     44  C   UNL     1       1.363   4.835  15.347  1.00  0.00     0.031 C 
ATOM     45  C   UNL     1      -4.625   4.508  11.936  1.00  0.00     0.029 A 
ATOM     46  C   UNL     1      -4.735   4.574  13.392  1.00  0.00     0.049 A 
ATOM     47  H   UNL     1      -3.177   4.742  14.766  1.00  0.00     0.167 HD
ATOM     48  C   UNL     1       0.225   5.064  17.539  1.00  0.00     0.034 A 
ATOM     49  C   UNL     1      -5.882   4.544  14.100  1.00  0.00     0.034 A 
ATOM     50  C   UNL     1      -0.952   5.118  18.370  1.00  0.00     0.049 A 
ATOM     51  C   UNL     1      -5.817   4.636  15.605  1.00  0.00     0.074 A 
ATOM     52  C   UNL     1      -1.034   5.283  19.742  1.00  0.00     0.029 A 
ATOM     53  N   UNL     1      -2.256   4.992  17.908  1.00  0.00    -0.354 N 
ATOM     54  N   UNL     1      -4.764   4.750  16.383  1.00  0.00    -0.248 NA
ATOM     55  C   UNL     1      -7.096   4.604  16.327  1.00  0.00     0.031 C 
ATOM     56  C   UNL     1      -2.380   5.192  20.115  1.00  0.00     0.029 A 
ATOM     57  C   UNL     1      -3.145   5.042  18.970  1.00  0.00     0.049 A 
ATOM     58  H   UNL     1      -2.511   4.883  16.963  1.00  0.00     0.167 HD
ATOM     59  C   UNL     1      -5.258   4.832  17.682  1.00  0.00     0.074 A 
ATOM     60  C   UNL     1      -6.702   4.765  17.582  1.00  0.00     0.031 C 
ATOM     61  C   UNL     1      -4.582   4.959  18.853  1.00  0.00     0.034 A 
BRANCH  48  62
ATOM     62  C   UNL     1       1.586   5.135  18.188  1.00  0.00     0.023 A 
ATOM     63  C   UNL     1       2.474   6.194  17.931  1.00  0.00     0.031 A 
ATOM     64  C   UNL     1       2.017   4.105  19.043  1.00  0.00     0.131 A 
ATOM     65  C   UNL     1       3.772   6.163  18.465  1.00  0.00     0.055 A 
ATOM     66  C   UNL     1       3.282   4.119  19.632  1.00  0.00     0.041 A 
ATOM     67  F   UNL     1       1.220   3.057  19.305  1.00  0.00    -0.206 F 
ATOM     68  C   UNL     1       4.174   5.145  19.333  1.00  0.00     0.022 A 
BRANCH  65  69
ATOM     69  S   UNL     1       4.974   7.398  17.897  1.00  0.00     0.124 S 
ATOM     70  O   UNL     1       4.993   7.150  16.458  1.00  0.00    -0.237 OA
ATOM     71  O   UNL     1       4.363   8.651  18.323  1.00  0.00    -0.237 OA
ATOM     72  O   UNL     1       6.201   7.030  18.601  1.00  0.00    -0.744 OA
ENDBRANCH  65  69
ENDBRANCH  48  62
BRANCH  49  73
ATOM     73  C   UNL     1      -7.192   4.377  13.407  1.00  0.00     0.023 A 
ATOM     74  C   UNL     1      -8.169   5.384  13.441  1.00  0.00     0.031 A 
ATOM     75  C   UNL     1      -7.503   3.177  12.743  1.00  0.00     0.131 A 
ATOM     76  C   UNL     1      -9.427   5.156  12.861  1.00  0.00     0.055 A 
ATOM     77  C   UNL     1      -8.739   2.973  12.127  1.00  0.00     0.041 A 
ATOM     78  F   UNL     1      -6.604   2.182  12.681  1.00  0.00    -0.206 F 
ATOM     79  C   UNL     1      -9.714   3.963  12.194  1.00  0.00     0.022 A 
BRANCH  76  80
ATOM     80  S   UNL     1     -10.717   6.417  13.057  1.00  0.00     0.124 S 
ATOM     81  O   UNL     1     -10.825   6.508  14.509  1.00  0.00    -0.237 OA
ATOM     82  O   UNL     1     -10.121   7.566  12.384  1.00  0.00    -0.237 OA
ATOM     83  O   UNL     1     -11.871   5.831  12.380  1.00  0.00    -0.744 OA
ENDBRANCH  76  80
ENDBRANCH  49  73
BRANCH  61  84
ATOM     84  C   UNL     1      -5.407   5.075  20.111  1.00  0.00     0.023 A 
ATOM     85  C   UNL     1      -6.162   3.996  20.604  1.00  0.00     0.031 A 
ATOM     86  C   UNL     1      -5.443   6.288  20.822  1.00  0.00     0.131 A 
ATOM     87  C   UNL     1      -6.961   4.166  21.744  1.00  0.00     0.055 A 
ATOM     88  C   UNL     1      -6.197   6.435  21.987  1.00  0.00     0.041 A 
ATOM     89  F   UNL     1      -4.741   7.350  20.396  1.00  0.00    -0.206 F 
ATOM     90  C   UNL     1      -6.972   5.374  22.447  1.00  0.00     0.022 A 
BRANCH  87  91
ATOM     91  S   UNL     1      -8.054   2.811  22.253  1.00  0.00     0.124 S 
ATOM     92  O   UNL     1      -8.885   2.629  21.067  1.00  0.00    -0.237 OA
ATOM     93  O   UNL     1      -7.109   1.737  22.540  1.00  0.00    -0.237 OA
ATOM     94  O   UNL     1      -8.750   3.351  23.420  1.00  0.00    -0.744 OA
ENDBRANCH  87  91
ENDBRANCH  61  84
ENDBRANCH  35  36
ENDBRANCH  28  30
ENDBRANCH  27  28
ENDBRANCH  26  27
ENDBRANCH   1  26
TORSDOF 21
