REMARK SMILES O=C(OCCOCCOC(=O)[C@H]1CC=CC[C@@H]1C(=O)Nc1nn(Cc2ccccc2F)cc1Br)c1ccc(-c2c3nc(c(-c4cc(S(=O)(=O)[O-])ccc4F)c4ccc([nH]4)c(-c4cc(S(=O)(=O)[O-])ccc4F)c4nc(c(-c5cc(S(=O)(=O)[O-])ccc5F)c5ccc2[nH]5)C=C4)C=C3)cc1
REMARK SMILES IDX 7 1 6 2 5 3 4 4 3 5 2 6 1 7 35 8 36 9 97 10 37 11 96 12
REMARK SMILES IDX 38 13 39 14 40 15 90 16 41 17 95 18 89 19 91 20 42 21 94 22
REMARK SMILES IDX 88 23 87 24 43 26 75 27 55 28 74 29 56 30 59 31 73 32 92 33
REMARK SMILES IDX 57 34 58 35 72 37 93 38 60 39 44 40 45 41 53 42 46 43 52 44
REMARK SMILES IDX 54 45 51 46 47 47 48 48 49 49 50 50 76 51 77 52 85 53 78 54
REMARK SMILES IDX 84 55 86 56 83 57 79 58 80 59 81 60 82 61 61 62 62 63 70 64
REMARK SMILES IDX 63 65 69 66 71 67 68 68 64 69 65 70 66 71 67 72 8 73 9 74
REMARK SMILES IDX 10 75 11 76 12 77 13 78 17 79 14 80 16 81 15 82 18 83 19 84
REMARK SMILES IDX 20 85 21 87 22 88 33 89 23 90 32 91 34 92 24 93 25 94 26 95
REMARK SMILES IDX 30 96 27 97 29 98 31 99 28 100
REMARK H PARENT 91 25 59 36 20 86
REMARK Flexibility Score: inf
ROOT
ATOM      1  C   UNL     1       2.429   0.925  -1.244  1.00  0.00     0.202 C 
ENDROOT
BRANCH   1   2
ATOM      2  O   UNL     1       3.712   0.988  -0.621  1.00  0.00    -0.374 OA
BRANCH   2   3
ATOM      3  C   UNL     1       4.616  -0.104  -0.610  1.00  0.00     0.202 C 
BRANCH   3   4
ATOM      4  C   UNL     1       4.371  -1.321   0.288  1.00  0.00     0.261 C 
BRANCH   4   5
ATOM      5  O   UNL     1       3.022  -1.773   0.346  1.00  0.00    -0.460 OA
BRANCH   5   6
ATOM      6  C   UNL     1       1.974  -1.148   0.915  1.00  0.00     0.338 C 
ATOM      7  O   UNL     1       0.843  -1.486   0.563  1.00  0.00    -0.246 OA
BRANCH   6   8
ATOM      8  C   UNL     1       2.091  -0.082   1.955  1.00  0.00     0.060 A 
ATOM      9  C   UNL     1       3.253   0.302   2.626  1.00  0.00     0.016 A 
ATOM     10  C   UNL     1       0.861   0.472   2.360  1.00  0.00     0.016 A 
ATOM     11  C   UNL     1       3.160   0.935   3.846  1.00  0.00     0.010 A 
ATOM     12  C   UNL     1       0.761   1.140   3.559  1.00  0.00     0.010 A 
ATOM     13  C   UNL     1       1.901   1.246   4.341  1.00  0.00    -0.014 A 
BRANCH  13  14
ATOM     14  C   UNL     1       1.827   1.799   5.674  1.00  0.00     0.031 A 
ATOM     15  C   UNL     1       2.425   3.152   5.746  1.00  0.00     0.074 A 
ATOM     16  C   UNL     1       1.190   1.129   6.654  1.00  0.00     0.049 A 
ATOM     17  N   UNL     1       3.453   3.533   6.426  1.00  0.00    -0.248 NA
ATOM     18  C   UNL     1       1.952   4.157   4.771  1.00  0.00     0.031 C 
ATOM     19  C   UNL     1       0.424  -0.116   6.536  1.00  0.00     0.029 A 
ATOM     20  N   UNL     1       0.990   1.471   7.952  1.00  0.00    -0.354 N 
ATOM     21  C   UNL     1       3.553   4.898   6.190  1.00  0.00     0.074 A 
ATOM     22  C   UNL     1       2.785   5.171   5.007  1.00  0.00     0.031 C 
ATOM     23  C   UNL     1      -0.356  -0.267   7.629  1.00  0.00     0.029 A 
ATOM     24  C   UNL     1      -0.066   0.800   8.570  1.00  0.00     0.049 A 
ATOM     25  H   UNL     1       1.543   2.138   8.419  1.00  0.00     0.167 HD
ATOM     26  C   UNL     1       3.948   5.735   7.184  1.00  0.00     0.034 A 
ATOM     27  C   UNL     1      -0.701   1.176   9.716  1.00  0.00     0.034 A 
ATOM     28  C   UNL     1       4.760   5.049   8.159  1.00  0.00     0.049 A 
ATOM     29  C   UNL     1       0.243   2.083  10.427  1.00  0.00     0.074 A 
ATOM     30  C   UNL     1       5.904   4.276   8.065  1.00  0.00     0.029 A 
ATOM     31  N   UNL     1       4.196   4.727   9.372  1.00  0.00    -0.354 N 
ATOM     32  N   UNL     1       1.406   1.696  10.884  1.00  0.00    -0.248 NA
ATOM     33  C   UNL     1       0.122   3.510  10.162  1.00  0.00     0.031 C 
ATOM     34  C   UNL     1       5.679   3.182   8.949  1.00  0.00     0.029 A 
ATOM     35  C   UNL     1       4.471   3.401   9.613  1.00  0.00     0.049 A 
ATOM     36  H   UNL     1       3.689   5.334   9.959  1.00  0.00     0.167 HD
ATOM     37  C   UNL     1       2.276   2.729  10.568  1.00  0.00     0.074 A 
ATOM     38  C   UNL     1       1.415   3.845  10.174  1.00  0.00     0.031 C 
ATOM     39  C   UNL     1       3.607   2.507  10.360  1.00  0.00     0.034 A 
BRANCH  26  40
ATOM     40  C   UNL     1       3.237   7.037   7.452  1.00  0.00     0.023 A 
ATOM     41  C   UNL     1       3.804   7.929   8.374  1.00  0.00     0.031 A 
ATOM     42  C   UNL     1       1.906   7.321   7.050  1.00  0.00     0.131 A 
ATOM     43  C   UNL     1       3.052   9.008   8.876  1.00  0.00     0.055 A 
ATOM     44  C   UNL     1       1.191   8.430   7.497  1.00  0.00     0.041 A 
ATOM     45  F   UNL     1       1.187   6.490   6.285  1.00  0.00    -0.206 F 
ATOM     46  C   UNL     1       1.756   9.272   8.434  1.00  0.00     0.022 A 
BRANCH  43  47
ATOM     47  S   UNL     1       3.752   9.995  10.220  1.00  0.00     0.124 S 
ATOM     48  O   UNL     1       3.912   8.992  11.267  1.00  0.00    -0.237 OA
ATOM     49  O   UNL     1       4.982  10.496   9.615  1.00  0.00    -0.237 OA
ATOM     50  O   UNL     1       2.726  11.004  10.468  1.00  0.00    -0.744 OA
ENDBRANCH  43  47
ENDBRANCH  26  40
BRANCH  27  51
ATOM     51  C   UNL     1      -2.173   1.126  10.005  1.00  0.00     0.023 A 
ATOM     52  C   UNL     1      -2.700   1.449  11.279  1.00  0.00     0.031 A 
ATOM     53  C   UNL     1      -3.120   0.998   8.962  1.00  0.00     0.131 A 
ATOM     54  C   UNL     1      -4.094   1.634  11.460  1.00  0.00     0.055 A 
ATOM     55  C   UNL     1      -4.494   1.176   9.147  1.00  0.00     0.041 A 
ATOM     56  F   UNL     1      -2.745   0.783   7.693  1.00  0.00    -0.206 F 
ATOM     57  C   UNL     1      -4.987   1.508  10.396  1.00  0.00     0.022 A 
BRANCH  54  58
ATOM     58  S   UNL     1      -4.766   2.171  13.068  1.00  0.00     0.124 S 
ATOM     59  O   UNL     1      -4.777   0.919  13.825  1.00  0.00    -0.237 OA
ATOM     60  O   UNL     1      -3.807   3.178  13.498  1.00  0.00    -0.237 OA
ATOM     61  O   UNL     1      -6.090   2.691  12.725  1.00  0.00    -0.744 OA
ENDBRANCH  54  58
ENDBRANCH  27  51
BRANCH  39  62
ATOM     62  C   UNL     1       4.218   1.181  10.769  1.00  0.00     0.023 A 
ATOM     63  C   UNL     1       3.940  -0.075  10.179  1.00  0.00     0.031 A 
ATOM     64  C   UNL     1       5.286   1.255  11.680  1.00  0.00     0.131 A 
ATOM     65  C   UNL     1       4.739  -1.194  10.509  1.00  0.00     0.055 A 
ATOM     66  C   UNL     1       6.083   0.155  11.985  1.00  0.00     0.041 A 
ATOM     67  F   UNL     1       5.614   2.430  12.244  1.00  0.00    -0.206 F 
ATOM     68  C   UNL     1       5.813  -1.075  11.399  1.00  0.00     0.022 A 
BRANCH  65  69
ATOM     69  S   UNL     1       4.434  -2.827   9.749  1.00  0.00     0.124 S 
ATOM     70  O   UNL     1       3.067  -3.130  10.155  1.00  0.00    -0.237 OA
ATOM     71  O   UNL     1       4.642  -2.565   8.328  1.00  0.00    -0.237 OA
ATOM     72  O   UNL     1       5.453  -3.685  10.358  1.00  0.00    -0.744 OA
ENDBRANCH  65  69
ENDBRANCH  39  62
ENDBRANCH  13  14
ENDBRANCH   6   8
ENDBRANCH   5   6
ENDBRANCH   4   5
ENDBRANCH   3   4
ENDBRANCH   2   3
ENDBRANCH   1   2
BRANCH   1  73
ATOM     73  C   UNL     1       2.100   0.067  -2.476  1.00  0.00     0.261 C 
BRANCH  73  74
ATOM     74  O   UNL     1       2.944  -1.069  -2.626  1.00  0.00    -0.463 OA
BRANCH  74  75
ATOM     75  C   UNL     1       3.612  -1.153  -3.809  1.00  0.00     0.310 C 
ATOM     76  O   UNL     1       3.371  -0.455  -4.786  1.00  0.00    -0.252 OA
BRANCH  75  77
ATOM     77  C   UNL     1       4.769  -2.153  -3.706  1.00  0.00     0.116 C 
ATOM     78  C   UNL     1       4.285  -3.505  -3.172  1.00  0.00     0.043 C 
ATOM     79  C   UNL     1       5.445  -2.272  -5.075  1.00  0.00     0.097 C 
ATOM     80  C   UNL     1       3.462  -4.238  -4.184  1.00  0.00    -0.030 C 
ATOM     81  C   UNL     1       4.477  -2.949  -6.087  1.00  0.00     0.041 C 
ATOM     82  C   UNL     1       3.534  -3.967  -5.495  1.00  0.00    -0.030 C 
BRANCH  79  83
ATOM     83  C   UNL     1       6.785  -3.013  -5.029  1.00  0.00     0.229 C 
ATOM     84  O   UNL     1       6.857  -4.222  -5.280  1.00  0.00    -0.274 OA
ATOM     85  N   UNL     1       7.966  -2.348  -4.883  1.00  0.00    -0.308 N 
ATOM     86  H   UNL     1       8.756  -2.858  -5.174  1.00  0.00     0.171 HD
BRANCH  85  87
ATOM     87  C   UNL     1       8.252  -1.090  -4.401  1.00  0.00     0.168 A 
ATOM     88  N   UNL     1       7.637  -0.507  -3.369  1.00  0.00    -0.153 NA
ATOM     89  C   UNL     1       9.327  -0.285  -4.843  1.00  0.00     0.080 A 
ATOM     90  N   UNL     1       8.223   0.716  -3.263  1.00  0.00    -0.265 N 
ATOM     91  C   UNL     1       9.280   0.875  -4.117  1.00  0.00     0.127 A 
ATOM     92  Br  UNL     1      10.503  -0.687  -6.243  1.00  0.00    -0.045 Br
BRANCH  90  93
ATOM     93  C   UNL     1       7.789   1.681  -2.247  1.00  0.00     0.182 C 
BRANCH  93  94
ATOM     94  C   UNL     1       6.592   2.517  -2.635  1.00  0.00     0.009 A 
ATOM     95  C   UNL     1       6.467   3.838  -2.174  1.00  0.00     0.008 A 
ATOM     96  C   UNL     1       5.516   1.995  -3.354  1.00  0.00     0.128 A 
ATOM     97  C   UNL     1       5.305   4.581  -2.430  1.00  0.00     0.001 A 
ATOM     98  C   UNL     1       4.367   2.728  -3.625  1.00  0.00     0.039 A 
ATOM     99  F   UNL     1       5.540   0.739  -3.796  1.00  0.00    -0.207 F 
ATOM    100  C   UNL     1       4.251   4.023  -3.149  1.00  0.00     0.003 A 
ENDBRANCH  93  94
ENDBRANCH  90  93
ENDBRANCH  85  87
ENDBRANCH  79  83
ENDBRANCH  75  77
ENDBRANCH  74  75
ENDBRANCH  73  74
ENDBRANCH   1  73
TORSDOF 21
