REMARK SMILES Cc1cc2cc(-c3ccc([C@@H](C)C(=O)OCCOCCOC(=O)c4ccc(-c5c6nc(c(-c7cc(S(=O)(=O)[O-])ccc7F)c7ccc([nH]7)c(-c7cc(S(=O)(=O)[O-])ccc7F)c7nc(c(-c8cc(S(=O)(=O)[O-])ccc8F)c8ccc5[nH]8)C=C7)C=C6)cc4)cc3)ccc2[nH]1
REMARK SMILES IDX 19 1 18 2 17 3 16 4 15 5 13 6 14 7 11 8 12 9 10 10 7 11 8 12
REMARK SMILES IDX 88 13 9 14 87 15 6 16 1 17 2 18 3 19 92 20 4 21 91 22 5 24
REMARK SMILES IDX 90 25 89 26 20 27 21 28 22 29 23 30 24 31 25 32 86 33 26 34
REMARK SMILES IDX 85 35 27 36 28 37 29 38 79 39 30 40 84 41 78 42 80 43 31 44
REMARK SMILES IDX 83 45 77 46 76 47 32 49 64 50 44 51 63 52 45 53 48 54 62 55
REMARK SMILES IDX 81 56 46 57 47 58 61 60 82 61 49 62 33 63 34 64 42 65 35 66
REMARK SMILES IDX 41 67 43 68 40 69 36 70 37 71 38 72 39 73 65 74 66 75 74 76
REMARK SMILES IDX 67 77 73 78 75 79 72 80 68 81 69 82 70 83 71 84 50 85 51 86
REMARK SMILES IDX 59 87 52 88 58 89 60 90 57 91 53 92 54 93 55 94 56 95
REMARK H PARENT 92 23 80 48 48 59
REMARK Flexibility Score: inf
ROOT
ATOM      1  C   UNL     1       8.580  -0.922  -1.799  1.00  0.00     0.202 C 
ENDROOT
BRANCH   1   2
ATOM      2  O   UNL     1       9.516  -1.349  -2.789  1.00  0.00    -0.374 OA
BRANCH   2   3
ATOM      3  C   UNL     1       9.069  -2.323  -3.734  1.00  0.00     0.202 C 
BRANCH   3   4
ATOM      4  C   UNL     1       9.017  -3.768  -3.234  1.00  0.00     0.261 C 
BRANCH   4   5
ATOM      5  O   UNL     1       8.012  -3.934  -2.218  1.00  0.00    -0.463 OA
BRANCH   5   6
ATOM      6  C   UNL     1       8.459  -4.251  -0.976  1.00  0.00     0.313 C 
ATOM      7  O   UNL     1       9.626  -4.524  -0.706  1.00  0.00    -0.252 OA
BRANCH   6   8
ATOM      8  C   UNL     1       7.367  -4.283   0.082  1.00  0.00     0.126 C 
ATOM      9  C   UNL     1       6.890  -5.722   0.265  1.00  0.00     0.025 C 
BRANCH   8  10
ATOM     10  C   UNL     1       6.200  -3.312  -0.065  1.00  0.00    -0.034 A 
ATOM     11  C   UNL     1       3.894  -1.639  -0.123  1.00  0.00    -0.018 A 
ATOM     12  C   UNL     1       4.123  -2.600  -1.120  1.00  0.00     0.009 A 
ATOM     13  C   UNL     1       4.868  -1.489   0.873  1.00  0.00     0.009 A 
ATOM     14  C   UNL     1       5.255  -3.425  -1.092  1.00  0.00     0.005 A 
ATOM     15  C   UNL     1       6.002  -2.312   0.903  1.00  0.00     0.005 A 
BRANCH  11  16
ATOM     16  C   UNL     1       2.638  -0.870  -0.088  1.00  0.00    -0.018 A 
ATOM     17  C   UNL     1      -3.415   0.114   0.003  1.00  0.00     0.064 C 
ATOM     18  C   UNL     1      -1.944  -0.070   0.007  1.00  0.00     0.013 A 
ATOM     19  C   UNL     1      -1.180  -1.219   0.007  1.00  0.00     0.031 A 
ATOM     20  N   UNL     1      -1.075   0.995  -0.011  1.00  0.00    -0.359 N 
ATOM     21  C   UNL     1       0.189  -0.837  -0.022  1.00  0.00     0.000 A 
ATOM     22  C   UNL     1       0.230   0.554  -0.021  1.00  0.00     0.046 A 
ATOM     23  H   UNL     1      -1.347   1.941  -0.016  1.00  0.00     0.166 HD
ATOM     24  C   UNL     1       1.403  -1.550  -0.055  1.00  0.00     0.019 A 
ATOM     25  C   UNL     1       1.433   1.269  -0.043  1.00  0.00     0.027 A 
ATOM     26  C   UNL     1       2.628   0.533  -0.074  1.00  0.00     0.011 A 
ENDBRANCH  11  16
ENDBRANCH   8  10
ENDBRANCH   6   8
ENDBRANCH   5   6
ENDBRANCH   4   5
ENDBRANCH   3   4
ENDBRANCH   2   3
ENDBRANCH   1   2
BRANCH   1  27
ATOM     27  C   UNL     1       7.493   0.060  -2.251  1.00  0.00     0.261 C 
BRANCH  27  28
ATOM     28  O   UNL     1       6.556  -0.537  -3.164  1.00  0.00    -0.460 OA
BRANCH  28  29
ATOM     29  C   UNL     1       6.621  -0.072  -4.434  1.00  0.00     0.338 C 
ATOM     30  O   UNL     1       7.346   0.823  -4.851  1.00  0.00    -0.246 OA
BRANCH  29  31
ATOM     31  C   UNL     1       5.819  -0.926  -5.330  1.00  0.00     0.060 A 
ATOM     32  C   UNL     1       6.439  -1.409  -6.490  1.00  0.00     0.016 A 
ATOM     33  C   UNL     1       4.469  -1.191  -5.085  1.00  0.00     0.016 A 
ATOM     34  C   UNL     1       5.700  -2.116  -7.436  1.00  0.00     0.010 A 
ATOM     35  C   UNL     1       3.726  -1.893  -6.042  1.00  0.00     0.010 A 
ATOM     36  C   UNL     1       4.329  -2.328  -7.238  1.00  0.00    -0.014 A 
BRANCH  36  37
ATOM     37  C   UNL     1       3.499  -2.852  -8.352  1.00  0.00     0.031 A 
ATOM     38  C   UNL     1       2.710  -1.878  -9.185  1.00  0.00     0.074 A 
ATOM     39  C   UNL     1       3.472  -4.166  -8.641  1.00  0.00     0.049 A 
ATOM     40  N   UNL     1       1.867  -2.106 -10.159  1.00  0.00    -0.248 NA
ATOM     41  C   UNL     1       2.900  -0.453  -8.873  1.00  0.00     0.031 C 
ATOM     42  C   UNL     1       4.244  -5.197  -7.950  1.00  0.00     0.029 A 
ATOM     43  N   UNL     1       2.761  -4.857  -9.590  1.00  0.00    -0.354 N 
ATOM     44  C   UNL     1       1.425  -0.856 -10.578  1.00  0.00     0.074 A 
ATOM     45  C   UNL     1       2.065   0.123  -9.724  1.00  0.00     0.031 C 
ATOM     46  C   UNL     1       3.954  -6.393  -8.491  1.00  0.00     0.029 A 
ATOM     47  C   UNL     1       2.945  -6.219  -9.534  1.00  0.00     0.049 A 
ATOM     48  H   UNL     1       2.175  -4.419 -10.249  1.00  0.00     0.167 HD
ATOM     49  C   UNL     1       0.572  -0.551 -11.587  1.00  0.00     0.034 A 
ATOM     50  C   UNL     1       2.343  -7.210 -10.223  1.00  0.00     0.034 A 
ATOM     51  C   UNL     1      -0.073  -1.539 -12.418  1.00  0.00     0.049 A 
ATOM     52  C   UNL     1       1.306  -6.855 -11.264  1.00  0.00     0.074 A 
ATOM     53  C   UNL     1      -0.962  -1.343 -13.461  1.00  0.00     0.029 A 
ATOM     54  N   UNL     1       0.094  -2.912 -12.294  1.00  0.00    -0.354 N 
ATOM     55  N   UNL     1       0.885  -5.670 -11.642  1.00  0.00    -0.248 NA
ATOM     56  C   UNL     1       0.667  -7.972 -11.974  1.00  0.00     0.031 C 
ATOM     57  C   UNL     1      -1.384  -2.596 -13.920  1.00  0.00     0.029 A 
ATOM     58  C   UNL     1      -0.699  -3.575 -13.219  1.00  0.00     0.049 A 
ATOM     59  H   UNL     1       0.689  -3.352 -11.644  1.00  0.00     0.167 HD
ATOM     60  C   UNL     1      -0.040  -5.901 -12.659  1.00  0.00     0.074 A 
ATOM     61  C   UNL     1      -0.110  -7.336 -12.839  1.00  0.00     0.031 C 
ATOM     62  C   UNL     1      -0.759  -5.008 -13.385  1.00  0.00     0.034 A 
BRANCH  49  63
ATOM     63  C   UNL     1       0.250   0.907 -11.804  1.00  0.00     0.023 A 
ATOM     64  C   UNL     1       1.233   1.829 -12.206  1.00  0.00     0.031 A 
ATOM     65  C   UNL     1      -1.050   1.390 -11.574  1.00  0.00     0.131 A 
ATOM     66  C   UNL     1       0.917   3.193 -12.298  1.00  0.00     0.055 A 
ATOM     67  C   UNL     1      -1.377   2.737 -11.744  1.00  0.00     0.041 A 
ATOM     68  F   UNL     1      -2.024   0.562 -11.166  1.00  0.00    -0.206 F 
ATOM     69  C   UNL     1      -0.387   3.650 -12.094  1.00  0.00     0.022 A 
BRANCH  66  70
ATOM     70  S   UNL     1       2.265   4.381 -12.551  1.00  0.00     0.124 S 
ATOM     71  O   UNL     1       3.114   4.115 -11.392  1.00  0.00    -0.237 OA
ATOM     72  O   UNL     1       2.803   3.978 -13.844  1.00  0.00    -0.237 OA
ATOM     73  O   UNL     1       1.588   5.676 -12.533  1.00  0.00    -0.744 OA
ENDBRANCH  66  70
ENDBRANCH  49  63
BRANCH  50  74
ATOM     74  C   UNL     1       2.654  -8.639  -9.926  1.00  0.00     0.023 A 
ATOM     75  C   UNL     1       3.215  -9.480 -10.900  1.00  0.00     0.031 A 
ATOM     76  C   UNL     1       2.328  -9.203  -8.679  1.00  0.00     0.131 A 
ATOM     77  C   UNL     1       3.385 -10.847 -10.630  1.00  0.00     0.055 A 
ATOM     78  C   UNL     1       2.551 -10.551  -8.396  1.00  0.00     0.041 A 
ATOM     79  F   UNL     1       1.785  -8.446  -7.712  1.00  0.00    -0.206 F 
ATOM     80  C   UNL     1       3.069 -11.386  -9.381  1.00  0.00     0.022 A 
BRANCH  77  81
ATOM     81  S   UNL     1       3.933 -11.935 -11.974  1.00  0.00     0.124 S 
ATOM     82  O   UNL     1       2.903 -11.707 -12.980  1.00  0.00    -0.237 OA
ATOM     83  O   UNL     1       5.256 -11.399 -12.276  1.00  0.00    -0.237 OA
ATOM     84  O   UNL     1       3.925 -13.262 -11.362  1.00  0.00    -0.744 OA
ENDBRANCH  77  81
ENDBRANCH  50  74
BRANCH  62  85
ATOM     85  C   UNL     1      -1.639  -5.558 -14.482  1.00  0.00     0.023 A 
ATOM     86  C   UNL     1      -2.786  -6.321 -14.205  1.00  0.00     0.031 A 
ATOM     87  C   UNL     1      -1.321  -5.305 -15.829  1.00  0.00     0.131 A 
ATOM     88  C   UNL     1      -3.549  -6.844 -15.261  1.00  0.00     0.055 A 
ATOM     89  C   UNL     1      -2.114  -5.781 -16.874  1.00  0.00     0.041 A 
ATOM     90  F   UNL     1      -0.236  -4.582 -16.151  1.00  0.00    -0.206 F 
ATOM     91  C   UNL     1      -3.229  -6.565 -16.593  1.00  0.00     0.022 A 
BRANCH  88  92
ATOM     92  S   UNL     1      -4.928  -7.957 -14.876  1.00  0.00     0.124 S 
ATOM     93  O   UNL     1      -4.254  -9.044 -14.173  1.00  0.00    -0.237 OA
ATOM     94  O   UNL     1      -5.795  -7.112 -14.062  1.00  0.00    -0.237 OA
ATOM     95  O   UNL     1      -5.465  -8.307 -16.190  1.00  0.00    -0.744 OA
ENDBRANCH  88  92
ENDBRANCH  62  85
ENDBRANCH  36  37
ENDBRANCH  29  31
ENDBRANCH  28  29
ENDBRANCH  27  28
ENDBRANCH   1  27
TORSDOF 19
