REMARK SMILES O=C(OCCOCCOC(=O)[C@@H]1[NH2+]CC[C@H]1c1ccc2c(c1)OCCCO2)c1ccc(-c2c3nc(c(-c4cc(S(=O)(=O)[O-])ccc4F)c4ccc([nH]4)c(-c4cc(S(=O)(=O)[O-])ccc4F)c4nc(c(-c5cc(S(=O)(=O)[O-])ccc5F)c5ccc2[nH]5)C=C4)C=C3)cc1
REMARK SMILES IDX 7 1 6 2 5 3 4 4 3 5 2 6 1 7 28 8 29 9 90 10 30 11 89 12
REMARK SMILES IDX 31 13 32 14 33 15 83 16 34 17 88 18 82 19 84 20 35 21 87 22
REMARK SMILES IDX 81 23 80 24 36 26 68 27 48 28 67 29 49 30 52 31 66 32 85 33
REMARK SMILES IDX 50 34 51 35 65 37 86 38 53 39 37 40 38 41 46 42 39 43 45 44
REMARK SMILES IDX 47 45 44 46 40 47 41 48 42 49 43 50 69 51 70 52 78 53 71 54
REMARK SMILES IDX 77 55 79 56 76 57 72 58 73 59 74 60 75 61 54 62 55 63 63 64
REMARK SMILES IDX 56 65 62 66 64 67 61 68 57 69 58 70 59 71 60 72 8 73 9 74
REMARK SMILES IDX 10 75 11 76 12 77 13 78 16 79 14 80 15 83 17 84 18 85 22 86
REMARK SMILES IDX 19 87 21 88 20 89 23 90 24 91 27 93 26 94 25 95
REMARK H PARENT 84 25 52 36 13 81 13 82
REMARK Flexibility Score: 80.00
ROOT
ATOM      1  C   UNL     1       3.899   1.754  -4.243  1.00  0.00     0.202 C 
ENDROOT
BRANCH   1   2
ATOM      2  O   UNL     1       3.393   1.228  -3.012  1.00  0.00    -0.374 OA
BRANCH   2   3
ATOM      3  C   UNL     1       4.331   1.039  -1.954  1.00  0.00     0.202 C 
BRANCH   3   4
ATOM      4  C   UNL     1       5.204  -0.225  -2.002  1.00  0.00     0.261 C 
BRANCH   4   5
ATOM      5  O   UNL     1       5.778  -0.468  -3.293  1.00  0.00    -0.460 OA
BRANCH   5   6
ATOM      6  C   UNL     1       5.261  -1.199  -4.312  1.00  0.00     0.338 C 
ATOM      7  O   UNL     1       5.983  -1.400  -5.289  1.00  0.00    -0.246 OA
BRANCH   6   8
ATOM      8  C   UNL     1       3.837  -1.677  -4.375  1.00  0.00     0.060 A 
ATOM      9  C   UNL     1       3.439  -2.326  -5.559  1.00  0.00     0.016 A 
ATOM     10  C   UNL     1       2.857  -1.464  -3.403  1.00  0.00     0.016 A 
ATOM     11  C   UNL     1       2.105  -2.693  -5.768  1.00  0.00     0.010 A 
ATOM     12  C   UNL     1       1.529  -1.782  -3.613  1.00  0.00     0.010 A 
ATOM     13  C   UNL     1       1.148  -2.399  -4.794  1.00  0.00    -0.014 A 
BRANCH  13  14
ATOM     14  C   UNL     1      -0.226  -2.905  -4.836  1.00  0.00     0.031 A 
ATOM     15  C   UNL     1      -1.379  -1.988  -5.070  1.00  0.00     0.074 A 
ATOM     16  C   UNL     1      -0.392  -4.170  -4.414  1.00  0.00     0.049 A 
ATOM     17  N   UNL     1      -2.646  -2.281  -5.153  1.00  0.00    -0.248 NA
ATOM     18  C   UNL     1      -1.081  -0.550  -5.190  1.00  0.00     0.031 C 
ATOM     19  C   UNL     1       0.702  -5.040  -3.967  1.00  0.00     0.029 A 
ATOM     20  N   UNL     1      -1.514  -4.923  -4.241  1.00  0.00    -0.354 N 
ATOM     21  C   UNL     1      -3.297  -1.077  -5.386  1.00  0.00     0.074 A 
ATOM     22  C   UNL     1      -2.296  -0.035  -5.334  1.00  0.00     0.031 C 
ATOM     23  C   UNL     1       0.194  -6.214  -3.580  1.00  0.00     0.029 A 
ATOM     24  C   UNL     1      -1.252  -6.181  -3.757  1.00  0.00     0.049 A 
ATOM     25  H   UNL     1      -2.421  -4.598  -4.442  1.00  0.00     0.167 HD
ATOM     26  C   UNL     1      -4.611  -0.890  -5.656  1.00  0.00     0.034 A 
ATOM     27  C   UNL     1      -2.091  -7.205  -3.516  1.00  0.00     0.034 A 
ATOM     28  C   UNL     1      -5.562  -1.977  -5.627  1.00  0.00     0.049 A 
ATOM     29  C   UNL     1      -3.530  -7.009  -3.899  1.00  0.00     0.074 A 
ATOM     30  C   UNL     1      -6.905  -1.957  -5.949  1.00  0.00     0.029 A 
ATOM     31  N   UNL     1      -5.265  -3.281  -5.237  1.00  0.00    -0.354 N 
ATOM     32  N   UNL     1      -4.123  -5.912  -4.315  1.00  0.00    -0.248 NA
ATOM     33  C   UNL     1      -4.403  -8.182  -3.835  1.00  0.00     0.031 C 
ATOM     34  C   UNL     1      -7.432  -3.225  -5.688  1.00  0.00     0.029 A 
ATOM     35  C   UNL     1      -6.404  -4.067  -5.286  1.00  0.00     0.049 A 
ATOM     36  H   UNL     1      -4.373  -3.598  -4.965  1.00  0.00     0.167 HD
ATOM     37  C   UNL     1      -5.441  -6.261  -4.572  1.00  0.00     0.074 A 
ATOM     38  C   UNL     1      -5.541  -7.685  -4.305  1.00  0.00     0.031 C 
ATOM     39  C   UNL     1      -6.475  -5.481  -4.983  1.00  0.00     0.034 A 
BRANCH  26  40
ATOM     40  C   UNL     1      -5.087   0.487  -6.061  1.00  0.00     0.023 A 
ATOM     41  C   UNL     1      -6.138   1.124  -5.373  1.00  0.00     0.031 A 
ATOM     42  C   UNL     1      -4.593   1.111  -7.225  1.00  0.00     0.131 A 
ATOM     43  C   UNL     1      -6.683   2.315  -5.874  1.00  0.00     0.055 A 
ATOM     44  C   UNL     1      -5.105   2.324  -7.691  1.00  0.00     0.041 A 
ATOM     45  F   UNL     1      -3.602   0.548  -7.934  1.00  0.00    -0.206 F 
ATOM     46  C   UNL     1      -6.165   2.923  -7.023  1.00  0.00     0.022 A 
BRANCH  43  47
ATOM     47  S   UNL     1      -8.137   3.086  -5.108  1.00  0.00     0.124 S 
ATOM     48  O   UNL     1      -7.636   4.420  -4.784  1.00  0.00    -0.237 OA
ATOM     49  O   UNL     1      -9.114   3.034  -6.192  1.00  0.00    -0.237 OA
ATOM     50  O   UNL     1      -8.422   2.233  -3.960  1.00  0.00    -0.744 OA
ENDBRANCH  43  47
ENDBRANCH  26  40
BRANCH  27  51
ATOM     51  C   UNL     1      -1.503  -8.496  -3.064  1.00  0.00     0.023 A 
ATOM     52  C   UNL     1      -0.829  -8.580  -1.830  1.00  0.00     0.031 A 
ATOM     53  C   UNL     1      -1.386  -9.572  -3.958  1.00  0.00     0.131 A 
ATOM     54  C   UNL     1       0.010  -9.673  -1.571  1.00  0.00     0.055 A 
ATOM     55  C   UNL     1      -0.612 -10.695  -3.661  1.00  0.00     0.041 A 
ATOM     56  F   UNL     1      -1.979  -9.519  -5.161  1.00  0.00    -0.206 F 
ATOM     57  C   UNL     1       0.111 -10.737  -2.472  1.00  0.00     0.022 A 
BRANCH  54  58
ATOM     58  S   UNL     1       1.149  -9.653  -0.155  1.00  0.00     0.124 S 
ATOM     59  O   UNL     1       0.718 -10.827   0.598  1.00  0.00    -0.237 OA
ATOM     60  O   UNL     1       2.447  -9.768  -0.815  1.00  0.00    -0.237 OA
ATOM     61  O   UNL     1       0.890  -8.365   0.478  1.00  0.00    -0.744 OA
ENDBRANCH  54  58
ENDBRANCH  27  51
BRANCH  39  62
ATOM     62  C   UNL     1      -7.826  -6.137  -5.126  1.00  0.00     0.023 A 
ATOM     63  C   UNL     1      -8.474  -6.153  -6.375  1.00  0.00     0.031 A 
ATOM     64  C   UNL     1      -8.523  -6.625  -4.006  1.00  0.00     0.131 A 
ATOM     65  C   UNL     1      -9.792  -6.612  -6.467  1.00  0.00     0.055 A 
ATOM     66  C   UNL     1      -9.814  -7.138  -4.114  1.00  0.00     0.041 A 
ATOM     67  F   UNL     1      -7.952  -6.615  -2.791  1.00  0.00    -0.206 F 
ATOM     68  C   UNL     1     -10.460  -7.119  -5.347  1.00  0.00     0.022 A 
BRANCH  65  69
ATOM     69  S   UNL     1     -10.723  -6.477  -8.017  1.00  0.00     0.124 S 
ATOM     70  O   UNL     1     -11.010  -7.878  -8.318  1.00  0.00    -0.237 OA
ATOM     71  O   UNL     1     -11.876  -5.677  -7.613  1.00  0.00    -0.237 OA
ATOM     72  O   UNL     1      -9.793  -5.822  -8.931  1.00  0.00    -0.744 OA
ENDBRANCH  65  69
ENDBRANCH  39  62
ENDBRANCH  13  14
ENDBRANCH   6   8
ENDBRANCH   5   6
ENDBRANCH   4   5
ENDBRANCH   3   4
ENDBRANCH   2   3
ENDBRANCH   1   2
BRANCH   1  73
ATOM     73  C   UNL     1       3.516   3.220  -4.424  1.00  0.00     0.261 C 
BRANCH  73  74
ATOM     74  O   UNL     1       4.330   3.994  -3.533  1.00  0.00    -0.459 OA
BRANCH  74  75
ATOM     75  C   UNL     1       3.823   4.215  -2.288  1.00  0.00     0.365 C 
ATOM     76  O   UNL     1       2.651   4.076  -1.975  1.00  0.00    -0.245 OA
BRANCH  75  77
ATOM     77  C   UNL     1       4.933   4.638  -1.300  1.00  0.00     0.301 C 
ATOM     78  N   UNL     1       5.062   6.117  -1.296  1.00  0.00    -0.334 N 
ATOM     79  C   UNL     1       6.365   4.157  -1.629  1.00  0.00     0.095 C 
ATOM     80  C   UNL     1       5.976   6.427  -2.405  1.00  0.00     0.262 C 
ATOM     81  H   UNL     1       5.451   6.440  -0.411  1.00  0.00     0.347 HD
ATOM     82  H   UNL     1       4.159   6.578  -1.407  1.00  0.00     0.347 HD
ATOM     83  C   UNL     1       6.804   5.176  -2.691  1.00  0.00     0.076 C 
BRANCH  79  84
ATOM     84  C   UNL     1       7.250   4.098  -0.379  1.00  0.00    -0.034 A 
ATOM     85  C   UNL     1       8.171   5.113  -0.083  1.00  0.00     0.008 A 
ATOM     86  C   UNL     1       7.135   3.027   0.534  1.00  0.00     0.054 A 
ATOM     87  C   UNL     1       8.951   5.070   1.069  1.00  0.00     0.051 A 
ATOM     88  C   UNL     1       7.939   2.970   1.684  1.00  0.00     0.161 A 
ATOM     89  C   UNL     1       8.843   4.000   1.946  1.00  0.00     0.161 A 
BRANCH  88  90
ATOM     90  O   UNL     1       7.699   1.953   2.571  1.00  0.00    -0.490 OA
BRANCH  90  91
ATOM     91  C   UNL     1       8.850   1.152   2.849  1.00  0.00     0.233 CG0
ATOM     92  G   UNL     1       9.829   1.799   3.823  1.00  0.00     0.000 G0
ENDBRANCH  90  91
ENDBRANCH  88  90
BRANCH  89  93
ATOM     93  O   UNL     1       9.587   4.092   3.087  1.00  0.00    -0.490 OA
BRANCH  93  94
ATOM     94  C   UNL     1      10.502   3.007   3.201  1.00  0.00     0.233 C 
BRANCH  94  95
ATOM     95  C   UNL     1       9.829   1.799   3.823  1.00  0.00     0.083 CG0
ATOM     96  G   UNL     1       8.850   1.152   2.849  1.00  0.00     0.000 G0
ENDBRANCH  94  95
ENDBRANCH  93  94
ENDBRANCH  89  93
ENDBRANCH  79  84
ENDBRANCH  75  77
ENDBRANCH  74  75
ENDBRANCH  73  74
ENDBRANCH   1  73
TORSDOF 18
