REMARK SMILES CCC(CC)(CC(=O)Nc1cccc(Br)c1)C(=O)OCCOCCOC(=O)c1ccc(-c2c3nc(c(-c4cc(S(=O)(=O)[O-])ccc4F)c4ccc([nH]4)c(-c4cc(S(=O)(=O)[O-])ccc4F)c4nc(c(-c5cc(S(=O)(=O)[O-])ccc5F)c5ccc2[nH]5)C=C4)C=C3)cc1
REMARK SMILES IDX 22 1 21 2 20 3 19 4 17 5 18 6 3 7 2 8 1 9 4 10 5 11 6 12
REMARK SMILES IDX 7 13 8 14 9 15 10 17 11 18 16 19 12 20 14 21 13 22 15 23
REMARK SMILES IDX 23 24 24 25 25 26 26 27 27 28 28 29 29 30 90 31 30 32 89 33
REMARK SMILES IDX 31 34 32 35 33 36 83 37 34 38 88 39 82 40 84 41 35 42 87 43
REMARK SMILES IDX 81 44 80 45 36 47 68 48 48 49 67 50 49 51 52 52 66 53 85 54
REMARK SMILES IDX 50 55 51 56 65 58 86 59 53 60 37 61 38 62 46 63 39 64 45 65
REMARK SMILES IDX 47 66 44 67 40 68 41 69 42 70 43 71 69 72 70 73 78 74 71 75
REMARK SMILES IDX 77 76 79 77 76 78 72 79 73 80 74 81 75 82 54 83 55 84 63 85
REMARK SMILES IDX 56 86 62 87 64 88 61 89 57 90 58 91 59 92 60 93
REMARK H PARENT 9 16 84 46 52 57
REMARK Flexibility Score: inf
ROOT
ATOM      1  O   UNL     1       4.870  -2.256   0.188  1.00  0.00    -0.374 OA
ENDROOT
BRANCH   1   2
ATOM      2  C   UNL     1       5.379  -2.445   1.504  1.00  0.00     0.202 C 
BRANCH   2   3
ATOM      3  C   UNL     1       4.437  -2.156   2.687  1.00  0.00     0.261 C 
BRANCH   3   4
ATOM      4  O   UNL     1       3.032  -2.346   2.408  1.00  0.00    -0.463 OA
BRANCH   4   5
ATOM      5  C   UNL     1       2.284  -1.223   2.502  1.00  0.00     0.312 C 
ATOM      6  O   UNL     1       2.738  -0.142   2.874  1.00  0.00    -0.252 OA
BRANCH   5   7
ATOM      7  C   UNL     1       0.804  -1.360   2.082  1.00  0.00     0.076 C 
BRANCH   7   8
ATOM      8  C   UNL     1       0.620  -0.495   0.824  1.00  0.00     0.016 C 
ATOM      9  C   UNL     1       0.911   0.999   0.880  1.00  0.00     0.005 C 
ENDBRANCH   7   8
BRANCH   7  10
ATOM     10  C   UNL     1       0.029  -0.777   3.319  1.00  0.00     0.016 C 
ATOM     11  C   UNL     1      -1.485  -0.668   3.194  1.00  0.00     0.005 C 
ENDBRANCH   7  10
BRANCH   7  12
ATOM     12  C   UNL     1       0.242  -2.796   1.828  1.00  0.00     0.119 C 
BRANCH  12  13
ATOM     13  C   UNL     1       0.624  -3.713   0.666  1.00  0.00     0.225 C 
ATOM     14  O   UNL     1       1.233  -4.762   0.912  1.00  0.00    -0.275 OA
ATOM     15  N   UNL     1       0.256  -3.553  -0.641  1.00  0.00    -0.326 N 
ATOM     16  H   UNL     1       0.741  -4.134  -1.271  1.00  0.00     0.169 HD
BRANCH  15  17
ATOM     17  C   UNL     1      -0.685  -2.712  -1.245  1.00  0.00     0.042 A 
ATOM     18  C   UNL     1      -0.249  -1.573  -1.928  1.00  0.00     0.026 A 
ATOM     19  C   UNL     1      -2.004  -3.133  -1.404  1.00  0.00     0.041 A 
ATOM     20  C   UNL     1      -1.157  -0.744  -2.589  1.00  0.00     0.003 A 
ATOM     21  C   UNL     1      -2.900  -2.334  -2.123  1.00  0.00     0.020 A 
ATOM     22  C   UNL     1      -2.492  -1.121  -2.680  1.00  0.00     0.016 A 
ATOM     23  Br  UNL     1      -4.680  -2.917  -2.390  1.00  0.00    -0.051 Br
ENDBRANCH  15  17
ENDBRANCH  12  13
ENDBRANCH   7  12
ENDBRANCH   5   7
ENDBRANCH   4   5
ENDBRANCH   3   4
ENDBRANCH   2   3
ENDBRANCH   1   2
BRANCH   1  24
ATOM     24  C   UNL     1       3.857  -3.170  -0.241  1.00  0.00     0.202 C 
BRANCH  24  25
ATOM     25  C   UNL     1       4.148  -4.666  -0.074  1.00  0.00     0.261 C 
BRANCH  25  26
ATOM     26  O   UNL     1       4.198  -5.043   1.316  1.00  0.00    -0.460 OA
BRANCH  26  27
ATOM     27  C   UNL     1       5.072  -6.043   1.578  1.00  0.00     0.338 C 
ATOM     28  O   UNL     1       5.682  -6.711   0.763  1.00  0.00    -0.246 OA
BRANCH  27  29
ATOM     29  C   UNL     1       5.367  -6.085   3.022  1.00  0.00     0.060 A 
ATOM     30  C   UNL     1       6.629  -5.643   3.432  1.00  0.00     0.016 A 
ATOM     31  C   UNL     1       4.490  -6.678   3.932  1.00  0.00     0.016 A 
ATOM     32  C   UNL     1       7.047  -5.854   4.745  1.00  0.00     0.010 A 
ATOM     33  C   UNL     1       4.915  -6.893   5.252  1.00  0.00     0.010 A 
ATOM     34  C   UNL     1       6.213  -6.525   5.651  1.00  0.00    -0.014 A 
BRANCH  34  35
ATOM     35  C   UNL     1       6.795  -6.979   6.943  1.00  0.00     0.031 A 
ATOM     36  C   UNL     1       7.287  -8.398   7.065  1.00  0.00     0.074 A 
ATOM     37  C   UNL     1       6.981  -6.112   7.955  1.00  0.00     0.049 A 
ATOM     38  N   UNL     1       7.911  -8.981   8.057  1.00  0.00    -0.248 NA
ATOM     39  C   UNL     1       7.048  -9.275   5.908  1.00  0.00     0.031 C 
ATOM     40  C   UNL     1       6.580  -4.705   7.942  1.00  0.00     0.029 A 
ATOM     41  N   UNL     1       7.568  -6.282   9.184  1.00  0.00    -0.354 N 
ATOM     42  C   UNL     1       8.161 -10.284   7.638  1.00  0.00     0.074 A 
ATOM     43  C   UNL     1       7.568 -10.420   6.323  1.00  0.00     0.031 C 
ATOM     44  C   UNL     1       6.936  -4.140   9.109  1.00  0.00     0.029 A 
ATOM     45  C   UNL     1       7.569  -5.146   9.960  1.00  0.00     0.049 A 
ATOM     46  H   UNL     1       7.954  -7.138   9.482  1.00  0.00     0.167 HD
ATOM     47  C   UNL     1       8.837 -11.271   8.278  1.00  0.00     0.034 A 
ATOM     48  C   UNL     1       8.019  -4.944  11.215  1.00  0.00     0.034 A 
ATOM     49  C   UNL     1       9.399 -11.134   9.601  1.00  0.00     0.049 A 
ATOM     50  C   UNL     1       8.702  -6.080  11.940  1.00  0.00     0.074 A 
ATOM     51  C   UNL     1      10.080 -12.076  10.353  1.00  0.00     0.029 A 
ATOM     52  N   UNL     1       9.336  -9.982  10.375  1.00  0.00    -0.354 N 
ATOM     53  N   UNL     1       8.937  -7.304  11.525  1.00  0.00    -0.248 NA
ATOM     54  C   UNL     1       9.197  -5.799  13.294  1.00  0.00     0.031 C 
ATOM     55  C   UNL     1      10.374 -11.515  11.601  1.00  0.00     0.029 A 
ATOM     56  C   UNL     1       9.944 -10.198  11.603  1.00  0.00     0.049 A 
ATOM     57  H   UNL     1       8.920  -9.136  10.093  1.00  0.00     0.167 HD
ATOM     58  C   UNL     1       9.630  -7.929  12.560  1.00  0.00     0.074 A 
ATOM     59  C   UNL     1       9.797  -6.939  13.603  1.00  0.00     0.031 C 
ATOM     60  C   UNL     1      10.088  -9.205  12.642  1.00  0.00     0.034 A 
BRANCH  47  61
ATOM     61  C   UNL     1       8.965 -12.595   7.563  1.00  0.00     0.023 A 
ATOM     62  C   UNL     1       9.697 -12.719   6.368  1.00  0.00     0.031 A 
ATOM     63  C   UNL     1       8.327 -13.742   8.065  1.00  0.00     0.131 A 
ATOM     64  C   UNL     1       9.719 -13.944   5.683  1.00  0.00     0.055 A 
ATOM     65  C   UNL     1       8.413 -14.977   7.417  1.00  0.00     0.041 A 
ATOM     66  F   UNL     1       7.596 -13.681   9.190  1.00  0.00    -0.206 F 
ATOM     67  C   UNL     1       9.101 -15.080   6.212  1.00  0.00     0.022 A 
BRANCH  64  68
ATOM     68  S   UNL     1      10.458 -14.003   4.027  1.00  0.00     0.124 S 
ATOM     69  O   UNL     1       9.637 -13.036   3.303  1.00  0.00    -0.237 OA
ATOM     70  O   UNL     1      11.838 -13.606   4.283  1.00  0.00    -0.237 OA
ATOM     71  O   UNL     1      10.275 -15.394   3.619  1.00  0.00    -0.744 OA
ENDBRANCH  64  68
ENDBRANCH  47  61
BRANCH  48  72
ATOM     72  C   UNL     1       7.813  -3.629  11.890  1.00  0.00     0.023 A 
ATOM     73  C   UNL     1       8.894  -2.833  12.300  1.00  0.00     0.031 A 
ATOM     74  C   UNL     1       6.514  -3.182  12.197  1.00  0.00     0.131 A 
ATOM     75  C   UNL     1       8.661  -1.661  13.038  1.00  0.00     0.055 A 
ATOM     76  C   UNL     1       6.285  -1.988  12.882  1.00  0.00     0.041 A 
ATOM     77  F   UNL     1       5.443  -3.905  11.830  1.00  0.00    -0.206 F 
ATOM     78  C   UNL     1       7.363  -1.228  13.321  1.00  0.00     0.022 A 
BRANCH  75  79
ATOM     79  S   UNL     1      10.083  -0.759  13.714  1.00  0.00     0.124 S 
ATOM     80  O   UNL     1      10.750  -1.794  14.494  1.00  0.00    -0.237 OA
ATOM     81  O   UNL     1      10.769  -0.326  12.501  1.00  0.00    -0.237 OA
ATOM     82  O   UNL     1       9.467   0.312  14.494  1.00  0.00    -0.744 OA
ENDBRANCH  75  79
ENDBRANCH  48  72
BRANCH  60  83
ATOM     83  C   UNL     1      10.843  -9.580  13.896  1.00  0.00     0.023 A 
ATOM     84  C   UNL     1      10.215  -9.617  15.154  1.00  0.00     0.031 A 
ATOM     85  C   UNL     1      12.217  -9.872  13.836  1.00  0.00     0.131 A 
ATOM     86  C   UNL     1      10.972  -9.870  16.308  1.00  0.00     0.055 A 
ATOM     87  C   UNL     1      12.953 -10.185  14.980  1.00  0.00     0.041 A 
ATOM     88  F   UNL     1      12.870  -9.852  12.663  1.00  0.00    -0.206 F 
ATOM     89  C   UNL     1      12.334 -10.169  16.227  1.00  0.00     0.022 A 
BRANCH  86  90
ATOM     90  S   UNL     1      10.175  -9.694  17.928  1.00  0.00     0.124 S 
ATOM     91  O   UNL     1       9.681  -8.322  17.877  1.00  0.00    -0.237 OA
ATOM     92  O   UNL     1       9.158 -10.739  17.890  1.00  0.00    -0.237 OA
ATOM     93  O   UNL     1      11.266  -9.925  18.874  1.00  0.00    -0.744 OA
ENDBRANCH  86  90
ENDBRANCH  60  83
ENDBRANCH  34  35
ENDBRANCH  27  29
ENDBRANCH  26  27
ENDBRANCH  25  26
ENDBRANCH  24  25
ENDBRANCH   1  24
TORSDOF 22
