REMARK SMILES Cc1ccc(NC(=O)C[NH+]2CCC(C(=O)OCCOCCOC(=O)c3ccc(-c4c5nc(c(-c6cc(S(=O)(=O)[O-])ccc6F)c6ccc([nH]6)c(-c6cc(S(=O)(=O)[O-])ccc6F)c6nc(c(-c7cc(S(=O)(=O)[O-])ccc7F)c7ccc4[nH]7)C=C6)C=C5)cc3)CC2)cc1Cl
REMARK SMILES IDX 19 1 18 2 17 3 16 4 14 5 15 6 13 7 10 8 11 9 89 10 12 12
REMARK SMILES IDX 88 13 9 14 7 15 6 16 8 18 5 19 1 20 2 21 3 22 91 23 4 24
REMARK SMILES IDX 90 25 92 26 20 27 21 28 22 29 23 30 24 31 25 32 26 33 87 34
REMARK SMILES IDX 27 35 86 36 28 37 29 38 30 39 80 40 31 41 85 42 79 43 81 44
REMARK SMILES IDX 32 45 84 46 78 47 77 48 33 50 65 51 45 52 64 53 46 54 49 55
REMARK SMILES IDX 63 56 82 57 47 58 48 59 62 61 83 62 50 63 34 64 35 65 43 66
REMARK SMILES IDX 36 67 42 68 44 69 41 70 37 71 38 72 39 73 40 74 66 75 67 76
REMARK SMILES IDX 75 77 68 78 74 79 76 80 73 81 69 82 70 83 71 84 72 85 51 86
REMARK SMILES IDX 52 87 60 88 53 89 59 90 61 91 58 92 54 93 55 94 56 95 57 96
REMARK H PARENT 10 11 6 17 81 49 49 60
REMARK Flexibility Score: inf
ROOT
ATOM      1  O   UNL     1       0.083  -1.311  -8.141  1.00  0.00    -0.374 OA
ENDROOT
BRANCH   1   2
ATOM      2  C   UNL     1       1.365  -0.821  -7.761  1.00  0.00     0.202 C 
BRANCH   2   3
ATOM      3  C   UNL     1       1.493  -0.175  -6.380  1.00  0.00     0.261 C 
BRANCH   3   4
ATOM      4  O   UNL     1       1.159  -1.072  -5.310  1.00  0.00    -0.463 OA
BRANCH   4   5
ATOM      5  C   UNL     1      -0.026  -0.811  -4.704  1.00  0.00     0.309 C 
ATOM      6  O   UNL     1      -0.810   0.078  -5.023  1.00  0.00    -0.252 OA
BRANCH   5   7
ATOM      7  C   UNL     1      -0.281  -1.700  -3.521  1.00  0.00     0.110 C 
ATOM      8  N   UNL     1      -0.045  -3.416  -1.199  1.00  0.00    -0.327 N 
ATOM      9  C   UNL     1      -0.724  -3.897  -2.409  1.00  0.00     0.263 C 
ATOM     10  C   UNL     1       0.156  -1.974  -1.142  1.00  0.00     0.263 C 
ATOM     11  H   UNL     1       0.886  -3.822  -1.290  1.00  0.00     0.348 HD
ATOM     12  C   UNL     1      -0.217  -3.215  -3.701  1.00  0.00     0.077 C 
ATOM     13  C   UNL     1       0.672  -1.323  -2.404  1.00  0.00     0.077 C 
BRANCH   8  14
ATOM     14  C   UNL     1      -0.615  -3.943   0.073  1.00  0.00     0.363 C 
BRANCH  14  15
ATOM     15  C   UNL     1      -2.108  -3.651   0.337  1.00  0.00     0.279 C 
ATOM     16  N   UNL     1      -2.607  -2.469   0.823  1.00  0.00    -0.321 N 
ATOM     17  H   UNL     1      -3.574  -2.487   1.006  1.00  0.00     0.170 HD
ATOM     18  O   UNL     1      -2.955  -4.514   0.058  1.00  0.00    -0.268 OA
BRANCH  16  19
ATOM     19  C   UNL     1      -1.995  -1.237   1.106  1.00  0.00     0.042 A 
ATOM     20  C   UNL     1       0.197   2.415   0.520  1.00  0.00     0.046 C 
ATOM     21  C   UNL     1      -0.607   1.206   0.912  1.00  0.00    -0.032 A 
ATOM     22  C   UNL     1      -1.933   1.102   0.469  1.00  0.00     0.007 A 
ATOM     23  C   UNL     1      -0.045   0.110   1.586  1.00  0.00     0.046 A 
ATOM     24  C   UNL     1      -2.634  -0.101   0.596  1.00  0.00     0.026 A 
ATOM     25  C   UNL     1      -0.743  -1.102   1.698  1.00  0.00     0.047 A 
ATOM     26  Cl  UNL     1       1.576   0.156   2.185  1.00  0.00    -0.084 Cl
ENDBRANCH  16  19
ENDBRANCH  14  15
ENDBRANCH   8  14
ENDBRANCH   5   7
ENDBRANCH   4   5
ENDBRANCH   3   4
ENDBRANCH   2   3
ENDBRANCH   1   2
BRANCH   1  27
ATOM     27  C   UNL     1      -0.402  -2.497  -7.516  1.00  0.00     0.202 C 
BRANCH  27  28
ATOM     28  C   UNL     1       0.332  -3.814  -7.795  1.00  0.00     0.261 C 
BRANCH  28  29
ATOM     29  O   UNL     1       1.672  -3.835  -7.268  1.00  0.00    -0.460 OA
BRANCH  29  30
ATOM     30  C   UNL     1       2.638  -3.973  -8.209  1.00  0.00     0.338 C 
ATOM     31  O   UNL     1       2.470  -4.119  -9.413  1.00  0.00    -0.246 OA
BRANCH  30  32
ATOM     32  C   UNL     1       3.974  -3.742  -7.633  1.00  0.00     0.060 A 
ATOM     33  C   UNL     1       4.749  -2.719  -8.193  1.00  0.00     0.016 A 
ATOM     34  C   UNL     1       4.513  -4.594  -6.667  1.00  0.00     0.016 A 
ATOM     35  C   UNL     1       6.086  -2.579  -7.833  1.00  0.00     0.010 A 
ATOM     36  C   UNL     1       5.862  -4.458  -6.314  1.00  0.00     0.010 A 
ATOM     37  C   UNL     1       6.664  -3.478  -6.927  1.00  0.00    -0.014 A 
BRANCH  37  38
ATOM     38  C   UNL     1       8.140  -3.490  -6.768  1.00  0.00     0.031 A 
ATOM     39  C   UNL     1       8.947  -4.499  -7.543  1.00  0.00     0.074 A 
ATOM     40  C   UNL     1       8.757  -2.578  -5.996  1.00  0.00     0.049 A 
ATOM     41  N   UNL     1      10.239  -4.700  -7.553  1.00  0.00    -0.248 NA
ATOM     42  C   UNL     1       8.189  -5.400  -8.424  1.00  0.00     0.031 C 
ATOM     43  C   UNL     1       8.085  -1.520  -5.242  1.00  0.00     0.029 A 
ATOM     44  N   UNL     1      10.088  -2.396  -5.718  1.00  0.00    -0.354 N 
ATOM     45  C   UNL     1      10.453  -5.747  -8.444  1.00  0.00     0.074 A 
ATOM     46  C   UNL     1       9.150  -6.165  -8.919  1.00  0.00     0.031 C 
ATOM     47  C   UNL     1       9.009  -0.807  -4.576  1.00  0.00     0.029 A 
ATOM     48  C   UNL     1      10.332  -1.377  -4.828  1.00  0.00     0.049 A 
ATOM     49  H   UNL     1      10.802  -2.944  -6.118  1.00  0.00     0.167 HD
ATOM     50  C   UNL     1      11.627  -6.301  -8.837  1.00  0.00     0.034 A 
ATOM     51  C   UNL     1      11.486  -0.970  -4.261  1.00  0.00     0.034 A 
ATOM     52  C   UNL     1      12.916  -5.887  -8.339  1.00  0.00     0.049 A 
ATOM     53  C   UNL     1      12.773  -1.661  -4.642  1.00  0.00     0.074 A 
ATOM     54  C   UNL     1      14.167  -6.381  -8.664  1.00  0.00     0.029 A 
ATOM     55  N   UNL     1      13.120  -4.883  -7.400  1.00  0.00    -0.354 N 
ATOM     56  N   UNL     1      12.961  -2.653  -5.483  1.00  0.00    -0.248 NA
ATOM     57  C   UNL     1      14.002  -1.172  -4.006  1.00  0.00     0.031 C 
ATOM     58  C   UNL     1      15.118  -5.725  -7.874  1.00  0.00     0.029 A 
ATOM     59  C   UNL     1      14.471  -4.766  -7.111  1.00  0.00     0.049 A 
ATOM     60  H   UNL     1      12.408  -4.335  -6.998  1.00  0.00     0.167 HD
ATOM     61  C   UNL     1      14.334  -2.886  -5.495  1.00  0.00     0.074 A 
ATOM     62  C   UNL     1      14.925  -1.923  -4.589  1.00  0.00     0.031 C 
ATOM     63  C   UNL     1      15.044  -3.808  -6.194  1.00  0.00     0.034 A 
BRANCH  50  64
ATOM     64  C   UNL     1      11.555  -7.451  -9.813  1.00  0.00     0.023 A 
ATOM     65  C   UNL     1      11.069  -7.281 -11.122  1.00  0.00     0.031 A 
ATOM     66  C   UNL     1      11.945  -8.743  -9.419  1.00  0.00     0.131 A 
ATOM     67  C   UNL     1      10.921  -8.394 -11.965  1.00  0.00     0.055 A 
ATOM     68  C   UNL     1      11.868  -9.833 -10.288  1.00  0.00     0.041 A 
ATOM     69  F   UNL     1      12.395  -8.971  -8.175  1.00  0.00    -0.206 F 
ATOM     70  C   UNL     1      11.340  -9.665 -11.564  1.00  0.00     0.022 A 
BRANCH  67  71
ATOM     71  S   UNL     1      10.047  -8.182 -13.540  1.00  0.00     0.124 S 
ATOM     72  O   UNL     1       8.747  -7.687 -13.092  1.00  0.00    -0.237 OA
ATOM     73  O   UNL     1      10.889  -7.221 -14.242  1.00  0.00    -0.237 OA
ATOM     74  O   UNL     1      10.030  -9.529 -14.107  1.00  0.00    -0.744 OA
ENDBRANCH  67  71
ENDBRANCH  50  64
BRANCH  51  75
ATOM     75  C   UNL     1      11.479   0.112  -3.235  1.00  0.00     0.023 A 
ATOM     76  C   UNL     1      12.137   1.332  -3.453  1.00  0.00     0.031 A 
ATOM     77  C   UNL     1      10.851  -0.086  -1.992  1.00  0.00     0.131 A 
ATOM     78  C   UNL     1      12.189   2.291  -2.427  1.00  0.00     0.055 A 
ATOM     79  C   UNL     1      10.862   0.889  -0.995  1.00  0.00     0.041 A 
ATOM     80  F   UNL     1      10.208  -1.236  -1.732  1.00  0.00    -0.206 F 
ATOM     81  C   UNL     1      11.545   2.082  -1.205  1.00  0.00     0.022 A 
BRANCH  78  82
ATOM     82  S   UNL     1      13.183   3.787  -2.683  1.00  0.00     0.124 S 
ATOM     83  O   UNL     1      14.502   3.225  -2.949  1.00  0.00    -0.237 OA
ATOM     84  O   UNL     1      12.508   4.407  -3.819  1.00  0.00    -0.237 OA
ATOM     85  O   UNL     1      13.052   4.503  -1.416  1.00  0.00    -0.744 OA
ENDBRANCH  78  82
ENDBRANCH  51  75
BRANCH  63  86
ATOM     86  C   UNL     1      16.545  -3.785  -6.035  1.00  0.00     0.023 A 
ATOM     87  C   UNL     1      17.168  -4.131  -4.823  1.00  0.00     0.031 A 
ATOM     88  C   UNL     1      17.363  -3.399  -7.112  1.00  0.00     0.131 A 
ATOM     89  C   UNL     1      18.562  -4.034  -4.700  1.00  0.00     0.055 A 
ATOM     90  C   UNL     1      18.754  -3.360  -7.002  1.00  0.00     0.041 A 
ATOM     91  F   UNL     1      16.823  -3.057  -8.292  1.00  0.00    -0.206 F 
ATOM     92  C   UNL     1      19.360  -3.666  -5.787  1.00  0.00     0.022 A 
BRANCH  89  93
ATOM     93  S   UNL     1      19.317  -4.312  -3.075  1.00  0.00     0.124 S 
ATOM     94  O   UNL     1      18.656  -3.300  -2.256  1.00  0.00    -0.237 OA
ATOM     95  O   UNL     1      18.954  -5.697  -2.793  1.00  0.00    -0.237 OA
ATOM     96  O   UNL     1      20.741  -4.082  -3.313  1.00  0.00    -0.744 OA
ENDBRANCH  89  93
ENDBRANCH  63  86
ENDBRANCH  37  38
ENDBRANCH  30  32
ENDBRANCH  29  30
ENDBRANCH  28  29
ENDBRANCH  27  28
ENDBRANCH   1  27
TORSDOF 20
