REMARK SMILES Cc1nc2nc(CNC(=O)OC(C)(C)C)nn2c(C)c1CCC(=O)OCCOCCOC(=O)c1ccc(-c2c3nc(c(-c4cc(S(=O)(=O)[O-])ccc4F)c4ccc([nH]4)c(-c4cc(S(=O)(=O)[O-])ccc4F)c4nc(c(-c5cc(S(=O)(=O)[O-])ccc5F)c5ccc2[nH]5)C=C4)C=C3)cc1
REMARK SMILES IDX 26 1 25 2 23 3 24 4 22 5 21 6 20 7 1 8 2 9 3 10 4 11 18 12
REMARK SMILES IDX 5 13 17 14 19 15 6 16 16 17 7 18 8 19 9 20 10 22 11 23 12 24
REMARK SMILES IDX 13 25 14 26 15 27 27 28 28 29 29 30 30 31 31 32 32 33 33 34
REMARK SMILES IDX 34 35 35 36 96 37 36 38 95 39 37 40 38 41 39 42 89 43 40 44
REMARK SMILES IDX 94 45 88 46 90 47 41 48 93 49 87 50 86 51 42 53 74 54 54 55
REMARK SMILES IDX 73 56 55 57 58 58 72 59 91 60 56 61 57 62 71 64 92 65 59 66
REMARK SMILES IDX 43 67 44 68 52 69 45 70 51 71 53 72 50 73 46 74 47 75 48 76
REMARK SMILES IDX 49 77 75 78 76 79 84 80 77 81 83 82 85 83 82 84 78 85 79 86
REMARK SMILES IDX 80 87 81 88 60 89 61 90 69 91 62 92 68 93 70 94 67 95 63 96
REMARK SMILES IDX 64 97 65 98 66 99
REMARK H PARENT 8 21 90 52 58 63
REMARK Flexibility Score: inf
ROOT
ATOM      1  C   UNL     1      -4.317   3.473   2.925  1.00  0.00     0.261 C 
ENDROOT
BRANCH   1   2
ATOM      2  O   UNL     1      -3.160   2.623   2.675  1.00  0.00    -0.463 OA
BRANCH   2   3
ATOM      3  C   UNL     1      -3.272   1.277   2.676  1.00  0.00     0.306 C 
ATOM      4  O   UNL     1      -4.299   0.674   2.959  1.00  0.00    -0.252 OA
BRANCH   3   5
ATOM      5  C   UNL     1      -1.954   0.574   2.334  1.00  0.00     0.127 C 
BRANCH   5   6
ATOM      6  C   UNL     1      -1.362   0.703   0.906  1.00  0.00     0.051 C 
BRANCH   6   7
ATOM      7  C   UNL     1      -0.360   1.824   0.674  1.00  0.00    -0.005 A 
ATOM      8  C   UNL     1       1.613   0.198   0.142  1.00  0.00     0.067 C 
ATOM      9  C   UNL     1       1.126   1.616   0.350  1.00  0.00     0.046 A 
ATOM     10  N   UNL     1       2.008   2.562   0.144  1.00  0.00    -0.216 NA
ATOM     11  C   UNL     1       1.566   3.854   0.191  1.00  0.00     0.252 A 
ATOM     12  C   UNL     1      -0.705   3.120   0.594  1.00  0.00     0.048 A 
ATOM     13  N   UNL     1       2.143   5.008  -0.110  1.00  0.00    -0.192 NA
ATOM     14  N   UNL     1       0.241   4.111   0.467  1.00  0.00    -0.201 N 
ATOM     15  C   UNL     1      -2.069   3.671   0.530  1.00  0.00     0.067 C 
ATOM     16  C   UNL     1       1.129   5.928   0.051  1.00  0.00     0.172 A 
ATOM     17  N   UNL     1       0.006   5.426   0.545  1.00  0.00    -0.148 NA
BRANCH  16  18
ATOM     18  C   UNL     1       1.173   7.379  -0.245  1.00  0.00     0.199 C 
BRANCH  18  19
ATOM     19  N   UNL     1       1.459   8.099   0.975  1.00  0.00    -0.314 N 
ATOM     20  C   UNL     1       2.089   9.297   1.002  1.00  0.00     0.408 C 
ATOM     21  H   UNL     1       1.183   7.697   1.830  1.00  0.00     0.167 HD
ATOM     22  O   UNL     1       2.428   9.829   2.049  1.00  0.00    -0.225 OA
BRANCH  20  23
ATOM     23  O   UNL     1       2.300   9.759  -0.246  1.00  0.00    -0.444 OA
BRANCH  23  24
ATOM     24  C   UNL     1       3.236  10.823  -0.514  1.00  0.00     0.106 C 
ATOM     25  C   UNL     1       2.825  12.130   0.166  1.00  0.00     0.056 C 
ATOM     26  C   UNL     1       4.643  10.368  -0.118  1.00  0.00     0.056 C 
ATOM     27  C   UNL     1       3.178  11.010  -2.037  1.00  0.00     0.056 C 
ENDBRANCH  23  24
ENDBRANCH  20  23
ENDBRANCH  18  19
ENDBRANCH  16  18
ENDBRANCH   6   7
ENDBRANCH   5   6
ENDBRANCH   3   5
ENDBRANCH   2   3
ENDBRANCH   1   2
BRANCH   1  28
ATOM     28  C   UNL     1      -5.051   3.992   1.662  1.00  0.00     0.202 C 
BRANCH  28  29
ATOM     29  O   UNL     1      -6.032   3.098   1.142  1.00  0.00    -0.374 OA
BRANCH  29  30
ATOM     30  C   UNL     1      -5.562   2.043   0.309  1.00  0.00     0.202 C 
BRANCH  30  31
ATOM     31  C   UNL     1      -5.534   2.357  -1.184  1.00  0.00     0.261 C 
BRANCH  31  32
ATOM     32  O   UNL     1      -4.336   3.039  -1.556  1.00  0.00    -0.460 OA
BRANCH  32  33
ATOM     33  C   UNL     1      -4.441   4.360  -1.855  1.00  0.00     0.338 C 
ATOM     34  O   UNL     1      -5.354   5.096  -1.577  1.00  0.00    -0.246 OA
BRANCH  33  35
ATOM     35  C   UNL     1      -3.241   4.726  -2.651  1.00  0.00     0.060 A 
ATOM     36  C   UNL     1      -3.190   5.996  -3.228  1.00  0.00     0.016 A 
ATOM     37  C   UNL     1      -2.221   3.783  -2.888  1.00  0.00     0.016 A 
ATOM     38  C   UNL     1      -2.205   6.259  -4.167  1.00  0.00     0.010 A 
ATOM     39  C   UNL     1      -1.222   4.058  -3.792  1.00  0.00     0.010 A 
ATOM     40  C   UNL     1      -1.282   5.256  -4.490  1.00  0.00    -0.014 A 
BRANCH  40  41
ATOM     41  C   UNL     1      -0.376   5.463  -5.599  1.00  0.00     0.031 A 
ATOM     42  C   UNL     1       0.700   6.445  -5.350  1.00  0.00     0.074 A 
ATOM     43  C   UNL     1      -0.461   4.747  -6.738  1.00  0.00     0.049 A 
ATOM     44  N   UNL     1       0.774   7.647  -5.811  1.00  0.00    -0.248 NA
ATOM     45  C   UNL     1       1.732   6.118  -4.357  1.00  0.00     0.031 C 
ATOM     46  C   UNL     1      -1.289   3.574  -7.033  1.00  0.00     0.029 A 
ATOM     47  N   UNL     1       0.266   4.894  -7.875  1.00  0.00    -0.354 N 
ATOM     48  C   UNL     1       1.987   8.153  -5.363  1.00  0.00     0.074 A 
ATOM     49  C   UNL     1       2.431   7.256  -4.328  1.00  0.00     0.031 C 
ATOM     50  C   UNL     1      -0.854   2.995  -8.178  1.00  0.00     0.029 A 
ATOM     51  C   UNL     1       0.179   3.833  -8.767  1.00  0.00     0.049 A 
ATOM     52  H   UNL     1       0.813   5.693  -8.053  1.00  0.00     0.167 HD
ATOM     53  C   UNL     1       2.630   9.141  -6.045  1.00  0.00     0.034 A 
ATOM     54  C   UNL     1       0.943   3.651  -9.878  1.00  0.00     0.034 A 
ATOM     55  C   UNL     1       1.747   9.790  -6.988  1.00  0.00     0.049 A 
ATOM     56  C   UNL     1       1.411   5.008 -10.278  1.00  0.00     0.074 A 
ATOM     57  C   UNL     1       0.544  10.465  -6.876  1.00  0.00     0.029 A 
ATOM     58  N   UNL     1       1.845   9.444  -8.318  1.00  0.00    -0.354 N 
ATOM     59  N   UNL     1       0.598   5.956 -10.664  1.00  0.00    -0.248 NA
ATOM     60  C   UNL     1       2.693   5.464  -9.758  1.00  0.00     0.031 C 
ATOM     61  C   UNL     1      -0.230  10.017  -7.988  1.00  0.00     0.029 A 
ATOM     62  C   UNL     1       0.570   9.166  -8.753  1.00  0.00     0.049 A 
ATOM     63  H   UNL     1       2.669   9.404  -8.854  1.00  0.00     0.167 HD
ATOM     64  C   UNL     1       1.072   7.108 -10.053  1.00  0.00     0.074 A 
ATOM     65  C   UNL     1       2.408   6.756  -9.567  1.00  0.00     0.031 C 
ATOM     66  C   UNL     1       0.247   8.152  -9.740  1.00  0.00     0.034 A 
BRANCH  53  67
ATOM     67  C   UNL     1       4.129   9.301  -6.109  1.00  0.00     0.023 A 
ATOM     68  C   UNL     1       4.640  10.439  -6.761  1.00  0.00     0.031 A 
ATOM     69  C   UNL     1       5.066   8.285  -5.814  1.00  0.00     0.131 A 
ATOM     70  C   UNL     1       5.989  10.501  -7.151  1.00  0.00     0.055 A 
ATOM     71  C   UNL     1       6.420   8.381  -6.144  1.00  0.00     0.041 A 
ATOM     72  F   UNL     1       4.711   7.107  -5.287  1.00  0.00    -0.206 F 
ATOM     73  C   UNL     1       6.885   9.481  -6.841  1.00  0.00     0.022 A 
BRANCH  70  74
ATOM     74  S   UNL     1       6.521  11.876  -8.202  1.00  0.00     0.124 S 
ATOM     75  O   UNL     1       5.624  11.740  -9.345  1.00  0.00    -0.237 OA
ATOM     76  O   UNL     1       6.289  13.026  -7.334  1.00  0.00    -0.237 OA
ATOM     77  O   UNL     1       7.925  11.574  -8.471  1.00  0.00    -0.744 OA
ENDBRANCH  70  74
ENDBRANCH  53  67
BRANCH  54  78
ATOM     78  C   UNL     1       1.612   2.382 -10.304  1.00  0.00     0.023 A 
ATOM     79  C   UNL     1       2.262   2.252 -11.553  1.00  0.00     0.031 A 
ATOM     80  C   UNL     1       1.840   1.345  -9.370  1.00  0.00     0.131 A 
ATOM     81  C   UNL     1       3.095   1.136 -11.817  1.00  0.00     0.055 A 
ATOM     82  C   UNL     1       2.663   0.247  -9.636  1.00  0.00     0.041 A 
ATOM     83  F   UNL     1       1.341   1.400  -8.126  1.00  0.00    -0.206 F 
ATOM     84  C   UNL     1       3.304   0.143 -10.858  1.00  0.00     0.022 A 
BRANCH  81  85
ATOM     85  S   UNL     1       4.020   1.011 -13.383  1.00  0.00     0.124 S 
ATOM     86  O   UNL     1       2.983   0.586 -14.317  1.00  0.00    -0.237 OA
ATOM     87  O   UNL     1       4.535   2.363 -13.559  1.00  0.00    -0.237 OA
ATOM     88  O   UNL     1       5.040   0.001 -13.095  1.00  0.00    -0.744 OA
ENDBRANCH  81  85
ENDBRANCH  54  78
BRANCH  66  89
ATOM     89  C   UNL     1      -1.167   8.163 -10.286  1.00  0.00     0.023 A 
ATOM     90  C   UNL     1      -2.164   7.206  -9.981  1.00  0.00     0.031 A 
ATOM     91  C   UNL     1      -1.555   9.298 -11.020  1.00  0.00     0.131 A 
ATOM     92  C   UNL     1      -3.493   7.413 -10.411  1.00  0.00     0.055 A 
ATOM     93  C   UNL     1      -2.872   9.506 -11.427  1.00  0.00     0.041 A 
ATOM     94  F   UNL     1      -0.660  10.256 -11.311  1.00  0.00    -0.206 F 
ATOM     95  C   UNL     1      -3.847   8.563 -11.125  1.00  0.00     0.022 A 
BRANCH  92  96
ATOM     96  S   UNL     1      -4.800   6.200 -10.023  1.00  0.00     0.124 S 
ATOM     97  O   UNL     1      -4.287   4.960 -10.594  1.00  0.00    -0.237 OA
ATOM     98  O   UNL     1      -4.867   6.255  -8.565  1.00  0.00    -0.237 OA
ATOM     99  O   UNL     1      -5.981   6.737 -10.702  1.00  0.00    -0.744 OA
ENDBRANCH  92  96
ENDBRANCH  66  89
ENDBRANCH  40  41
ENDBRANCH  33  35
ENDBRANCH  32  33
ENDBRANCH  31  32
ENDBRANCH  30  31
ENDBRANCH  29  30
ENDBRANCH  28  29
ENDBRANCH   1  28
TORSDOF 23
