REMARK SMILES O=C(OCCOCCOC(=O)c1ccc(-c2c3nc(c(-c4cc(S(=O)(=O)[O-])ccc4F)c4ccc([nH]4)c(-c4cc(S(=O)(=O)[O-])ccc4F)c4nc(c(-c5cc(S(=O)(=O)[O-])ccc5F)c5ccc2[nH]5)C=C4)C=C3)cc1)C1=Cc2ccc(Cl)c(Cl)c2O[C@@H]1C(F)(F)F
REMARK SMILES IDX 7 1 6 2 5 3 4 4 3 5 2 6 1 7 75 8 76 9 86 10 77 11 85 12
REMARK SMILES IDX 78 13 84 14 79 15 82 16 80 17 83 18 81 19 87 20 88 21 89 22
REMARK SMILES IDX 90 23 8 24 9 25 10 26 11 27 12 28 13 29 74 30 14 31 73 32
REMARK SMILES IDX 15 33 16 34 17 35 67 36 18 37 72 38 66 39 68 40 19 41 71 42
REMARK SMILES IDX 65 43 64 44 20 46 52 47 32 48 51 49 33 50 36 51 50 52 69 53
REMARK SMILES IDX 34 54 35 55 49 57 70 58 37 59 21 60 22 61 30 62 23 63 29 64
REMARK SMILES IDX 31 65 28 66 24 67 25 68 26 69 27 70 53 71 54 72 62 73 55 74
REMARK SMILES IDX 61 75 63 76 60 77 56 78 57 79 58 80 59 81 38 82 39 83 47 84
REMARK SMILES IDX 40 85 46 86 48 87 45 88 41 89 42 90 43 91 44 92
REMARK H PARENT 68 45 36 56
REMARK Flexibility Score: inf
ROOT
ATOM      1  C   UNL     1       2.689   0.936   2.856  1.00  0.00     0.202 C 
ENDROOT
BRANCH   1   2
ATOM      2  O   UNL     1       3.748   0.064   2.437  1.00  0.00    -0.374 OA
BRANCH   2   3
ATOM      3  C   UNL     1       4.289  -0.440   1.040  1.00  0.00     0.202 C 
BRANCH   3   4
ATOM      4  C   UNL     1       3.409  -0.506  -0.956  1.00  0.00     0.261 C 
BRANCH   4   5
ATOM      5  O   UNL     1       2.503  -1.605  -1.532  1.00  0.00    -0.460 OA
BRANCH   5   6
ATOM      6  C   UNL     1       2.712  -2.798  -0.972  1.00  0.00     0.338 C 
ATOM      7  O   UNL     1       2.123  -3.836  -1.129  1.00  0.00    -0.246 OA
BRANCH   6   8
ATOM      8  C   UNL     1       3.576  -2.313   0.082  1.00  0.00     0.087 C 
ATOM      9  C   UNL     1       4.950  -2.058  -0.425  1.00  0.00     0.027 C 
ATOM     10  C   UNL     1       2.368  -0.946   0.728  1.00  0.00     0.316 C 
ATOM     11  C   UNL     1       5.626  -0.392  -0.692  1.00  0.00     0.019 A 
ATOM     12  O   UNL     1       3.043   0.830   0.391  1.00  0.00    -0.474 OA
ATOM     13  C   UNL     1       6.809  -0.277  -1.369  1.00  0.00     0.013 A 
ATOM     14  C   UNL     1       4.666   1.038  -0.429  1.00  0.00     0.148 A 
ATOM     15  C   UNL     1       7.078   1.006  -1.868  1.00  0.00     0.023 A 
ATOM     16  C   UNL     1       4.936   2.203  -1.102  1.00  0.00     0.102 A 
ATOM     17  C   UNL     1       6.177   2.154  -1.800  1.00  0.00     0.063 A 
ATOM     18  Cl  UNL     1       3.731   3.384  -1.369  1.00  0.00    -0.079 Cl
ATOM     19  Cl  UNL     1       6.714   3.478  -2.789  1.00  0.00    -0.083 Cl
BRANCH  10  20
ATOM     20  C   UNL     1       1.904  -1.669   2.062  1.00  0.00     0.430 C 
ATOM     21  F   UNL     1       1.030  -0.995   2.828  1.00  0.00    -0.167 F 
ATOM     22  F   UNL     1       1.229  -2.800   1.684  1.00  0.00    -0.167 F 
ATOM     23  F   UNL     1       2.912  -2.135   2.837  1.00  0.00    -0.167 F 
ENDBRANCH  10  20
ENDBRANCH   6   8
ENDBRANCH   5   6
ENDBRANCH   4   5
ENDBRANCH   3   4
ENDBRANCH   2   3
ENDBRANCH   1   2
BRANCH   1  24
ATOM     24  C   UNL     1       2.949   2.346   3.341  1.00  0.00     0.261 C 
BRANCH  24  25
ATOM     25  O   UNL     1       3.454   3.184   2.326  1.00  0.00    -0.460 OA
BRANCH  25  26
ATOM     26  C   UNL     1       4.781   3.409   2.405  1.00  0.00     0.338 C 
ATOM     27  O   UNL     1       5.603   2.797   3.062  1.00  0.00    -0.246 OA
BRANCH  26  28
ATOM     28  C   UNL     1       5.071   4.528   1.499  1.00  0.00     0.060 A 
ATOM     29  C   UNL     1       6.306   4.553   0.849  1.00  0.00     0.016 A 
ATOM     30  C   UNL     1       4.095   5.505   1.246  1.00  0.00     0.016 A 
ATOM     31  C   UNL     1       6.549   5.537  -0.102  1.00  0.00     0.010 A 
ATOM     32  C   UNL     1       4.335   6.479   0.291  1.00  0.00     0.010 A 
ATOM     33  C   UNL     1       5.563   6.495  -0.383  1.00  0.00    -0.014 A 
BRANCH  33  34
ATOM     34  C   UNL     1       5.898   7.692  -1.170  1.00  0.00     0.031 A 
ATOM     35  C   UNL     1       6.397   8.868  -0.397  1.00  0.00     0.074 A 
ATOM     36  C   UNL     1       5.705   7.745  -2.498  1.00  0.00     0.049 A 
ATOM     37  N   UNL     1       6.653  10.079  -0.804  1.00  0.00    -0.248 NA
ATOM     38  C   UNL     1       6.606   8.648   1.044  1.00  0.00     0.031 C 
ATOM     39  C   UNL     1       5.231   6.643  -3.326  1.00  0.00     0.029 A 
ATOM     40  N   UNL     1       5.869   8.781  -3.379  1.00  0.00    -0.354 N 
ATOM     41  C   UNL     1       7.051  10.768   0.333  1.00  0.00     0.074 A 
ATOM     42  C   UNL     1       6.952   9.855   1.449  1.00  0.00     0.031 C 
ATOM     43  C   UNL     1       5.157   7.052  -4.603  1.00  0.00     0.029 A 
ATOM     44  C   UNL     1       5.501   8.470  -4.667  1.00  0.00     0.049 A 
ATOM     45  H   UNL     1       6.216   9.664  -3.116  1.00  0.00     0.167 HD
ATOM     46  C   UNL     1       7.461  12.053   0.428  1.00  0.00     0.034 A 
ATOM     47  C   UNL     1       5.410   9.260  -5.756  1.00  0.00     0.034 A 
ATOM     48  C   UNL     1       7.480  12.949  -0.697  1.00  0.00     0.049 A 
ATOM     49  C   UNL     1       5.766  10.720  -5.609  1.00  0.00     0.074 A 
ATOM     50  C   UNL     1       7.859  14.276  -0.732  1.00  0.00     0.029 A 
ATOM     51  N   UNL     1       7.066  12.614  -1.982  1.00  0.00    -0.354 N 
ATOM     52  N   UNL     1       6.156  11.371  -4.535  1.00  0.00    -0.248 NA
ATOM     53  C   UNL     1       5.670  11.553  -6.814  1.00  0.00     0.031 C 
ATOM     54  C   UNL     1       7.580  14.769  -2.010  1.00  0.00     0.029 A 
ATOM     55  C   UNL     1       7.142  13.722  -2.808  1.00  0.00     0.049 A 
ATOM     56  H   UNL     1       6.764  11.720  -2.263  1.00  0.00     0.167 HD
ATOM     57  C   UNL     1       6.394  12.680  -4.946  1.00  0.00     0.074 A 
ATOM     58  C   UNL     1       6.095  12.726  -6.364  1.00  0.00     0.031 C 
ATOM     59  C   UNL     1       6.837  13.742  -4.223  1.00  0.00     0.034 A 
BRANCH  46  60
ATOM     60  C   UNL     1       7.817  12.547   1.807  1.00  0.00     0.023 A 
ATOM     61  C   UNL     1       8.837  11.943   2.566  1.00  0.00     0.031 A 
ATOM     62  C   UNL     1       7.052  13.556   2.416  1.00  0.00     0.131 A 
ATOM     63  C   UNL     1       8.983  12.270   3.921  1.00  0.00     0.055 A 
ATOM     64  C   UNL     1       7.279  13.954   3.733  1.00  0.00     0.041 A 
ATOM     65  F   UNL     1       6.040  14.141   1.756  1.00  0.00    -0.206 F 
ATOM     66  C   UNL     1       8.233  13.294   4.502  1.00  0.00     0.022 A 
BRANCH  63  67
ATOM     67  S   UNL     1      10.005  11.190   4.961  1.00  0.00     0.124 S 
ATOM     68  O   UNL     1       9.360   9.894   4.763  1.00  0.00    -0.237 OA
ATOM     69  O   UNL     1      11.329  11.341   4.370  1.00  0.00    -0.237 OA
ATOM     70  O   UNL     1       9.849  11.756   6.300  1.00  0.00    -0.744 OA
ENDBRANCH  63  67
ENDBRANCH  46  60
BRANCH  47  71
ATOM     71  C   UNL     1       4.919   8.706  -7.051  1.00  0.00     0.023 A 
ATOM     72  C   UNL     1       5.739   8.665  -8.190  1.00  0.00     0.031 A 
ATOM     73  C   UNL     1       3.602   8.224  -7.175  1.00  0.00     0.131 A 
ATOM     74  C   UNL     1       5.226   8.185  -9.407  1.00  0.00     0.055 A 
ATOM     75  C   UNL     1       3.114   7.696  -8.371  1.00  0.00     0.041 A 
ATOM     76  F   UNL     1       2.769   8.246  -6.121  1.00  0.00    -0.206 F 
ATOM     77  C   UNL     1       3.926   7.683  -9.500  1.00  0.00     0.022 A 
BRANCH  74  78
ATOM     78  S   UNL     1       6.258   8.297 -10.896  1.00  0.00     0.124 S 
ATOM     79  O   UNL     1       6.492   9.733 -10.986  1.00  0.00    -0.237 OA
ATOM     80  O   UNL     1       7.410   7.479 -10.531  1.00  0.00    -0.237 OA
ATOM     81  O   UNL     1       5.406   7.736 -11.943  1.00  0.00    -0.744 OA
ENDBRANCH  74  78
ENDBRANCH  47  71
BRANCH  59  82
ATOM     82  C   UNL     1       7.109  15.029  -4.963  1.00  0.00     0.023 A 
ATOM     83  C   UNL     1       6.087  15.796  -5.546  1.00  0.00     0.031 A 
ATOM     84  C   UNL     1       8.428  15.517  -5.035  1.00  0.00     0.131 A 
ATOM     85  C   UNL     1       6.407  16.993  -6.206  1.00  0.00     0.055 A 
ATOM     86  C   UNL     1       8.729  16.742  -5.627  1.00  0.00     0.041 A 
ATOM     87  F   UNL     1       9.444  14.820  -4.501  1.00  0.00    -0.206 F 
ATOM     88  C   UNL     1       7.716  17.483  -6.225  1.00  0.00     0.022 A 
BRANCH  85  89
ATOM     89  S   UNL     1       5.104  17.865  -7.117  1.00  0.00     0.124 S 
ATOM     90  O   UNL     1       4.664  16.846  -8.064  1.00  0.00    -0.237 OA
ATOM     91  O   UNL     1       4.157  18.206  -6.061  1.00  0.00    -0.237 OA
ATOM     92  O   UNL     1       5.804  19.002  -7.712  1.00  0.00    -0.744 OA
ENDBRANCH  85  89
ENDBRANCH  59  82
ENDBRANCH  33  34
ENDBRANCH  26  28
ENDBRANCH  25  26
ENDBRANCH  24  25
ENDBRANCH   1  24
TORSDOF 18
