REMARK SMILES CC[C@H](C)N(CC)c1cc(C)c(N)c(C(=O)OCCOCCOC(=O)c2ccc(-c3c4nc(c(-c5cc(S(=O)(=O)[O-])ccc5F)c5ccc([nH]5)c(-c5cc(S(=O)(=O)[O-])ccc5F)c5nc(c(-c6cc(S(=O)(=O)[O-])ccc6F)c6ccc3[nH]6)C=C5)C=C4)cc2)c1
REMARK SMILES IDX 20 1 19 2 18 3 17 4 15 5 16 6 14 7 8 8 9 9 89 10 10 11 11 12
REMARK SMILES IDX 12 13 5 14 3 15 4 16 2 17 1 18 6 19 7 20 13 21 21 24 22 25
REMARK SMILES IDX 23 26 24 27 25 28 26 29 27 30 88 31 28 32 87 33 29 34 30 35
REMARK SMILES IDX 31 36 81 37 32 38 86 39 80 40 82 41 33 42 85 43 79 44 78 45
REMARK SMILES IDX 34 47 66 48 46 49 65 50 47 51 50 52 64 53 83 54 48 55 49 56
REMARK SMILES IDX 63 58 84 59 51 60 35 61 36 62 44 63 37 64 43 65 45 66 42 67
REMARK SMILES IDX 38 68 39 69 40 70 41 71 67 72 68 73 76 74 69 75 75 76 77 77
REMARK SMILES IDX 74 78 70 79 71 80 72 81 73 82 52 83 53 84 61 85 54 86 60 87
REMARK SMILES IDX 62 88 59 89 55 90 56 91 57 92 58 93
REMARK H PARENT 13 22 13 23 82 46 50 57
REMARK Flexibility Score: inf
ROOT
ATOM      1  O   UNL     1      -5.121   6.010   5.462  1.00  0.00    -0.374 OA
ENDROOT
BRANCH   1   2
ATOM      2  C   UNL     1      -4.106   6.463   6.359  1.00  0.00     0.202 C 
BRANCH   2   3
ATOM      3  C   UNL     1      -3.435   5.380   7.210  1.00  0.00     0.261 C 
BRANCH   3   4
ATOM      4  O   UNL     1      -2.757   4.418   6.383  1.00  0.00    -0.460 OA
BRANCH   4   5
ATOM      5  C   UNL     1      -3.334   3.192   6.338  1.00  0.00     0.340 C 
ATOM      6  O   UNL     1      -4.245   2.796   7.052  1.00  0.00    -0.246 OA
BRANCH   5   7
ATOM      7  C   UNL     1      -2.819   2.414   5.179  1.00  0.00     0.085 A 
ATOM      8  C   UNL     1      -0.933   1.802   3.716  1.00  0.00     0.038 A 
ATOM      9  C   UNL     1      -1.842   0.985   3.032  1.00  0.00     0.031 A 
ATOM     10  C   UNL     1      -1.466   2.517   4.800  1.00  0.00     0.043 A 
ATOM     11  C   UNL     1      -3.199   0.845   3.397  1.00  0.00    -0.025 A 
ATOM     12  C   UNL     1      -4.067  -0.096   2.607  1.00  0.00     0.047 C 
ATOM     13  C   UNL     1      -3.706   1.571   4.482  1.00  0.00     0.049 A 
BRANCH   8  14
ATOM     14  N   UNL     1       0.412   1.887   3.368  1.00  0.00    -0.369 N 
BRANCH  14  15
ATOM     15  C   UNL     1       0.962   1.670   2.001  1.00  0.00     0.078 C 
ATOM     16  C   UNL     1       0.973   0.190   1.601  1.00  0.00     0.031 C 
BRANCH  15  17
ATOM     17  C   UNL     1       0.343   2.626   0.963  1.00  0.00     0.021 C 
ATOM     18  C   UNL     1       0.752   2.324  -0.474  1.00  0.00     0.006 C 
ENDBRANCH  15  17
ENDBRANCH  14  15
BRANCH  14  19
ATOM     19  C   UNL     1       1.417   1.982   4.447  1.00  0.00     0.113 C 
ATOM     20  C   UNL     1       1.797   3.421   4.771  1.00  0.00     0.027 C 
ENDBRANCH  14  19
ENDBRANCH   8  14
BRANCH  13  21
ATOM     21  N   UNL     1      -5.080   1.589   4.736  1.00  0.00    -0.398 N 
ATOM     22  H   UNL     1      -5.681   0.991   4.236  1.00  0.00     0.156 HD
ATOM     23  H   UNL     1      -5.447   2.201   5.414  1.00  0.00     0.156 HD
ENDBRANCH  13  21
ENDBRANCH   5   7
ENDBRANCH   4   5
ENDBRANCH   3   4
ENDBRANCH   2   3
ENDBRANCH   1   2
BRANCH   1  24
ATOM     24  C   UNL     1      -4.679   5.494   4.203  1.00  0.00     0.202 C 
BRANCH  24  25
ATOM     25  C   UNL     1      -4.316   6.530   3.133  1.00  0.00     0.261 C 
BRANCH  25  26
ATOM     26  O   UNL     1      -3.123   7.262   3.472  1.00  0.00    -0.460 OA
BRANCH  26  27
ATOM     27  C   UNL     1      -3.330   8.548   3.840  1.00  0.00     0.338 C 
ATOM     28  O   UNL     1      -4.396   9.150   3.829  1.00  0.00    -0.246 OA
BRANCH  27  29
ATOM     29  C   UNL     1      -2.108   9.107   4.452  1.00  0.00     0.060 A 
ATOM     30  C   UNL     1      -2.247   9.772   5.677  1.00  0.00     0.016 A 
ATOM     31  C   UNL     1      -0.865   9.044   3.819  1.00  0.00     0.016 A 
ATOM     32  C   UNL     1      -1.157  10.428   6.246  1.00  0.00     0.010 A 
ATOM     33  C   UNL     1       0.228   9.712   4.387  1.00  0.00     0.010 A 
ATOM     34  C   UNL     1       0.077  10.438   5.583  1.00  0.00    -0.014 A 
BRANCH  34  35
ATOM     35  C   UNL     1       1.150  11.352   6.053  1.00  0.00     0.031 A 
ATOM     36  C   UNL     1       1.332  12.671   5.350  1.00  0.00     0.074 A 
ATOM     37  C   UNL     1       1.916  11.038   7.114  1.00  0.00     0.049 A 
ATOM     38  N   UNL     1       2.229  13.602   5.546  1.00  0.00    -0.248 NA
ATOM     39  C   UNL     1       0.368  12.980   4.281  1.00  0.00     0.031 C 
ATOM     40  C   UNL     1       1.793   9.819   7.913  1.00  0.00     0.029 A 
ATOM     41  N   UNL     1       2.953  11.720   7.701  1.00  0.00    -0.354 N 
ATOM     42  C   UNL     1       1.934  14.611   4.634  1.00  0.00     0.074 A 
ATOM     43  C   UNL     1       0.803  14.156   3.854  1.00  0.00     0.031 C 
ATOM     44  C   UNL     1       2.728   9.835   8.879  1.00  0.00     0.029 A 
ATOM     45  C   UNL     1       3.541  11.043   8.744  1.00  0.00     0.049 A 
ATOM     46  H   UNL     1       3.248  12.611   7.403  1.00  0.00     0.167 HD
ATOM     47  C   UNL     1       2.541  15.812   4.472  1.00  0.00     0.034 A 
ATOM     48  C   UNL     1       4.627  11.351   9.484  1.00  0.00     0.034 A 
ATOM     49  C   UNL     1       3.679  16.248   5.243  1.00  0.00     0.049 A 
ATOM     50  C   UNL     1       5.352  12.651   9.212  1.00  0.00     0.074 A 
ATOM     51  C   UNL     1       4.393  17.430   5.137  1.00  0.00     0.029 A 
ATOM     52  N   UNL     1       4.270  15.519   6.266  1.00  0.00    -0.354 N 
ATOM     53  N   UNL     1       5.074  13.586   8.332  1.00  0.00    -0.248 NA
ATOM     54  C   UNL     1       6.530  12.943  10.041  1.00  0.00     0.031 C 
ATOM     55  C   UNL     1       5.447  17.390   6.055  1.00  0.00     0.029 A 
ATOM     56  C   UNL     1       5.348  16.218   6.786  1.00  0.00     0.049 A 
ATOM     57  H   UNL     1       3.968  14.635   6.577  1.00  0.00     0.167 HD
ATOM     58  C   UNL     1       6.016  14.593   8.536  1.00  0.00     0.074 A 
ATOM     59  C   UNL     1       6.860  14.157   9.628  1.00  0.00     0.031 C 
ATOM     60  C   UNL     1       6.171  15.773   7.884  1.00  0.00     0.034 A 
BRANCH  47  61
ATOM     61  C   UNL     1       2.006  16.720   3.393  1.00  0.00     0.023 A 
ATOM     62  C   UNL     1       0.724  17.289   3.480  1.00  0.00     0.031 A 
ATOM     63  C   UNL     1       2.784  17.016   2.260  1.00  0.00     0.131 A 
ATOM     64  C   UNL     1       0.238  18.083   2.431  1.00  0.00     0.055 A 
ATOM     65  C   UNL     1       2.322  17.863   1.252  1.00  0.00     0.041 A 
ATOM     66  F   UNL     1       4.007  16.481   2.112  1.00  0.00    -0.206 F 
ATOM     67  C   UNL     1       1.038  18.395   1.329  1.00  0.00     0.022 A 
BRANCH  64  68
ATOM     68  S   UNL     1      -1.495  18.616   2.474  1.00  0.00     0.124 S 
ATOM     69  O   UNL     1      -2.197  17.335   2.451  1.00  0.00    -0.237 OA
ATOM     70  O   UNL     1      -1.566  19.362   3.724  1.00  0.00    -0.237 OA
ATOM     71  O   UNL     1      -1.636  19.419   1.260  1.00  0.00    -0.744 OA
ENDBRANCH  64  68
ENDBRANCH  47  61
BRANCH  48  72
ATOM     72  C   UNL     1       5.143  10.408  10.521  1.00  0.00     0.023 A 
ATOM     73  C   UNL     1       5.244  10.792  11.867  1.00  0.00     0.031 A 
ATOM     74  C   UNL     1       5.643   9.143  10.160  1.00  0.00     0.131 A 
ATOM     75  C   UNL     1       5.896   9.956  12.788  1.00  0.00     0.055 A 
ATOM     76  C   UNL     1       6.230   8.286  11.093  1.00  0.00     0.041 A 
ATOM     77  F   UNL     1       5.577   8.723   8.886  1.00  0.00    -0.206 F 
ATOM     78  C   UNL     1       6.378   8.700  12.413  1.00  0.00     0.022 A 
BRANCH  75  79
ATOM     79  S   UNL     1       6.231  10.595  14.453  1.00  0.00     0.124 S 
ATOM     80  O   UNL     1       6.940  11.835  14.157  1.00  0.00    -0.237 OA
ATOM     81  O   UNL     1       4.885  10.738  14.996  1.00  0.00    -0.237 OA
ATOM     82  O   UNL     1       7.041   9.542  15.063  1.00  0.00    -0.744 OA
ENDBRANCH  75  79
ENDBRANCH  48  72
BRANCH  60  83
ATOM     83  C   UNL     1       7.248  16.703   8.388  1.00  0.00     0.023 A 
ATOM     84  C   UNL     1       8.614  16.390   8.278  1.00  0.00     0.031 A 
ATOM     85  C   UNL     1       6.896  17.922   8.996  1.00  0.00     0.131 A 
ATOM     86  C   UNL     1       9.575  17.256   8.820  1.00  0.00     0.055 A 
ATOM     87  C   UNL     1       7.859  18.807   9.481  1.00  0.00     0.041 A 
ATOM     88  F   UNL     1       5.606  18.273   9.126  1.00  0.00    -0.206 F 
ATOM     89  C   UNL     1       9.207  18.470   9.407  1.00  0.00     0.022 A 
BRANCH  86  90
ATOM     90  S   UNL     1      11.313  16.735   8.829  1.00  0.00     0.124 S 
ATOM     91  O   UNL     1      11.252  15.486   9.580  1.00  0.00    -0.237 OA
ATOM     92  O   UNL     1      11.607  16.608   7.405  1.00  0.00    -0.237 OA
ATOM     93  O   UNL     1      11.998  17.834   9.506  1.00  0.00    -0.744 OA
ENDBRANCH  86  90
ENDBRANCH  60  83
ENDBRANCH  34  35
ENDBRANCH  27  29
ENDBRANCH  26  27
ENDBRANCH  25  26
ENDBRANCH  24  25
ENDBRANCH   1  24
TORSDOF 22
