REMARK SMILES CC(C)Nc1ncc(C(=O)N2CCC[C@H](c3cccc(C(=O)OCCOCCOC(=O)c4ccc(-c5c6nc(c(-c7cc(S(=O)(=O)[O-])ccc7F)c7ccc([nH]7)c(-c7cc(S(=O)(=O)[O-])ccc7F)c7nc(c(-c8cc(S(=O)(=O)[O-])ccc8F)c8ccc5[nH]8)C=C7)C=C6)cc4)c3)C2)cn1
REMARK SMILES IDX 25 1 24 2 23 3 21 4 22 5 20 6 16 7 17 8 95 9 18 10 19 11
REMARK SMILES IDX 15 12 11 13 12 14 96 15 13 16 14 17 9 18 10 19 8 20 5 21
REMARK SMILES IDX 6 22 98 23 7 24 97 25 4 26 2 28 1 29 3 30 26 31 27 32 28 33
REMARK SMILES IDX 29 34 30 35 31 36 32 37 33 38 94 39 34 40 93 41 35 42 36 43
REMARK SMILES IDX 37 44 87 45 38 46 92 47 86 48 88 49 39 50 91 51 85 52 84 53
REMARK SMILES IDX 40 55 72 56 52 57 71 58 53 59 56 60 70 61 89 62 54 63 55 64
REMARK SMILES IDX 69 66 90 67 57 68 41 69 42 70 50 71 43 72 49 73 51 74 48 75
REMARK SMILES IDX 44 76 45 77 46 78 47 79 73 80 74 81 82 82 75 83 81 84 83 85
REMARK SMILES IDX 80 86 76 87 77 88 78 89 79 90 58 91 59 92 67 93 60 94 66 95
REMARK SMILES IDX 68 96 65 97 61 98 62 99 63 100 64 101
REMARK H PARENT 4 27 88 54 56 65
REMARK Flexibility Score: inf
ROOT
ATOM      1  C   UNL     1      -2.989   0.280 -14.188  1.00  0.00     0.202 C 
ENDROOT
BRANCH   1   2
ATOM      2  C   UNL     1      -4.108  -0.668 -13.741  1.00  0.00     0.261 C 
BRANCH   2   3
ATOM      3  O   UNL     1      -4.210  -0.717 -12.308  1.00  0.00    -0.460 OA
BRANCH   3   4
ATOM      4  C   UNL     1      -3.829  -1.889 -11.746  1.00  0.00     0.338 C 
ATOM      5  O   UNL     1      -3.594  -2.942 -12.322  1.00  0.00    -0.246 OA
BRANCH   4   6
ATOM      6  C   UNL     1      -3.512  -1.669 -10.317  1.00  0.00     0.060 A 
ATOM      7  C   UNL     1      -3.968  -0.694  -8.122  1.00  0.00    -0.042 A 
ATOM      8  C   UNL     1      -2.766  -1.268  -7.671  1.00  0.00     0.004 A 
ATOM      9  C   UNL     1      -4.284  -0.844  -9.489  1.00  0.00     0.019 A 
ATOM     10  C   UNL     1      -1.979  -2.067  -8.503  1.00  0.00     0.001 A 
ATOM     11  C   UNL     1      -2.368  -2.294  -9.815  1.00  0.00     0.016 A 
BRANCH   7  12
ATOM     12  C   UNL     1      -4.927   0.040  -7.171  1.00  0.00     0.039 C 
ATOM     13  N   UNL     1      -5.057  -1.648  -5.322  1.00  0.00    -0.338 N 
ATOM     14  C   UNL     1      -6.385  -2.103  -5.726  1.00  0.00     0.120 C 
ATOM     15  C   UNL     1      -4.717  -0.252  -5.654  1.00  0.00     0.128 C 
ATOM     16  C   UNL     1      -6.719  -1.758  -7.171  1.00  0.00     0.022 C 
ATOM     17  C   UNL     1      -6.413  -0.287  -7.469  1.00  0.00     0.012 C 
BRANCH  13  18
ATOM     18  C   UNL     1      -4.181  -2.571  -4.761  1.00  0.00     0.257 C 
ATOM     19  O   UNL     1      -4.231  -3.777  -4.988  1.00  0.00    -0.269 OA
BRANCH  18  20
ATOM     20  C   UNL     1      -3.216  -2.124  -3.747  1.00  0.00     0.076 A 
ATOM     21  C   UNL     1      -1.581  -1.573  -1.638  1.00  0.00     0.222 A 
ATOM     22  N   UNL     1      -2.756  -0.930  -1.716  1.00  0.00    -0.221 NA
ATOM     23  N   UNL     1      -1.157  -2.463  -2.548  1.00  0.00    -0.221 NA
ATOM     24  C   UNL     1      -3.549  -1.218  -2.771  1.00  0.00     0.130 A 
ATOM     25  C   UNL     1      -2.003  -2.747  -3.570  1.00  0.00     0.130 A 
BRANCH  21  26
ATOM     26  N   UNL     1      -0.838  -1.280  -0.530  1.00  0.00    -0.352 N 
ATOM     27  H   UNL     1      -1.303  -0.975   0.282  1.00  0.00     0.163 HD
BRANCH  26  28
ATOM     28  C   UNL     1       0.601  -1.401  -0.500  1.00  0.00     0.076 C 
ATOM     29  C   UNL     1       1.176  -0.044  -0.090  1.00  0.00     0.030 C 
ATOM     30  C   UNL     1       1.011  -2.477   0.500  1.00  0.00     0.030 C 
ENDBRANCH  26  28
ENDBRANCH  21  26
ENDBRANCH  18  20
ENDBRANCH  13  18
ENDBRANCH   7  12
ENDBRANCH   4   6
ENDBRANCH   3   4
ENDBRANCH   2   3
ENDBRANCH   1   2
BRANCH   1  31
ATOM     31  O   UNL     1      -1.661  -0.040 -13.773  1.00  0.00    -0.374 OA
BRANCH  31  32
ATOM     32  C   UNL     1      -1.293   0.297 -12.435  1.00  0.00     0.202 C 
BRANCH  32  33
ATOM     33  C   UNL     1      -0.976   1.766 -12.127  1.00  0.00     0.261 C 
BRANCH  33  34
ATOM     34  O   UNL     1      -2.114   2.627 -12.292  1.00  0.00    -0.460 OA
BRANCH  34  35
ATOM     35  C   UNL     1      -2.066   3.415 -13.394  1.00  0.00     0.338 C 
ATOM     36  O   UNL     1      -1.148   3.499 -14.196  1.00  0.00    -0.246 OA
BRANCH  35  37
ATOM     37  C   UNL     1      -3.382   4.040 -13.620  1.00  0.00     0.060 A 
ATOM     38  C   UNL     1      -3.984   3.850 -14.871  1.00  0.00     0.016 A 
ATOM     39  C   UNL     1      -3.990   4.844 -12.654  1.00  0.00     0.016 A 
ATOM     40  C   UNL     1      -5.178   4.498 -15.176  1.00  0.00     0.010 A 
ATOM     41  C   UNL     1      -5.186   5.500 -12.967  1.00  0.00     0.010 A 
ATOM     42  C   UNL     1      -5.770   5.354 -14.239  1.00  0.00    -0.014 A 
BRANCH  42  43
ATOM     43  C   UNL     1      -6.928   6.192 -14.638  1.00  0.00     0.031 A 
ATOM     44  C   UNL     1      -6.707   7.648 -14.946  1.00  0.00     0.074 A 
ATOM     45  C   UNL     1      -8.156   5.655 -14.750  1.00  0.00     0.049 A 
ATOM     46  N   UNL     1      -7.576   8.573 -15.259  1.00  0.00    -0.248 NA
ATOM     47  C   UNL     1      -5.316   8.123 -14.886  1.00  0.00     0.031 C 
ATOM     48  C   UNL     1      -8.482   4.247 -14.526  1.00  0.00     0.029 A 
ATOM     49  N   UNL     1      -9.359   6.230 -15.076  1.00  0.00    -0.354 N 
ATOM     50  C   UNL     1      -6.842   9.742 -15.429  1.00  0.00     0.074 A 
ATOM     51  C   UNL     1      -5.461   9.414 -15.142  1.00  0.00     0.031 C 
ATOM     52  C   UNL     1      -9.801   4.070 -14.716  1.00  0.00     0.029 A 
ATOM     53  C   UNL     1     -10.420   5.356 -15.028  1.00  0.00     0.049 A 
ATOM     54  H   UNL     1      -9.453   7.179 -15.320  1.00  0.00     0.167 HD
ATOM     55  C   UNL     1      -7.279  10.972 -15.798  1.00  0.00     0.034 A 
ATOM     56  C   UNL     1     -11.741   5.576 -15.188  1.00  0.00     0.034 A 
ATOM     57  C   UNL     1      -8.663  11.281 -16.071  1.00  0.00     0.049 A 
ATOM     58  C   UNL     1     -12.216   6.975 -15.504  1.00  0.00     0.074 A 
ATOM     59  C   UNL     1      -9.213  12.487 -16.470  1.00  0.00     0.029 A 
ATOM     60  N   UNL     1      -9.718  10.384 -15.960  1.00  0.00    -0.354 N 
ATOM     61  N   UNL     1     -11.512   8.071 -15.668  1.00  0.00    -0.248 NA
ATOM     62  C   UNL     1     -13.664   7.163 -15.661  1.00  0.00     0.031 C 
ATOM     63  C   UNL     1     -10.604  12.342 -16.517  1.00  0.00     0.029 A 
ATOM     64  C   UNL     1     -10.918  11.021 -16.240  1.00  0.00     0.049 A 
ATOM     65  H   UNL     1      -9.627   9.434 -15.717  1.00  0.00     0.167 HD
ATOM     66  C   UNL     1     -12.431   9.070 -15.982  1.00  0.00     0.074 A 
ATOM     67  C   UNL     1     -13.736   8.442 -15.997  1.00  0.00     0.031 C 
ATOM     68  C   UNL     1     -12.216  10.387 -16.239  1.00  0.00     0.034 A 
BRANCH  55  69
ATOM     69  C   UNL     1      -6.258  12.082 -15.873  1.00  0.00     0.023 A 
ATOM     70  C   UNL     1      -5.188  12.049 -16.785  1.00  0.00     0.031 A 
ATOM     71  C   UNL     1      -6.342  13.182 -15.001  1.00  0.00     0.131 A 
ATOM     72  C   UNL     1      -4.212  13.056 -16.757  1.00  0.00     0.055 A 
ATOM     73  C   UNL     1      -5.414  14.224 -15.035  1.00  0.00     0.041 A 
ATOM     74  F   UNL     1      -7.326  13.258 -14.090  1.00  0.00    -0.206 F 
ATOM     75  C   UNL     1      -4.332  14.158 -15.906  1.00  0.00     0.022 A 
BRANCH  72  76
ATOM     76  S   UNL     1      -2.705  12.831 -17.741  1.00  0.00     0.124 S 
ATOM     77  O   UNL     1      -2.198  11.565 -17.218  1.00  0.00    -0.237 OA
ATOM     78  O   UNL     1      -3.221  12.800 -19.105  1.00  0.00    -0.237 OA
ATOM     79  O   UNL     1      -1.898  14.003 -17.405  1.00  0.00    -0.744 OA
ENDBRANCH  72  76
ENDBRANCH  55  69
BRANCH  56  80
ATOM     80  C   UNL     1     -12.719   4.463 -15.012  1.00  0.00     0.023 A 
ATOM     81  C   UNL     1     -13.544   4.046 -16.068  1.00  0.00     0.031 A 
ATOM     82  C   UNL     1     -12.883   3.838 -13.762  1.00  0.00     0.131 A 
ATOM     83  C   UNL     1     -14.528   3.071 -15.843  1.00  0.00     0.055 A 
ATOM     84  C   UNL     1     -13.822   2.825 -13.560  1.00  0.00     0.041 A 
ATOM     85  F   UNL     1     -12.124   4.200 -12.715  1.00  0.00    -0.206 F 
ATOM     86  C   UNL     1     -14.662   2.446 -14.601  1.00  0.00     0.022 A 
BRANCH  83  87
ATOM     87  S   UNL     1     -15.701   2.698 -17.176  1.00  0.00     0.124 S 
ATOM     88  O   UNL     1     -16.296   4.007 -17.420  1.00  0.00    -0.237 OA
ATOM     89  O   UNL     1     -14.819   2.188 -18.220  1.00  0.00    -0.237 OA
ATOM     90  O   UNL     1     -16.592   1.708 -16.577  1.00  0.00    -0.744 OA
ENDBRANCH  83  87
ENDBRANCH  56  80
BRANCH  68  91
ATOM     91  C   UNL     1     -13.421  11.224 -16.605  1.00  0.00     0.023 A 
ATOM     92  C   UNL     1     -14.459  11.473 -15.691  1.00  0.00     0.031 A 
ATOM     93  C   UNL     1     -13.533  11.773 -17.896  1.00  0.00     0.131 A 
ATOM     94  C   UNL     1     -15.590  12.198 -16.096  1.00  0.00     0.055 A 
ATOM     95  C   UNL     1     -14.629  12.552 -18.272  1.00  0.00     0.041 A 
ATOM     96  F   UNL     1     -12.575  11.566 -18.813  1.00  0.00    -0.206 F 
ATOM     97  C   UNL     1     -15.672  12.756 -17.375  1.00  0.00     0.022 A 
BRANCH  94  98
ATOM     98  S   UNL     1     -17.002  12.317 -14.963  1.00  0.00     0.124 S 
ATOM     99  O   UNL     1     -17.328  10.913 -14.738  1.00  0.00    -0.237 OA
ATOM    100  O   UNL     1     -16.430  13.029 -13.825  1.00  0.00    -0.237 OA
ATOM    101  O   UNL     1     -17.994  13.069 -15.729  1.00  0.00    -0.744 OA
ENDBRANCH  94  98
ENDBRANCH  68  91
ENDBRANCH  42  43
ENDBRANCH  35  37
ENDBRANCH  34  35
ENDBRANCH  33  34
ENDBRANCH  32  33
ENDBRANCH  31  32
ENDBRANCH   1  31
TORSDOF 22
