REMARK SMILES COc1cc([C@@H]2CC[NH2+][C@@H]2C(=O)OCCOCCOC(=O)c2ccc(-c3c4nc(c(-c5cc(S(=O)(=O)[O-])ccc5F)c5ccc([nH]5)c(-c5cc(S(=O)(=O)[O-])ccc5F)c5nc(c(-c6cc(S(=O)(=O)[O-])ccc6F)c6ccc3[nH]6)C=C5)C=C4)cc2)cc(OC)c1OC
REMARK SMILES IDX 17 1 16 2 15 3 14 4 13 5 11 6 12 7 10 8 6 9 7 10 8 11 9 12
REMARK SMILES IDX 5 15 3 16 4 17 89 18 86 19 85 20 2 21 1 22 90 23 91 24 87 25
REMARK SMILES IDX 88 26 18 27 19 28 20 29 21 30 22 31 23 32 84 33 24 34 83 35
REMARK SMILES IDX 25 36 26 37 27 38 77 39 28 40 82 41 76 42 78 43 29 44 81 45
REMARK SMILES IDX 75 46 74 47 30 49 62 50 42 51 61 52 43 53 46 54 60 55 79 56
REMARK SMILES IDX 44 57 45 58 59 60 80 61 47 62 31 63 32 64 40 65 33 66 39 67
REMARK SMILES IDX 41 68 38 69 34 70 35 71 36 72 37 73 63 74 64 75 72 76 65 77
REMARK SMILES IDX 71 78 73 79 70 80 66 81 67 82 68 83 69 84 48 85 49 86 57 87
REMARK SMILES IDX 50 88 56 89 58 90 55 91 51 92 52 93 53 94 54 95
REMARK H PARENT 9 13 9 14 78 48 46 59
REMARK Flexibility Score: inf
ROOT
ATOM      1  C   UNL     1       0.435  -4.126  -7.186  1.00  0.00     0.202 C 
ENDROOT
BRANCH   1   2
ATOM      2  O   UNL     1      -0.052  -2.934  -7.807  1.00  0.00    -0.374 OA
BRANCH   2   3
ATOM      3  C   UNL     1      -0.041  -1.767  -6.976  1.00  0.00     0.202 C 
BRANCH   3   4
ATOM      4  C   UNL     1      -1.266  -1.639  -6.069  1.00  0.00     0.261 C 
BRANCH   4   5
ATOM      5  O   UNL     1      -1.175  -2.601  -5.000  1.00  0.00    -0.459 OA
BRANCH   5   6
ATOM      6  C   UNL     1      -2.184  -3.498  -4.917  1.00  0.00     0.365 C 
ATOM      7  O   UNL     1      -3.236  -3.430  -5.549  1.00  0.00    -0.245 OA
BRANCH   6   8
ATOM      8  C   UNL     1      -1.846  -4.714  -4.059  1.00  0.00     0.301 C 
ATOM      9  C   UNL     1      -1.095  -4.615  -2.728  1.00  0.00     0.095 C 
ATOM     10  C   UNL     1      -0.628  -6.076  -2.563  1.00  0.00     0.076 C 
ATOM     11  C   UNL     1      -0.371  -6.582  -3.974  1.00  0.00     0.262 C 
ATOM     12  N   UNL     1      -1.202  -5.785  -4.869  1.00  0.00    -0.334 N 
ATOM     13  H   UNL     1      -1.917  -6.375  -5.295  1.00  0.00     0.347 HD
ATOM     14  H   UNL     1      -0.636  -5.378  -5.614  1.00  0.00     0.347 HD
BRANCH   9  15
ATOM     15  C   UNL     1       0.032  -3.637  -2.416  1.00  0.00    -0.030 A 
ATOM     16  C   UNL     1       0.890  -1.994  -0.817  1.00  0.00     0.164 A 
ATOM     17  C   UNL     1      -0.184  -2.662  -1.428  1.00  0.00     0.055 A 
ATOM     18  C   UNL     1       2.217  -2.295  -1.161  1.00  0.00     0.203 A 
ATOM     19  C   UNL     1       2.443  -3.197  -2.214  1.00  0.00     0.164 A 
ATOM     20  C   UNL     1       1.349  -3.813  -2.861  1.00  0.00     0.055 A 
BRANCH  16  21
ATOM     21  O   UNL     1       0.607  -1.195   0.264  1.00  0.00    -0.493 OA
ATOM     22  C   UNL     1       0.092   0.074  -0.146  1.00  0.00     0.278 C 
ENDBRANCH  16  21
BRANCH  18  23
ATOM     23  O   UNL     1       3.292  -1.870  -0.424  1.00  0.00    -0.490 OA
ATOM     24  C   UNL     1       3.325  -0.495  -0.062  1.00  0.00     0.278 C 
ENDBRANCH  18  23
BRANCH  19  25
ATOM     25  O   UNL     1       3.647  -3.641  -2.707  1.00  0.00    -0.493 OA
ATOM     26  C   UNL     1       4.847  -3.282  -2.033  1.00  0.00     0.278 C 
ENDBRANCH  19  25
ENDBRANCH   9  15
ENDBRANCH   6   8
ENDBRANCH   5   6
ENDBRANCH   4   5
ENDBRANCH   3   4
ENDBRANCH   2   3
ENDBRANCH   1   2
BRANCH   1  27
ATOM     27  C   UNL     1       1.938  -4.370  -7.344  1.00  0.00     0.261 C 
BRANCH  27  28
ATOM     28  O   UNL     1       2.693  -3.409  -6.589  1.00  0.00    -0.460 OA
BRANCH  28  29
ATOM     29  C   UNL     1       3.146  -2.354  -7.311  1.00  0.00     0.338 C 
ATOM     30  O   UNL     1       3.081  -2.217  -8.520  1.00  0.00    -0.246 OA
BRANCH  29  31
ATOM     31  C   UNL     1       3.586  -1.275  -6.400  1.00  0.00     0.060 A 
ATOM     32  C   UNL     1       3.321   0.045  -6.780  1.00  0.00     0.016 A 
ATOM     33  C   UNL     1       4.279  -1.537  -5.218  1.00  0.00     0.016 A 
ATOM     34  C   UNL     1       3.826   1.106  -6.029  1.00  0.00     0.010 A 
ATOM     35  C   UNL     1       4.763  -0.472  -4.453  1.00  0.00     0.010 A 
ATOM     36  C   UNL     1       4.597   0.853  -4.887  1.00  0.00    -0.014 A 
BRANCH  36  37
ATOM     37  C   UNL     1       5.402   1.949  -4.284  1.00  0.00     0.031 A 
ATOM     38  C   UNL     1       6.898   1.942  -4.484  1.00  0.00     0.074 A 
ATOM     39  C   UNL     1       4.817   2.955  -3.609  1.00  0.00     0.049 A 
ATOM     40  N   UNL     1       7.799   2.800  -4.077  1.00  0.00    -0.248 NA
ATOM     41  C   UNL     1       7.453   0.793  -5.215  1.00  0.00     0.031 C 
ATOM     42  C   UNL     1       3.386   3.066  -3.328  1.00  0.00     0.029 A 
ATOM     43  N   UNL     1       5.359   4.082  -3.043  1.00  0.00    -0.354 N 
ATOM     44  C   UNL     1       9.024   2.287  -4.498  1.00  0.00     0.074 A 
ATOM     45  C   UNL     1       8.753   1.004  -5.106  1.00  0.00     0.031 C 
ATOM     46  C   UNL     1       3.162   4.209  -2.657  1.00  0.00     0.029 A 
ATOM     47  C   UNL     1       4.432   4.902  -2.445  1.00  0.00     0.049 A 
ATOM     48  H   UNL     1       6.322   4.284  -3.064  1.00  0.00     0.167 HD
ATOM     49  C   UNL     1      10.258   2.848  -4.423  1.00  0.00     0.034 A 
ATOM     50  C   UNL     1       4.590   6.078  -1.805  1.00  0.00     0.034 A 
ATOM     51  C   UNL     1      10.513   4.135  -3.825  1.00  0.00     0.049 A 
ATOM     52  C   UNL     1       5.968   6.693  -1.731  1.00  0.00     0.074 A 
ATOM     53  C   UNL     1      11.714   4.811  -3.704  1.00  0.00     0.029 A 
ATOM     54  N   UNL     1       9.543   4.945  -3.247  1.00  0.00    -0.354 N 
ATOM     55  N   UNL     1       7.113   6.215  -2.163  1.00  0.00    -0.248 NA
ATOM     56  C   UNL     1       6.067   8.020  -1.111  1.00  0.00     0.031 C 
ATOM     57  C   UNL     1      11.480   6.001  -3.004  1.00  0.00     0.029 A 
ATOM     58  C   UNL     1      10.120   6.106  -2.756  1.00  0.00     0.049 A 
ATOM     59  H   UNL     1       8.585   4.726  -3.193  1.00  0.00     0.167 HD
ATOM     60  C   UNL     1       8.062   7.199  -1.895  1.00  0.00     0.074 A 
ATOM     61  C   UNL     1       7.351   8.301  -1.281  1.00  0.00     0.031 C 
ATOM     62  C   UNL     1       9.399   7.196  -2.140  1.00  0.00     0.034 A 
BRANCH  49  63
ATOM     63  C   UNL     1      11.411   2.044  -4.984  1.00  0.00     0.023 A 
ATOM     64  C   UNL     1      11.449   1.658  -6.337  1.00  0.00     0.031 A 
ATOM     65  C   UNL     1      12.445   1.591  -4.147  1.00  0.00     0.131 A 
ATOM     66  C   UNL     1      12.426   0.757  -6.784  1.00  0.00     0.055 A 
ATOM     67  C   UNL     1      13.475   0.776  -4.623  1.00  0.00     0.041 A 
ATOM     68  F   UNL     1      12.459   1.907  -2.843  1.00  0.00    -0.206 F 
ATOM     69  C   UNL     1      13.457   0.334  -5.943  1.00  0.00     0.022 A 
BRANCH  66  70
ATOM     70  S   UNL     1      12.213  -0.006  -8.417  1.00  0.00     0.124 S 
ATOM     71  O   UNL     1      10.909  -0.649  -8.272  1.00  0.00    -0.237 OA
ATOM     72  O   UNL     1      12.264   1.145  -9.311  1.00  0.00    -0.237 OA
ATOM     73  O   UNL     1      13.345  -0.925  -8.516  1.00  0.00    -0.744 OA
ENDBRANCH  66  70
ENDBRANCH  49  63
BRANCH  50  74
ATOM     74  C   UNL     1       3.417   6.758  -1.185  1.00  0.00     0.023 A 
ATOM     75  C   UNL     1       2.945   7.990  -1.665  1.00  0.00     0.031 A 
ATOM     76  C   UNL     1       2.768   6.191  -0.073  1.00  0.00     0.131 A 
ATOM     77  C   UNL     1       1.886   8.637  -1.009  1.00  0.00     0.055 A 
ATOM     78  C   UNL     1       1.685   6.816   0.547  1.00  0.00     0.041 A 
ATOM     79  F   UNL     1       3.172   5.008   0.418  1.00  0.00    -0.206 F 
ATOM     80  C   UNL     1       1.246   8.053   0.087  1.00  0.00     0.022 A 
BRANCH  77  81
ATOM     81  S   UNL     1       1.395  10.292  -1.568  1.00  0.00     0.124 S 
ATOM     82  O   UNL     1       2.629  11.046  -1.385  1.00  0.00    -0.237 OA
ATOM     83  O   UNL     1       0.996  10.037  -2.949  1.00  0.00    -0.237 OA
ATOM     84  O   UNL     1       0.304  10.646  -0.663  1.00  0.00    -0.744 OA
ENDBRANCH  77  81
ENDBRANCH  50  74
BRANCH  62  85
ATOM     85  C   UNL     1      10.167   8.450  -1.789  1.00  0.00     0.023 A 
ATOM     86  C   UNL     1      10.310   8.889  -0.461  1.00  0.00     0.031 A 
ATOM     87  C   UNL     1      10.750   9.226  -2.807  1.00  0.00     0.131 A 
ATOM     88  C   UNL     1      10.959  10.104  -0.192  1.00  0.00     0.055 A 
ATOM     89  C   UNL     1      11.452  10.400  -2.527  1.00  0.00     0.041 A 
ATOM     90  F   UNL     1      10.646   8.857  -4.094  1.00  0.00    -0.206 F 
ATOM     91  C   UNL     1      11.545  10.854  -1.215  1.00  0.00     0.022 A 
BRANCH  88  92
ATOM     92  S   UNL     1      10.928  10.751   1.502  1.00  0.00     0.124 S 
ATOM     93  O   UNL     1       9.498  10.781   1.790  1.00  0.00    -0.237 OA
ATOM     94  O   UNL     1      11.704   9.753   2.231  1.00  0.00    -0.237 OA
ATOM     95  O   UNL     1      11.563  12.062   1.380  1.00  0.00    -0.744 OA
ENDBRANCH  88  92
ENDBRANCH  62  85
ENDBRANCH  36  37
ENDBRANCH  29  31
ENDBRANCH  28  29
ENDBRANCH  27  28
ENDBRANCH   1  27
TORSDOF 21
