REMARK SMILES Cc1ccc(C2=NN(C(=O)CCC(=O)OCCOCCOC(=O)c3ccc(-c4c5nc(c(-c6cc(S(=O)(=O)[O-])ccc6F)c6ccc([nH]6)c(-c6cc(S(=O)(=O)[O-])ccc6F)c6nc(c(-c7cc(S(=O)(=O)[O-])ccc7F)c7ccc4[nH]7)C=C6)C=C5)cc3)[C@H](C[C@H]3C=c4cccc(C)c4=NC3=O)C2)cc1
REMARK SMILES IDX 17 1 16 2 15 3 13 4 14 5 12 6 11 7 9 8 10 9 8 10 6 11 7 12
REMARK SMILES IDX 101 13 87 14 5 15 1 16 2 17 3 18 103 19 4 20 102 21 88 22
REMARK SMILES IDX 89 23 90 24 99 25 91 26 98 27 100 28 92 29 97 30 93 31 95 32
REMARK SMILES IDX 94 33 96 34 18 35 19 36 20 37 21 38 22 39 23 40 24 41 25 42
REMARK SMILES IDX 86 43 26 44 85 45 27 46 28 47 29 48 79 49 30 50 84 51 78 52
REMARK SMILES IDX 80 53 31 54 83 55 77 56 76 57 32 59 64 60 44 61 63 62 45 63
REMARK SMILES IDX 48 64 62 65 81 66 46 67 47 68 61 70 82 71 49 72 33 73 34 74
REMARK SMILES IDX 42 75 35 76 41 77 43 78 40 79 36 80 37 81 38 82 39 83 65 84
REMARK SMILES IDX 66 85 74 86 67 87 73 88 75 89 72 90 68 91 69 92 70 93 71 94
REMARK SMILES IDX 50 95 51 96 59 97 52 98 58 99 60 100 57 101 53 102 54 103
REMARK SMILES IDX 55 104 56 105
REMARK H PARENT 80 58 48 69
REMARK Flexibility Score: inf
ROOT
ATOM      1  C   UNL     1      -8.333   1.815  -2.334  1.00  0.00     0.202 C 
ENDROOT
BRANCH   1   2
ATOM      2  C   UNL     1      -8.121   2.549  -1.036  1.00  0.00     0.261 C 
BRANCH   2   3
ATOM      3  O   UNL     1      -7.912   1.643   0.031  1.00  0.00    -0.463 OA
BRANCH   3   4
ATOM      4  C   UNL     1      -8.752   1.733   1.070  1.00  0.00     0.306 C 
ATOM      5  O   UNL     1      -9.691   2.536   1.147  1.00  0.00    -0.252 OA
BRANCH   4   6
ATOM      6  C   UNL     1      -8.480   0.687   2.117  1.00  0.00     0.132 C 
BRANCH   6   7
ATOM      7  C   UNL     1      -7.470  -0.428   1.793  1.00  0.00     0.114 C 
BRANCH   7   8
ATOM      8  C   UNL     1      -6.084   0.046   1.294  1.00  0.00     0.243 C 
ATOM      9  O   UNL     1      -5.529   0.996   1.835  1.00  0.00    -0.273 OA
BRANCH   8  10
ATOM     10  N   UNL     1      -5.521  -0.555   0.144  1.00  0.00    -0.230 N 
ATOM     11  C   UNL     1      -3.400  -0.794  -0.381  1.00  0.00     0.070 C 
ATOM     12  N   UNL     1      -4.295  -1.285   0.406  1.00  0.00    -0.174 NA
ATOM     13  C   UNL     1      -3.991   0.277  -1.237  1.00  0.00     0.086 C 
ATOM     14  C   UNL     1      -5.556   0.158  -1.511  1.00  0.00     0.118 C 
BRANCH  11  15
ATOM     15  C   UNL     1      -1.844  -0.970  -0.463  1.00  0.00    -0.002 A 
ATOM     16  C   UNL     1       2.489  -0.410   0.063  1.00  0.00     0.044 C 
ATOM     17  C   UNL     1       1.021  -0.655  -0.160  1.00  0.00    -0.051 A 
ATOM     18  C   UNL     1       0.359  -1.852   0.174  1.00  0.00     0.004 A 
ATOM     19  C   UNL     1       0.262   0.354  -0.718  1.00  0.00     0.004 A 
ATOM     20  C   UNL     1      -1.062  -2.004   0.050  1.00  0.00     0.010 A 
ATOM     21  C   UNL     1      -1.116   0.175  -0.883  1.00  0.00     0.010 A 
ENDBRANCH  11  15
BRANCH  14  22
ATOM     22  C   UNL     1      -6.633  -0.737  -3.047  1.00  0.00     0.045 C 
BRANCH  22  23
ATOM     23  C   UNL     1      -7.109  -2.656  -3.092  1.00  0.00     0.106 C 
ATOM     24  C   UNL     1      -6.762  -3.723  -1.850  1.00  0.00    -0.003 C 
ATOM     25  C   UNL     1      -8.575  -3.025  -3.515  1.00  0.00     0.253 C 
ATOM     26  C   UNL     1      -7.698  -4.228  -1.031  1.00  0.00    -0.003 A 
ATOM     27  N   UNL     1      -9.328  -4.008  -2.844  1.00  0.00    -0.212 NA
ATOM     28  O   UNL     1      -9.061  -2.433  -4.479  1.00  0.00    -0.272 OA
ATOM     29  C   UNL     1      -7.617  -4.349   0.430  1.00  0.00     0.010 A 
ATOM     30  C   UNL     1      -8.960  -4.527  -1.714  1.00  0.00     0.077 A 
ATOM     31  C   UNL     1      -8.597  -4.966   1.110  1.00  0.00     0.001 A 
ATOM     32  C   UNL     1      -9.711  -5.619  -0.961  1.00  0.00    -0.025 A 
ATOM     33  C   UNL     1      -9.544  -5.764   0.372  1.00  0.00     0.005 A 
ATOM     34  C   UNL     1     -10.359  -6.684  -1.774  1.00  0.00     0.047 C 
ENDBRANCH  22  23
ENDBRANCH  14  22
ENDBRANCH   8  10
ENDBRANCH   7   8
ENDBRANCH   6   7
ENDBRANCH   4   6
ENDBRANCH   3   4
ENDBRANCH   2   3
ENDBRANCH   1   2
BRANCH   1  35
ATOM     35  O   UNL     1      -9.096   0.624  -2.360  1.00  0.00    -0.374 OA
BRANCH  35  36
ATOM     36  C   UNL     1      -8.793  -0.630  -1.687  1.00  0.00     0.202 C 
BRANCH  36  37
ATOM     37  C   UNL     1      -7.269  -1.303  -1.154  1.00  0.00     0.261 C 
BRANCH  37  38
ATOM     38  O   UNL     1      -5.550  -1.760  -1.902  1.00  0.00    -0.460 OA
BRANCH  38  39
ATOM     39  C   UNL     1      -4.439  -1.302  -3.132  1.00  0.00     0.338 C 
ATOM     40  O   UNL     1      -3.657  -2.189  -3.475  1.00  0.00    -0.246 OA
BRANCH  39  41
ATOM     41  C   UNL     1      -4.201   0.376  -3.893  1.00  0.00     0.060 A 
ATOM     42  C   UNL     1      -3.042   1.177  -3.625  1.00  0.00     0.016 A 
ATOM     43  C   UNL     1      -5.222   1.257  -4.258  1.00  0.00     0.016 A 
ATOM     44  C   UNL     1      -3.169   2.487  -2.944  1.00  0.00     0.010 A 
ATOM     45  C   UNL     1      -5.336   2.567  -3.688  1.00  0.00     0.010 A 
ATOM     46  C   UNL     1      -4.409   3.101  -2.782  1.00  0.00    -0.014 A 
BRANCH  46  47
ATOM     47  C   UNL     1      -4.915   4.139  -1.747  1.00  0.00     0.031 A 
ATOM     48  C   UNL     1      -5.707   5.357  -2.276  1.00  0.00     0.074 A 
ATOM     49  C   UNL     1      -5.036   3.965  -0.367  1.00  0.00     0.049 A 
ATOM     50  N   UNL     1      -6.277   6.263  -1.542  1.00  0.00    -0.248 NA
ATOM     51  C   UNL     1      -5.909   5.659  -3.695  1.00  0.00     0.031 C 
ATOM     52  C   UNL     1      -6.170   4.537   0.417  1.00  0.00     0.029 A 
ATOM     53  N   UNL     1      -4.402   3.189   0.644  1.00  0.00    -0.354 N 
ATOM     54  C   UNL     1      -7.148   7.014  -2.302  1.00  0.00     0.074 A 
ATOM     55  C   UNL     1      -6.784   6.676  -3.655  1.00  0.00     0.031 C 
ATOM     56  C   UNL     1      -6.127   4.193   1.702  1.00  0.00     0.029 A 
ATOM     57  C   UNL     1      -4.840   3.620   1.950  1.00  0.00     0.049 A 
ATOM     58  H   UNL     1      -3.759   2.462   0.477  1.00  0.00     0.167 HD
ATOM     59  C   UNL     1      -8.120   7.776  -1.703  1.00  0.00     0.034 A 
ATOM     60  C   UNL     1      -4.152   3.860   3.113  1.00  0.00     0.034 A 
ATOM     61  C   UNL     1      -7.977   7.796  -0.239  1.00  0.00     0.049 A 
ATOM     62  C   UNL     1      -4.180   5.352   3.333  1.00  0.00     0.074 A 
ATOM     63  C   UNL     1      -8.709   7.328   0.838  1.00  0.00     0.029 A 
ATOM     64  N   UNL     1      -6.787   8.262   0.297  1.00  0.00    -0.354 N 
ATOM     65  N   UNL     1      -5.198   6.125   3.075  1.00  0.00    -0.248 NA
ATOM     66  C   UNL     1      -2.955   6.085   3.640  1.00  0.00     0.031 C 
ATOM     67  C   UNL     1      -7.888   7.434   2.008  1.00  0.00     0.029 A 
ATOM     68  C   UNL     1      -6.697   8.050   1.661  1.00  0.00     0.049 A 
ATOM     69  H   UNL     1      -6.082   8.696  -0.235  1.00  0.00     0.167 HD
ATOM     70  C   UNL     1      -4.719   7.393   2.885  1.00  0.00     0.074 A 
ATOM     71  C   UNL     1      -3.314   7.319   3.275  1.00  0.00     0.031 C 
ATOM     72  C   UNL     1      -5.452   8.408   2.332  1.00  0.00     0.034 A 
BRANCH  59  73
ATOM     73  C   UNL     1      -9.280   8.504  -2.391  1.00  0.00     0.023 A 
ATOM     74  C   UNL     1     -10.069   9.424  -1.651  1.00  0.00     0.031 A 
ATOM     75  C   UNL     1      -9.713   8.295  -3.719  1.00  0.00     0.131 A 
ATOM     76  C   UNL     1     -11.185  10.081  -2.224  1.00  0.00     0.055 A 
ATOM     77  C   UNL     1     -10.786   8.991  -4.303  1.00  0.00     0.041 A 
ATOM     78  F   UNL     1      -9.165   7.364  -4.508  1.00  0.00    -0.206 F 
ATOM     79  C   UNL     1     -11.532   9.886  -3.556  1.00  0.00     0.022 A 
BRANCH  76  80
ATOM     80  S   UNL     1     -12.226  11.166  -1.198  1.00  0.00     0.124 S 
ATOM     81  O   UNL     1     -12.746  10.238  -0.199  1.00  0.00    -0.237 OA
ATOM     82  O   UNL     1     -11.270  12.162  -0.728  1.00  0.00    -0.237 OA
ATOM     83  O   UNL     1     -13.225  11.671  -2.141  1.00  0.00    -0.744 OA
ENDBRANCH  76  80
ENDBRANCH  59  73
BRANCH  60  84
ATOM     84  C   UNL     1      -2.947   3.035   3.411  1.00  0.00     0.023 A 
ATOM     85  C   UNL     1      -3.168   1.793   4.070  1.00  0.00     0.031 A 
ATOM     86  C   UNL     1      -1.991   3.133   2.407  1.00  0.00     0.131 A 
ATOM     87  C   UNL     1      -2.777   0.639   3.410  1.00  0.00     0.055 A 
ATOM     88  C   UNL     1      -1.776   2.008   1.666  1.00  0.00     0.041 A 
ATOM     89  F   UNL     1      -1.655   4.312   1.861  1.00  0.00    -0.206 F 
ATOM     90  C   UNL     1      -2.213   0.785   2.159  1.00  0.00     0.022 A 
BRANCH  87  91
ATOM     91  S   UNL     1      -3.145  -1.051   3.986  1.00  0.00     0.124 S 
ATOM     92  O   UNL     1      -2.419  -1.104   5.253  1.00  0.00    -0.237 OA
ATOM     93  O   UNL     1      -4.601  -1.082   4.090  1.00  0.00    -0.237 OA
ATOM     94  O   UNL     1      -2.579  -1.921   2.954  1.00  0.00    -0.744 OA
ENDBRANCH  87  91
ENDBRANCH  60  84
BRANCH  72  95
ATOM     95  C   UNL     1      -4.926   9.821   2.358  1.00  0.00     0.023 A 
ATOM     96  C   UNL     1      -4.034  10.207   3.369  1.00  0.00     0.031 A 
ATOM     97  C   UNL     1      -5.299  10.837   1.459  1.00  0.00     0.131 A 
ATOM     98  C   UNL     1      -3.366  11.430   3.323  1.00  0.00     0.055 A 
ATOM     99  C   UNL     1      -4.747  12.122   1.509  1.00  0.00     0.041 A 
ATOM    100  F   UNL     1      -6.188  10.633   0.478  1.00  0.00    -0.206 F 
ATOM    101  C   UNL     1      -3.738  12.412   2.417  1.00  0.00     0.022 A 
BRANCH  98 102
ATOM    102  S   UNL     1      -1.907  11.616   4.373  1.00  0.00     0.124 S 
ATOM    103  O   UNL     1      -2.385  11.168   5.677  1.00  0.00    -0.237 OA
ATOM    104  O   UNL     1      -0.959  10.723   3.709  1.00  0.00    -0.237 OA
ATOM    105  O   UNL     1      -1.596  13.039   4.275  1.00  0.00    -0.744 OA
ENDBRANCH  98 102
ENDBRANCH  72  95
ENDBRANCH  46  47
ENDBRANCH  39  41
ENDBRANCH  38  39
ENDBRANCH  37  38
ENDBRANCH  36  37
ENDBRANCH  35  36
ENDBRANCH   1  35
TORSDOF 23
