REMARK SMILES CC(C)[C@H](C(=O)OCCOCCOC(=O)c1ccc(-c2c3nc(c(-c4cc(S(=O)(=O)[O-])ccc4F)c4ccc([nH]4)c(-c4cc(S(=O)(=O)[O-])ccc4F)c4nc(c(-c5cc(S(=O)(=O)[O-])ccc5F)c5ccc2[nH]5)C=C4)C=C3)cc1)[C@H](C)[C@@H](C)O
REMARK SMILES IDX 10 1 9 2 8 3 7 4 5 5 6 6 4 7 2 8 1 9 3 10 79 11 80 12 81 13
REMARK SMILES IDX 82 14 83 15 11 17 12 18 13 19 14 20 15 21 16 22 17 23 78 24
REMARK SMILES IDX 18 25 77 26 19 27 20 28 21 29 71 30 22 31 76 32 70 33 72 34
REMARK SMILES IDX 23 35 75 36 69 37 68 38 24 40 56 41 36 42 55 43 37 44 40 45
REMARK SMILES IDX 54 46 73 47 38 48 39 49 53 51 74 52 41 53 25 54 26 55 34 56
REMARK SMILES IDX 27 57 33 58 35 59 32 60 28 61 29 62 30 63 31 64 57 65 58 66
REMARK SMILES IDX 66 67 59 68 65 69 67 70 64 71 60 72 61 73 62 74 63 75 42 76
REMARK SMILES IDX 43 77 51 78 44 79 50 80 52 81 49 82 45 83 46 84 47 85 48 86
REMARK H PARENT 83 16 72 39 40 50
REMARK Flexibility Score: inf
ROOT
ATOM      1  O   UNL     1      -1.735   7.500   1.165  1.00  0.00    -0.374 OA
ENDROOT
BRANCH   1   2
ATOM      2  C   UNL     1      -3.081   7.181   0.784  1.00  0.00     0.202 C 
BRANCH   2   3
ATOM      3  C   UNL     1      -3.222   6.574  -0.617  1.00  0.00     0.261 C 
BRANCH   3   4
ATOM      4  O   UNL     1      -2.776   5.209  -0.563  1.00  0.00    -0.463 OA
BRANCH   4   5
ATOM      5  C   UNL     1      -1.767   4.821  -1.349  1.00  0.00     0.309 C 
ATOM      6  O   UNL     1      -1.369   5.466  -2.315  1.00  0.00    -0.252 OA
BRANCH   5   7
ATOM      7  C   UNL     1      -1.061   3.535  -0.862  1.00  0.00     0.107 C 
BRANCH   7   8
ATOM      8  C   UNL     1       0.479   3.940  -0.753  1.00  0.00    -0.003 C 
ATOM      9  C   UNL     1       1.326   3.367   0.393  1.00  0.00     0.008 C 
ATOM     10  C   UNL     1       1.204   3.662  -2.079  1.00  0.00     0.008 C 
ENDBRANCH   7   8
BRANCH   7  11
ATOM     11  C   UNL     1      -1.585   2.710   0.386  1.00  0.00     0.029 C 
ATOM     12  C   UNL     1      -1.049   1.266   0.231  1.00  0.00     0.011 C 
BRANCH  11  13
ATOM     13  C   UNL     1      -3.116   2.639   0.687  1.00  0.00     0.115 C 
ATOM     14  C   UNL     1      -3.517   1.546   1.687  1.00  0.00     0.038 C 
BRANCH  13  15
ATOM     15  O   UNL     1      -3.577   3.843   1.295  1.00  0.00    -0.393 OA
ATOM     16  H   UNL     1      -3.149   3.954   2.159  1.00  0.00     0.210 HD
ENDBRANCH  13  15
ENDBRANCH  11  13
ENDBRANCH   7  11
ENDBRANCH   5   7
ENDBRANCH   4   5
ENDBRANCH   3   4
ENDBRANCH   2   3
ENDBRANCH   1   2
BRANCH   1  17
ATOM     17  C   UNL     1      -0.924   6.411   1.601  1.00  0.00     0.202 C 
BRANCH  17  18
ATOM     18  C   UNL     1      -0.990   6.076   3.093  1.00  0.00     0.261 C 
BRANCH  18  19
ATOM     19  O   UNL     1      -2.285   5.577   3.469  1.00  0.00    -0.460 OA
BRANCH  19  20
ATOM     20  C   UNL     1      -3.071   6.500   4.078  1.00  0.00     0.338 C 
ATOM     21  O   UNL     1      -2.750   7.634   4.404  1.00  0.00    -0.246 OA
BRANCH  20  22
ATOM     22  C   UNL     1      -4.459   6.011   4.154  1.00  0.00     0.060 A 
ATOM     23  C   UNL     1      -5.468   6.879   3.721  1.00  0.00     0.016 A 
ATOM     24  C   UNL     1      -4.778   4.756   4.680  1.00  0.00     0.016 A 
ATOM     25  C   UNL     1      -6.804   6.515   3.853  1.00  0.00     0.010 A 
ATOM     26  C   UNL     1      -6.122   4.393   4.812  1.00  0.00     0.010 A 
ATOM     27  C   UNL     1      -7.142   5.283   4.428  1.00  0.00    -0.014 A 
BRANCH  27  28
ATOM     28  C   UNL     1      -8.563   4.984   4.731  1.00  0.00     0.031 A 
ATOM     29  C   UNL     1      -9.053   5.109   6.148  1.00  0.00     0.074 A 
ATOM     30  C   UNL     1      -9.414   4.645   3.746  1.00  0.00     0.049 A 
ATOM     31  N   UNL     1     -10.240   4.868   6.641  1.00  0.00    -0.248 NA
ATOM     32  C   UNL     1      -8.068   5.562   7.142  1.00  0.00     0.031 C 
ATOM     33  C   UNL     1      -9.062   4.538   2.330  1.00  0.00     0.029 A 
ATOM     34  N   UNL     1     -10.748   4.326   3.786  1.00  0.00    -0.354 N 
ATOM     35  C   UNL     1     -10.147   5.136   8.003  1.00  0.00     0.074 A 
ATOM     36  C   UNL     1      -8.775   5.518   8.262  1.00  0.00     0.031 C 
ATOM     37  C   UNL     1     -10.154   4.177   1.636  1.00  0.00     0.029 A 
ATOM     38  C   UNL     1     -11.269   3.981   2.561  1.00  0.00     0.049 A 
ATOM     39  H   UNL     1     -11.282   4.343   4.613  1.00  0.00     0.167 HD
ATOM     40  C   UNL     1     -11.120   5.077   8.946  1.00  0.00     0.034 A 
ATOM     41  C   UNL     1     -12.496   3.530   2.229  1.00  0.00     0.034 A 
ATOM     42  C   UNL     1     -12.482   4.686   8.670  1.00  0.00     0.049 A 
ATOM     43  C   UNL     1     -13.536   3.379   3.314  1.00  0.00     0.074 A 
ATOM     44  C   UNL     1     -13.553   4.615   9.544  1.00  0.00     0.029 A 
ATOM     45  N   UNL     1     -12.959   4.282   7.429  1.00  0.00    -0.354 N 
ATOM     46  N   UNL     1     -13.440   3.648   4.596  1.00  0.00    -0.248 NA
ATOM     47  C   UNL     1     -14.850   2.866   2.904  1.00  0.00     0.031 C 
ATOM     48  C   UNL     1     -14.650   4.091   8.854  1.00  0.00     0.029 A 
ATOM     49  C   UNL     1     -14.294   3.917   7.526  1.00  0.00     0.049 A 
ATOM     50  H   UNL     1     -12.427   4.258   6.601  1.00  0.00     0.167 HD
ATOM     51  C   UNL     1     -14.691   3.361   5.139  1.00  0.00     0.074 A 
ATOM     52  C   UNL     1     -15.526   2.919   4.042  1.00  0.00     0.031 C 
ATOM     53  C   UNL     1     -15.112   3.457   6.427  1.00  0.00     0.034 A 
BRANCH  40  54
ATOM     54  C   UNL     1     -10.729   5.393  10.371  1.00  0.00     0.023 A 
ATOM     55  C   UNL     1     -10.269   6.665  10.752  1.00  0.00     0.031 A 
ATOM     56  C   UNL     1     -10.800   4.396  11.361  1.00  0.00     0.131 A 
ATOM     57  C   UNL     1      -9.833   6.887  12.068  1.00  0.00     0.055 A 
ATOM     58  C   UNL     1     -10.442   4.646  12.687  1.00  0.00     0.041 A 
ATOM     59  F   UNL     1     -11.208   3.155  11.053  1.00  0.00    -0.206 F 
ATOM     60  C   UNL     1      -9.941   5.894  13.044  1.00  0.00     0.022 A 
BRANCH  57  61
ATOM     61  S   UNL     1      -8.989   8.446  12.452  1.00  0.00     0.124 S 
ATOM     62  O   UNL     1      -7.874   8.418  11.508  1.00  0.00    -0.237 OA
ATOM     63  O   UNL     1     -10.024   9.439  12.189  1.00  0.00    -0.237 OA
ATOM     64  O   UNL     1      -8.610   8.295  13.855  1.00  0.00    -0.744 OA
ENDBRANCH  57  61
ENDBRANCH  40  54
BRANCH  41  65
ATOM     65  C   UNL     1     -12.802   3.139   0.823  1.00  0.00     0.023 A 
ATOM     66  C   UNL     1     -13.797   3.799   0.084  1.00  0.00     0.031 A 
ATOM     67  C   UNL     1     -12.141   2.055   0.216  1.00  0.00     0.131 A 
ATOM     68  C   UNL     1     -14.133   3.341  -1.200  1.00  0.00     0.055 A 
ATOM     69  C   UNL     1     -12.438   1.642  -1.083  1.00  0.00     0.041 A 
ATOM     70  F   UNL     1     -11.186   1.384   0.880  1.00  0.00    -0.206 F 
ATOM     71  C   UNL     1     -13.450   2.277  -1.795  1.00  0.00     0.022 A 
BRANCH  68  72
ATOM     72  S   UNL     1     -15.547   4.096  -2.049  1.00  0.00     0.124 S 
ATOM     73  O   UNL     1     -16.628   3.852  -1.100  1.00  0.00    -0.237 OA
ATOM     74  O   UNL     1     -15.113   5.483  -2.185  1.00  0.00    -0.237 OA
ATOM     75  O   UNL     1     -15.633   3.346  -3.300  1.00  0.00    -0.744 OA
ENDBRANCH  68  72
ENDBRANCH  41  65
BRANCH  53  76
ATOM     76  C   UNL     1     -16.555   3.104   6.706  1.00  0.00     0.023 A 
ATOM     77  C   UNL     1     -17.042   1.795   6.542  1.00  0.00     0.031 A 
ATOM     78  C   UNL     1     -17.458   4.096   7.130  1.00  0.00     0.131 A 
ATOM     79  C   UNL     1     -18.404   1.525   6.743  1.00  0.00     0.055 A 
ATOM     80  C   UNL     1     -18.798   3.807   7.393  1.00  0.00     0.041 A 
ATOM     81  F   UNL     1     -17.052   5.364   7.301  1.00  0.00    -0.206 F 
ATOM     82  C   UNL     1     -19.281   2.518   7.186  1.00  0.00     0.022 A 
BRANCH  79  83
ATOM     83  S   UNL     1     -19.037  -0.122   6.321  1.00  0.00     0.124 S 
ATOM     84  O   UNL     1     -18.691  -0.226   4.907  1.00  0.00    -0.237 OA
ATOM     85  O   UNL     1     -18.288  -0.986   7.227  1.00  0.00    -0.237 OA
ATOM     86  O   UNL     1     -20.468  -0.022   6.603  1.00  0.00    -0.744 OA
ENDBRANCH  79  83
ENDBRANCH  53  76
ENDBRANCH  27  28
ENDBRANCH  20  22
ENDBRANCH  19  20
ENDBRANCH  18  19
ENDBRANCH  17  18
ENDBRANCH   1  17
TORSDOF 21
