REMARK SMILES COc1ccc(Nc2c(C(=O)OCCOCCOC(=O)c3ccc(-c4c5nc(c(-c6cc(S(=O)(=O)[O-])ccc6F)c6ccc([nH]6)c(-c6cc(S(=O)(=O)[O-])ccc6F)c6nc(c(-c7cc(S(=O)(=O)[O-])ccc7F)c7ccc4[nH]7)C=C6)C=C5)cc3)[nH]c(=O)[nH]c2=O)cc1
REMARK SMILES IDX 15 1 14 2 13 3 12 4 10 5 11 6 9 7 8 8 88 9 84 10 87 11 89 12
REMARK SMILES IDX 85 13 86 16 7 17 6 19 3 20 4 21 91 22 5 23 90 24 2 25 1 26
REMARK SMILES IDX 16 27 17 28 18 29 19 30 20 31 21 32 22 33 83 34 23 35 82 36
REMARK SMILES IDX 24 37 25 38 26 39 76 40 27 41 81 42 75 43 77 44 28 45 80 46
REMARK SMILES IDX 74 47 73 48 29 50 61 51 41 52 60 53 42 54 45 55 59 56 78 57
REMARK SMILES IDX 43 58 44 59 58 61 79 62 46 63 30 64 31 65 39 66 32 67 38 68
REMARK SMILES IDX 40 69 37 70 33 71 34 72 35 73 36 74 62 75 63 76 71 77 64 78
REMARK SMILES IDX 70 79 72 80 69 81 65 82 66 83 67 84 68 85 47 86 48 87 56 88
REMARK SMILES IDX 49 89 55 90 57 91 54 92 50 93 51 94 52 95 53 96
REMARK H PARENT 84 14 87 15 7 18 77 49 45 60
REMARK Flexibility Score: inf
ROOT
ATOM      1  O   UNL     1       3.475   8.480  -4.126  1.00  0.00    -0.374 OA
ENDROOT
BRANCH   1   2
ATOM      2  C   UNL     1       4.501   7.768  -3.430  1.00  0.00     0.202 C 
BRANCH   2   3
ATOM      3  C   UNL     1       4.796   8.288  -2.020  1.00  0.00     0.261 C 
BRANCH   3   4
ATOM      4  O   UNL     1       3.684   8.015  -1.144  1.00  0.00    -0.459 OA
BRANCH   4   5
ATOM      5  C   UNL     1       2.939   9.091  -0.801  1.00  0.00     0.357 C 
ATOM      6  O   UNL     1       3.235  10.265  -0.994  1.00  0.00    -0.244 OA
BRANCH   5   7
ATOM      7  C   UNL     1       1.584   8.725  -0.277  1.00  0.00     0.158 A 
ATOM      8  C   UNL     1       1.196   7.489   0.113  1.00  0.00     0.136 A 
ATOM      9  C   UNL     1      -0.202   7.447   0.712  1.00  0.00     0.278 A 
ATOM     10  N   UNL     1       0.699   9.783  -0.326  1.00  0.00    -0.299 N 
ATOM     11  N   UNL     1      -1.032   8.497   0.439  1.00  0.00    -0.272 N 
ATOM     12  O   UNL     1      -0.595   6.546   1.448  1.00  0.00    -0.267 OA
ATOM     13  C   UNL     1      -0.622   9.698  -0.038  1.00  0.00     0.326 A 
ATOM     14  H   UNL     1       1.053  10.663  -0.588  1.00  0.00     0.172 HD
ATOM     15  H   UNL     1      -1.995   8.372   0.599  1.00  0.00     0.175 HD
ATOM     16  O   UNL     1      -1.387  10.645  -0.180  1.00  0.00    -0.248 OA
BRANCH   8  17
ATOM     17  N   UNL     1       1.962   6.330   0.096  1.00  0.00    -0.349 N 
ATOM     18  H   UNL     1       2.916   6.456   0.303  1.00  0.00     0.167 HD
BRANCH  17  19
ATOM     19  C   UNL     1       1.578   4.998  -0.174  1.00  0.00     0.039 A 
ATOM     20  C   UNL     1       0.900   2.276  -0.592  1.00  0.00     0.119 A 
ATOM     21  C   UNL     1      -0.009   3.288  -0.884  1.00  0.00     0.048 A 
ATOM     22  C   UNL     1       2.158   2.617  -0.105  1.00  0.00     0.048 A 
ATOM     23  C   UNL     1       0.323   4.632  -0.670  1.00  0.00     0.030 A 
ATOM     24  C   UNL     1       2.488   3.965   0.105  1.00  0.00     0.030 A 
BRANCH  20  25
ATOM     25  O   UNL     1       0.462   1.008  -0.855  1.00  0.00    -0.497 OA
ATOM     26  C   UNL     1       1.069  -0.028  -0.089  1.00  0.00     0.278 C 
ENDBRANCH  20  25
ENDBRANCH  17  19
ENDBRANCH   8  17
ENDBRANCH   5   7
ENDBRANCH   4   5
ENDBRANCH   3   4
ENDBRANCH   2   3
ENDBRANCH   1   2
BRANCH   1  27
ATOM     27  C   UNL     1       2.131   8.047  -3.906  1.00  0.00     0.202 C 
BRANCH  27  28
ATOM     28  C   UNL     1       1.675   6.823  -4.707  1.00  0.00     0.261 C 
BRANCH  28  29
ATOM     29  O   UNL     1       2.324   5.625  -4.248  1.00  0.00    -0.460 OA
BRANCH  29  30
ATOM     30  C   UNL     1       3.243   5.115  -5.102  1.00  0.00     0.338 C 
ATOM     31  O   UNL     1       3.503   5.527  -6.226  1.00  0.00    -0.246 OA
BRANCH  30  32
ATOM     32  C   UNL     1       4.060   4.093  -4.421  1.00  0.00     0.060 A 
ATOM     33  C   UNL     1       5.451   4.194  -4.552  1.00  0.00     0.016 A 
ATOM     34  C   UNL     1       3.493   3.029  -3.715  1.00  0.00     0.016 A 
ATOM     35  C   UNL     1       6.278   3.209  -4.018  1.00  0.00     0.010 A 
ATOM     36  C   UNL     1       4.327   2.034  -3.188  1.00  0.00     0.010 A 
ATOM     37  C   UNL     1       5.721   2.104  -3.362  1.00  0.00    -0.014 A 
BRANCH  37  38
ATOM     38  C   UNL     1       6.598   0.971  -2.971  1.00  0.00     0.031 A 
ATOM     39  C   UNL     1       6.653  -0.251  -3.849  1.00  0.00     0.074 A 
ATOM     40  C   UNL     1       7.368   1.050  -1.869  1.00  0.00     0.049 A 
ATOM     41  N   UNL     1       7.339  -1.353  -3.692  1.00  0.00    -0.248 NA
ATOM     42  C   UNL     1       5.823  -0.226  -5.064  1.00  0.00     0.031 C 
ATOM     43  C   UNL     1       7.430   2.200  -0.966  1.00  0.00     0.029 A 
ATOM     44  N   UNL     1       8.242   0.146  -1.320  1.00  0.00    -0.354 N 
ATOM     45  C   UNL     1       7.021  -2.157  -4.782  1.00  0.00     0.074 A 
ATOM     46  C   UNL     1       6.060  -1.424  -5.579  1.00  0.00     0.031 C 
ATOM     47  C   UNL     1       8.289   1.924   0.032  1.00  0.00     0.029 A 
ATOM     48  C   UNL     1       8.810   0.570  -0.140  1.00  0.00     0.049 A 
ATOM     49  H   UNL     1       8.444  -0.725  -1.732  1.00  0.00     0.167 HD
ATOM     50  C   UNL     1       7.491  -3.391  -5.090  1.00  0.00     0.034 A 
ATOM     51  C   UNL     1       9.633  -0.072   0.714  1.00  0.00     0.034 A 
ATOM     52  C   UNL     1       8.452  -4.110  -4.290  1.00  0.00     0.049 A 
ATOM     53  C   UNL     1      10.089  -1.474   0.378  1.00  0.00     0.074 A 
ATOM     54  C   UNL     1       9.021  -5.348  -4.537  1.00  0.00     0.029 A 
ATOM     55  N   UNL     1       8.976  -3.666  -3.084  1.00  0.00    -0.354 N 
ATOM     56  N   UNL     1       9.804  -2.206  -0.675  1.00  0.00    -0.248 NA
ATOM     57  C   UNL     1      10.984  -2.131   1.340  1.00  0.00     0.031 C 
ATOM     58  C   UNL     1       9.829  -5.684  -3.446  1.00  0.00     0.029 A 
ATOM     59  C   UNL     1       9.829  -4.623  -2.555  1.00  0.00     0.049 A 
ATOM     60  H   UNL     1       8.772  -2.798  -2.665  1.00  0.00     0.167 HD
ATOM     61  C   UNL     1      10.514  -3.394  -0.514  1.00  0.00     0.074 A 
ATOM     62  C   UNL     1      11.254  -3.272   0.725  1.00  0.00     0.031 C 
ATOM     63  C   UNL     1      10.555  -4.489  -1.316  1.00  0.00     0.034 A 
BRANCH  50  64
ATOM     64  C   UNL     1       6.935  -4.068  -6.317  1.00  0.00     0.023 A 
ATOM     65  C   UNL     1       7.204  -3.600  -7.614  1.00  0.00     0.031 A 
ATOM     66  C   UNL     1       6.137  -5.219  -6.181  1.00  0.00     0.131 A 
ATOM     67  C   UNL     1       6.647  -4.256  -8.723  1.00  0.00     0.055 A 
ATOM     68  C   UNL     1       5.639  -5.904  -7.290  1.00  0.00     0.041 A 
ATOM     69  F   UNL     1       5.831  -5.697  -4.965  1.00  0.00    -0.206 F 
ATOM     70  C   UNL     1       5.886  -5.419  -8.570  1.00  0.00     0.022 A 
BRANCH  67  71
ATOM     71  S   UNL     1       6.853  -3.520 -10.367  1.00  0.00     0.124 S 
ATOM     72  O   UNL     1       6.186  -2.231 -10.199  1.00  0.00    -0.237 OA
ATOM     73  O   UNL     1       8.303  -3.474 -10.514  1.00  0.00    -0.237 OA
ATOM     74  O   UNL     1       6.166  -4.459 -11.252  1.00  0.00    -0.744 OA
ENDBRANCH  67  71
ENDBRANCH  50  64
BRANCH  51  75
ATOM     75  C   UNL     1      10.047   0.564   2.000  1.00  0.00     0.023 A 
ATOM     76  C   UNL     1      11.399   0.804   2.293  1.00  0.00     0.031 A 
ATOM     77  C   UNL     1       9.098   0.853   2.997  1.00  0.00     0.131 A 
ATOM     78  C   UNL     1      11.770   1.251   3.572  1.00  0.00     0.055 A 
ATOM     79  C   UNL     1       9.466   1.357   4.246  1.00  0.00     0.041 A 
ATOM     80  F   UNL     1       7.790   0.643   2.773  1.00  0.00    -0.206 F 
ATOM     81  C   UNL     1      10.812   1.541   4.545  1.00  0.00     0.022 A 
BRANCH  78  82
ATOM     82  S   UNL     1      13.535   1.327   3.986  1.00  0.00     0.124 S 
ATOM     83  O   UNL     1      13.970  -0.032   3.682  1.00  0.00    -0.237 OA
ATOM     84  O   UNL     1      14.009   2.370   3.082  1.00  0.00    -0.237 OA
ATOM     85  O   UNL     1      13.536   1.683   5.403  1.00  0.00    -0.744 OA
ENDBRANCH  78  82
ENDBRANCH  51  75
BRANCH  63  86
ATOM     86  C   UNL     1      11.467  -5.617  -0.895  1.00  0.00     0.023 A 
ATOM     87  C   UNL     1      11.223  -6.372   0.266  1.00  0.00     0.031 A 
ATOM     88  C   UNL     1      12.606  -5.929  -1.658  1.00  0.00     0.131 A 
ATOM     89  C   UNL     1      12.137  -7.359   0.663  1.00  0.00     0.055 A 
ATOM     90  C   UNL     1      13.479  -6.954  -1.292  1.00  0.00     0.041 A 
ATOM     91  F   UNL     1      12.889  -5.240  -2.776  1.00  0.00    -0.206 F 
ATOM     92  C   UNL     1      13.255  -7.666  -0.118  1.00  0.00     0.022 A 
BRANCH  89  93
ATOM     93  S   UNL     1      11.899  -8.172   2.267  1.00  0.00     0.124 S 
ATOM     94  O   UNL     1      11.912  -7.038   3.186  1.00  0.00    -0.237 OA
ATOM     95  O   UNL     1      10.611  -8.835   2.092  1.00  0.00    -0.237 OA
ATOM     96  O   UNL     1      13.048  -9.069   2.372  1.00  0.00    -0.744 OA
ENDBRANCH  89  93
ENDBRANCH  63  86
ENDBRANCH  37  38
ENDBRANCH  30  32
ENDBRANCH  29  30
ENDBRANCH  28  29
ENDBRANCH  27  28
ENDBRANCH   1  27
TORSDOF 20
