REMARK SMILES O=C(COc1cccc(NC(=O)c2ccc3c(c2)C(=O)N(c2ccccc2-c2ccccc2)C3=O)c1)OCCOCCOC(=O)c1ccc(-c2c3nc(c(-c4cc(S(=O)(=O)[O-])ccc4F)c4ccc([nH]4)c(-c4cc(S(=O)(=O)[O-])ccc4F)c4nc(c(-c5cc(S(=O)(=O)[O-])ccc5F)c5ccc2[nH]5)C=C4)C=C3)cc1
REMARK SMILES IDX 38 1 37 2 2 3 1 4 3 5 4 6 5 7 6 8 36 9 7 10 9 11 8 12 10 13
REMARK SMILES IDX 11 14 12 16 13 17 14 18 18 19 15 20 17 21 16 22 19 23 34 24
REMARK SMILES IDX 20 25 21 26 35 27 22 28 23 29 27 30 24 31 26 32 25 33 28 34
REMARK SMILES IDX 29 35 33 36 30 37 32 38 31 39 39 40 40 41 41 42 42 43 43 44
REMARK SMILES IDX 44 45 45 46 46 47 47 48 108 49 48 50 107 51 49 52 50 53
REMARK SMILES IDX 51 54 101 55 52 56 106 57 100 58 102 59 53 60 105 61 99 62
REMARK SMILES IDX 98 63 54 65 86 66 66 67 85 68 67 69 70 70 84 71 103 72 68 73
REMARK SMILES IDX 69 74 83 76 104 77 71 78 55 79 56 80 64 81 57 82 63 83 65 84
REMARK SMILES IDX 62 85 58 86 59 87 60 88 61 89 87 90 88 91 96 92 89 93 95 94
REMARK SMILES IDX 97 95 94 96 90 97 91 98 92 99 93 100 72 101 73 102 81 103
REMARK SMILES IDX 74 104 80 105 82 106 79 107 75 108 76 109 77 110 78 111
REMARK H PARENT 10 15 102 64 70 75
REMARK Flexibility Score: inf
ROOT
ATOM      1  C   UNL     1       4.140   0.195  -0.438  1.00  0.00     0.261 C 
ENDROOT
BRANCH   1   2
ATOM      2  O   UNL     1       2.710   0.321  -0.449  1.00  0.00    -0.461 OA
BRANCH   2   3
ATOM      3  C   UNL     1       1.861  -0.551   0.145  1.00  0.00     0.344 C 
ATOM      4  O   UNL     1       0.652  -0.316   0.155  1.00  0.00    -0.248 OA
BRANCH   3   5
ATOM      5  C   UNL     1       2.407  -1.810   0.810  1.00  0.00     0.351 C 
BRANCH   5   6
ATOM      6  O   UNL     1       3.404  -2.594   0.188  1.00  0.00    -0.482 OA
BRANCH   6   7
ATOM      7  C   UNL     1       3.018  -3.295  -0.918  1.00  0.00     0.122 A 
ATOM      8  C   UNL     1       3.584  -4.562  -1.020  1.00  0.00     0.046 A 
ATOM      9  C   UNL     1       2.197  -2.805  -1.942  1.00  0.00     0.072 A 
ATOM     10  C   UNL     1       3.327  -5.339  -2.139  1.00  0.00     0.006 A 
ATOM     11  C   UNL     1       1.879  -3.601  -3.043  1.00  0.00     0.045 A 
ATOM     12  C   UNL     1       2.494  -4.849  -3.147  1.00  0.00     0.026 A 
BRANCH  11  13
ATOM     13  N   UNL     1       0.992  -3.071  -4.013  1.00  0.00    -0.322 N 
ATOM     14  C   UNL     1       0.099  -3.711  -4.859  1.00  0.00     0.255 C 
ATOM     15  H   UNL     1       1.013  -2.090  -4.099  1.00  0.00     0.170 HD
ATOM     16  O   UNL     1      -0.509  -3.123  -5.745  1.00  0.00    -0.269 OA
BRANCH  14  17
ATOM     17  C   UNL     1      -0.269  -5.104  -4.544  1.00  0.00     0.041 A 
ATOM     18  C   UNL     1       0.368  -6.171  -5.212  1.00  0.00     0.015 A 
ATOM     19  C   UNL     1      -0.992  -5.294  -3.366  1.00  0.00     0.028 A 
ATOM     20  C   UNL     1       0.485  -7.414  -4.570  1.00  0.00     0.015 A 
ATOM     21  C   UNL     1      -0.846  -6.524  -2.771  1.00  0.00     0.054 A 
ATOM     22  C   UNL     1      -0.072  -7.526  -3.304  1.00  0.00     0.053 A 
ATOM     23  C   UNL     1      -1.164  -6.880  -1.407  1.00  0.00     0.266 C 
ATOM     24  C   UNL     1       0.170  -8.484  -2.220  1.00  0.00     0.266 C 
ATOM     25  O   UNL     1      -2.038  -6.271  -0.819  1.00  0.00    -0.268 OA
ATOM     26  N   UNL     1      -0.328  -7.922  -1.060  1.00  0.00    -0.242 N 
ATOM     27  O   UNL     1       0.657  -9.571  -2.472  1.00  0.00    -0.268 OA
BRANCH  26  28
ATOM     28  C   UNL     1      -0.052  -8.284   0.310  1.00  0.00     0.060 A 
ATOM     29  C   UNL     1      -0.880  -7.740   1.325  1.00  0.00     0.027 A 
ATOM     30  C   UNL     1       1.064  -9.044   0.755  1.00  0.00     0.006 A 
ATOM     31  C   UNL     1      -0.650  -7.918   2.692  1.00  0.00     0.002 A 
ATOM     32  C   UNL     1       1.257  -9.239   2.152  1.00  0.00     0.011 A 
ATOM     33  C   UNL     1       0.419  -8.680   3.110  1.00  0.00     0.001 A 
BRANCH  30  34
ATOM     34  C   UNL     1       2.160  -9.565  -0.075  1.00  0.00    -0.016 A 
ATOM     35  C   UNL     1       2.209 -10.922  -0.434  1.00  0.00     0.009 A 
ATOM     36  C   UNL     1       3.248  -8.745  -0.416  1.00  0.00     0.009 A 
ATOM     37  C   UNL     1       3.286 -11.429  -1.166  1.00  0.00     0.001 A 
ATOM     38  C   UNL     1       4.330  -9.254  -1.139  1.00  0.00     0.001 A 
ATOM     39  C   UNL     1       4.342 -10.594  -1.523  1.00  0.00     0.000 A 
ENDBRANCH  30  34
ENDBRANCH  26  28
ENDBRANCH  14  17
ENDBRANCH  11  13
ENDBRANCH   6   7
ENDBRANCH   5   6
ENDBRANCH   3   5
ENDBRANCH   2   3
ENDBRANCH   1   2
BRANCH   1  40
ATOM     40  C   UNL     1       4.817   0.805   0.789  1.00  0.00     0.202 C 
BRANCH  40  41
ATOM     41  O   UNL     1       4.201   0.574   2.050  1.00  0.00    -0.374 OA
BRANCH  41  42
ATOM     42  C   UNL     1       3.087   1.400   2.412  1.00  0.00     0.202 C 
BRANCH  42  43
ATOM     43  C   UNL     1       3.350   2.883   2.683  1.00  0.00     0.261 C 
BRANCH  43  44
ATOM     44  O   UNL     1       3.535   3.614   1.459  1.00  0.00    -0.460 OA
BRANCH  44  45
ATOM     45  C   UNL     1       4.780   4.116   1.272  1.00  0.00     0.338 C 
ATOM     46  O   UNL     1       5.723   4.037   2.041  1.00  0.00    -0.246 OA
BRANCH  45  47
ATOM     47  C   UNL     1       4.910   4.593  -0.118  1.00  0.00     0.060 A 
ATOM     48  C   UNL     1       6.055   4.217  -0.835  1.00  0.00     0.016 A 
ATOM     49  C   UNL     1       3.962   5.447  -0.683  1.00  0.00     0.016 A 
ATOM     50  C   UNL     1       6.292   4.751  -2.100  1.00  0.00     0.010 A 
ATOM     51  C   UNL     1       4.205   5.990  -1.944  1.00  0.00     0.010 A 
ATOM     52  C   UNL     1       5.392   5.679  -2.633  1.00  0.00    -0.014 A 
BRANCH  52  53
ATOM     53  C   UNL     1       5.775   6.506  -3.799  1.00  0.00     0.031 A 
ATOM     54  C   UNL     1       6.312   7.884  -3.535  1.00  0.00     0.074 A 
ATOM     55  C   UNL     1       5.593   6.062  -5.052  1.00  0.00     0.049 A 
ATOM     56  N   UNL     1       6.537   8.866  -4.367  1.00  0.00    -0.248 NA
ATOM     57  C   UNL     1       6.612   8.198  -2.130  1.00  0.00     0.031 C 
ATOM     58  C   UNL     1       5.115   4.729  -5.412  1.00  0.00     0.029 A 
ATOM     59  N   UNL     1       5.753   6.704  -6.253  1.00  0.00    -0.354 N 
ATOM     60  C   UNL     1       6.980   9.926  -3.583  1.00  0.00     0.074 A 
ATOM     61  C   UNL     1       6.964   9.471  -2.209  1.00  0.00     0.031 C 
ATOM     62  C   UNL     1       4.973   4.667  -6.747  1.00  0.00     0.029 A 
ATOM     63  C   UNL     1       5.307   5.968  -7.324  1.00  0.00     0.049 A 
ATOM     64  H   UNL     1       6.147   7.602  -6.339  1.00  0.00     0.167 HD
ATOM     65  C   UNL     1       7.361  11.166  -3.979  1.00  0.00     0.034 A 
ATOM     66  C   UNL     1       5.136   6.327  -8.612  1.00  0.00     0.034 A 
ATOM     67  C   UNL     1       7.344  11.594  -5.356  1.00  0.00     0.049 A 
ATOM     68  C   UNL     1       5.501   7.728  -9.032  1.00  0.00     0.074 A 
ATOM     69  C   UNL     1       7.728  12.811  -5.890  1.00  0.00     0.029 A 
ATOM     70  N   UNL     1       6.898  10.817  -6.420  1.00  0.00    -0.354 N 
ATOM     71  N   UNL     1       5.933   8.726  -8.292  1.00  0.00    -0.248 NA
ATOM     72  C   UNL     1       5.363   8.051 -10.457  1.00  0.00     0.031 C 
ATOM     73  C   UNL     1       7.448  12.794  -7.261  1.00  0.00     0.029 A 
ATOM     74  C   UNL     1       6.964  11.539  -7.600  1.00  0.00     0.049 A 
ATOM     75  H   UNL     1       6.580   9.888  -6.344  1.00  0.00     0.167 HD
ATOM     76  C   UNL     1       6.143   9.787  -9.168  1.00  0.00     0.074 A 
ATOM     77  C   UNL     1       5.792   9.306 -10.490  1.00  0.00     0.031 C 
ATOM     78  C   UNL     1       6.598  11.040  -8.907  1.00  0.00     0.034 A 
BRANCH  65  79
ATOM     79  C   UNL     1       7.746  12.146  -2.894  1.00  0.00     0.023 A 
ATOM     80  C   UNL     1       8.827  11.905  -2.026  1.00  0.00     0.031 A 
ATOM     81  C   UNL     1       6.969  13.296  -2.668  1.00  0.00     0.131 A 
ATOM     82  C   UNL     1       9.036  12.740  -0.917  1.00  0.00     0.055 A 
ATOM     83  C   UNL     1       7.240  14.174  -1.617  1.00  0.00     0.041 A 
ATOM     84  F   UNL     1       5.910  13.569  -3.446  1.00  0.00    -0.206 F 
ATOM     85  C   UNL     1       8.264  13.887  -0.720  1.00  0.00     0.022 A 
BRANCH  82  86
ATOM     86  S   UNL     1      10.202  12.200   0.364  1.00  0.00     0.124 S 
ATOM     87  O   UNL     1       9.672  10.883   0.710  1.00  0.00    -0.237 OA
ATOM     88  O   UNL     1      11.476  12.210  -0.345  1.00  0.00    -0.237 OA
ATOM     89  O   UNL     1      10.058  13.213   1.408  1.00  0.00    -0.744 OA
ENDBRANCH  82  86
ENDBRANCH  65  79
BRANCH  66  90
ATOM     90  C   UNL     1       4.537   5.360  -9.572  1.00  0.00     0.023 A 
ATOM     91  C   UNL     1       5.293   4.796 -10.610  1.00  0.00     0.031 A 
ATOM     92  C   UNL     1       3.188   4.976  -9.450  1.00  0.00     0.131 A 
ATOM     93  C   UNL     1       4.691   3.890 -11.497  1.00  0.00     0.055 A 
ATOM     94  C   UNL     1       2.605   4.046 -10.310  1.00  0.00     0.041 A 
ATOM     95  F   UNL     1       2.426   5.482  -8.467  1.00  0.00    -0.206 F 
ATOM     96  C   UNL     1       3.357   3.501 -11.346  1.00  0.00     0.022 A 
BRANCH  93  97
ATOM     97  S   UNL     1       5.673   3.241 -12.877  1.00  0.00     0.124 S 
ATOM     98  O   UNL     1       5.986   4.458 -13.618  1.00  0.00    -0.237 OA
ATOM     99  O   UNL     1       6.789   2.607 -12.184  1.00  0.00    -0.237 OA
ATOM    100  O   UNL     1       4.755   2.321 -13.546  1.00  0.00    -0.744 OA
ENDBRANCH  93  97
ENDBRANCH  66  90
BRANCH  78 101
ATOM    101  C   UNL     1       6.794  11.960 -10.086  1.00  0.00     0.023 A 
ATOM    102  C   UNL     1       5.711  12.493 -10.804  1.00  0.00     0.031 A 
ATOM    103  C   UNL     1       8.095  12.326 -10.477  1.00  0.00     0.131 A 
ATOM    104  C   UNL     1       5.950  13.335 -11.902  1.00  0.00     0.055 A 
ATOM    105  C   UNL     1       8.325  13.204 -11.535  1.00  0.00     0.041 A 
ATOM    106  F   UNL     1       9.165  11.844  -9.823  1.00  0.00    -0.206 F 
ATOM    107  C   UNL     1       7.249  13.707 -12.260  1.00  0.00     0.022 A 
BRANCH 104 108
ATOM    108  S   UNL     1       4.542  13.893 -12.899  1.00  0.00     0.124 S 
ATOM    109  O   UNL     1       3.993  12.629 -13.381  1.00  0.00    -0.237 OA
ATOM    110  O   UNL     1       3.730  14.611 -11.922  1.00  0.00    -0.237 OA
ATOM    111  O   UNL     1       5.159  14.731 -13.925  1.00  0.00    -0.744 OA
ENDBRANCH 104 108
ENDBRANCH  78 101
ENDBRANCH  52  53
ENDBRANCH  45  47
ENDBRANCH  44  45
ENDBRANCH  43  44
ENDBRANCH  42  43
ENDBRANCH  41  42
ENDBRANCH  40  41
ENDBRANCH   1  40
TORSDOF 23
