REMARK SMILES O=C(C[NH+]1CCN(C(=O)c2ccc(F)c(F)c2F)CC1)OCCOCCOC(=O)c1ccc(-c2c3nc(c(-c4cc(S(=O)(=O)[O-])ccc4F)c4ccc([nH]4)c(-c4cc(S(=O)(=O)[O-])ccc4F)c4nc(c(-c5cc(S(=O)(=O)[O-])ccc5F)c5ccc2[nH]5)C=C4)C=C3)cc1
REMARK SMILES IDX 25 1 24 2 23 3 22 4 21 5 2 6 1 7 3 8 4 9 5 10 20 11 6 13
REMARK SMILES IDX 19 14 7 15 8 16 9 17 10 18 11 19 17 20 12 21 15 22 18 23
REMARK SMILES IDX 13 24 16 25 14 26 26 27 27 28 28 29 29 30 30 31 31 32 92 33
REMARK SMILES IDX 32 34 91 35 33 36 34 37 35 38 85 39 36 40 90 41 84 42 86 43
REMARK SMILES IDX 37 44 89 45 83 46 82 47 38 49 70 50 50 51 69 52 51 53 54 54
REMARK SMILES IDX 68 55 87 56 52 57 53 58 67 60 88 61 55 62 39 63 40 64 48 65
REMARK SMILES IDX 41 66 47 67 49 68 46 69 42 70 43 71 44 72 45 73 71 74 72 75
REMARK SMILES IDX 80 76 73 77 79 78 81 79 78 80 74 81 75 82 76 83 77 84 56 85
REMARK SMILES IDX 57 86 65 87 58 88 64 89 66 90 63 91 59 92 60 93 61 94 62 95
REMARK H PARENT 4 12 86 48 54 59
REMARK Flexibility Score: inf
ROOT
ATOM      1  C   UNL     1       2.871  -1.864  -1.350  1.00  0.00     0.202 C 
ENDROOT
BRANCH   1   2
ATOM      2  O   UNL     1       4.128  -1.191  -1.202  1.00  0.00    -0.374 OA
BRANCH   2   3
ATOM      3  C   UNL     1       4.698  -1.193   0.106  1.00  0.00     0.202 C 
BRANCH   3   4
ATOM      4  C   UNL     1       4.268  -0.100   1.081  1.00  0.00     0.261 C 
BRANCH   4   5
ATOM      5  O   UNL     1       2.843   0.013   1.246  1.00  0.00    -0.459 OA
BRANCH   5   6
ATOM      6  C   UNL     1       2.031   0.773   0.476  1.00  0.00     0.361 C 
ATOM      7  O   UNL     1       0.835   0.871   0.759  1.00  0.00    -0.245 OA
BRANCH   6   8
ATOM      8  C   UNL     1       2.567   1.430  -0.788  1.00  0.00     0.386 C 
BRANCH   8   9
ATOM      9  N   UNL     1       3.763   2.252  -0.555  1.00  0.00    -0.323 N 
ATOM     10  C   UNL     1       4.470   2.547  -1.819  1.00  0.00     0.284 C 
ATOM     11  C   UNL     1       3.437   3.491   0.173  1.00  0.00     0.284 C 
ATOM     12  H   UNL     1       4.394   1.708   0.034  1.00  0.00     0.348 HD
ATOM     13  C   UNL     1       3.740   3.567  -2.709  1.00  0.00     0.181 C 
ATOM     14  C   UNL     1       2.663   4.500  -0.691  1.00  0.00     0.181 C 
ATOM     15  N   UNL     1       3.405   4.764  -1.932  1.00  0.00    -0.327 N 
ATOM     16  C   UNL     1       3.876   5.995  -2.357  1.00  0.00     0.257 C 
ATOM     17  O   UNL     1       4.485   6.181  -3.405  1.00  0.00    -0.269 OA
BRANCH  16  18
ATOM     18  C   UNL     1       3.659   7.152  -1.482  1.00  0.00     0.079 A 
ATOM     19  C   UNL     1       4.280   7.216  -0.224  1.00  0.00     0.020 A 
ATOM     20  C   UNL     1       2.823   8.174  -1.918  1.00  0.00     0.174 A 
ATOM     21  C   UNL     1       4.013   8.296   0.616  1.00  0.00     0.043 A 
ATOM     22  C   UNL     1       2.581   9.257  -1.087  1.00  0.00     0.195 A 
ATOM     23  F   UNL     1       2.218   8.107  -3.113  1.00  0.00    -0.203 F 
ATOM     24  C   UNL     1       3.166   9.311   0.175  1.00  0.00     0.161 A 
ATOM     25  F   UNL     1       1.768  10.243  -1.492  1.00  0.00    -0.200 F 
ATOM     26  F   UNL     1       2.912  10.346   0.987  1.00  0.00    -0.204 F 
ENDBRANCH  16  18
ENDBRANCH   8   9
ENDBRANCH   6   8
ENDBRANCH   5   6
ENDBRANCH   4   5
ENDBRANCH   3   4
ENDBRANCH   2   3
ENDBRANCH   1   2
BRANCH   1  27
ATOM     27  C   UNL     1       2.914  -3.382  -1.530  1.00  0.00     0.261 C 
BRANCH  27  28
ATOM     28  O   UNL     1       3.340  -4.038  -0.331  1.00  0.00    -0.460 OA
BRANCH  28  29
ATOM     29  C   UNL     1       4.652  -4.372  -0.320  1.00  0.00     0.338 C 
ATOM     30  O   UNL     1       5.440  -4.276  -1.250  1.00  0.00    -0.246 OA
BRANCH  29  31
ATOM     31  C   UNL     1       5.069  -4.645   1.069  1.00  0.00     0.060 A 
ATOM     32  C   UNL     1       6.310  -4.136   1.473  1.00  0.00     0.016 A 
ATOM     33  C   UNL     1       4.274  -5.375   1.956  1.00  0.00     0.016 A 
ATOM     34  C   UNL     1       6.802  -4.435   2.735  1.00  0.00     0.010 A 
ATOM     35  C   UNL     1       4.770  -5.676   3.225  1.00  0.00     0.010 A 
ATOM     36  C   UNL     1       6.059  -5.254   3.593  1.00  0.00    -0.014 A 
BRANCH  36  37
ATOM     37  C   UNL     1       6.732  -5.824   4.781  1.00  0.00     0.031 A 
ATOM     38  C   UNL     1       7.229  -7.242   4.709  1.00  0.00     0.074 A 
ATOM     39  C   UNL     1       6.974  -5.057   5.858  1.00  0.00     0.049 A 
ATOM     40  N   UNL     1       7.873  -7.943   5.604  1.00  0.00    -0.248 NA
ATOM     41  C   UNL     1       6.958  -7.968   3.457  1.00  0.00     0.031 C 
ATOM     42  C   UNL     1       6.567  -3.659   6.004  1.00  0.00     0.029 A 
ATOM     43  N   UNL     1       7.627  -5.343   7.027  1.00  0.00    -0.354 N 
ATOM     44  C   UNL     1       8.095  -9.186   5.021  1.00  0.00     0.074 A 
ATOM     45  C   UNL     1       7.461  -9.163   3.721  1.00  0.00     0.031 C 
ATOM     46  C   UNL     1       6.982  -3.209   7.200  1.00  0.00     0.029 A 
ATOM     47  C   UNL     1       7.649  -4.294   7.915  1.00  0.00     0.049 A 
ATOM     48  H   UNL     1       8.042  -6.216   7.214  1.00  0.00     0.167 HD
ATOM     49  C   UNL     1       8.784 -10.242   5.518  1.00  0.00     0.034 A 
ATOM     50  C   UNL     1       8.136  -4.230   9.170  1.00  0.00     0.034 A 
ATOM     51  C   UNL     1       9.392 -10.246   6.825  1.00  0.00     0.049 A 
ATOM     52  C   UNL     1       8.828  -5.448   9.734  1.00  0.00     0.074 A 
ATOM     53  C   UNL     1      10.099 -11.259   7.446  1.00  0.00     0.029 A 
ATOM     54  N   UNL     1       9.357  -9.181   7.720  1.00  0.00    -0.354 N 
ATOM     55  N   UNL     1       9.034  -6.619   9.172  1.00  0.00    -0.248 NA
ATOM     56  C   UNL     1       9.371  -5.327  11.091  1.00  0.00     0.031 C 
ATOM     57  C   UNL     1      10.428 -10.835   8.739  1.00  0.00     0.029 A 
ATOM     58  C   UNL     1      10.006  -9.524   8.895  1.00  0.00     0.049 A 
ATOM     59  H   UNL     1       8.932  -8.311   7.543  1.00  0.00     0.167 HD
ATOM     60  C   UNL     1       9.756  -7.364  10.102  1.00  0.00     0.074 A 
ATOM     61  C   UNL     1       9.975  -6.496  11.242  1.00  0.00     0.031 C 
ATOM     62  C   UNL     1      10.198  -8.647  10.027  1.00  0.00     0.034 A 
BRANCH  49  63
ATOM     63  C   UNL     1       8.875 -11.480   4.657  1.00  0.00     0.023 A 
ATOM     64  C   UNL     1       9.526 -11.467   3.410  1.00  0.00     0.031 A 
ATOM     65  C   UNL     1       8.280 -12.684   5.075  1.00  0.00     0.131 A 
ATOM     66  C   UNL     1       9.510 -12.612   2.599  1.00  0.00     0.055 A 
ATOM     67  C   UNL     1       8.339 -13.843   4.299  1.00  0.00     0.041 A 
ATOM     68  F   UNL     1       7.619 -12.751   6.241  1.00  0.00    -0.206 F 
ATOM     69  C   UNL     1       8.946 -13.809   3.046  1.00  0.00     0.022 A 
BRANCH  66  70
ATOM     70  S   UNL     1      10.112 -12.476   0.893  1.00  0.00     0.124 S 
ATOM     71  O   UNL     1       9.229 -11.446   0.350  1.00  0.00    -0.237 OA
ATOM     72  O   UNL     1      11.506 -12.089   1.080  1.00  0.00    -0.237 OA
ATOM     73  O   UNL     1       9.904 -13.816   0.348  1.00  0.00    -0.744 OA
ENDBRANCH  66  70
ENDBRANCH  49  63
BRANCH  50  74
ATOM     74  C   UNL     1       7.953  -2.999   9.991  1.00  0.00     0.023 A 
ATOM     75  C   UNL     1       9.050  -2.275  10.484  1.00  0.00     0.031 A 
ATOM     76  C   UNL     1       6.664  -2.562  10.349  1.00  0.00     0.131 A 
ATOM     77  C   UNL     1       8.840  -1.191  11.351  1.00  0.00     0.055 A 
ATOM     78  C   UNL     1       6.459  -1.444  11.158  1.00  0.00     0.041 A 
ATOM     79  F   UNL     1       5.577  -3.216   9.908  1.00  0.00    -0.206 F 
ATOM     80  C   UNL     1       7.552  -0.761  11.679  1.00  0.00     0.022 A 
BRANCH  77  81
ATOM     81  S   UNL     1      10.280  -0.416  12.137  1.00  0.00     0.124 S 
ATOM     82  O   UNL     1      10.910  -1.557  12.792  1.00  0.00    -0.237 OA
ATOM     83  O   UNL     1      10.989   0.136  10.987  1.00  0.00    -0.237 OA
ATOM     84  O   UNL     1       9.687   0.572  13.035  1.00  0.00    -0.744 OA
ENDBRANCH  77  81
ENDBRANCH  50  74
BRANCH  62  85
ATOM     85  C   UNL     1      10.994  -9.162  11.204  1.00  0.00     0.023 A 
ATOM     86  C   UNL     1      10.427  -9.276  12.485  1.00  0.00     0.031 A 
ATOM     87  C   UNL     1      12.350  -9.501  11.051  1.00  0.00     0.131 A 
ATOM     88  C   UNL     1      11.232  -9.630  13.577  1.00  0.00     0.055 A 
ATOM     89  C   UNL     1      13.126  -9.934  12.127  1.00  0.00     0.041 A 
ATOM     90  F   UNL     1      12.947  -9.411   9.852  1.00  0.00    -0.206 F 
ATOM     91  C   UNL     1      12.573  -9.979  13.404  1.00  0.00     0.022 A 
BRANCH  88  92
ATOM     92  S   UNL     1      10.539  -9.483  15.247  1.00  0.00     0.124 S 
ATOM     93  O   UNL     1      10.114  -8.087  15.275  1.00  0.00    -0.237 OA
ATOM     94  O   UNL     1       9.469 -10.475  15.228  1.00  0.00    -0.237 OA
ATOM     95  O   UNL     1      11.669  -9.806  16.116  1.00  0.00    -0.744 OA
ENDBRANCH  88  92
ENDBRANCH  62  85
ENDBRANCH  36  37
ENDBRANCH  29  31
ENDBRANCH  28  29
ENDBRANCH  27  28
ENDBRANCH   1  27
TORSDOF 19
