REMARK SMILES CS(=O)(=O)Nc1ccc(-c2cc(Cl)cc3c2O[C@@H](C(F)(F)F)C(C(=O)OCCOCCOC(=O)c2ccc(-c4c5nc(c(-c6cc(S(=O)(=O)[O-])ccc6F)c6ccc([nH]6)c(-c6cc(S(=O)(=O)[O-])ccc6F)c6nc(c(-c7cc(S(=O)(=O)[O-])ccc7F)c7ccc4[nH]7)C=C6)C=C5)cc2)=C3)cc1
REMARK SMILES IDX 29 1 28 2 27 3 26 4 24 5 25 6 23 7 10 8 11 9 16 10 12 11
REMARK SMILES IDX 15 12 17 13 13 14 14 15 98 16 18 17 9 18 6 19 7 20 100 21
REMARK SMILES IDX 8 22 99 23 5 24 2 26 1 27 3 28 4 29 19 30 20 31 21 32 22 33
REMARK SMILES IDX 30 34 31 35 32 36 33 37 34 38 35 39 36 40 97 41 37 42 96 43
REMARK SMILES IDX 38 44 39 45 40 46 90 47 41 48 95 49 89 50 91 51 42 52 94 53
REMARK SMILES IDX 88 54 87 55 43 57 75 58 55 59 74 60 56 61 59 62 73 63 92 64
REMARK SMILES IDX 57 65 58 66 72 68 93 69 60 70 44 71 45 72 53 73 46 74 52 75
REMARK SMILES IDX 54 76 51 77 47 78 48 79 49 80 50 81 76 82 77 83 85 84 78 85
REMARK SMILES IDX 84 86 86 87 83 88 79 89 80 90 81 91 82 92 61 93 62 94 70 95
REMARK SMILES IDX 63 96 69 97 71 98 68 99 64 100 65 101 66 102 67 103
REMARK H PARENT 5 25 91 56 59 67
REMARK Flexibility Score: inf
ROOT
ATOM      1  O   UNL     1       7.022   9.658   0.215  1.00  0.00    -0.374 OA
ENDROOT
BRANCH   1   2
ATOM      2  C   UNL     1       8.053  10.246   0.998  1.00  0.00     0.202 C 
BRANCH   2   3
ATOM      3  C   UNL     1       9.110   9.326   1.629  1.00  0.00     0.261 C 
BRANCH   3   4
ATOM      4  O   UNL     1       9.200   8.040   0.992  1.00  0.00    -0.460 OA
BRANCH   4   5
ATOM      5  C   UNL     1       9.345   6.984   1.813  1.00  0.00     0.338 C 
ATOM      6  O   UNL     1       9.529   7.048   3.022  1.00  0.00    -0.246 OA
BRANCH   5   7
ATOM      7  C   UNL     1       9.088   5.688   1.139  1.00  0.00     0.087 C 
ATOM      8  C   UNL     1       5.522   5.365  -0.975  1.00  0.00     0.026 A 
ATOM      9  C   UNL     1       4.692   6.357  -0.398  1.00  0.00     0.033 A 
ATOM     10  C   UNL     1       6.771   5.197  -0.337  1.00  0.00     0.135 A 
ATOM     11  C   UNL     1       4.929   6.844   0.887  1.00  0.00     0.042 A 
ATOM     12  C   UNL     1       6.871   5.467   1.040  1.00  0.00     0.019 A 
ATOM     13  O   UNL     1       7.961   5.324  -1.091  1.00  0.00    -0.475 OA
ATOM     14  Cl  UNL     1       3.858   8.001   1.569  1.00  0.00    -0.084 Cl
ATOM     15  C   UNL     1       5.961   6.322   1.649  1.00  0.00     0.032 A 
ATOM     16  C   UNL     1       8.089   5.040   1.760  1.00  0.00     0.027 C 
ATOM     17  C   UNL     1       9.243   5.333  -0.324  1.00  0.00     0.316 C 
BRANCH   8  18
ATOM     18  C   UNL     1       4.734   4.249  -1.639  1.00  0.00    -0.014 A 
ATOM     19  C   UNL     1       2.620   2.347  -2.123  1.00  0.00     0.048 A 
ATOM     20  C   UNL     1       2.595   3.623  -2.690  1.00  0.00     0.027 A 
ATOM     21  C   UNL     1       3.753   1.984  -1.400  1.00  0.00     0.027 A 
ATOM     22  C   UNL     1       3.641   4.542  -2.479  1.00  0.00     0.011 A 
ATOM     23  C   UNL     1       4.796   2.919  -1.167  1.00  0.00     0.011 A 
BRANCH  19  24
ATOM     24  N   UNL     1       1.397   1.609  -2.176  1.00  0.00    -0.284 N 
ATOM     25  H   UNL     1       0.625   2.080  -2.565  1.00  0.00     0.180 HD
BRANCH  24  26
ATOM     26  S   UNL     1       1.119   0.052  -1.662  1.00  0.00     0.229 S 
ATOM     27  C   UNL     1       1.078   0.194   0.116  1.00  0.00     0.183 C 
ATOM     28  O   UNL     1       2.218  -0.803  -2.047  1.00  0.00    -0.207 OA
ATOM     29  O   UNL     1      -0.236  -0.242  -2.087  1.00  0.00    -0.207 OA
ENDBRANCH  24  26
ENDBRANCH  19  24
ENDBRANCH   8  18
BRANCH  17  30
ATOM     30  C   UNL     1      10.481   5.946  -1.019  1.00  0.00     0.430 C 
ATOM     31  F   UNL     1      11.602   5.347  -0.527  1.00  0.00    -0.167 F 
ATOM     32  F   UNL     1      10.478   5.708  -2.351  1.00  0.00    -0.167 F 
ATOM     33  F   UNL     1      10.641   7.269  -0.849  1.00  0.00    -0.167 F 
ENDBRANCH  17  30
ENDBRANCH   5   7
ENDBRANCH   4   5
ENDBRANCH   3   4
ENDBRANCH   2   3
ENDBRANCH   1   2
BRANCH   1  34
ATOM     34  C   UNL     1       7.387   9.021  -1.007  1.00  0.00     0.202 C 
BRANCH  34  35
ATOM     35  C   UNL     1       7.976   9.864  -2.143  1.00  0.00     0.261 C 
BRANCH  35  36
ATOM     36  O   UNL     1       9.199  10.532  -1.799  1.00  0.00    -0.460 OA
BRANCH  36  37
ATOM     37  C   UNL     1       9.111  11.883  -1.768  1.00  0.00     0.338 C 
ATOM     38  O   UNL     1       8.111  12.562  -1.980  1.00  0.00    -0.246 OA
BRANCH  37  39
ATOM     39  C   UNL     1      10.368  12.460  -1.272  1.00  0.00     0.060 A 
ATOM     40  C   UNL     1      10.328  13.220  -0.096  1.00  0.00     0.016 A 
ATOM     41  C   UNL     1      11.548  12.345  -2.008  1.00  0.00     0.016 A 
ATOM     42  C   UNL     1      11.467  13.899   0.331  1.00  0.00     0.010 A 
ATOM     43  C   UNL     1      12.687  13.034  -1.582  1.00  0.00     0.010 A 
ATOM     44  C   UNL     1      12.644  13.838  -0.428  1.00  0.00    -0.014 A 
BRANCH  44  45
ATOM     45  C   UNL     1      13.783  14.729  -0.095  1.00  0.00     0.031 A 
ATOM     46  C   UNL     1      14.004  15.965  -0.924  1.00  0.00     0.074 A 
ATOM     47  C   UNL     1      14.588  14.453   0.948  1.00  0.00     0.049 A 
ATOM     48  N   UNL     1      14.978  16.835  -0.873  1.00  0.00    -0.248 NA
ATOM     49  C   UNL     1      12.990  16.255  -1.951  1.00  0.00     0.031 C 
ATOM     50  C   UNL     1      14.431  13.316   1.855  1.00  0.00     0.029 A 
ATOM     51  N   UNL     1      15.702  15.103   1.415  1.00  0.00    -0.354 N 
ATOM     52  C   UNL     1      14.694  17.780  -1.854  1.00  0.00     0.074 A 
ATOM     53  C   UNL     1      13.481  17.349  -2.515  1.00  0.00     0.031 C 
ATOM     54  C   UNL     1      15.422  13.343   2.763  1.00  0.00     0.029 A 
ATOM     55  C   UNL     1      16.310  14.467   2.473  1.00  0.00     0.049 A 
ATOM     56  H   UNL     1      16.035  15.946   1.030  1.00  0.00     0.167 HD
ATOM     57  C   UNL     1      15.375  18.910  -2.162  1.00  0.00     0.034 A 
ATOM     58  C   UNL     1      17.468  14.743   3.107  1.00  0.00     0.034 A 
ATOM     59  C   UNL     1      16.590  19.319  -1.501  1.00  0.00     0.049 A 
ATOM     60  C   UNL     1      18.270  15.948   2.665  1.00  0.00     0.074 A 
ATOM     61  C   UNL     1      17.373  20.433  -1.747  1.00  0.00     0.029 A 
ATOM     62  N   UNL     1      17.199  18.628  -0.462  1.00  0.00    -0.354 N 
ATOM     63  N   UNL     1      17.996  16.826   1.726  1.00  0.00    -0.248 NA
ATOM     64  C   UNL     1      19.530  16.206   3.375  1.00  0.00     0.031 C 
ATOM     65  C   UNL     1      18.488  20.380  -0.906  1.00  0.00     0.029 A 
ATOM     66  C   UNL     1      18.359  19.281  -0.074  1.00  0.00     0.049 A 
ATOM     67  H   UNL     1      16.858  17.797  -0.060  1.00  0.00     0.167 HD
ATOM     68  C   UNL     1      19.028  17.762   1.770  1.00  0.00     0.074 A 
ATOM     69  C   UNL     1      19.916  17.351   2.836  1.00  0.00     0.031 C 
ATOM     70  C   UNL     1      19.226  18.863   1.001  1.00  0.00     0.034 A 
BRANCH  57  71
ATOM     71  C   UNL     1      14.840  19.767  -3.282  1.00  0.00     0.023 A 
ATOM     72  C   UNL     1      13.605  20.430  -3.176  1.00  0.00     0.031 A 
ATOM     73  C   UNL     1      15.577  19.933  -4.468  1.00  0.00     0.131 A 
ATOM     74  C   UNL     1      13.123  21.189  -4.253  1.00  0.00     0.055 A 
ATOM     75  C   UNL     1      15.126  20.749  -5.507  1.00  0.00     0.041 A 
ATOM     76  F   UNL     1      16.751  19.304  -4.636  1.00  0.00    -0.206 F 
ATOM     77  C   UNL     1      13.887  21.376  -5.407  1.00  0.00     0.022 A 
BRANCH  74  78
ATOM     78  S   UNL     1      11.432  21.838  -4.168  1.00  0.00     0.124 S 
ATOM     79  O   UNL     1      10.650  20.610  -4.050  1.00  0.00    -0.237 OA
ATOM     80  O   UNL     1      11.476  22.683  -2.981  1.00  0.00    -0.237 OA
ATOM     81  O   UNL     1      11.274  22.549  -5.436  1.00  0.00    -0.744 OA
ENDBRANCH  74  78
ENDBRANCH  57  71
BRANCH  58  82
ATOM     82  C   UNL     1      17.985  13.851   4.189  1.00  0.00     0.023 A 
ATOM     83  C   UNL     1      18.247  14.350   5.474  1.00  0.00     0.031 A 
ATOM     84  C   UNL     1      18.332  12.514   3.923  1.00  0.00     0.131 A 
ATOM     85  C   UNL     1      18.914  13.549   6.415  1.00  0.00     0.055 A 
ATOM     86  C   UNL     1      18.923  11.696   4.888  1.00  0.00     0.041 A 
ATOM     87  F   UNL     1      18.112  11.981   2.710  1.00  0.00    -0.206 F 
ATOM     88  C   UNL     1      19.240  12.221   6.136  1.00  0.00     0.022 A 
BRANCH  85  89
ATOM     89  S   UNL     1      19.492  14.322   7.952  1.00  0.00     0.124 S 
ATOM     90  O   UNL     1      20.283  15.436   7.441  1.00  0.00    -0.237 OA
ATOM     91  O   UNL     1      18.236  14.673   8.604  1.00  0.00    -0.237 OA
ATOM     92  O   UNL     1      20.256  13.258   8.600  1.00  0.00    -0.744 OA
ENDBRANCH  85  89
ENDBRANCH  58  82
BRANCH  70  93
ATOM     93  C   UNL     1      20.411  19.738   1.338  1.00  0.00     0.023 A 
ATOM     94  C   UNL     1      21.734  19.287   1.195  1.00  0.00     0.031 A 
ATOM     95  C   UNL     1      20.206  21.044   1.820  1.00  0.00     0.131 A 
ATOM     96  C   UNL     1      22.799  20.112   1.587  1.00  0.00     0.055 A 
ATOM     97  C   UNL     1      21.271  21.885   2.143  1.00  0.00     0.041 A 
ATOM     98  F   UNL     1      18.963  21.527   1.979  1.00  0.00    -0.206 F 
ATOM     99  C   UNL     1      22.577  21.415   2.042  1.00  0.00     0.022 A 
BRANCH  96 100
ATOM    100  S   UNL     1      24.477  19.424   1.592  1.00  0.00     0.124 S 
ATOM    101  O   UNL     1      24.335  18.282   2.489  1.00  0.00    -0.237 OA
ATOM    102  O   UNL     1      24.688  19.105   0.184  1.00  0.00    -0.237 OA
ATOM    103  O   UNL     1      25.297  20.519   2.107  1.00  0.00    -0.744 OA
ENDBRANCH  96 100
ENDBRANCH  70  93
ENDBRANCH  44  45
ENDBRANCH  37  39
ENDBRANCH  36  37
ENDBRANCH  35  36
ENDBRANCH  34  35
ENDBRANCH   1  34
TORSDOF 21
