REMARK SMILES Cc1ccc(-c2ccc(/C=C(\C#N)C3N=c4ccccc4=N3)o2)cc1C(=O)OCCOCCOC(=O)c1ccc(-c2c3nc(c(-c4cc(S(=O)(=O)[O-])ccc4F)c4ccc([nH]4)c(-c4cc(S(=O)(=O)[O-])ccc4F)c4nc(c(-c5cc(S(=O)(=O)[O-])ccc5F)c5ccc2[nH]5)C=C4)C=C3)cc1
REMARK SMILES IDX 31 1 30 2 29 3 28 4 26 5 27 6 25 7 1 8 2 9 3 10 4 11 24 12
REMARK SMILES IDX 5 13 6 14 7 15 23 16 8 17 9 18 10 19 11 20 12 21 13 22 14 23
REMARK SMILES IDX 15 24 22 25 16 26 21 27 17 28 20 29 18 30 19 31 32 32 33 33
REMARK SMILES IDX 34 34 35 35 36 36 37 37 38 38 99 39 39 40 98 41 40 42 41 43
REMARK SMILES IDX 42 44 92 45 43 46 97 47 91 48 93 49 44 50 96 51 90 52 89 53
REMARK SMILES IDX 45 55 77 56 57 57 76 58 58 59 61 60 75 61 94 62 59 63 60 64
REMARK SMILES IDX 74 66 95 67 62 68 46 69 47 70 55 71 48 72 54 73 56 74 53 75
REMARK SMILES IDX 49 76 50 77 51 78 52 79 78 80 79 81 87 82 80 83 86 84 88 85
REMARK SMILES IDX 85 86 81 87 82 88 83 89 84 90 63 91 64 92 72 93 65 94 71 95
REMARK SMILES IDX 73 96 70 97 66 98 67 99 68 100 69 101
REMARK H PARENT 93 54 61 65
REMARK Flexibility Score: inf
ROOT
ATOM      1  O   UNL     1       1.041   3.150  -2.161  1.00  0.00    -0.374 OA
ENDROOT
BRANCH   1   2
ATOM      2  C   UNL     1       2.237   2.387  -2.256  1.00  0.00     0.202 C 
BRANCH   2   3
ATOM      3  C   UNL     1       2.688   2.316  -0.857  1.00  0.00     0.261 C 
BRANCH   3   4
ATOM      4  O   UNL     1       1.883   1.387  -0.134  1.00  0.00    -0.460 OA
BRANCH   4   5
ATOM      5  C   UNL     1       0.661   1.685   0.324  1.00  0.00     0.338 C 
ATOM      6  O   UNL     1       0.179   2.782   0.542  1.00  0.00    -0.246 OA
BRANCH   5   7
ATOM      7  C   UNL     1      -0.086   0.408   0.300  1.00  0.00     0.063 A 
ATOM      8  C   UNL     1       1.929  -1.268   0.282  1.00  0.00     0.045 C 
ATOM      9  C   UNL     1       0.471  -0.889   0.192  1.00  0.00    -0.037 A 
ATOM     10  C   UNL     1      -0.405  -1.969  -0.004  1.00  0.00     0.005 A 
ATOM     11  C   UNL     1      -1.775  -1.770  -0.139  1.00  0.00     0.012 A 
ATOM     12  C   UNL     1      -1.470   0.593   0.204  1.00  0.00     0.028 A 
ATOM     13  C   UNL     1      -2.305  -0.485  -0.058  1.00  0.00     0.018 A 
BRANCH  13  14
ATOM     14  C   UNL     1      -3.711  -0.247  -0.240  1.00  0.00     0.134 A 
ATOM     15  C   UNL     1      -4.468   0.502  -1.106  1.00  0.00     0.051 A 
ATOM     16  O   UNL     1      -4.494  -0.825   0.689  1.00  0.00    -0.457 OA
ATOM     17  C   UNL     1      -5.801   0.380  -0.643  1.00  0.00     0.051 A 
ATOM     18  C   UNL     1      -5.782  -0.411   0.501  1.00  0.00     0.128 A 
BRANCH  18  19
ATOM     19  C   UNL     1      -6.843  -0.782   1.364  1.00  0.00     0.066 C 
ATOM     20  C   UNL     1      -6.674  -1.454   2.523  1.00  0.00     0.080 C 
BRANCH  20  21
ATOM     21  C   UNL     1      -5.403  -1.854   3.038  1.00  0.00     0.099 C 
ATOM     22  N   UNL     1      -4.406  -2.249   3.504  1.00  0.00    -0.193 NA
ENDBRANCH  20  21
BRANCH  20  23
ATOM     23  C   UNL     1      -7.881  -1.872   3.321  1.00  0.00     0.263 C 
ATOM     24  N   UNL     1      -8.038  -3.351   3.236  1.00  0.00    -0.251 NA
ATOM     25  N   UNL     1      -7.779  -1.434   4.735  1.00  0.00    -0.251 NA
ATOM     26  C   UNL     1      -7.955  -3.706   4.472  1.00  0.00     0.086 A 
ATOM     27  C   UNL     1      -7.810  -2.547   5.380  1.00  0.00     0.086 A 
ATOM     28  C   UNL     1      -8.011  -5.059   5.027  1.00  0.00     0.030 A 
ATOM     29  C   UNL     1      -7.754  -2.773   6.826  1.00  0.00     0.030 A 
ATOM     30  C   UNL     1      -7.963  -5.178   6.361  1.00  0.00     0.002 A 
ATOM     31  C   UNL     1      -7.843  -4.041   7.255  1.00  0.00     0.002 A 
ENDBRANCH  20  23
ENDBRANCH  18  19
ENDBRANCH  13  14
ENDBRANCH   5   7
ENDBRANCH   4   5
ENDBRANCH   3   4
ENDBRANCH   2   3
ENDBRANCH   1   2
BRANCH   1  32
ATOM     32  C   UNL     1       0.334   3.276  -3.362  1.00  0.00     0.202 C 
BRANCH  32  33
ATOM     33  C   UNL     1       1.217   3.889  -4.453  1.00  0.00     0.261 C 
BRANCH  33  34
ATOM     34  O   UNL     1       1.623   5.229  -4.063  1.00  0.00    -0.460 OA
BRANCH  34  35
ATOM     35  C   UNL     1       2.908   5.394  -3.620  1.00  0.00     0.338 C 
ATOM     36  O   UNL     1       3.906   5.137  -4.271  1.00  0.00    -0.246 OA
BRANCH  35  37
ATOM     37  C   UNL     1       2.922   5.789  -2.174  1.00  0.00     0.060 A 
ATOM     38  C   UNL     1       4.101   5.701  -1.399  1.00  0.00     0.016 A 
ATOM     39  C   UNL     1       1.695   5.929  -1.539  1.00  0.00     0.016 A 
ATOM     40  C   UNL     1       4.025   5.563   0.001  1.00  0.00     0.010 A 
ATOM     41  C   UNL     1       1.621   5.646  -0.195  1.00  0.00     0.010 A 
ATOM     42  C   UNL     1       2.772   5.425   0.586  1.00  0.00    -0.014 A 
BRANCH  42  43
ATOM     43  C   UNL     1       2.464   4.968   1.950  1.00  0.00     0.031 A 
ATOM     44  C   UNL     1       1.678   5.923   2.761  1.00  0.00     0.074 A 
ATOM     45  C   UNL     1       2.577   3.658   2.312  1.00  0.00     0.049 A 
ATOM     46  N   UNL     1       1.387   5.736   3.990  1.00  0.00    -0.248 NA
ATOM     47  C   UNL     1       1.169   7.210   2.271  1.00  0.00     0.031 C 
ATOM     48  C   UNL     1       1.852   2.881   3.325  1.00  0.00     0.029 A 
ATOM     49  N   UNL     1       3.397   2.672   1.760  1.00  0.00    -0.354 N 
ATOM     50  C   UNL     1       0.394   6.623   4.330  1.00  0.00     0.074 A 
ATOM     51  C   UNL     1       0.402   7.609   3.289  1.00  0.00     0.031 C 
ATOM     52  C   UNL     1       2.464   1.690   3.525  1.00  0.00     0.029 A 
ATOM     53  C   UNL     1       3.664   1.671   2.700  1.00  0.00     0.049 A 
ATOM     54  H   UNL     1       3.739   2.680   0.837  1.00  0.00     0.167 HD
ATOM     55  C   UNL     1      -0.385   6.302   5.396  1.00  0.00     0.034 A 
ATOM     56  C   UNL     1       4.957   1.421   3.030  1.00  0.00     0.034 A 
ATOM     57  C   UNL     1       0.156   5.099   6.051  1.00  0.00     0.049 A 
ATOM     58  C   UNL     1       5.062   2.008   4.427  1.00  0.00     0.074 A 
ATOM     59  C   UNL     1      -0.242   3.776   6.114  1.00  0.00     0.029 A 
ATOM     60  N   UNL     1       1.492   5.117   6.453  1.00  0.00    -0.354 N 
ATOM     61  N   UNL     1       4.285   2.977   4.858  1.00  0.00    -0.248 NA
ATOM     62  C   UNL     1       5.829   1.386   5.501  1.00  0.00     0.031 C 
ATOM     63  C   UNL     1       0.916   2.995   6.444  1.00  0.00     0.029 A 
ATOM     64  C   UNL     1       2.008   3.844   6.591  1.00  0.00     0.049 A 
ATOM     65  H   UNL     1       2.006   5.941   6.618  1.00  0.00     0.167 HD
ATOM     66  C   UNL     1       4.273   2.968   6.220  1.00  0.00     0.074 A 
ATOM     67  C   UNL     1       5.313   2.007   6.576  1.00  0.00     0.031 C 
ATOM     68  C   UNL     1       3.397   3.669   7.006  1.00  0.00     0.034 A 
BRANCH  55  69
ATOM     69  C   UNL     1      -1.701   6.940   5.780  1.00  0.00     0.023 A 
ATOM     70  C   UNL     1      -2.344   6.458   6.937  1.00  0.00     0.031 A 
ATOM     71  C   UNL     1      -2.410   7.939   5.075  1.00  0.00     0.131 A 
ATOM     72  C   UNL     1      -3.596   6.949   7.348  1.00  0.00     0.055 A 
ATOM     73  C   UNL     1      -3.642   8.454   5.504  1.00  0.00     0.041 A 
ATOM     74  F   UNL     1      -1.985   8.451   3.917  1.00  0.00    -0.206 F 
ATOM     75  C   UNL     1      -4.245   7.958   6.646  1.00  0.00     0.022 A 
BRANCH  72  76
ATOM     76  S   UNL     1      -4.373   6.229   8.816  1.00  0.00     0.124 S 
ATOM     77  O   UNL     1      -4.582   4.844   8.407  1.00  0.00    -0.237 OA
ATOM     78  O   UNL     1      -3.364   6.457   9.844  1.00  0.00    -0.237 OA
ATOM     79  O   UNL     1      -5.597   7.016   8.972  1.00  0.00    -0.744 OA
ENDBRANCH  72  76
ENDBRANCH  55  69
BRANCH  56  80
ATOM     80  C   UNL     1       5.845   1.565   1.800  1.00  0.00     0.023 A 
ATOM     81  C   UNL     1       5.730   0.594   0.747  1.00  0.00     0.031 A 
ATOM     82  C   UNL     1       6.372   2.814   1.437  1.00  0.00     0.131 A 
ATOM     83  C   UNL     1       6.016   0.933  -0.602  1.00  0.00     0.055 A 
ATOM     84  C   UNL     1       6.635   3.146   0.095  1.00  0.00     0.041 A 
ATOM     85  F   UNL     1       6.491   3.792   2.346  1.00  0.00    -0.206 F 
ATOM     86  C   UNL     1       6.421   2.226  -0.930  1.00  0.00     0.022 A 
BRANCH  83  87
ATOM     87  S   UNL     1       5.603  -0.210  -1.982  1.00  0.00     0.124 S 
ATOM     88  O   UNL     1       6.677  -1.193  -1.903  1.00  0.00    -0.237 OA
ATOM     89  O   UNL     1       4.274  -0.693  -1.632  1.00  0.00    -0.237 OA
ATOM     90  O   UNL     1       5.625   0.650  -3.164  1.00  0.00    -0.744 OA
ENDBRANCH  83  87
ENDBRANCH  56  80
BRANCH  68  91
ATOM     91  C   UNL     1       3.857   4.251   8.314  1.00  0.00     0.023 A 
ATOM     92  C   UNL     1       5.210   4.244   8.659  1.00  0.00     0.031 A 
ATOM     93  C   UNL     1       2.999   4.941   9.198  1.00  0.00     0.131 A 
ATOM     94  C   UNL     1       5.644   4.721   9.893  1.00  0.00     0.055 A 
ATOM     95  C   UNL     1       3.461   5.559  10.361  1.00  0.00     0.041 A 
ATOM     96  F   UNL     1       1.684   5.068   8.973  1.00  0.00    -0.206 F 
ATOM     97  C   UNL     1       4.787   5.414  10.738  1.00  0.00     0.022 A 
BRANCH  94  98
ATOM     98  S   UNL     1       7.308   4.244  10.398  1.00  0.00     0.124 S 
ATOM     99  O   UNL     1       7.205   2.786  10.404  1.00  0.00    -0.237 OA
ATOM    100  O   UNL     1       8.137   4.812   9.340  1.00  0.00    -0.237 OA
ATOM    101  O   UNL     1       7.455   4.863  11.712  1.00  0.00    -0.744 OA
ENDBRANCH  94  98
ENDBRANCH  68  91
ENDBRANCH  42  43
ENDBRANCH  35  37
ENDBRANCH  34  35
ENDBRANCH  33  34
ENDBRANCH  32  33
ENDBRANCH   1  32
TORSDOF 21
