REMARK SMILES O=C(OCCOCCOC(=O)c1cc(N2C(=O)[C@H]3[C@@H]4C=C[C@@H]([C@@H]5C[C@H]45)[C@@H]3C2=O)ccc1Cl)c1ccc(-c2c3nc(c(-c4cc(S(=O)(=O)[O-])ccc4F)c4ccc([nH]4)c(-c4cc(S(=O)(=O)[O-])ccc4F)c4nc(c(-c5cc(S(=O)(=O)[O-])ccc5F)c5ccc2[nH]5)C=C4)C=C3)cc1
REMARK SMILES IDX 5 1 4 2 3 3 2 4 1 5 33 6 34 7 95 8 35 9 94 10 36 11 37 12
REMARK SMILES IDX 38 13 88 14 39 15 93 16 87 17 89 18 40 19 92 20 86 21 85 22
REMARK SMILES IDX 41 24 73 25 53 26 72 27 54 28 57 29 71 30 90 31 55 32 56 33
REMARK SMILES IDX 70 35 91 36 58 37 42 38 43 39 51 40 44 41 50 42 52 43 49 44
REMARK SMILES IDX 45 45 46 46 47 47 48 48 74 49 75 50 83 51 76 52 82 53 84 54
REMARK SMILES IDX 81 55 77 56 78 57 79 58 80 59 59 60 60 61 68 62 61 63 67 64
REMARK SMILES IDX 69 65 66 66 62 67 63 68 64 69 65 70 6 71 7 72 8 73 9 74
REMARK SMILES IDX 10 75 11 76 12 77 13 78 31 79 14 80 30 81 32 82 29 83 15 84
REMARK SMILES IDX 16 85 27 86 17 87 18 88 26 89 28 90 19 91 22 92 20 93 25 94
REMARK SMILES IDX 21 95 23 96 24 97
REMARK H PARENT 89 23 57 34
REMARK Flexibility Score: inf
ROOT
ATOM      1  C   UNL     1       4.299   1.419  -0.819  1.00  0.00     0.202 C 
ENDROOT
BRANCH   1   2
ATOM      2  C   UNL     1       3.906   0.076  -1.444  1.00  0.00     0.261 C 
BRANCH   2   3
ATOM      3  O   UNL     1       2.543  -0.260  -1.120  1.00  0.00    -0.460 OA
BRANCH   3   4
ATOM      4  C   UNL     1       2.096  -1.218  -0.273  1.00  0.00     0.338 C 
ATOM      5  O   UNL     1       0.890  -1.460  -0.240  1.00  0.00    -0.246 OA
BRANCH   4   6
ATOM      6  C   UNL     1       2.992  -1.988   0.642  1.00  0.00     0.060 A 
ATOM      7  C   UNL     1       4.217  -1.518   1.109  1.00  0.00     0.016 A 
ATOM      8  C   UNL     1       2.533  -3.221   1.135  1.00  0.00     0.016 A 
ATOM      9  C   UNL     1       5.004  -2.261   1.967  1.00  0.00     0.010 A 
ATOM     10  C   UNL     1       3.292  -3.955   2.057  1.00  0.00     0.010 A 
ATOM     11  C   UNL     1       4.540  -3.473   2.466  1.00  0.00    -0.014 A 
BRANCH  11  12
ATOM     12  C   UNL     1       5.458  -4.207   3.355  1.00  0.00     0.031 A 
ATOM     13  C   UNL     1       6.199  -5.383   2.802  1.00  0.00     0.074 A 
ATOM     14  C   UNL     1       5.767  -3.666   4.551  1.00  0.00     0.049 A 
ATOM     15  N   UNL     1       7.096  -6.137   3.374  1.00  0.00    -0.248 NA
ATOM     16  C   UNL     1       5.906  -5.742   1.405  1.00  0.00     0.031 C 
ATOM     17  C   UNL     1       5.181  -2.431   5.088  1.00  0.00     0.029 A 
ATOM     18  N   UNL     1       6.681  -4.034   5.499  1.00  0.00    -0.354 N 
ATOM     19  C   UNL     1       7.474  -7.064   2.412  1.00  0.00     0.074 A 
ATOM     20  C   UNL     1       6.690  -6.794   1.227  1.00  0.00     0.031 C 
ATOM     21  C   UNL     1       5.784  -2.125   6.246  1.00  0.00     0.029 A 
ATOM     22  C   UNL     1       6.730  -3.181   6.579  1.00  0.00     0.049 A 
ATOM     23  H   UNL     1       7.251  -4.833   5.417  1.00  0.00     0.167 HD
ATOM     24  C   UNL     1       8.397  -8.050   2.520  1.00  0.00     0.034 A 
ATOM     25  C   UNL     1       7.436  -3.273   7.723  1.00  0.00     0.034 A 
ATOM     26  C   UNL     1       9.133  -8.296   3.734  1.00  0.00     0.049 A 
ATOM     27  C   UNL     1       8.360  -4.457   7.864  1.00  0.00     0.074 A 
ATOM     28  C   UNL     1       9.999  -9.330   4.032  1.00  0.00     0.029 A 
ATOM     29  N   UNL     1       9.084  -7.480   4.862  1.00  0.00    -0.354 N 
ATOM     30  N   UNL     1       8.632  -5.400   6.987  1.00  0.00    -0.248 NA
ATOM     31  C   UNL     1       9.065  -4.597   9.141  1.00  0.00     0.031 C 
ATOM     32  C   UNL     1      10.428  -9.171   5.356  1.00  0.00     0.029 A 
ATOM     33  C   UNL     1       9.889  -7.997   5.862  1.00  0.00     0.049 A 
ATOM     34  H   UNL     1       8.552  -6.655   4.937  1.00  0.00     0.167 HD
ATOM     35  C   UNL     1       9.547  -6.242   7.607  1.00  0.00     0.074 A 
ATOM     36  C   UNL     1       9.812  -5.666   8.912  1.00  0.00     0.031 C 
ATOM     37  C   UNL     1      10.111  -7.393   7.156  1.00  0.00     0.034 A 
BRANCH  24  38
ATOM     38  C   UNL     1       8.559  -8.962   1.330  1.00  0.00     0.023 A 
ATOM     39  C   UNL     1       9.059  -8.495   0.100  1.00  0.00     0.031 A 
ATOM     40  C   UNL     1       8.114 -10.293   1.397  1.00  0.00     0.131 A 
ATOM     41  C   UNL     1       9.030  -9.330  -1.029  1.00  0.00     0.055 A 
ATOM     42  C   UNL     1       8.160 -11.143   0.290  1.00  0.00     0.041 A 
ATOM     43  F   UNL     1       7.595 -10.783   2.534  1.00  0.00    -0.206 F 
ATOM     44  C   UNL     1       8.605 -10.658  -0.936  1.00  0.00     0.022 A 
BRANCH  41  45
ATOM     45  S   UNL     1       9.411  -8.614  -2.653  1.00  0.00     0.124 S 
ATOM     46  O   UNL     1       8.357  -7.610  -2.787  1.00  0.00    -0.237 OA
ATOM     47  O   UNL     1      10.762  -8.099  -2.465  1.00  0.00    -0.237 OA
ATOM     48  O   UNL     1       9.297  -9.751  -3.564  1.00  0.00    -0.744 OA
ENDBRANCH  41  45
ENDBRANCH  24  38
BRANCH  25  49
ATOM     49  C   UNL     1       7.228  -2.301   8.840  1.00  0.00     0.023 A 
ATOM     50  C   UNL     1       8.291  -1.571   9.398  1.00  0.00     0.031 A 
ATOM     51  C   UNL     1       5.956  -2.147   9.428  1.00  0.00     0.131 A 
ATOM     52  C   UNL     1       8.075  -0.771  10.534  1.00  0.00     0.055 A 
ATOM     53  C   UNL     1       5.733  -1.298  10.512  1.00  0.00     0.041 A 
ATOM     54  F   UNL     1       4.900  -2.827   8.954  1.00  0.00    -0.206 F 
ATOM     55  C   UNL     1       6.800  -0.618  11.084  1.00  0.00     0.022 A 
BRANCH  52  56
ATOM     56  S   UNL     1       9.508  -0.034  11.370  1.00  0.00     0.124 S 
ATOM     57  O   UNL     1      10.355  -1.200  11.592  1.00  0.00    -0.237 OA
ATOM     58  O   UNL     1       9.980   0.921  10.374  1.00  0.00    -0.237 OA
ATOM     59  O   UNL     1       8.932   0.557  12.576  1.00  0.00    -0.744 OA
ENDBRANCH  52  56
ENDBRANCH  25  49
BRANCH  37  60
ATOM     60  C   UNL     1      11.082  -8.068   8.090  1.00  0.00     0.023 A 
ATOM     61  C   UNL     1      10.658  -8.619   9.312  1.00  0.00     0.031 A 
ATOM     62  C   UNL     1      12.448  -8.128   7.770  1.00  0.00     0.131 A 
ATOM     63  C   UNL     1      11.604  -9.140  10.204  1.00  0.00     0.055 A 
ATOM     64  C   UNL     1      13.376  -8.712   8.631  1.00  0.00     0.041 A 
ATOM     65  F   UNL     1      12.904  -7.614   6.616  1.00  0.00    -0.206 F 
ATOM     66  C   UNL     1      12.958  -9.207   9.864  1.00  0.00     0.022 A 
BRANCH  63  67
ATOM     67  S   UNL     1      11.055  -9.619  11.864  1.00  0.00     0.124 S 
ATOM     68  O   UNL     1      10.469  -8.377  12.359  1.00  0.00    -0.237 OA
ATOM     69  O   UNL     1      10.115 -10.699  11.581  1.00  0.00    -0.237 OA
ATOM     70  O   UNL     1      12.290 -10.031  12.527  1.00  0.00    -0.744 OA
ENDBRANCH  63  67
ENDBRANCH  37  60
ENDBRANCH  11  12
ENDBRANCH   4   6
ENDBRANCH   3   4
ENDBRANCH   2   3
ENDBRANCH   1   2
BRANCH   1  71
ATOM     71  O   UNL     1       4.156   1.495   0.601  1.00  0.00    -0.374 OA
BRANCH  71  72
ATOM     72  C   UNL     1       2.839   1.797   1.078  1.00  0.00     0.202 C 
BRANCH  72  73
ATOM     73  C   UNL     1       2.898   3.032   1.976  1.00  0.00     0.261 C 
BRANCH  73  74
ATOM     74  O   UNL     1       3.377   4.124   1.177  1.00  0.00    -0.460 OA
BRANCH  74  75
ATOM     75  C   UNL     1       4.714   4.342   1.228  1.00  0.00     0.339 C 
ATOM     76  O   UNL     1       5.514   3.924   2.046  1.00  0.00    -0.246 OA
BRANCH  75  77
ATOM     77  C   UNL     1       5.106   4.979  -0.039  1.00  0.00     0.080 A 
ATOM     78  C   UNL     1       6.105   4.331  -0.794  1.00  0.00     0.044 A 
ATOM     79  C   UNL     1       4.469   6.123  -0.532  1.00  0.00     0.055 A 
ATOM     80  C   UNL     1       6.438   4.817  -2.054  1.00  0.00     0.053 A 
ATOM     81  C   UNL     1       4.811   6.606  -1.794  1.00  0.00     0.023 A 
ATOM     82  Cl  UNL     1       3.279   7.008   0.354  1.00  0.00    -0.083 Cl
ATOM     83  C   UNL     1       5.788   5.958  -2.549  1.00  0.00     0.028 A 
BRANCH  80  84
ATOM     84  N   UNL     1       7.333   4.131  -2.904  1.00  0.00    -0.250 N 
ATOM     85  C   UNL     1       6.852   3.123  -3.769  1.00  0.00     0.238 C 
ATOM     86  C   UNL     1       8.432   4.814  -3.470  1.00  0.00     0.238 C 
ATOM     87  O   UNL     1       5.781   2.542  -3.758  1.00  0.00    -0.274 OA
ATOM     88  C   UNL     1       7.949   2.960  -4.778  1.00  0.00     0.100 C 
ATOM     89  C   UNL     1       8.331   4.436  -4.905  1.00  0.00     0.100 C 
ATOM     90  O   UNL     1       9.118   5.703  -3.002  1.00  0.00    -0.274 OA
ATOM     91  C   UNL     1       7.947   2.327  -6.183  1.00  0.00     0.028 C 
ATOM     92  C   UNL     1       9.172   4.650  -6.153  1.00  0.00     0.028 C 
ATOM     93  C   UNL     1       9.474   2.255  -6.444  1.00  0.00    -0.026 C 
ATOM     94  C   UNL     1       7.418   3.219  -7.325  1.00  0.00     0.001 C 
ATOM     95  C   UNL     1      10.104   3.450  -6.369  1.00  0.00    -0.026 C 
ATOM     96  C   UNL     1       8.130   4.582  -7.330  1.00  0.00     0.001 C 
ATOM     97  C   UNL     1       6.607   4.476  -7.221  1.00  0.00     0.009 C 
ENDBRANCH  80  84
ENDBRANCH  75  77
ENDBRANCH  74  75
ENDBRANCH  73  74
ENDBRANCH  72  73
ENDBRANCH  71  72
ENDBRANCH   1  71
TORSDOF 18
