REMARK SMILES CCN1CCN([C@H](C)c2ccc(C(=O)OCCOCCOC(=O)c3ccc(-c4c5nc(c(-c6cc(S(=O)(=O)[O-])ccc6F)c6ccc([nH]6)c(-c6cc(S(=O)(=O)[O-])ccc6F)c6nc(c(-c7cc(S(=O)(=O)[O-])ccc7F)c7ccc4[nH]7)C=C6)C=C5)cc3)o2)C(=O)C1=O
REMARK SMILES IDX 18 1 17 2 16 3 15 4 13 5 14 6 12 7 9 8 10 9 87 10 11 11 7 12
REMARK SMILES IDX 8 13 6 14 3 15 4 16 90 17 5 18 88 19 91 20 89 21 2 22 1 23
REMARK SMILES IDX 19 24 20 25 21 26 22 27 23 28 24 29 25 30 86 31 26 32 85 33
REMARK SMILES IDX 27 34 28 35 29 36 79 37 30 38 84 39 78 40 80 41 31 42 83 43
REMARK SMILES IDX 77 44 76 45 32 47 64 48 44 49 63 50 45 51 48 52 62 53 81 54
REMARK SMILES IDX 46 55 47 56 61 58 82 59 49 60 33 61 34 62 42 63 35 64 41 65
REMARK SMILES IDX 43 66 40 67 36 68 37 69 38 70 39 71 65 72 66 73 74 74 67 75
REMARK SMILES IDX 73 76 75 77 72 78 68 79 69 80 70 81 71 82 50 83 51 84 59 85
REMARK SMILES IDX 52 86 58 87 60 88 57 89 53 90 54 91 55 92 56 93
REMARK H PARENT 80 46 48 57
REMARK Flexibility Score: inf
ROOT
ATOM      1  O   UNL     1       1.511   8.414  -7.598  1.00  0.00    -0.374 OA
ENDROOT
BRANCH   1   2
ATOM      2  C   UNL     1       0.379   7.806  -8.226  1.00  0.00     0.202 C 
BRANCH   2   3
ATOM      3  C   UNL     1       0.194   6.321  -7.896  1.00  0.00     0.261 C 
BRANCH   3   4
ATOM      4  O   UNL     1      -0.192   6.165  -6.520  1.00  0.00    -0.457 OA
BRANCH   4   5
ATOM      5  C   UNL     1       0.743   5.615  -5.692  1.00  0.00     0.374 C 
ATOM      6  O   UNL     1       1.778   5.077  -6.063  1.00  0.00    -0.242 OA
BRANCH   5   7
ATOM      7  C   UNL     1       0.380   5.889  -4.319  1.00  0.00     0.211 A 
ATOM      8  C   UNL     1       0.817   6.133  -2.168  1.00  0.00     0.127 A 
ATOM      9  C   UNL     1      -0.479   6.569  -2.355  1.00  0.00     0.049 A 
ATOM     10  O   UNL     1       1.332   5.701  -3.353  1.00  0.00    -0.452 OA
ATOM     11  C   UNL     1      -0.761   6.411  -3.734  1.00  0.00     0.058 A 
BRANCH   8  12
ATOM     12  C   UNL     1       1.699   6.073  -0.954  1.00  0.00     0.149 C 
ATOM     13  C   UNL     1       1.300   4.892  -0.068  1.00  0.00     0.040 C 
BRANCH  12  14
ATOM     14  N   UNL     1       3.124   6.190  -1.318  1.00  0.00    -0.323 N 
ATOM     15  N   UNL     1       5.877   6.655  -2.043  1.00  0.00    -0.333 N 
ATOM     16  C   UNL     1       5.035   7.724  -1.536  1.00  0.00     0.141 C 
ATOM     17  C   UNL     1       5.430   5.327  -1.930  1.00  0.00     0.312 C 
ATOM     18  C   UNL     1       3.574   7.458  -1.877  1.00  0.00     0.142 C 
ATOM     19  C   UNL     1       3.982   5.085  -1.395  1.00  0.00     0.312 C 
ATOM     20  O   UNL     1       6.146   4.363  -2.186  1.00  0.00    -0.263 OA
ATOM     21  O   UNL     1       3.692   3.957  -1.013  1.00  0.00    -0.263 OA
BRANCH  15  22
ATOM     22  C   UNL     1       7.294   6.872  -2.329  1.00  0.00     0.116 C 
ATOM     23  C   UNL     1       7.651   8.228  -2.917  1.00  0.00     0.027 C 
ENDBRANCH  15  22
ENDBRANCH  12  14
ENDBRANCH   8  12
ENDBRANCH   5   7
ENDBRANCH   4   5
ENDBRANCH   3   4
ENDBRANCH   2   3
ENDBRANCH   1   2
BRANCH   1  24
ATOM     24  C   UNL     1       1.302   8.938  -6.286  1.00  0.00     0.202 C 
BRANCH  24  25
ATOM     25  C   UNL     1       0.709  10.350  -6.227  1.00  0.00     0.261 C 
BRANCH  25  26
ATOM     26  O   UNL     1      -0.668  10.360  -6.645  1.00  0.00    -0.460 OA
BRANCH  26  27
ATOM     27  C   UNL     1      -0.885  10.917  -7.863  1.00  0.00     0.338 C 
ATOM     28  O   UNL     1      -0.060  11.470  -8.570  1.00  0.00    -0.246 OA
BRANCH  27  29
ATOM     29  C   UNL     1      -2.256  10.608  -8.320  1.00  0.00     0.060 A 
ATOM     30  C   UNL     1      -2.406  10.145  -9.633  1.00  0.00     0.016 A 
ATOM     31  C   UNL     1      -3.377  10.812  -7.510  1.00  0.00     0.016 A 
ATOM     32  C   UNL     1      -3.679   9.929 -10.157  1.00  0.00     0.010 A 
ATOM     33  C   UNL     1      -4.655  10.600  -8.040  1.00  0.00     0.010 A 
ATOM     34  C   UNL     1      -4.813  10.188  -9.376  1.00  0.00    -0.014 A 
BRANCH  34  35
ATOM     35  C   UNL     1      -6.158  10.161 -10.005  1.00  0.00     0.031 A 
ATOM     36  C   UNL     1      -6.801  11.460 -10.409  1.00  0.00     0.074 A 
ATOM     37  C   UNL     1      -6.784   8.993 -10.242  1.00  0.00     0.049 A 
ATOM     38  N   UNL     1      -7.978  11.677 -10.937  1.00  0.00    -0.248 NA
ATOM     39  C   UNL     1      -6.008  12.677 -10.180  1.00  0.00     0.031 C 
ATOM     40  C   UNL     1      -6.243   7.670  -9.936  1.00  0.00     0.029 A 
ATOM     41  N   UNL     1      -8.014   8.735 -10.793  1.00  0.00    -0.354 N 
ATOM     42  C   UNL     1      -8.069  13.054 -11.107  1.00  0.00     0.074 A 
ATOM     43  C   UNL     1      -6.844  13.622 -10.583  1.00  0.00     0.031 C 
ATOM     44  C   UNL     1      -7.144   6.738 -10.294  1.00  0.00     0.029 A 
ATOM     45  C   UNL     1      -8.336   7.399 -10.821  1.00  0.00     0.049 A 
ATOM     46  H   UNL     1      -8.609   9.440 -11.136  1.00  0.00     0.167 HD
ATOM     47  C   UNL     1      -9.075  13.777 -11.660  1.00  0.00     0.034 A 
ATOM     48  C   UNL     1      -9.473   6.782 -11.203  1.00  0.00     0.034 A 
ATOM     49  C   UNL     1     -10.297  13.198 -12.164  1.00  0.00     0.049 A 
ATOM     50  C   UNL     1     -10.617   7.613 -11.734  1.00  0.00     0.074 A 
ATOM     51  C   UNL     1     -11.377  13.837 -12.748  1.00  0.00     0.029 A 
ATOM     52  N   UNL     1     -10.607  11.844 -12.134  1.00  0.00    -0.354 N 
ATOM     53  N   UNL     1     -10.690   8.915 -11.890  1.00  0.00    -0.248 NA
ATOM     54  C   UNL     1     -11.826   6.889 -12.146  1.00  0.00     0.031 C 
ATOM     55  C   UNL     1     -12.367  12.881 -13.006  1.00  0.00     0.029 A 
ATOM     56  C   UNL     1     -11.874  11.633 -12.658  1.00  0.00     0.049 A 
ATOM     57  H   UNL     1     -10.014  11.137 -11.791  1.00  0.00     0.167 HD
ATOM     58  C   UNL     1     -11.943   9.161 -12.447  1.00  0.00     0.074 A 
ATOM     59  C   UNL     1     -12.585   7.872 -12.610  1.00  0.00     0.031 C 
ATOM     60  C   UNL     1     -12.510  10.344 -12.800  1.00  0.00     0.034 A 
BRANCH  47  61
ATOM     61  C   UNL     1      -8.908  15.277 -11.695  1.00  0.00     0.023 A 
ATOM     62  C   UNL     1      -7.891  15.891 -12.448  1.00  0.00     0.031 A 
ATOM     63  C   UNL     1      -9.756  16.104 -10.938  1.00  0.00     0.131 A 
ATOM     64  C   UNL     1      -7.703  17.280 -12.369  1.00  0.00     0.055 A 
ATOM     65  C   UNL     1      -9.614  17.493 -10.927  1.00  0.00     0.041 A 
ATOM     66  F   UNL     1     -10.730  15.574 -10.180  1.00  0.00    -0.206 F 
ATOM     67  C   UNL     1      -8.573  18.088 -11.634  1.00  0.00     0.022 A 
BRANCH  64  68
ATOM     68  S   UNL     1      -6.218  17.997 -13.124  1.00  0.00     0.124 S 
ATOM     69  O   UNL     1      -5.155  17.276 -12.427  1.00  0.00    -0.237 OA
ATOM     70  O   UNL     1      -6.392  17.673 -14.535  1.00  0.00    -0.237 OA
ATOM     71  O   UNL     1      -6.317  19.417 -12.792  1.00  0.00    -0.744 OA
ENDBRANCH  64  68
ENDBRANCH  47  61
BRANCH  48  72
ATOM     72  C   UNL     1      -9.611   5.304 -11.061  1.00  0.00     0.023 A 
ATOM     73  C   UNL     1      -9.767   4.475 -12.182  1.00  0.00     0.031 A 
ATOM     74  C   UNL     1      -9.638   4.706  -9.788  1.00  0.00     0.131 A 
ATOM     75  C   UNL     1      -9.985   3.099 -12.009  1.00  0.00     0.055 A 
ATOM     76  C   UNL     1      -9.804   3.330  -9.623  1.00  0.00     0.041 A 
ATOM     77  F   UNL     1      -9.494   5.454  -8.683  1.00  0.00    -0.206 F 
ATOM     78  C   UNL     1      -9.991   2.519 -10.738  1.00  0.00     0.022 A 
BRANCH  75  79
ATOM     79  S   UNL     1     -10.338   2.083 -13.470  1.00  0.00     0.124 S 
ATOM     80  O   UNL     1     -11.536   2.727 -13.996  1.00  0.00    -0.237 OA
ATOM     81  O   UNL     1      -9.120   2.252 -14.255  1.00  0.00    -0.237 OA
ATOM     82  O   UNL     1     -10.538   0.747 -12.914  1.00  0.00    -0.744 OA
ENDBRANCH  75  79
ENDBRANCH  48  72
BRANCH  60  83
ATOM     83  C   UNL     1     -13.877  10.288 -13.438  1.00  0.00     0.023 A 
ATOM     84  C   UNL     1     -15.016   9.882 -12.720  1.00  0.00     0.031 A 
ATOM     85  C   UNL     1     -14.040  10.642 -14.790  1.00  0.00     0.131 A 
ATOM     86  C   UNL     1     -16.256   9.788 -13.370  1.00  0.00     0.055 A 
ATOM     87  C   UNL     1     -15.287  10.603 -15.416  1.00  0.00     0.041 A 
ATOM     88  F   UNL     1     -12.988  11.037 -15.524  1.00  0.00    -0.206 F 
ATOM     89  C   UNL     1     -16.402  10.162 -14.709  1.00  0.00     0.022 A 
BRANCH  86  90
ATOM     90  S   UNL     1     -17.664   9.088 -12.467  1.00  0.00     0.124 S 
ATOM     91  O   UNL     1     -17.166   7.763 -12.108  1.00  0.00    -0.237 OA
ATOM     92  O   UNL     1     -17.826  10.028 -11.363  1.00  0.00    -0.237 OA
ATOM     93  O   UNL     1     -18.744   9.098 -13.452  1.00  0.00    -0.744 OA
ENDBRANCH  86  90
ENDBRANCH  60  83
ENDBRANCH  34  35
ENDBRANCH  27  29
ENDBRANCH  26  27
ENDBRANCH  25  26
ENDBRANCH  24  25
ENDBRANCH   1  24
TORSDOF 20
