REMARK SMILES NC(=O)CC[C@H](C(=O)OCCOCCOC(=O)c1ccc(-c2c3nc(c(-c4cc(S(=O)(=O)[O-])ccc4F)c4ccc([nH]4)c(-c4cc(S(=O)(=O)[O-])ccc4F)c4nc(c(-c5cc(S(=O)(=O)[O-])ccc5F)c5ccc2[nH]5)C=C4)C=C3)cc1)N1CCOC1=O
REMARK SMILES IDX 12 1 11 2 10 3 9 4 7 5 8 6 6 7 5 8 4 9 2 10 1 11 3 14 81 15
REMARK SMILES IDX 82 16 85 17 83 18 84 19 86 20 13 21 14 22 15 23 16 24 17 25
REMARK SMILES IDX 18 26 19 27 80 28 20 29 79 30 21 31 22 32 23 33 73 34 24 35
REMARK SMILES IDX 78 36 72 37 74 38 25 39 77 40 71 41 70 42 26 44 58 45 38 46
REMARK SMILES IDX 57 47 39 48 42 49 56 50 75 51 40 52 41 53 55 55 76 56 43 57
REMARK SMILES IDX 27 58 28 59 36 60 29 61 35 62 37 63 34 64 30 65 31 66 32 67
REMARK SMILES IDX 33 68 59 69 60 70 68 71 61 72 67 73 69 74 66 75 62 76 63 77
REMARK SMILES IDX 64 78 65 79 44 80 45 81 53 82 46 83 52 84 54 85 51 86 47 87
REMARK SMILES IDX 48 88 49 89 50 90
REMARK H PARENT 1 12 1 13 74 43 42 54
REMARK Flexibility Score: inf
ROOT
ATOM      1  O   UNL     1      -0.007   2.366  -3.173  1.00  0.00    -0.374 OA
ENDROOT
BRANCH   1   2
ATOM      2  C   UNL     1       0.509   3.691  -3.263  1.00  0.00     0.202 C 
BRANCH   2   3
ATOM      3  C   UNL     1       1.062   4.338  -1.988  1.00  0.00     0.261 C 
BRANCH   3   4
ATOM      4  O   UNL     1       2.187   3.633  -1.437  1.00  0.00    -0.462 OA
BRANCH   4   5
ATOM      5  C   UNL     1       1.909   2.878  -0.337  1.00  0.00     0.329 C 
ATOM      6  O   UNL     1       0.789   2.693   0.128  1.00  0.00    -0.250 OA
BRANCH   5   7
ATOM      7  C   UNL     1       3.169   2.232   0.270  1.00  0.00     0.199 C 
BRANCH   7   8
ATOM      8  C   UNL     1       3.931   1.307  -0.711  1.00  0.00     0.047 C 
BRANCH   8   9
ATOM      9  C   UNL     1       4.698   1.962  -1.864  1.00  0.00     0.102 C 
BRANCH   9  10
ATOM     10  C   UNL     1       5.829   2.842  -1.394  1.00  0.00     0.217 C 
ATOM     11  N   UNL     1       5.584   4.179  -1.448  1.00  0.00    -0.370 N 
ATOM     12  H   UNL     1       6.274   4.819  -1.158  1.00  0.00     0.159 HD
ATOM     13  H   UNL     1       4.716   4.508  -1.778  1.00  0.00     0.159 HD
ATOM     14  O   UNL     1       6.877   2.397  -0.940  1.00  0.00    -0.275 OA
ENDBRANCH   9  10
ENDBRANCH   8   9
ENDBRANCH   7   8
BRANCH   7  15
ATOM     15  N   UNL     1       4.040   3.128   1.027  1.00  0.00    -0.291 N 
ATOM     16  C   UNL     1       5.086   2.642   1.876  1.00  0.00     0.165 C 
ATOM     17  C   UNL     1       3.760   4.435   1.362  1.00  0.00     0.410 C 
ATOM     18  C   UNL     1       5.755   3.921   2.301  1.00  0.00     0.256 C 
ATOM     19  O   UNL     1       4.713   4.900   2.229  1.00  0.00    -0.448 OA
ATOM     20  O   UNL     1       2.822   5.106   0.979  1.00  0.00    -0.224 OA
ENDBRANCH   7  15
ENDBRANCH   5   7
ENDBRANCH   4   5
ENDBRANCH   3   4
ENDBRANCH   2   3
ENDBRANCH   1   2
BRANCH   1  21
ATOM     21  C   UNL     1       0.921   1.291  -3.081  1.00  0.00     0.202 C 
BRANCH  21  22
ATOM     22  C   UNL     1       1.690   0.885  -4.344  1.00  0.00     0.261 C 
BRANCH  22  23
ATOM     23  O   UNL     1       2.599   1.904  -4.796  1.00  0.00    -0.460 OA
BRANCH  23  24
ATOM     24  C   UNL     1       2.188   2.562  -5.910  1.00  0.00     0.338 C 
ATOM     25  O   UNL     1       1.171   2.351  -6.549  1.00  0.00    -0.246 OA
BRANCH  24  26
ATOM     26  C   UNL     1       3.053   3.733  -6.153  1.00  0.00     0.060 A 
ATOM     27  C   UNL     1       2.429   4.976  -6.328  1.00  0.00     0.016 A 
ATOM     28  C   UNL     1       4.434   3.605  -6.298  1.00  0.00     0.016 A 
ATOM     29  C   UNL     1       3.178   6.086  -6.715  1.00  0.00     0.010 A 
ATOM     30  C   UNL     1       5.182   4.719  -6.693  1.00  0.00     0.010 A 
ATOM     31  C   UNL     1       4.552   5.953  -6.947  1.00  0.00    -0.014 A 
BRANCH  31  32
ATOM     32  C   UNL     1       5.301   7.041  -7.624  1.00  0.00     0.031 A 
ATOM     33  C   UNL     1       5.641   6.879  -9.083  1.00  0.00     0.074 A 
ATOM     34  C   UNL     1       5.664   8.155  -6.961  1.00  0.00     0.049 A 
ATOM     35  N   UNL     1       6.381   7.632  -9.852  1.00  0.00    -0.248 NA
ATOM     36  C   UNL     1       5.073   5.702  -9.762  1.00  0.00     0.031 C 
ATOM     37  C   UNL     1       5.330   8.456  -5.570  1.00  0.00     0.029 A 
ATOM     38  N   UNL     1       6.407   9.235  -7.369  1.00  0.00    -0.354 N 
ATOM     39  C   UNL     1       6.392   7.010 -11.097  1.00  0.00     0.074 A 
ATOM     40  C   UNL     1       5.599   5.806 -10.973  1.00  0.00     0.031 C 
ATOM     41  C   UNL     1       5.879   9.637  -5.236  1.00  0.00     0.029 A 
ATOM     42  C   UNL     1       6.648  10.149  -6.369  1.00  0.00     0.049 A 
ATOM     43  H   UNL     1       6.736   9.346  -8.290  1.00  0.00     0.167 HD
ATOM     44  C   UNL     1       7.009   7.409 -12.235  1.00  0.00     0.034 A 
ATOM     45  C   UNL     1       7.430  11.249  -6.360  1.00  0.00     0.034 A 
ATOM     46  C   UNL     1       7.786   8.618 -12.341  1.00  0.00     0.049 A 
ATOM     47  C   UNL     1       8.185  11.620  -7.620  1.00  0.00     0.074 A 
ATOM     48  C   UNL     1       8.425   9.132 -13.456  1.00  0.00     0.029 A 
ATOM     49  N   UNL     1       8.042   9.496 -11.297  1.00  0.00    -0.354 N 
ATOM     50  N   UNL     1       8.184  11.024  -8.791  1.00  0.00    -0.248 NA
ATOM     51  C   UNL     1       9.041  12.813  -7.558  1.00  0.00     0.031 C 
ATOM     52  C   UNL     1       9.142  10.266 -13.065  1.00  0.00     0.029 A 
ATOM     53  C   UNL     1       8.864  10.523 -11.732  1.00  0.00     0.049 A 
ATOM     54  H   UNL     1       7.691   9.403 -10.382  1.00  0.00     0.167 HD
ATOM     55  C   UNL     1       8.995  11.805  -9.614  1.00  0.00     0.074 A 
ATOM     56  C   UNL     1       9.465  12.910  -8.809  1.00  0.00     0.031 C 
ATOM     57  C   UNL     1       9.313  11.629 -10.922  1.00  0.00     0.034 A 
BRANCH  44  58
ATOM     58  C   UNL     1       6.926   6.506 -13.442  1.00  0.00     0.023 A 
ATOM     59  C   UNL     1       5.715   6.250 -14.106  1.00  0.00     0.031 A 
ATOM     60  C   UNL     1       8.095   5.909 -13.948  1.00  0.00     0.131 A 
ATOM     61  C   UNL     1       5.694   5.386 -15.212  1.00  0.00     0.055 A 
ATOM     62  C   UNL     1       8.079   5.112 -15.094  1.00  0.00     0.041 A 
ATOM     63  F   UNL     1       9.276   6.095 -13.338  1.00  0.00    -0.206 F 
ATOM     64  C   UNL     1       6.872   4.839 -15.728  1.00  0.00     0.022 A 
BRANCH  61  65
ATOM     65  S   UNL     1       4.091   4.893 -15.902  1.00  0.00     0.124 S 
ATOM     66  O   UNL     1       3.455   4.261 -14.748  1.00  0.00    -0.237 OA
ATOM     67  O   UNL     1       3.524   6.168 -16.325  1.00  0.00    -0.237 OA
ATOM     68  O   UNL     1       4.450   3.979 -16.985  1.00  0.00    -0.744 OA
ENDBRANCH  61  65
ENDBRANCH  44  58
BRANCH  45  69
ATOM     69  C   UNL     1       7.597  12.064  -5.119  1.00  0.00     0.023 A 
ATOM     70  C   UNL     1       7.264  13.428  -5.103  1.00  0.00     0.031 A 
ATOM     71  C   UNL     1       8.185  11.519  -3.963  1.00  0.00     0.131 A 
ATOM     72  C   UNL     1       7.593  14.216  -3.989  1.00  0.00     0.055 A 
ATOM     73  C   UNL     1       8.440  12.292  -2.828  1.00  0.00     0.041 A 
ATOM     74  F   UNL     1       8.531  10.223  -3.921  1.00  0.00    -0.206 F 
ATOM     75  C   UNL     1       8.163  13.655  -2.845  1.00  0.00     0.022 A 
BRANCH  72  76
ATOM     76  S   UNL     1       7.403  16.016  -4.120  1.00  0.00     0.124 S 
ATOM     77  O   UNL     1       8.211  16.311  -5.297  1.00  0.00    -0.237 OA
ATOM     78  O   UNL     1       5.959  16.156  -4.279  1.00  0.00    -0.237 OA
ATOM     79  O   UNL     1       7.941  16.506  -2.853  1.00  0.00    -0.744 OA
ENDBRANCH  72  76
ENDBRANCH  45  69
BRANCH  57  80
ATOM     80  C   UNL     1      10.140  12.701 -11.592  1.00  0.00     0.023 A 
ATOM     81  C   UNL     1      11.477  12.951 -11.240  1.00  0.00     0.031 A 
ATOM     82  C   UNL     1       9.574  13.473 -12.625  1.00  0.00     0.131 A 
ATOM     83  C   UNL     1      12.188  13.977 -11.883  1.00  0.00     0.055 A 
ATOM     84  C   UNL     1      10.306  14.444 -13.306  1.00  0.00     0.041 A 
ATOM     85  F   UNL     1       8.299  13.280 -13.001  1.00  0.00    -0.206 F 
ATOM     86  C   UNL     1      11.618  14.709 -12.928  1.00  0.00     0.022 A 
BRANCH  83  87
ATOM     87  S   UNL     1      13.846  14.401 -11.282  1.00  0.00     0.124 S 
ATOM     88  O   UNL     1      13.583  14.755  -9.891  1.00  0.00    -0.237 OA
ATOM     89  O   UNL     1      14.583  13.159 -11.495  1.00  0.00    -0.237 OA
ATOM     90  O   UNL     1      14.249  15.514 -12.140  1.00  0.00    -0.744 OA
ENDBRANCH  83  87
ENDBRANCH  57  80
ENDBRANCH  31  32
ENDBRANCH  24  26
ENDBRANCH  23  24
ENDBRANCH  22  23
ENDBRANCH  21  22
ENDBRANCH   1  21
TORSDOF 21
