REMARK SMILES C[C@H]1[C@H](C(=O)OCCOCCOC(=O)c2ccc(-c3c4nc(c(-c5cc(S(=O)(=O)[O-])ccc5F)c5ccc([nH]5)c(-c5cc(S(=O)(=O)[O-])ccc5F)c5nc(c(-c6cc(S(=O)(=O)[O-])ccc6F)c6ccc3[nH]6)C=C5)C=C4)cc2)CCN1S(=O)(=O)[C@@H](C)C#N
REMARK SMILES IDX 9 1 8 2 7 3 6 4 4 5 5 6 3 7 1 8 2 9 80 10 78 11 79 12 81 13
REMARK SMILES IDX 82 14 83 15 84 16 85 17 86 18 87 19 10 20 11 21 12 22 13 23
REMARK SMILES IDX 14 24 15 25 16 26 77 27 17 28 76 29 18 30 19 31 20 32 70 33
REMARK SMILES IDX 21 34 75 35 69 36 71 37 22 38 74 39 68 40 67 41 23 43 55 44
REMARK SMILES IDX 35 45 54 46 36 47 39 48 53 49 72 50 37 51 38 52 52 54 73 55
REMARK SMILES IDX 40 56 24 57 25 58 33 59 26 60 32 61 34 62 31 63 27 64 28 65
REMARK SMILES IDX 29 66 30 67 56 68 57 69 65 70 58 71 64 72 66 73 63 74 59 75
REMARK SMILES IDX 60 76 61 77 62 78 41 79 42 80 50 81 43 82 49 83 51 84 48 85
REMARK SMILES IDX 44 86 45 87 46 88 47 89
REMARK H PARENT 71 42 39 53
REMARK Flexibility Score: inf
ROOT
ATOM      1  O   UNL     1       0.966   4.844   2.149  1.00  0.00    -0.374 OA
ENDROOT
BRANCH   1   2
ATOM      2  C   UNL     1       0.042   4.488   3.177  1.00  0.00     0.202 C 
BRANCH   2   3
ATOM      3  C   UNL     1      -1.123   3.580   2.763  1.00  0.00     0.261 C 
BRANCH   3   4
ATOM      4  O   UNL     1      -0.734   2.450   1.966  1.00  0.00    -0.463 OA
BRANCH   4   5
ATOM      5  C   UNL     1      -1.070   2.496   0.653  1.00  0.00     0.310 C 
ATOM      6  O   UNL     1      -1.657   3.424   0.105  1.00  0.00    -0.252 OA
BRANCH   5   7
ATOM      7  C   UNL     1      -0.717   1.234  -0.106  1.00  0.00     0.118 C 
ATOM      8  C   UNL     1       1.640   0.346  -0.382  1.00  0.00     0.027 C 
ATOM      9  C   UNL     1       0.385   0.344   0.498  1.00  0.00     0.084 C 
ATOM     10  N   UNL     1      -0.159  -1.071   0.504  1.00  0.00    -0.197 NA
ATOM     11  C   UNL     1      -1.942   0.339  -0.201  1.00  0.00     0.034 C 
ATOM     12  C   UNL     1      -1.355  -1.042  -0.390  1.00  0.00     0.103 C 
BRANCH  10  13
ATOM     13  S   UNL     1      -0.457  -1.769   2.040  1.00  0.00     0.230 S 
ATOM     14  O   UNL     1      -0.993  -0.734   2.893  1.00  0.00    -0.211 OA
ATOM     15  O   UNL     1      -1.233  -2.973   1.796  1.00  0.00    -0.211 OA
BRANCH  13  16
ATOM     16  C   UNL     1       1.136  -2.322   2.654  1.00  0.00     0.223 C 
ATOM     17  C   UNL     1       1.801  -3.328   1.729  1.00  0.00     0.043 C 
BRANCH  16  18
ATOM     18  C   UNL     1       2.017  -1.098   2.842  1.00  0.00     0.083 C 
ATOM     19  N   UNL     1       2.748  -0.082   2.998  1.00  0.00    -0.197 NA
ENDBRANCH  16  18
ENDBRANCH  13  16
ENDBRANCH  10  13
ENDBRANCH   5   7
ENDBRANCH   4   5
ENDBRANCH   3   4
ENDBRANCH   2   3
ENDBRANCH   1   2
BRANCH   1  20
ATOM     20  C   UNL     1       1.944   3.864   1.786  1.00  0.00     0.202 C 
BRANCH  20  21
ATOM     21  C   UNL     1       2.906   3.431   2.893  1.00  0.00     0.261 C 
BRANCH  21  22
ATOM     22  O   UNL     1       2.213   2.665   3.889  1.00  0.00    -0.460 OA
BRANCH  22  23
ATOM     23  C   UNL     1       2.966   2.381   4.973  1.00  0.00     0.338 C 
ATOM     24  O   UNL     1       4.146   2.656   5.142  1.00  0.00    -0.246 OA
BRANCH  23  25
ATOM     25  C   UNL     1       2.127   1.733   5.993  1.00  0.00     0.060 A 
ATOM     26  C   UNL     1       1.364   2.524   6.855  1.00  0.00     0.016 A 
ATOM     27  C   UNL     1       2.221   0.354   6.193  1.00  0.00     0.016 A 
ATOM     28  C   UNL     1       0.762   1.938   7.971  1.00  0.00     0.010 A 
ATOM     29  C   UNL     1       1.562  -0.240   7.270  1.00  0.00     0.010 A 
ATOM     30  C   UNL     1       0.893   0.559   8.210  1.00  0.00    -0.014 A 
BRANCH  30  31
ATOM     31  C   UNL     1       0.507  -0.006   9.533  1.00  0.00     0.031 A 
ATOM     32  C   UNL     1       1.592  -0.421  10.499  1.00  0.00     0.074 A 
ATOM     33  C   UNL     1      -0.787  -0.115   9.887  1.00  0.00     0.049 A 
ATOM     34  N   UNL     1       1.487  -0.895  11.715  1.00  0.00    -0.248 NA
ATOM     35  C   UNL     1       2.979  -0.303  10.023  1.00  0.00     0.031 C 
ATOM     36  C   UNL     1      -1.927   0.233   9.040  1.00  0.00     0.029 A 
ATOM     37  N   UNL     1      -1.358  -0.544  11.059  1.00  0.00    -0.354 N 
ATOM     38  C   UNL     1       2.790  -1.135  12.143  1.00  0.00     0.074 A 
ATOM     39  C   UNL     1       3.661  -0.818  11.033  1.00  0.00     0.031 C 
ATOM     40  C   UNL     1      -3.062   0.024   9.730  1.00  0.00     0.029 A 
ATOM     41  C   UNL     1      -2.732  -0.492  11.057  1.00  0.00     0.049 A 
ATOM     42  H   UNL     1      -0.833  -0.860  11.830  1.00  0.00     0.167 HD
ATOM     43  C   UNL     1       3.228  -1.554  13.357  1.00  0.00     0.034 A 
ATOM     44  C   UNL     1      -3.621  -0.818  12.017  1.00  0.00     0.034 A 
ATOM     45  C   UNL     1       2.354  -1.855  14.465  1.00  0.00     0.049 A 
ATOM     46  C   UNL     1      -3.115  -1.290  13.357  1.00  0.00     0.074 A 
ATOM     47  C   UNL     1       2.691  -2.251  15.748  1.00  0.00     0.029 A 
ATOM     48  N   UNL     1       0.968  -1.794  14.421  1.00  0.00    -0.354 N 
ATOM     49  N   UNL     1      -1.878  -1.472  13.759  1.00  0.00    -0.248 NA
ATOM     50  C   UNL     1      -4.128  -1.581  14.380  1.00  0.00     0.031 C 
ATOM     51  C   UNL     1       1.508  -2.485  16.460  1.00  0.00     0.029 A 
ATOM     52  C   UNL     1       0.434  -2.168  15.645  1.00  0.00     0.049 A 
ATOM     53  H   UNL     1       0.440  -1.524  13.635  1.00  0.00     0.167 HD
ATOM     54  C   UNL     1      -1.966  -1.869  15.092  1.00  0.00     0.074 A 
ATOM     55  C   UNL     1      -3.375  -1.883  15.427  1.00  0.00     0.031 C 
ATOM     56  C   UNL     1      -0.974  -2.190  15.962  1.00  0.00     0.034 A 
BRANCH  43  57
ATOM     57  C   UNL     1       4.718  -1.737  13.530  1.00  0.00     0.023 A 
ATOM     58  C   UNL     1       5.612  -0.655  13.437  1.00  0.00     0.031 A 
ATOM     59  C   UNL     1       5.256  -3.017  13.754  1.00  0.00     0.131 A 
ATOM     60  C   UNL     1       6.996  -0.883  13.488  1.00  0.00     0.055 A 
ATOM     61  C   UNL     1       6.631  -3.225  13.884  1.00  0.00     0.041 A 
ATOM     62  F   UNL     1       4.455  -4.091  13.832  1.00  0.00    -0.206 F 
ATOM     63  C   UNL     1       7.511  -2.157  13.735  1.00  0.00     0.022 A 
BRANCH  60  64
ATOM     64  S   UNL     1       8.116   0.486  13.084  1.00  0.00     0.124 S 
ATOM     65  O   UNL     1       7.700   0.816  11.724  1.00  0.00    -0.237 OA
ATOM     66  O   UNL     1       7.793   1.472  14.109  1.00  0.00    -0.237 OA
ATOM     67  O   UNL     1       9.444  -0.115  13.193  1.00  0.00    -0.744 OA
ENDBRANCH  60  64
ENDBRANCH  43  57
BRANCH  44  68
ATOM     68  C   UNL     1      -5.084  -0.710  11.756  1.00  0.00     0.023 A 
ATOM     69  C   UNL     1      -5.880   0.217  12.447  1.00  0.00     0.031 A 
ATOM     70  C   UNL     1      -5.715  -1.572  10.842  1.00  0.00     0.131 A 
ATOM     71  C   UNL     1      -7.269   0.231  12.248  1.00  0.00     0.055 A 
ATOM     72  C   UNL     1      -7.091  -1.522  10.612  1.00  0.00     0.041 A 
ATOM     73  F   UNL     1      -4.998  -2.474  10.153  1.00  0.00    -0.206 F 
ATOM     74  C   UNL     1      -7.878  -0.625  11.328  1.00  0.00     0.022 A 
BRANCH  71  75
ATOM     75  S   UNL     1      -8.283   1.337  13.268  1.00  0.00     0.124 S 
ATOM     76  O   UNL     1      -7.953   0.885  14.615  1.00  0.00    -0.237 OA
ATOM     77  O   UNL     1      -7.772   2.650  12.889  1.00  0.00    -0.237 OA
ATOM     78  O   UNL     1      -9.647   1.050  12.829  1.00  0.00    -0.744 OA
ENDBRANCH  71  75
ENDBRANCH  44  68
BRANCH  56  79
ATOM     79  C   UNL     1      -1.387  -2.542  17.370  1.00  0.00     0.023 A 
ATOM     80  C   UNL     1      -2.126  -3.704  17.655  1.00  0.00     0.031 A 
ATOM     81  C   UNL     1      -1.061  -1.687  18.438  1.00  0.00     0.131 A 
ATOM     82  C   UNL     1      -2.568  -3.947  18.964  1.00  0.00     0.055 A 
ATOM     83  C   UNL     1      -1.454  -1.964  19.748  1.00  0.00     0.041 A 
ATOM     84  F   UNL     1      -0.357  -0.564  18.223  1.00  0.00    -0.206 F 
ATOM     85  C   UNL     1      -2.226  -3.092  20.015  1.00  0.00     0.022 A 
BRANCH  82  86
ATOM     86  S   UNL     1      -3.689  -5.343  19.260  1.00  0.00     0.124 S 
ATOM     87  O   UNL     1      -4.783  -5.056  18.338  1.00  0.00    -0.237 OA
ATOM     88  O   UNL     1      -2.854  -6.490  18.919  1.00  0.00    -0.237 OA
ATOM     89  O   UNL     1      -4.025  -5.220  20.677  1.00  0.00    -0.744 OA
ENDBRANCH  82  86
ENDBRANCH  56  79
ENDBRANCH  30  31
ENDBRANCH  23  25
ENDBRANCH  22  23
ENDBRANCH  21  22
ENDBRANCH  20  21
ENDBRANCH   1  20
TORSDOF 20
