REMARK SMILES O=C(OCCOCCOC(=O)c1nccnc1C(=O)Nc1n[nH]c2ncccc12)c1ccc(-c2c3nc(c(-c4cc(S(=O)(=O)[O-])ccc4F)c4ccc([nH]4)c(-c4cc(S(=O)(=O)[O-])ccc4F)c4nc(c(-c5cc(S(=O)(=O)[O-])ccc5F)c5ccc2[nH]5)C=C4)C=C3)cc1
REMARK SMILES IDX 5 1 4 2 3 3 2 4 1 5 30 6 31 7 92 8 32 9 91 10 33 11 34 12
REMARK SMILES IDX 35 13 85 14 36 15 90 16 84 17 86 18 37 19 89 20 83 21 82 22
REMARK SMILES IDX 38 24 70 25 50 26 69 27 51 28 54 29 68 30 87 31 52 32 53 33
REMARK SMILES IDX 67 35 88 36 55 37 39 38 40 39 48 40 41 41 47 42 49 43 46 44
REMARK SMILES IDX 42 45 43 46 44 47 45 48 71 49 72 50 80 51 73 52 79 53 81 54
REMARK SMILES IDX 78 55 74 56 75 57 76 58 77 59 56 60 57 61 65 62 58 63 64 64
REMARK SMILES IDX 66 65 63 66 59 67 60 68 61 69 62 70 6 71 7 72 8 73 9 74
REMARK SMILES IDX 10 75 11 76 12 77 13 78 17 79 14 80 16 81 15 82 18 83 19 84
REMARK SMILES IDX 20 85 21 87 22 88 29 89 23 90 24 91 28 92 25 94 27 95 26 96
REMARK H PARENT 86 23 54 34 20 86 23 93
REMARK Flexibility Score: inf
ROOT
ATOM      1  C   UNL     1       4.243  -1.206   0.384  1.00  0.00     0.202 C 
ENDROOT
BRANCH   1   2
ATOM      2  C   UNL     1       3.596  -1.136   1.765  1.00  0.00     0.261 C 
BRANCH   2   3
ATOM      3  O   UNL     1       2.200  -0.798   1.707  1.00  0.00    -0.460 OA
BRANCH   3   4
ATOM      4  C   UNL     1       1.677   0.443   1.894  1.00  0.00     0.338 C 
ATOM      5  O   UNL     1       0.460   0.585   1.965  1.00  0.00    -0.246 OA
BRANCH   4   6
ATOM      6  C   UNL     1       2.537   1.647   2.024  1.00  0.00     0.060 A 
ATOM      7  C   UNL     1       3.534   1.984   1.109  1.00  0.00     0.016 A 
ATOM      8  C   UNL     1       2.250   2.550   3.049  1.00  0.00     0.016 A 
ATOM      9  C   UNL     1       4.360   3.076   1.293  1.00  0.00     0.010 A 
ATOM     10  C   UNL     1       3.010   3.715   3.186  1.00  0.00     0.010 A 
ATOM     11  C   UNL     1       4.106   3.950   2.338  1.00  0.00    -0.014 A 
BRANCH  11  12
ATOM     12  C   UNL     1       5.116   4.978   2.649  1.00  0.00     0.031 A 
ATOM     13  C   UNL     1       5.878   4.808   3.927  1.00  0.00     0.074 A 
ATOM     14  C   UNL     1       5.422   5.944   1.766  1.00  0.00     0.049 A 
ATOM     15  N   UNL     1       6.636   5.652   4.566  1.00  0.00    -0.248 NA
ATOM     16  C   UNL     1       5.738   3.499   4.587  1.00  0.00     0.031 C 
ATOM     17  C   UNL     1       4.864   6.071   0.416  1.00  0.00     0.029 A 
ATOM     18  N   UNL     1       6.301   6.989   1.859  1.00  0.00    -0.354 N 
ATOM     19  C   UNL     1       6.992   5.008   5.747  1.00  0.00     0.074 A 
ATOM     20  C   UNL     1       6.363   3.707   5.731  1.00  0.00     0.031 C 
ATOM     21  C   UNL     1       5.442   7.112  -0.203  1.00  0.00     0.029 A 
ATOM     22  C   UNL     1       6.319   7.792   0.742  1.00  0.00     0.049 A 
ATOM     23  H   UNL     1       6.866   7.149   2.648  1.00  0.00     0.167 HD
ATOM     24  C   UNL     1       7.760   5.489   6.753  1.00  0.00     0.034 A 
ATOM     25  C   UNL     1       6.933   8.975   0.545  1.00  0.00     0.034 A 
ATOM     26  C   UNL     1       8.379   6.789   6.681  1.00  0.00     0.049 A 
ATOM     27  C   UNL     1       7.715   9.539   1.706  1.00  0.00     0.074 A 
ATOM     28  C   UNL     1       9.120   7.459   7.634  1.00  0.00     0.029 A 
ATOM     29  N   UNL     1       8.327   7.617   5.560  1.00  0.00    -0.354 N 
ATOM     30  N   UNL     1       7.930   9.009   2.892  1.00  0.00    -0.248 NA
ATOM     31  C   UNL     1       8.315  10.861   1.517  1.00  0.00     0.031 C 
ATOM     32  C   UNL     1       9.461   8.714   7.112  1.00  0.00     0.029 A 
ATOM     33  C   UNL     1       9.007   8.796   5.802  1.00  0.00     0.049 A 
ATOM     34  H   UNL     1       7.871   7.393   4.716  1.00  0.00     0.167 HD
ATOM     35  C   UNL     1       8.715   9.924   3.583  1.00  0.00     0.074 A 
ATOM     36  C   UNL     1       8.945  11.031   2.670  1.00  0.00     0.031 C 
ATOM     37  C   UNL     1       9.205   9.867   4.850  1.00  0.00     0.034 A 
BRANCH  24  38
ATOM     38  C   UNL     1       7.830   4.656   8.013  1.00  0.00     0.023 A 
ATOM     39  C   UNL     1       8.338   3.344   8.022  1.00  0.00     0.031 A 
ATOM     40  C   UNL     1       7.231   5.132   9.194  1.00  0.00     0.131 A 
ATOM     41  C   UNL     1       8.122   2.517   9.138  1.00  0.00     0.055 A 
ATOM     42  C   UNL     1       7.115   4.337  10.337  1.00  0.00     0.041 A 
ATOM     43  F   UNL     1       6.696   6.362   9.242  1.00  0.00    -0.206 F 
ATOM     44  C   UNL     1       7.538   3.013  10.305  1.00  0.00     0.022 A 
BRANCH  41  45
ATOM     45  S   UNL     1       8.411   0.732   8.963  1.00  0.00     0.124 S 
ATOM     46  O   UNL     1       7.504   0.393   7.867  1.00  0.00    -0.237 OA
ATOM     47  O   UNL     1       9.835   0.670   8.655  1.00  0.00    -0.237 OA
ATOM     48  O   UNL     1       8.029   0.192  10.266  1.00  0.00    -0.744 OA
ENDBRANCH  41  45
ENDBRANCH  24  38
BRANCH  25  49
ATOM     49  C   UNL     1       6.773   9.723  -0.738  1.00  0.00     0.023 A 
ATOM     50  C   UNL     1       7.881  10.044  -1.538  1.00  0.00     0.031 A 
ATOM     51  C   UNL     1       5.506  10.157  -1.176  1.00  0.00     0.131 A 
ATOM     52  C   UNL     1       7.708  10.796  -2.712  1.00  0.00     0.055 A 
ATOM     53  C   UNL     1       5.332  10.856  -2.373  1.00  0.00     0.041 A 
ATOM     54  F   UNL     1       4.407   9.890  -0.452  1.00  0.00    -0.206 F 
ATOM     55  C   UNL     1       6.439  11.189  -3.143  1.00  0.00     0.022 A 
BRANCH  52  56
ATOM     56  S   UNL     1       9.178  11.322  -3.637  1.00  0.00     0.124 S 
ATOM     57  O   UNL     1       9.910  12.078  -2.627  1.00  0.00    -0.237 OA
ATOM     58  O   UNL     1       9.761  10.044  -4.032  1.00  0.00    -0.237 OA
ATOM     59  O   UNL     1       8.625  12.117  -4.732  1.00  0.00    -0.744 OA
ENDBRANCH  52  56
ENDBRANCH  25  49
BRANCH  37  60
ATOM     60  C   UNL     1      10.090  11.010   5.274  1.00  0.00     0.023 A 
ATOM     61  C   UNL     1       9.588  12.309   5.448  1.00  0.00     0.031 A 
ATOM     62  C   UNL     1      11.460  10.786   5.496  1.00  0.00     0.131 A 
ATOM     63  C   UNL     1      10.465  13.353   5.769  1.00  0.00     0.055 A 
ATOM     64  C   UNL     1      12.315  11.815   5.885  1.00  0.00     0.041 A 
ATOM     65  F   UNL     1      11.986   9.560   5.341  1.00  0.00    -0.206 F 
ATOM     66  C   UNL     1      11.821  13.111   6.008  1.00  0.00     0.022 A 
BRANCH  63  67
ATOM     67  S   UNL     1       9.831  15.051   5.760  1.00  0.00     0.124 S 
ATOM     68  O   UNL     1       9.318  15.174   4.399  1.00  0.00    -0.237 OA
ATOM     69  O   UNL     1       8.827  15.014   6.819  1.00  0.00    -0.237 OA
ATOM     70  O   UNL     1      11.013  15.859   6.053  1.00  0.00    -0.744 OA
ENDBRANCH  63  67
ENDBRANCH  37  60
ENDBRANCH  11  12
ENDBRANCH   4   6
ENDBRANCH   3   4
ENDBRANCH   2   3
ENDBRANCH   1   2
BRANCH   1  71
ATOM     71  O   UNL     1       3.686  -0.351  -0.599  1.00  0.00    -0.374 OA
BRANCH  71  72
ATOM     72  C   UNL     1       2.414  -0.647  -1.165  1.00  0.00     0.202 C 
BRANCH  72  73
ATOM     73  C   UNL     1       2.246  -0.090  -2.742  1.00  0.00     0.261 C 
BRANCH  73  74
ATOM     74  O   UNL     1       3.341  -0.566  -4.396  1.00  0.00    -0.458 OA
BRANCH  74  75
ATOM     75  C   UNL     1       4.362  -1.081  -5.263  1.00  0.00     0.359 C 
ATOM     76  O   UNL     1       4.574  -0.560  -6.358  1.00  0.00    -0.244 OA
BRANCH  75  77
ATOM     77  C   UNL     1       5.132  -2.341  -4.932  1.00  0.00     0.179 A 
ATOM     78  N   UNL     1       4.566  -3.384  -5.650  1.00  0.00    -0.245 NA
ATOM     79  C   UNL     1       6.173  -2.569  -4.008  1.00  0.00     0.161 A 
ATOM     80  C   UNL     1       5.040  -4.624  -5.439  1.00  0.00     0.132 A 
ATOM     81  N   UNL     1       6.584  -3.875  -3.808  1.00  0.00    -0.247 NA
ATOM     82  C   UNL     1       6.027  -4.868  -4.524  1.00  0.00     0.132 A 
BRANCH  79  83
ATOM     83  C   UNL     1       7.036  -1.679  -3.103  1.00  0.00     0.278 C 
ATOM     84  O   UNL     1       8.068  -2.178  -2.630  1.00  0.00    -0.267 OA
ATOM     85  N   UNL     1       6.840  -0.367  -2.769  1.00  0.00    -0.303 N 
ATOM     86  H   UNL     1       7.634   0.104  -2.427  1.00  0.00     0.172 HD
BRANCH  85  87
ATOM     87  C   UNL     1       5.712   0.373  -2.843  1.00  0.00     0.164 A 
ATOM     88  N   UNL     1       5.796   1.701  -3.006  1.00  0.00    -0.155 NA
ATOM     89  C   UNL     1       4.425  -0.149  -2.919  1.00  0.00     0.063 A 
ATOM     90  N   UNL     1       4.665   2.128  -3.641  1.00  0.00    -0.259 N 
ATOM     91  C   UNL     1       3.713   1.169  -3.799  1.00  0.00     0.157 A 
ATOM     92  C   UNL     1       3.575  -1.772  -2.929  1.00  0.00     0.017 A 
ATOM     93  H   UNL     1       4.548   3.053  -3.958  1.00  0.00     0.192 HD
ATOM     94  N   UNL     1       2.263   1.056  -4.699  1.00  0.00    -0.237 NA
ATOM     95  C   UNL     1       2.079  -1.950  -3.893  1.00  0.00     0.021 A 
ATOM     96  C   UNL     1       1.509  -0.526  -4.767  1.00  0.00     0.113 A 
ENDBRANCH  85  87
ENDBRANCH  79  83
ENDBRANCH  75  77
ENDBRANCH  74  75
ENDBRANCH  73  74
ENDBRANCH  72  73
ENDBRANCH  71  72
ENDBRANCH   1  71
TORSDOF 19
