REMARK SMILES CCCCN(c1ccccc1C(=O)OCCOCCOC(=O)c1ccc(-c2c3nc(c(-c4cc(S(=O)(=O)[O-])ccc4F)c4ccc([nH]4)c(-c4cc(S(=O)(=O)[O-])ccc4F)c4nc(c(-c5cc(S(=O)(=O)[O-])ccc5F)c5ccc2[nH]5)C=C4)C=C3)cc1)S(=O)(=O)c1ccc2c(c1)oc(=O)n2C
REMARK SMILES IDX 16 1 15 2 14 3 12 4 13 5 11 6 6 7 7 8 8 9 10 10 9 11 5 12
REMARK SMILES IDX 4 13 3 14 2 15 1 16 86 17 87 18 88 19 89 20 90 21 94 22
REMARK SMILES IDX 91 23 93 24 92 25 95 26 98 27 96 28 99 29 97 30 17 31 18 32
REMARK SMILES IDX 19 33 20 34 21 35 22 36 23 37 24 38 85 39 25 40 84 41 26 42
REMARK SMILES IDX 27 43 28 44 78 45 29 46 83 47 77 48 79 49 30 50 82 51 76 52
REMARK SMILES IDX 75 53 31 55 63 56 43 57 62 58 44 59 47 60 61 61 80 62 45 63
REMARK SMILES IDX 46 64 60 66 81 67 48 68 32 69 33 70 41 71 34 72 40 73 42 74
REMARK SMILES IDX 39 75 35 76 36 77 37 78 38 79 64 80 65 81 73 82 66 83 72 84
REMARK SMILES IDX 74 85 71 86 67 87 68 88 69 89 70 90 49 91 50 92 58 93 51 94
REMARK SMILES IDX 57 95 59 96 56 97 52 98 53 99 54 100 55 101
REMARK H PARENT 79 54 47 65
REMARK Flexibility Score: inf
ROOT
ATOM      1  C   UNL     1       1.905  -4.465  -3.898  1.00  0.00     0.202 C 
ENDROOT
BRANCH   1   2
ATOM      2  C   UNL     1       1.941  -2.976  -4.249  1.00  0.00     0.261 C 
BRANCH   2   3
ATOM      3  O   UNL     1       0.651  -2.353  -4.119  1.00  0.00    -0.460 OA
BRANCH   3   4
ATOM      4  C   UNL     1       0.258  -1.646  -5.200  1.00  0.00     0.340 C 
ATOM      5  O   UNL     1       0.897  -1.468  -6.227  1.00  0.00    -0.246 OA
BRANCH   4   6
ATOM      6  C   UNL     1      -1.142  -1.191  -5.098  1.00  0.00     0.084 A 
ATOM      7  C   UNL     1      -1.643  -0.233  -4.195  1.00  0.00     0.066 A 
ATOM      8  C   UNL     1      -2.861   0.374  -4.553  1.00  0.00     0.028 A 
ATOM      9  C   UNL     1      -3.649  -0.083  -5.616  1.00  0.00     0.002 A 
ATOM     10  C   UNL     1      -1.934  -1.643  -6.179  1.00  0.00     0.018 A 
ATOM     11  C   UNL     1      -3.201  -1.124  -6.411  1.00  0.00     0.001 A 
BRANCH   7  12
ATOM     12  N   UNL     1      -1.038   0.208  -2.945  1.00  0.00    -0.265 N 
BRANCH  12  13
ATOM     13  C   UNL     1       0.447   0.203  -2.770  1.00  0.00     0.136 C 
BRANCH  13  14
ATOM     14  C   UNL     1       1.058   1.432  -2.091  1.00  0.00     0.022 C 
BRANCH  14  15
ATOM     15  C   UNL     1       1.050   1.516  -0.561  1.00  0.00    -0.002 C 
ATOM     16  C   UNL     1       1.587   0.291   0.156  1.00  0.00     0.004 C 
ENDBRANCH  14  15
ENDBRANCH  13  14
ENDBRANCH  12  13
BRANCH  12  17
ATOM     17  S   UNL     1      -1.944   0.157  -1.479  1.00  0.00     0.264 S 
ATOM     18  O   UNL     1      -1.330  -0.813  -0.597  1.00  0.00    -0.201 OA
ATOM     19  O   UNL     1      -2.135   1.532  -1.059  1.00  0.00    -0.201 OA
BRANCH  17  20
ATOM     20  C   UNL     1      -3.590  -0.474  -1.772  1.00  0.00     0.091 A 
ATOM     21  C   UNL     1      -4.668   0.442  -1.879  1.00  0.00     0.025 A 
ATOM     22  C   UNL     1      -3.819  -1.853  -1.720  1.00  0.00     0.071 A 
ATOM     23  C   UNL     1      -5.979  -0.011  -2.039  1.00  0.00     0.032 A 
ATOM     24  C   UNL     1      -5.128  -2.268  -1.851  1.00  0.00     0.157 A 
ATOM     25  C   UNL     1      -6.170  -1.375  -2.026  1.00  0.00     0.090 A 
ATOM     26  O   UNL     1      -5.555  -3.588  -1.830  1.00  0.00    -0.408 OA
ATOM     27  N   UNL     1      -7.303  -2.140  -2.158  1.00  0.00    -0.277 N 
ATOM     28  C   UNL     1      -6.936  -3.464  -2.037  1.00  0.00     0.419 A 
ATOM     29  C   UNL     1      -8.627  -1.680  -2.453  1.00  0.00     0.157 C 
ATOM     30  O   UNL     1      -7.691  -4.427  -2.121  1.00  0.00    -0.223 OA
ENDBRANCH  17  20
ENDBRANCH  12  17
ENDBRANCH   7  12
ENDBRANCH   4   6
ENDBRANCH   3   4
ENDBRANCH   2   3
ENDBRANCH   1   2
BRANCH   1  31
ATOM     31  O   UNL     1       0.968  -5.290  -4.583  1.00  0.00    -0.374 OA
BRANCH  31  32
ATOM     32  C   UNL     1      -0.418  -4.989  -4.467  1.00  0.00     0.202 C 
BRANCH  32  33
ATOM     33  C   UNL     1      -1.108  -5.054  -3.093  1.00  0.00     0.261 C 
BRANCH  33  34
ATOM     34  O   UNL     1      -0.465  -4.330  -2.031  1.00  0.00    -0.460 OA
BRANCH  34  35
ATOM     35  C   UNL     1       0.171  -5.128  -1.133  1.00  0.00     0.338 C 
ATOM     36  O   UNL     1       0.274  -6.343  -1.187  1.00  0.00    -0.246 OA
BRANCH  35  37
ATOM     37  C   UNL     1       0.890  -4.336  -0.118  1.00  0.00     0.060 A 
ATOM     38  C   UNL     1       2.282  -4.474  -0.047  1.00  0.00     0.016 A 
ATOM     39  C   UNL     1       0.200  -3.620   0.859  1.00  0.00     0.016 A 
ATOM     40  C   UNL     1       2.984  -3.942   1.032  1.00  0.00     0.010 A 
ATOM     41  C   UNL     1       0.908  -3.087   1.944  1.00  0.00     0.010 A 
ATOM     42  C   UNL     1       2.298  -3.281   2.059  1.00  0.00    -0.014 A 
BRANCH  42  43
ATOM     43  C   UNL     1       3.020  -2.922   3.309  1.00  0.00     0.031 A 
ATOM     44  C   UNL     1       2.789  -3.734   4.554  1.00  0.00     0.074 A 
ATOM     45  C   UNL     1       3.897  -1.902   3.327  1.00  0.00     0.049 A 
ATOM     46  N   UNL     1       3.294  -3.582   5.751  1.00  0.00    -0.248 NA
ATOM     47  C   UNL     1       1.865  -4.871   4.431  1.00  0.00     0.031 C 
ATOM     48  C   UNL     1       4.248  -1.081   2.172  1.00  0.00     0.029 A 
ATOM     49  N   UNL     1       4.641  -1.372   4.352  1.00  0.00    -0.354 N 
ATOM     50  C   UNL     1       2.745  -4.598   6.528  1.00  0.00     0.074 A 
ATOM     51  C   UNL     1       1.833  -5.329   5.673  1.00  0.00     0.031 C 
ATOM     52  C   UNL     1       5.099  -0.117   2.559  1.00  0.00     0.029 A 
ATOM     53  C   UNL     1       5.345  -0.247   3.993  1.00  0.00     0.049 A 
ATOM     54  H   UNL     1       4.667  -1.760   5.256  1.00  0.00     0.167 HD
ATOM     55  C   UNL     1       2.991  -4.898   7.828  1.00  0.00     0.034 A 
ATOM     56  C   UNL     1       6.085   0.599   4.736  1.00  0.00     0.034 A 
ATOM     57  C   UNL     1       3.899  -4.146   8.665  1.00  0.00     0.049 A 
ATOM     58  C   UNL     1       6.288   0.296   6.198  1.00  0.00     0.074 A 
ATOM     59  C   UNL     1       4.258  -4.387   9.980  1.00  0.00     0.029 A 
ATOM     60  N   UNL     1       4.574  -2.993   8.278  1.00  0.00    -0.354 N 
ATOM     61  N   UNL     1       5.798  -0.692   6.912  1.00  0.00    -0.248 NA
ATOM     62  C   UNL     1       7.166   1.203   6.946  1.00  0.00     0.031 C 
ATOM     63  C   UNL     1       5.069  -3.332  10.414  1.00  0.00     0.029 A 
ATOM     64  C   UNL     1       5.304  -2.485   9.343  1.00  0.00     0.049 A 
ATOM     65  H   UNL     1       4.538  -2.595   7.378  1.00  0.00     0.167 HD
ATOM     66  C   UNL     1       6.335  -0.542   8.188  1.00  0.00     0.074 A 
ATOM     67  C   UNL     1       7.196   0.623   8.137  1.00  0.00     0.031 C 
ATOM     68  C   UNL     1       6.143  -1.306   9.294  1.00  0.00     0.034 A 
BRANCH  55  69
ATOM     69  C   UNL     1       2.215  -6.046   8.435  1.00  0.00     0.023 A 
ATOM     70  C   UNL     1       2.316  -7.361   7.945  1.00  0.00     0.031 A 
ATOM     71  C   UNL     1       1.320  -5.811   9.495  1.00  0.00     0.131 A 
ATOM     72  C   UNL     1       1.474  -8.365   8.450  1.00  0.00     0.055 A 
ATOM     73  C   UNL     1       0.553  -6.835  10.056  1.00  0.00     0.041 A 
ATOM     74  F   UNL     1       1.160  -4.575   9.995  1.00  0.00    -0.206 F 
ATOM     75  C   UNL     1       0.612  -8.117   9.520  1.00  0.00     0.022 A 
BRANCH  72  76
ATOM     76  S   UNL     1       1.393  -9.951   7.572  1.00  0.00     0.124 S 
ATOM     77  O   UNL     1       1.046  -9.523   6.218  1.00  0.00    -0.237 OA
ATOM     78  O   UNL     1       2.741 -10.479   7.750  1.00  0.00    -0.237 OA
ATOM     79  O   UNL     1       0.339 -10.679   8.275  1.00  0.00    -0.744 OA
ENDBRANCH  72  76
ENDBRANCH  55  69
BRANCH  56  80
ATOM     80  C   UNL     1       6.658   1.827   4.113  1.00  0.00     0.023 A 
ATOM     81  C   UNL     1       8.043   2.009   3.979  1.00  0.00     0.031 A 
ATOM     82  C   UNL     1       5.809   2.850   3.650  1.00  0.00     0.131 A 
ATOM     83  C   UNL     1       8.539   3.201   3.426  1.00  0.00     0.055 A 
ATOM     84  C   UNL     1       6.306   4.010   3.056  1.00  0.00     0.041 A 
ATOM     85  F   UNL     1       4.476   2.724   3.752  1.00  0.00    -0.206 F 
ATOM     86  C   UNL     1       7.680   4.195   2.949  1.00  0.00     0.022 A 
BRANCH  83  87
ATOM     87  S   UNL     1      10.334   3.464   3.391  1.00  0.00     0.124 S 
ATOM     88  O   UNL     1      10.673   3.385   4.807  1.00  0.00    -0.237 OA
ATOM     89  O   UNL     1      10.787   2.354   2.559  1.00  0.00    -0.237 OA
ATOM     90  O   UNL     1      10.472   4.788   2.788  1.00  0.00    -0.744 OA
ENDBRANCH  83  87
ENDBRANCH  56  80
BRANCH  68  91
ATOM     91  C   UNL     1       6.917  -0.925  10.537  1.00  0.00     0.023 A 
ATOM     92  C   UNL     1       6.711   0.299  11.197  1.00  0.00     0.031 A 
ATOM     93  C   UNL     1       7.894  -1.795  11.055  1.00  0.00     0.131 A 
ATOM     94  C   UNL     1       7.515   0.648  12.293  1.00  0.00     0.055 A 
ATOM     95  C   UNL     1       8.639  -1.475  12.191  1.00  0.00     0.041 A 
ATOM     96  F   UNL     1       8.143  -2.975  10.464  1.00  0.00    -0.206 F 
ATOM     97  C   UNL     1       8.463  -0.240  12.808  1.00  0.00     0.022 A 
BRANCH  94  98
ATOM     98  S   UNL     1       7.394   2.329  12.964  1.00  0.00     0.124 S 
ATOM     99  O   UNL     1       7.678   3.145  11.787  1.00  0.00    -0.237 OA
ATOM    100  O   UNL     1       6.020   2.372  13.453  1.00  0.00    -0.237 OA
ATOM    101  O   UNL     1       8.422   2.360  14.002  1.00  0.00    -0.744 OA
ENDBRANCH  94  98
ENDBRANCH  68  91
ENDBRANCH  42  43
ENDBRANCH  35  37
ENDBRANCH  34  35
ENDBRANCH  33  34
ENDBRANCH  32  33
ENDBRANCH  31  32
ENDBRANCH   1  31
TORSDOF 23
