REMARK SMILES [NH3+][C@@H](Cc1ccc(F)cc1C(F)(F)F)C(=O)OCCOCCOC(=O)c1ccc(-c2c3nc(c(-c4cc(S(=O)(=O)[O-])ccc4F)c4ccc([nH]4)c(-c4cc(S(=O)(=O)[O-])ccc4F)c4nc(c(-c5cc(S(=O)(=O)[O-])ccc5F)c5ccc2[nH]5)C=C4)C=C3)cc1
REMARK SMILES IDX 20 1 19 2 18 3 17 4 15 5 16 6 2 7 1 8 3 12 4 13 5 14 10 15
REMARK SMILES IDX 6 16 9 17 7 18 8 19 11 20 12 21 13 22 14 23 21 24 22 25
REMARK SMILES IDX 23 26 24 27 25 28 26 29 27 30 88 31 28 32 87 33 29 34 30 35
REMARK SMILES IDX 31 36 81 37 32 38 86 39 80 40 82 41 33 42 85 43 79 44 78 45
REMARK SMILES IDX 34 47 66 48 46 49 65 50 47 51 50 52 64 53 83 54 48 55 49 56
REMARK SMILES IDX 63 58 84 59 51 60 35 61 36 62 44 63 37 64 43 65 45 66 42 67
REMARK SMILES IDX 38 68 39 69 40 70 41 71 67 72 68 73 76 74 69 75 75 76 77 77
REMARK SMILES IDX 74 78 70 79 71 80 72 81 73 82 52 83 53 84 61 85 54 86 60 87
REMARK SMILES IDX 62 88 59 89 55 90 56 91 57 92 58 93
REMARK H PARENT 1 9 1 10 1 11 82 46 50 57
REMARK Flexibility Score: inf
ROOT
ATOM      1  O   UNL     1      -3.376   1.101  -1.228  1.00  0.00    -0.374 OA
ENDROOT
BRANCH   1   2
ATOM      2  C   UNL     1      -3.626  -0.220  -0.741  1.00  0.00     0.202 C 
BRANCH   2   3
ATOM      3  C   UNL     1      -3.017  -1.343  -1.582  1.00  0.00     0.261 C 
BRANCH   3   4
ATOM      4  O   UNL     1      -1.595  -1.435  -1.362  1.00  0.00    -0.459 OA
BRANCH   4   5
ATOM      5  C   UNL     1      -0.794  -1.034  -2.384  1.00  0.00     0.365 C 
ATOM      6  O   UNL     1      -1.193  -0.643  -3.475  1.00  0.00    -0.245 OA
BRANCH   5   7
ATOM      7  C   UNL     1       0.689  -1.060  -1.997  1.00  0.00     0.296 C 
BRANCH   7   8
ATOM      8  N   UNL     1       1.156   0.191  -1.361  1.00  0.00    -0.346 N 
ATOM      9  H   UNL     1       2.146   0.107  -1.130  1.00  0.00     0.345 HD
ATOM     10  H   UNL     1       0.621   0.360  -0.508  1.00  0.00     0.345 HD
ATOM     11  H   UNL     1       1.022   0.971  -2.005  1.00  0.00     0.345 HD
ENDBRANCH   7   8
BRANCH   7  12
ATOM     12  C   UNL     1       1.194  -2.362  -1.345  1.00  0.00     0.113 C 
BRANCH  12  13
ATOM     13  C   UNL     1       0.638  -3.189  -0.187  1.00  0.00    -0.029 A 
ATOM     14  C   UNL     1       0.901  -4.583  -0.350  1.00  0.00     0.007 A 
ATOM     15  C   UNL     1       0.037  -2.794   1.032  1.00  0.00     0.062 A 
ATOM     16  C   UNL     1       0.580  -5.540   0.612  1.00  0.00     0.039 A 
ATOM     17  C   UNL     1      -0.283  -3.793   1.996  1.00  0.00     0.052 A 
ATOM     18  C   UNL     1      -0.012  -5.133   1.785  1.00  0.00     0.123 A 
ATOM     19  F   UNL     1      -0.311  -6.031   2.730  1.00  0.00    -0.207 F 
BRANCH  15  20
ATOM     20  C   UNL     1      -0.348  -1.414   1.506  1.00  0.00     0.416 C 
ATOM     21  F   UNL     1      -1.681  -1.331   1.759  1.00  0.00    -0.166 F 
ATOM     22  F   UNL     1       0.272  -1.081   2.675  1.00  0.00    -0.166 F 
ATOM     23  F   UNL     1      -0.068  -0.396   0.666  1.00  0.00    -0.166 F 
ENDBRANCH  15  20
ENDBRANCH  12  13
ENDBRANCH   7  12
ENDBRANCH   5   7
ENDBRANCH   4   5
ENDBRANCH   3   4
ENDBRANCH   2   3
ENDBRANCH   1   2
BRANCH   1  24
ATOM     24  C   UNL     1      -2.128   1.680  -0.851  1.00  0.00     0.202 C 
BRANCH  24  25
ATOM     25  C   UNL     1      -2.097   2.396   0.506  1.00  0.00     0.261 C 
BRANCH  25  26
ATOM     26  O   UNL     1      -2.389   1.512   1.602  1.00  0.00    -0.460 OA
BRANCH  26  27
ATOM     27  C   UNL     1      -3.685   1.537   1.999  1.00  0.00     0.338 C 
ATOM     28  O   UNL     1      -4.560   2.280   1.576  1.00  0.00    -0.246 OA
BRANCH  27  29
ATOM     29  C   UNL     1      -3.976   0.421   2.922  1.00  0.00     0.060 A 
ATOM     30  C   UNL     1      -5.187  -0.257   2.737  1.00  0.00     0.016 A 
ATOM     31  C   UNL     1      -3.135   0.082   3.987  1.00  0.00     0.016 A 
ATOM     32  C   UNL     1      -5.607  -1.204   3.666  1.00  0.00     0.010 A 
ATOM     33  C   UNL     1      -3.552  -0.883   4.913  1.00  0.00     0.010 A 
ATOM     34  C   UNL     1      -4.820  -1.483   4.792  1.00  0.00    -0.014 A 
BRANCH  34  35
ATOM     35  C   UNL     1      -5.438  -2.221   5.927  1.00  0.00     0.031 A 
ATOM     36  C   UNL     1      -5.876  -1.438   7.141  1.00  0.00     0.074 A 
ATOM     37  C   UNL     1      -5.712  -3.537   5.840  1.00  0.00     0.049 A 
ATOM     38  N   UNL     1      -6.481  -1.857   8.222  1.00  0.00    -0.248 NA
ATOM     39  C   UNL     1      -5.598   0.009   7.136  1.00  0.00     0.031 C 
ATOM     40  C   UNL     1      -5.389  -4.392   4.698  1.00  0.00     0.029 A 
ATOM     41  N   UNL     1      -6.347  -4.380   6.720  1.00  0.00    -0.354 N 
ATOM     42  C   UNL     1      -6.657  -0.731   9.019  1.00  0.00     0.074 A 
ATOM     43  C   UNL     1      -6.051   0.381   8.323  1.00  0.00     0.031 C 
ATOM     44  C   UNL     1      -5.848  -5.633   4.939  1.00  0.00     0.029 A 
ATOM     45  C   UNL     1      -6.466  -5.673   6.264  1.00  0.00     0.049 A 
ATOM     46  H   UNL     1      -6.685  -4.086   7.596  1.00  0.00     0.167 HD
ATOM     47  C   UNL     1      -7.289  -0.625  10.211  1.00  0.00     0.034 A 
ATOM     48  C   UNL     1      -7.002  -6.765   6.848  1.00  0.00     0.034 A 
ATOM     49  C   UNL     1      -7.916  -1.727  10.889  1.00  0.00     0.049 A 
ATOM     50  C   UNL     1      -7.620  -6.640   8.220  1.00  0.00     0.074 A 
ATOM     51  C   UNL     1      -8.604  -1.712  12.090  1.00  0.00     0.029 A 
ATOM     52  N   UNL     1      -7.934  -3.035  10.432  1.00  0.00    -0.354 N 
ATOM     53  N   UNL     1      -7.767  -5.567   8.962  1.00  0.00    -0.248 NA
ATOM     54  C   UNL     1      -8.141  -7.870   8.837  1.00  0.00     0.031 C 
ATOM     55  C   UNL     1      -8.974  -3.023  12.395  1.00  0.00     0.029 A 
ATOM     56  C   UNL     1      -8.584  -3.844  11.349  1.00  0.00     0.049 A 
ATOM     57  H   UNL     1      -7.542  -3.344   9.583  1.00  0.00     0.167 HD
ATOM     58  C   UNL     1      -8.411  -5.991  10.122  1.00  0.00     0.074 A 
ATOM     59  C   UNL     1      -8.633  -7.414   9.982  1.00  0.00     0.031 C 
ATOM     60  C   UNL     1      -8.789  -5.263  11.202  1.00  0.00     0.034 A 
BRANCH  47  61
ATOM     61  C   UNL     1      -7.322   0.724  10.877  1.00  0.00     0.023 A 
ATOM     62  C   UNL     1      -8.098   1.778  10.368  1.00  0.00     0.031 A 
ATOM     63  C   UNL     1      -6.609   0.938  12.070  1.00  0.00     0.131 A 
ATOM     64  C   UNL     1      -8.123   3.010  11.038  1.00  0.00     0.055 A 
ATOM     65  C   UNL     1      -6.685   2.146  12.763  1.00  0.00     0.041 A 
ATOM     66  F   UNL     1      -5.839  -0.033  12.587  1.00  0.00    -0.206 F 
ATOM     67  C   UNL     1      -7.443   3.192  12.245  1.00  0.00     0.022 A 
BRANCH  64  68
ATOM     68  S   UNL     1      -9.016   4.395  10.283  1.00  0.00     0.124 S 
ATOM     69  O   UNL     1      -8.237   4.619   9.068  1.00  0.00    -0.237 OA
ATOM     70  O   UNL     1     -10.353   3.845  10.091  1.00  0.00    -0.237 OA
ATOM     71  O   UNL     1      -8.917   5.454  11.285  1.00  0.00    -0.744 OA
ENDBRANCH  64  68
ENDBRANCH  47  61
BRANCH  48  72
ATOM     72  C   UNL     1      -6.947  -8.085   6.158  1.00  0.00     0.023 A 
ATOM     73  C   UNL     1      -8.114  -8.734   5.724  1.00  0.00     0.031 A 
ATOM     74  C   UNL     1      -5.714  -8.728   5.941  1.00  0.00     0.131 A 
ATOM     75  C   UNL     1      -8.025  -9.996   5.114  1.00  0.00     0.055 A 
ATOM     76  C   UNL     1      -5.628  -9.962   5.296  1.00  0.00     0.041 A 
ATOM     77  F   UNL     1      -4.569  -8.151   6.340  1.00  0.00    -0.206 F 
ATOM     78  C   UNL     1      -6.790 -10.607   4.884  1.00  0.00     0.022 A 
BRANCH  75  79
ATOM     79  S   UNL     1      -9.556 -10.856   4.656  1.00  0.00     0.124 S 
ATOM     80  O   UNL     1     -10.179 -11.065   5.957  1.00  0.00    -0.237 OA
ATOM     81  O   UNL     1     -10.202  -9.884   3.780  1.00  0.00    -0.237 OA
ATOM     82  O   UNL     1      -9.079 -12.067   3.990  1.00  0.00    -0.744 OA
ENDBRANCH  75  79
ENDBRANCH  48  72
BRANCH  60  83
ATOM     83  C   UNL     1      -9.496  -5.973  12.325  1.00  0.00     0.023 A 
ATOM     84  C   UNL     1      -8.803  -6.821  13.204  1.00  0.00     0.031 A 
ATOM     85  C   UNL     1     -10.855  -5.714  12.581  1.00  0.00     0.131 A 
ATOM     86  C   UNL     1      -9.474  -7.387  14.298  1.00  0.00     0.055 A 
ATOM     87  C   UNL     1     -11.506  -6.245  13.694  1.00  0.00     0.041 A 
ATOM     88  F   UNL     1     -11.558  -4.902  11.775  1.00  0.00    -0.206 F 
ATOM     89  C   UNL     1     -10.814  -7.088  14.560  1.00  0.00     0.022 A 
BRANCH  86  90
ATOM     90  S   UNL     1      -8.570  -8.526  15.382  1.00  0.00     0.124 S 
ATOM     91  O   UNL     1      -8.307  -9.649  14.488  1.00  0.00    -0.237 OA
ATOM     92  O   UNL     1      -7.407  -7.737  15.773  1.00  0.00    -0.237 OA
ATOM     93  O   UNL     1      -9.520  -8.801  16.459  1.00  0.00    -0.744 OA
ENDBRANCH  86  90
ENDBRANCH  60  83
ENDBRANCH  34  35
ENDBRANCH  27  29
ENDBRANCH  26  27
ENDBRANCH  25  26
ENDBRANCH  24  25
ENDBRANCH   1  24
TORSDOF 21
