REMARK SMILES O=C(OCCOCCOC(=O)[C@H]1[C@H]2CC[C@H](CC2)[C@@H]1C(=O)Nc1ccc(Cc2ccncc2)cc1)c1ccc(-c2c3nc(c(-c4cc(S(=O)(=O)[O-])ccc4F)c4ccc([nH]4)c(-c4cc(S(=O)(=O)[O-])ccc4F)c4nc(c(-c5cc(S(=O)(=O)[O-])ccc5F)c5ccc2[nH]5)C=C4)C=C3)cc1
REMARK SMILES IDX 7 1 6 2 5 3 4 4 3 5 2 6 1 7 36 8 37 9 98 10 38 11 97 12
REMARK SMILES IDX 39 13 40 14 41 15 91 16 42 17 96 18 90 19 92 20 43 21 95 22
REMARK SMILES IDX 89 23 88 24 44 26 76 27 56 28 75 29 57 30 60 31 74 32 93 33
REMARK SMILES IDX 58 34 59 35 73 37 94 38 61 39 45 40 46 41 54 42 47 43 53 44
REMARK SMILES IDX 55 45 52 46 48 47 49 48 50 49 51 50 77 51 78 52 86 53 79 54
REMARK SMILES IDX 85 55 87 56 84 57 80 58 81 59 82 60 83 61 62 62 63 63 71 64
REMARK SMILES IDX 64 65 70 66 72 67 69 68 65 69 66 70 67 71 68 72 8 73 9 74
REMARK SMILES IDX 10 75 11 76 12 77 13 78 19 79 18 80 14 81 16 82 17 83 15 84
REMARK SMILES IDX 20 85 21 86 22 87 23 89 24 90 35 91 25 92 34 93 26 94 27 95
REMARK SMILES IDX 28 96 29 97 33 98 30 99 32 100 31 101
REMARK H PARENT 92 25 60 36 22 88
REMARK Flexibility Score: inf
ROOT
ATOM      1  C   UNL     1       2.139   1.743   0.201  1.00  0.00     0.202 C 
ENDROOT
BRANCH   1   2
ATOM      2  O   UNL     1       3.457   1.210   0.153  1.00  0.00    -0.374 OA
BRANCH   2   3
ATOM      3  C   UNL     1       3.942   0.768  -1.114  1.00  0.00     0.202 C 
BRANCH   3   4
ATOM      4  C   UNL     1       3.757  -0.733  -1.347  1.00  0.00     0.261 C 
BRANCH   4   5
ATOM      5  O   UNL     1       2.415  -1.129  -1.029  1.00  0.00    -0.460 OA
BRANCH   5   6
ATOM      6  C   UNL     1       1.945  -1.452   0.202  1.00  0.00     0.338 C 
ATOM      7  O   UNL     1       0.728  -1.569   0.348  1.00  0.00    -0.246 OA
BRANCH   6   8
ATOM      8  C   UNL     1       2.820  -1.708   1.392  1.00  0.00     0.060 A 
ATOM      9  C   UNL     1       4.053  -1.101   1.639  1.00  0.00     0.016 A 
ATOM     10  C   UNL     1       2.310  -2.572   2.377  1.00  0.00     0.016 A 
ATOM     11  C   UNL     1       4.768  -1.336   2.794  1.00  0.00     0.010 A 
ATOM     12  C   UNL     1       3.019  -2.810   3.559  1.00  0.00     0.010 A 
ATOM     13  C   UNL     1       4.255  -2.187   3.761  1.00  0.00    -0.014 A 
BRANCH  13  14
ATOM     14  C   UNL     1       5.152  -2.498   4.881  1.00  0.00     0.031 A 
ATOM     15  C   UNL     1       5.896  -3.793   4.827  1.00  0.00     0.074 A 
ATOM     16  C   UNL     1       5.441  -1.533   5.772  1.00  0.00     0.049 A 
ATOM     17  N   UNL     1       6.733  -4.302   5.685  1.00  0.00    -0.248 NA
ATOM     18  C   UNL     1       5.683  -4.618   3.624  1.00  0.00     0.031 C 
ATOM     19  C   UNL     1       4.878  -0.177   5.755  1.00  0.00     0.029 A 
ATOM     20  N   UNL     1       6.309  -1.517   6.827  1.00  0.00    -0.354 N 
ATOM     21  C   UNL     1       7.136  -5.513   5.136  1.00  0.00     0.074 A 
ATOM     22  C   UNL     1       6.434  -5.674   3.884  1.00  0.00     0.031 C 
ATOM     23  C   UNL     1       5.433   0.540   6.745  1.00  0.00     0.029 A 
ATOM     24  C   UNL     1       6.317  -0.326   7.514  1.00  0.00     0.049 A 
ATOM     25  H   UNL     1       6.875  -2.285   7.071  1.00  0.00     0.167 HD
ATOM     26  C   UNL     1       8.020  -6.400   5.649  1.00  0.00     0.034 A 
ATOM     27  C   UNL     1       6.935  -0.004   8.667  1.00  0.00     0.034 A 
ATOM     28  C   UNL     1       8.673  -6.190   6.914  1.00  0.00     0.049 A 
ATOM     29  C   UNL     1       7.791  -1.076   9.299  1.00  0.00     0.074 A 
ATOM     30  C   UNL     1       9.486  -7.047   7.628  1.00  0.00     0.029 A 
ATOM     31  N   UNL     1       8.578  -5.014   7.657  1.00  0.00    -0.354 N 
ATOM     32  N   UNL     1       8.073  -2.279   8.847  1.00  0.00    -0.248 NA
ATOM     33  C   UNL     1       8.404  -0.757  10.590  1.00  0.00     0.031 C 
ATOM     34  C   UNL     1       9.831  -6.415   8.828  1.00  0.00     0.029 A 
ATOM     35  C   UNL     1       9.304  -5.130   8.829  1.00  0.00     0.049 A 
ATOM     36  H   UNL     1       8.068  -4.217   7.387  1.00  0.00     0.167 HD
ATOM     37  C   UNL     1       8.917  -2.853   9.791  1.00  0.00     0.074 A 
ATOM     38  C   UNL     1       9.120  -1.847  10.818  1.00  0.00     0.031 C 
ATOM     39  C   UNL     1       9.471  -4.094   9.822  1.00  0.00     0.034 A 
BRANCH  26  40
ATOM     40  C   UNL     1       8.214  -7.684   4.883  1.00  0.00     0.023 A 
ATOM     41  C   UNL     1       8.771  -7.701   3.591  1.00  0.00     0.031 A 
ATOM     42  C   UNL     1       7.734  -8.896   5.408  1.00  0.00     0.131 A 
ATOM     43  C   UNL     1       8.756  -8.886   2.839  1.00  0.00     0.055 A 
ATOM     44  C   UNL     1       7.799 -10.089   4.686  1.00  0.00     0.041 A 
ATOM     45  F   UNL     1       7.156  -8.934   6.619  1.00  0.00    -0.206 F 
ATOM     46  C   UNL     1       8.297 -10.086   3.387  1.00  0.00     0.022 A 
BRANCH  43  47
ATOM     47  S   UNL     1       9.191  -8.806   1.078  1.00  0.00     0.124 S 
ATOM     48  O   UNL     1       8.159  -7.910   0.561  1.00  0.00    -0.237 OA
ATOM     49  O   UNL     1      10.546  -8.270   1.109  1.00  0.00    -0.237 OA
ATOM     50  O   UNL     1       9.081 -10.194   0.634  1.00  0.00    -0.744 OA
ENDBRANCH  43  47
ENDBRANCH  26  40
BRANCH  27  51
ATOM     51  C   UNL     1       6.692   1.309   9.339  1.00  0.00     0.023 A 
ATOM     52  C   UNL     1       7.747   2.167   9.687  1.00  0.00     0.031 A 
ATOM     53  C   UNL     1       5.391   1.689   9.725  1.00  0.00     0.131 A 
ATOM     54  C   UNL     1       7.492   3.321  10.449  1.00  0.00     0.055 A 
ATOM     55  C   UNL     1       5.135   2.872  10.419  1.00  0.00     0.041 A 
ATOM     56  F   UNL     1       4.338   0.907   9.436  1.00  0.00    -0.206 F 
ATOM     57  C   UNL     1       6.192   3.687  10.804  1.00  0.00     0.022 A 
BRANCH  54  58
ATOM     58  S   UNL     1       8.900   4.269  11.091  1.00  0.00     0.124 S 
ATOM     59  O   UNL     1       9.661   3.237  11.787  1.00  0.00    -0.237 OA
ATOM     60  O   UNL     1       9.497   4.791   9.867  1.00  0.00    -0.237 OA
ATOM     61  O   UNL     1       8.272   5.269  11.953  1.00  0.00    -0.744 OA
ENDBRANCH  54  58
ENDBRANCH  27  51
BRANCH  39  62
ATOM     62  C   UNL     1      10.380  -4.389  10.986  1.00  0.00     0.023 A 
ATOM     63  C   UNL     1       9.892  -4.455  12.302  1.00  0.00     0.031 A 
ATOM     64  C   UNL     1      11.754  -4.589  10.772  1.00  0.00     0.131 A 
ATOM     65  C   UNL     1      10.786  -4.641  13.363  1.00  0.00     0.055 A 
ATOM     66  C   UNL     1      12.627  -4.852  11.826  1.00  0.00     0.041 A 
ATOM     67  F   UNL     1      12.269  -4.534   9.533  1.00  0.00    -0.206 F 
ATOM     68  C   UNL     1      12.146  -4.862  13.133  1.00  0.00     0.022 A 
BRANCH  65  69
ATOM     69  S   UNL     1      10.162  -4.473  15.056  1.00  0.00     0.124 S 
ATOM     70  O   UNL     1       9.615  -3.120  15.044  1.00  0.00    -0.237 OA
ATOM     71  O   UNL     1       9.186  -5.555  15.139  1.00  0.00    -0.237 OA
ATOM     72  O   UNL     1      11.357  -4.652  15.880  1.00  0.00    -0.744 OA
ENDBRANCH  65  69
ENDBRANCH  39  62
ENDBRANCH  13  14
ENDBRANCH   6   8
ENDBRANCH   5   6
ENDBRANCH   4   5
ENDBRANCH   3   4
ENDBRANCH   2   3
ENDBRANCH   1   2
BRANCH   1  73
ATOM     73  C   UNL     1       2.213   3.226   0.553  1.00  0.00     0.261 C 
BRANCH  73  74
ATOM     74  O   UNL     1       2.904   3.911  -0.506  1.00  0.00    -0.463 OA
BRANCH  74  75
ATOM     75  C   UNL     1       4.261   3.866  -0.392  1.00  0.00     0.310 C 
ATOM     76  O   UNL     1       4.874   3.515   0.614  1.00  0.00    -0.252 OA
BRANCH  75  77
ATOM     77  C   UNL     1       4.918   4.357  -1.669  1.00  0.00     0.115 C 
ATOM     78  C   UNL     1       5.274   5.846  -1.407  1.00  0.00     0.004 C 
ATOM     79  C   UNL     1       6.196   3.548  -2.015  1.00  0.00     0.096 C 
ATOM     80  C   UNL     1       6.258   5.993  -0.227  1.00  0.00     0.005 C 
ATOM     81  C   UNL     1       6.002   6.374  -2.638  1.00  0.00     0.005 C 
ATOM     82  C   UNL     1       7.441   4.465  -1.863  1.00  0.00     0.002 C 
ATOM     83  C   UNL     1       7.441   5.022  -0.412  1.00  0.00     0.005 C 
ATOM     84  C   UNL     1       7.378   5.710  -2.754  1.00  0.00     0.005 C 
BRANCH  79  85
ATOM     85  C   UNL     1       6.171   2.561  -3.224  1.00  0.00     0.228 C 
ATOM     86  O   UNL     1       6.426   1.364  -3.003  1.00  0.00    -0.274 OA
ATOM     87  N   UNL     1       5.906   2.818  -4.533  1.00  0.00    -0.326 N 
ATOM     88  H   UNL     1       6.039   2.051  -5.135  1.00  0.00     0.169 HD
BRANCH  87  89
ATOM     89  C   UNL     1       5.480   3.975  -5.165  1.00  0.00     0.041 A 
ATOM     90  C   UNL     1       4.122   4.267  -5.238  1.00  0.00     0.026 A 
ATOM     91  C   UNL     1       6.415   4.827  -5.744  1.00  0.00     0.026 A 
ATOM     92  C   UNL     1       3.726   5.550  -5.606  1.00  0.00     0.006 A 
ATOM     93  C   UNL     1       6.030   6.125  -6.076  1.00  0.00     0.006 A 
ATOM     94  C   UNL     1       4.695   6.521  -5.896  1.00  0.00    -0.043 A 
BRANCH  94  95
ATOM     95  C   UNL     1       4.342   7.987  -5.803  1.00  0.00     0.071 C 
BRANCH  95  96
ATOM     96  C   UNL     1       4.505   8.733  -7.091  1.00  0.00    -0.041 A 
ATOM     97  C   UNL     1       3.682   8.432  -8.175  1.00  0.00     0.024 A 
ATOM     98  C   UNL     1       5.491   9.710  -7.237  1.00  0.00     0.024 A 
ATOM     99  C   UNL     1       3.894   9.101  -9.366  1.00  0.00     0.111 A 
ATOM    100  C   UNL     1       5.622  10.327  -8.470  1.00  0.00     0.111 A 
ATOM    101  N   UNL     1       4.846  10.043  -9.539  1.00  0.00    -0.265 NA
ENDBRANCH  95  96
ENDBRANCH  94  95
ENDBRANCH  87  89
ENDBRANCH  79  85
ENDBRANCH  75  77
ENDBRANCH  74  75
ENDBRANCH  73  74
ENDBRANCH   1  73
TORSDOF 21
