REMARK SMILES COc1ccc(Cn2c(SCCC(=O)OCCOCCOC(=O)c3ccc(-c4c5nc(c(-c6cc(S(=O)(=O)[O-])ccc6F)c6ccc([nH]6)c(-c6cc(S(=O)(=O)[O-])ccc6F)c6nc(c(-c7cc(S(=O)(=O)[O-])ccc7F)c7ccc4[nH]7)C=C6)C=C5)cc3)nc3ccc(Cl)cc3c2=O)cc1
REMARK SMILES IDX 16 1 15 2 13 3 14 4 12 5 11 6 10 7 9 8 8 9 95 10 87 11 94 12
REMARK SMILES IDX 96 13 88 14 93 15 89 16 91 17 90 18 92 19 7 20 6 21 3 22
REMARK SMILES IDX 4 23 98 24 5 25 97 26 2 27 1 28 17 29 18 30 19 31 20 32
REMARK SMILES IDX 21 33 22 34 23 35 24 36 25 37 86 38 26 39 85 40 27 41 28 42
REMARK SMILES IDX 29 43 79 44 30 45 84 46 78 47 80 48 31 49 83 50 77 51 76 52
REMARK SMILES IDX 32 54 64 55 44 56 63 57 45 58 48 59 62 60 81 61 46 62 47 63
REMARK SMILES IDX 61 65 82 66 49 67 33 68 34 69 42 70 35 71 41 72 43 73 40 74
REMARK SMILES IDX 36 75 37 76 38 77 39 78 65 79 66 80 74 81 67 82 73 83 75 84
REMARK SMILES IDX 72 85 68 86 69 87 70 88 71 89 50 90 51 91 59 92 52 93 58 94
REMARK SMILES IDX 60 95 57 96 53 97 54 98 55 99 56 100
REMARK H PARENT 80 53 48 64
REMARK Flexibility Score: inf
ROOT
ATOM      1  C   UNL     1       2.972   0.399  -9.239  1.00  0.00     0.261 C 
ENDROOT
BRANCH   1   2
ATOM      2  O   UNL     1       3.718   0.371  -8.001  1.00  0.00    -0.463 OA
BRANCH   2   3
ATOM      3  C   UNL     1       4.344   1.515  -7.637  1.00  0.00     0.306 C 
ATOM      4  O   UNL     1       4.134   2.614  -8.139  1.00  0.00    -0.252 OA
BRANCH   3   5
ATOM      5  C   UNL     1       5.431   1.334  -6.597  1.00  0.00     0.134 C 
BRANCH   5   6
ATOM      6  C   UNL     1       5.500   0.090  -5.729  1.00  0.00     0.090 C 
BRANCH   6   7
ATOM      7  S   UNL     1       5.832  -1.404  -6.612  1.00  0.00    -0.087 SA
BRANCH   7   8
ATOM      8  C   UNL     1       4.415  -2.406  -6.832  1.00  0.00     0.171 A 
ATOM      9  N   UNL     1       3.316  -2.489  -5.977  1.00  0.00    -0.283 N 
ATOM     10  C   UNL     1       2.582  -3.682  -5.982  1.00  0.00     0.262 A 
ATOM     11  N   UNL     1       4.659  -3.254  -7.780  1.00  0.00    -0.224 NA
ATOM     12  C   UNL     1       3.089  -4.792  -6.792  1.00  0.00     0.067 A 
ATOM     13  O   UNL     1       1.504  -3.860  -5.421  1.00  0.00    -0.269 OA
ATOM     14  C   UNL     1       4.001  -4.475  -7.784  1.00  0.00     0.079 A 
ATOM     15  C   UNL     1       2.688  -6.108  -6.570  1.00  0.00     0.036 A 
ATOM     16  C   UNL     1       4.463  -5.479  -8.634  1.00  0.00     0.031 A 
ATOM     17  C   UNL     1       3.228  -7.116  -7.361  1.00  0.00     0.042 A 
ATOM     18  C   UNL     1       4.088  -6.806  -8.414  1.00  0.00     0.023 A 
ATOM     19  Cl  UNL     1       2.890  -8.757  -6.983  1.00  0.00    -0.084 Cl
BRANCH   9  20
ATOM     20  C   UNL     1       2.533  -1.318  -5.570  1.00  0.00     0.163 C 
BRANCH  20  21
ATOM     21  C   UNL     1       2.022  -1.154  -4.144  1.00  0.00    -0.028 A 
ATOM     22  C   UNL     1       0.902  -0.674  -1.573  1.00  0.00     0.118 A 
ATOM     23  C   UNL     1       0.200  -1.402  -2.528  1.00  0.00     0.047 A 
ATOM     24  C   UNL     1       2.154  -0.167  -1.907  1.00  0.00     0.047 A 
ATOM     25  C   UNL     1       0.743  -1.620  -3.798  1.00  0.00     0.009 A 
ATOM     26  C   UNL     1       2.709  -0.414  -3.173  1.00  0.00     0.009 A 
BRANCH  22  27
ATOM     27  O   UNL     1       0.263  -0.526  -0.374  1.00  0.00    -0.497 OA
ATOM     28  C   UNL     1       0.926   0.243   0.620  1.00  0.00     0.278 C 
ENDBRANCH  22  27
ENDBRANCH  20  21
ENDBRANCH   9  20
ENDBRANCH   7   8
ENDBRANCH   6   7
ENDBRANCH   5   6
ENDBRANCH   3   5
ENDBRANCH   2   3
ENDBRANCH   1   2
BRANCH   1  29
ATOM     29  C   UNL     1       1.482   0.128  -9.025  1.00  0.00     0.202 C 
BRANCH  29  30
ATOM     30  O   UNL     1       0.787   1.271  -8.520  1.00  0.00    -0.374 OA
BRANCH  30  31
ATOM     31  C   UNL     1       0.454   1.224  -7.132  1.00  0.00     0.202 C 
BRANCH  31  32
ATOM     32  C   UNL     1      -0.811   0.409  -6.821  1.00  0.00     0.261 C 
BRANCH  32  33
ATOM     33  O   UNL     1      -0.631  -0.983  -7.142  1.00  0.00    -0.460 OA
BRANCH  33  34
ATOM     34  C   UNL     1      -1.568  -1.525  -7.954  1.00  0.00     0.338 C 
ATOM     35  O   UNL     1      -2.600  -0.990  -8.343  1.00  0.00    -0.246 OA
BRANCH  34  36
ATOM     36  C   UNL     1      -1.094  -2.825  -8.462  1.00  0.00     0.060 A 
ATOM     37  C   UNL     1      -0.994  -2.994  -9.847  1.00  0.00     0.016 A 
ATOM     38  C   UNL     1      -0.811  -3.891  -7.608  1.00  0.00     0.016 A 
ATOM     39  C   UNL     1      -0.652  -4.241 -10.380  1.00  0.00     0.010 A 
ATOM     40  C   UNL     1      -0.443  -5.133  -8.147  1.00  0.00     0.010 A 
ATOM     41  C   UNL     1      -0.398  -5.336  -9.540  1.00  0.00    -0.014 A 
BRANCH  41  42
ATOM     42  C   UNL     1      -0.249  -6.707 -10.121  1.00  0.00     0.031 A 
ATOM     43  C   UNL     1      -1.327  -7.738  -9.873  1.00  0.00     0.074 A 
ATOM     44  C   UNL     1       0.799  -7.035 -10.905  1.00  0.00     0.049 A 
ATOM     45  N   UNL     1      -1.420  -8.971 -10.308  1.00  0.00    -0.248 NA
ATOM     46  C   UNL     1      -2.443  -7.325  -9.010  1.00  0.00     0.031 C 
ATOM     47  C   UNL     1       1.910  -6.148 -11.249  1.00  0.00     0.029 A 
ATOM     48  N   UNL     1       1.098  -8.207 -11.562  1.00  0.00    -0.354 N 
ATOM     49  C   UNL     1      -2.601  -9.476  -9.772  1.00  0.00     0.074 A 
ATOM     50  C   UNL     1      -3.142  -8.444  -8.914  1.00  0.00     0.031 C 
ATOM     51  C   UNL     1       2.762  -6.804 -12.057  1.00  0.00     0.029 A 
ATOM     52  C   UNL     1       2.276  -8.166 -12.273  1.00  0.00     0.049 A 
ATOM     53  H   UNL     1       0.520  -9.004 -11.526  1.00  0.00     0.167 HD
ATOM     54  C   UNL     1      -3.209 -10.668  -9.998  1.00  0.00     0.034 A 
ATOM     55  C   UNL     1       2.896  -9.112 -13.011  1.00  0.00     0.034 A 
ATOM     56  C   UNL     1      -2.681 -11.695 -10.861  1.00  0.00     0.049 A 
ATOM     57  C   UNL     1       2.243 -10.464 -13.192  1.00  0.00     0.074 A 
ATOM     58  C   UNL     1      -3.240 -12.919 -11.187  1.00  0.00     0.029 A 
ATOM     59  N   UNL     1      -1.466 -11.626 -11.529  1.00  0.00    -0.354 N 
ATOM     60  N   UNL     1       1.098 -10.901 -12.720  1.00  0.00    -0.248 NA
ATOM     61  C   UNL     1       2.956 -11.443 -14.027  1.00  0.00     0.031 C 
ATOM     62  C   UNL     1      -2.333 -13.617 -11.992  1.00  0.00     0.029 A 
ATOM     63  C   UNL     1      -1.244 -12.797 -12.238  1.00  0.00     0.049 A 
ATOM     64  H   UNL     1      -0.851 -10.857 -11.503  1.00  0.00     0.167 HD
ATOM     65  C   UNL     1       0.936 -12.185 -13.240  1.00  0.00     0.074 A 
ATOM     66  C   UNL     1       2.095 -12.450 -14.063  1.00  0.00     0.031 C 
ATOM     67  C   UNL     1      -0.088 -13.059 -13.063  1.00  0.00     0.034 A 
BRANCH  54  68
ATOM     68  C   UNL     1      -4.512 -10.924  -9.275  1.00  0.00     0.023 A 
ATOM     69  C   UNL     1      -5.644 -10.119  -9.495  1.00  0.00     0.031 A 
ATOM     70  C   UNL     1      -4.611 -11.951  -8.320  1.00  0.00     0.131 A 
ATOM     71  C   UNL     1      -6.789 -10.289  -8.702  1.00  0.00     0.055 A 
ATOM     72  C   UNL     1      -5.786 -12.175  -7.600  1.00  0.00     0.041 A 
ATOM     73  F   UNL     1      -3.560 -12.742  -8.056  1.00  0.00    -0.206 F 
ATOM     74  C   UNL     1      -6.877 -11.328  -7.774  1.00  0.00     0.022 A 
BRANCH  71  75
ATOM     75  S   UNL     1      -8.090  -9.027  -8.783  1.00  0.00     0.124 S 
ATOM     76  O   UNL     1      -7.354  -7.822  -8.405  1.00  0.00    -0.237 OA
ATOM     77  O   UNL     1      -8.519  -9.104 -10.174  1.00  0.00    -0.237 OA
ATOM     78  O   UNL     1      -9.071  -9.483  -7.800  1.00  0.00    -0.744 OA
ENDBRANCH  71  75
ENDBRANCH  54  68
BRANCH  55  79
ATOM     79  C   UNL     1       4.227  -8.838 -13.633  1.00  0.00     0.023 A 
ATOM     80  C   UNL     1       4.399  -8.845 -15.028  1.00  0.00     0.031 A 
ATOM     81  C   UNL     1       5.366  -8.641 -12.832  1.00  0.00     0.131 A 
ATOM     82  C   UNL     1       5.686  -8.717 -15.576  1.00  0.00     0.055 A 
ATOM     83  C   UNL     1       6.636  -8.462 -13.384  1.00  0.00     0.041 A 
ATOM     84  F   UNL     1       5.260  -8.619 -11.493  1.00  0.00    -0.206 F 
ATOM     85  C   UNL     1       6.803  -8.514 -14.764  1.00  0.00     0.022 A 
BRANCH  82  86
ATOM     86  S   UNL     1       5.894  -8.910 -17.369  1.00  0.00     0.124 S 
ATOM     87  O   UNL     1       5.370 -10.254 -17.586  1.00  0.00    -0.237 OA
ATOM     88  O   UNL     1       5.084  -7.812 -17.887  1.00  0.00    -0.237 OA
ATOM     89  O   UNL     1       7.335  -8.763 -17.562  1.00  0.00    -0.744 OA
ENDBRANCH  82  86
ENDBRANCH  55  79
BRANCH  67  90
ATOM     90  C   UNL     1      -0.039 -14.362 -13.826  1.00  0.00     0.023 A 
ATOM     91  C   UNL     1       0.929 -15.347 -13.566  1.00  0.00     0.031 A 
ATOM     92  C   UNL     1      -0.993 -14.625 -14.828  1.00  0.00     0.131 A 
ATOM     93  C   UNL     1       0.951 -16.527 -14.328  1.00  0.00     0.055 A 
ATOM     94  C   UNL     1      -1.003 -15.825 -15.541  1.00  0.00     0.041 A 
ATOM     95  F   UNL     1      -1.941 -13.721 -15.123  1.00  0.00    -0.206 F 
ATOM     96  C   UNL     1      -0.020 -16.779 -15.301  1.00  0.00     0.022 A 
BRANCH  93  97
ATOM     97  S   UNL     1       2.317 -17.697 -14.091  1.00  0.00     0.124 S 
ATOM     98  O   UNL     1       3.482 -16.868 -14.384  1.00  0.00    -0.237 OA
ATOM     99  O   UNL     1       2.151 -18.093 -12.696  1.00  0.00    -0.237 OA
ATOM    100  O   UNL     1       2.043 -18.748 -15.069  1.00  0.00    -0.744 OA
ENDBRANCH  93  97
ENDBRANCH  67  90
ENDBRANCH  41  42
ENDBRANCH  34  36
ENDBRANCH  33  34
ENDBRANCH  32  33
ENDBRANCH  31  32
ENDBRANCH  30  31
ENDBRANCH  29  30
ENDBRANCH   1  29
TORSDOF 23
