REMARK SMILES CC[C@H](C)c1ccc(N2C(=O)NC(=O)/C(=C/c3ccc(-c4ccc(C(=O)OCCOCCOC(=O)c5ccc(-c6c7nc(c(-c8cc(S(=O)(=O)[O-])ccc8F)c8ccc([nH]8)c(-c8cc(S(=O)(=O)[O-])ccc8F)c8nc(c(-c9cc(S(=O)(=O)[O-])ccc9F)c9ccc6[nH]9)C=C8)C=C7)cc5)cc4)o3)C2=O)cc1
REMARK SMILES IDX 29 1 28 2 27 3 25 4 26 5 24 6 21 7 22 8 100 9 23 10 99 11
REMARK SMILES IDX 20 12 17 13 18 14 101 15 19 16 16 17 9 18 10 19 102 20 11 21
REMARK SMILES IDX 12 22 15 23 103 24 13 25 14 27 8 28 5 29 6 30 105 31 7 32
REMARK SMILES IDX 104 33 3 34 4 35 2 36 1 37 30 38 31 39 32 40 33 41 34 42
REMARK SMILES IDX 35 43 36 44 37 45 98 46 38 47 97 48 39 49 40 50 41 51 91 52
REMARK SMILES IDX 42 53 96 54 90 55 92 56 43 57 95 58 89 59 88 60 44 62 76 63
REMARK SMILES IDX 56 64 75 65 57 66 60 67 74 68 93 69 58 70 59 71 73 73 94 74
REMARK SMILES IDX 61 75 45 76 46 77 54 78 47 79 53 80 55 81 52 82 48 83 49 84
REMARK SMILES IDX 50 85 51 86 77 87 78 88 86 89 79 90 85 91 87 92 84 93 80 94
REMARK SMILES IDX 81 95 82 96 83 97 62 98 63 99 71 100 64 101 70 102 72 103
REMARK SMILES IDX 69 104 65 105 66 106 67 107 68 108
REMARK H PARENT 12 26 92 61 60 72
REMARK Flexibility Score: inf
ROOT
ATOM      1  C   UNL     1      -3.231   0.189 -12.828  1.00  0.00     0.202 C 
ENDROOT
BRANCH   1   2
ATOM      2  C   UNL     1      -2.053   0.537 -11.914  1.00  0.00     0.261 C 
BRANCH   2   3
ATOM      3  O   UNL     1      -1.448  -0.645 -11.365  1.00  0.00    -0.460 OA
BRANCH   3   4
ATOM      4  C   UNL     1      -1.699  -0.856 -10.052  1.00  0.00     0.338 C 
ATOM      5  O   UNL     1      -2.272  -0.096  -9.283  1.00  0.00    -0.246 OA
BRANCH   4   6
ATOM      6  C   UNL     1      -1.287  -2.223  -9.654  1.00  0.00     0.060 A 
ATOM      7  C   UNL     1      -0.446  -4.694  -8.627  1.00  0.00     0.017 A 
ATOM      8  C   UNL     1      -1.569  -4.053  -8.090  1.00  0.00     0.013 A 
ATOM      9  C   UNL     1       0.194  -4.131  -9.743  1.00  0.00     0.013 A 
ATOM     10  C   UNL     1      -1.980  -2.819  -8.593  1.00  0.00     0.016 A 
ATOM     11  C   UNL     1      -0.229  -2.902 -10.264  1.00  0.00     0.016 A 
BRANCH   7  12
ATOM     12  C   UNL     1       0.149  -5.818  -7.924  1.00  0.00     0.134 A 
ATOM     13  C   UNL     1       0.054  -7.615  -6.630  1.00  0.00     0.128 A 
ATOM     14  C   UNL     1       1.386  -7.231  -6.727  1.00  0.00     0.051 A 
ATOM     15  O   UNL     1      -0.694  -6.755  -7.402  1.00  0.00    -0.457 OA
ATOM     16  C   UNL     1       1.446  -6.092  -7.556  1.00  0.00     0.051 A 
BRANCH  13  17
ATOM     17  C   UNL     1      -0.491  -8.666  -5.848  1.00  0.00     0.066 C 
ATOM     18  N   UNL     1      -0.571  -7.303  -2.434  1.00  0.00    -0.228 N 
ATOM     19  C   UNL     1      -0.697  -8.492  -1.721  1.00  0.00     0.335 C 
ATOM     20  C   UNL     1      -0.753  -7.215  -3.820  1.00  0.00     0.272 C 
ATOM     21  O   UNL     1      -0.584  -8.623  -0.502  1.00  0.00    -0.247 OA
ATOM     22  N   UNL     1      -1.025  -9.610  -2.440  1.00  0.00    -0.273 N 
ATOM     23  C   UNL     1      -0.793  -8.517  -4.542  1.00  0.00     0.109 C 
ATOM     24  O   UNL     1      -0.864  -6.163  -4.445  1.00  0.00    -0.268 OA
ATOM     25  C   UNL     1      -1.086  -9.748  -3.793  1.00  0.00     0.265 C 
ATOM     26  H   UNL     1      -1.242 -10.414  -1.914  1.00  0.00     0.175 HD
ATOM     27  O   UNL     1      -1.308 -10.835  -4.314  1.00  0.00    -0.269 OA
BRANCH  18  28
ATOM     28  C   UNL     1      -0.262  -6.094  -1.715  1.00  0.00     0.054 A 
ATOM     29  C   UNL     1       0.518  -3.658  -0.474  1.00  0.00    -0.045 A 
ATOM     30  C   UNL     1      -0.544  -3.692  -1.381  1.00  0.00     0.006 A 
ATOM     31  C   UNL     1       1.151  -4.871  -0.158  1.00  0.00     0.006 A 
ATOM     32  C   UNL     1      -0.919  -4.889  -1.998  1.00  0.00     0.027 A 
ATOM     33  C   UNL     1       0.758  -6.074  -0.756  1.00  0.00     0.027 A 
BRANCH  29  34
ATOM     34  C   UNL     1       1.020  -2.373   0.173  1.00  0.00     0.016 C 
ATOM     35  C   UNL     1       0.631  -1.095  -0.586  1.00  0.00     0.013 C 
BRANCH  34  36
ATOM     36  C   UNL     1       0.567  -2.309   1.646  1.00  0.00     0.004 C 
ATOM     37  C   UNL     1       1.363  -1.303   2.467  1.00  0.00     0.004 C 
ENDBRANCH  34  36
ENDBRANCH  29  34
ENDBRANCH  18  28
ENDBRANCH  13  17
ENDBRANCH   7  12
ENDBRANCH   4   6
ENDBRANCH   3   4
ENDBRANCH   2   3
ENDBRANCH   1   2
BRANCH   1  38
ATOM     38  O   UNL     1      -4.330  -0.480 -12.207  1.00  0.00    -0.374 OA
BRANCH  38  39
ATOM     39  C   UNL     1      -4.216  -1.894 -12.038  1.00  0.00     0.202 C 
BRANCH  39  40
ATOM     40  C   UNL     1      -4.485  -2.756 -13.277  1.00  0.00     0.261 C 
BRANCH  40  41
ATOM     41  O   UNL     1      -3.457  -2.607 -14.273  1.00  0.00    -0.460 OA
BRANCH  41  42
ATOM     42  C   UNL     1      -3.835  -1.933 -15.386  1.00  0.00     0.338 C 
ATOM     43  O   UNL     1      -4.956  -1.515 -15.645  1.00  0.00    -0.246 OA
BRANCH  42  44
ATOM     44  C   UNL     1      -2.649  -1.590 -16.193  1.00  0.00     0.060 A 
ATOM     45  C   UNL     1      -2.499  -0.255 -16.591  1.00  0.00     0.016 A 
ATOM     46  C   UNL     1      -1.731  -2.558 -16.604  1.00  0.00     0.016 A 
ATOM     47  C   UNL     1      -1.454   0.110 -17.438  1.00  0.00     0.010 A 
ATOM     48  C   UNL     1      -0.688  -2.192 -17.462  1.00  0.00     0.010 A 
ATOM     49  C   UNL     1      -0.562  -0.863 -17.908  1.00  0.00    -0.014 A 
BRANCH  49  50
ATOM     50  C   UNL     1       0.411  -0.520 -18.976  1.00  0.00     0.031 A 
ATOM     51  C   UNL     1       0.092  -0.900 -20.396  1.00  0.00     0.074 A 
ATOM     52  C   UNL     1       1.553   0.128 -18.686  1.00  0.00     0.049 A 
ATOM     53  N   UNL     1       0.822  -0.774 -21.474  1.00  0.00    -0.248 NA
ATOM     54  C   UNL     1      -1.226  -1.509 -20.629  1.00  0.00     0.031 C 
ATOM     55  C   UNL     1       1.946   0.589 -17.355  1.00  0.00     0.029 A 
ATOM     56  N   UNL     1       2.600   0.500 -19.492  1.00  0.00    -0.354 N 
ATOM     57  C   UNL     1       0.058  -1.296 -22.512  1.00  0.00     0.074 A 
ATOM     58  C   UNL     1      -1.179  -1.768 -21.927  1.00  0.00     0.031 C 
ATOM     59  C   UNL     1       3.158   1.166 -17.434  1.00  0.00     0.029 A 
ATOM     60  C   UNL     1       3.644   1.078 -18.809  1.00  0.00     0.049 A 
ATOM     61  H   UNL     1       2.602   0.366 -20.468  1.00  0.00     0.167 HD
ATOM     62  C   UNL     1       0.361  -1.370 -23.832  1.00  0.00     0.034 A 
ATOM     63  C   UNL     1       4.865   1.460 -19.240  1.00  0.00     0.034 A 
ATOM     64  C   UNL     1       1.602  -0.900 -24.398  1.00  0.00     0.049 A 
ATOM     65  C   UNL     1       5.213   1.290 -20.700  1.00  0.00     0.074 A 
ATOM     66  C   UNL     1       2.001  -0.906 -25.723  1.00  0.00     0.029 A 
ATOM     67  N   UNL     1       2.651  -0.352 -23.671  1.00  0.00    -0.354 N 
ATOM     68  N   UNL     1       4.478   0.804 -21.674  1.00  0.00    -0.248 NA
ATOM     69  C   UNL     1       6.551   1.727 -21.120  1.00  0.00     0.031 C 
ATOM     70  C   UNL     1       3.316  -0.432 -25.787  1.00  0.00     0.029 A 
ATOM     71  C   UNL     1       3.709  -0.052 -24.514  1.00  0.00     0.049 A 
ATOM     72  H   UNL     1       2.644  -0.199 -22.698  1.00  0.00     0.167 HD
ATOM     73  C   UNL     1       5.255   0.909 -22.826  1.00  0.00     0.074 A 
ATOM     74  C   UNL     1       6.508   1.513 -22.427  1.00  0.00     0.031 C 
ATOM     75  C   UNL     1       4.957   0.545 -24.100  1.00  0.00     0.034 A 
BRANCH  62  76
ATOM     76  C   UNL     1      -0.645  -2.033 -24.741  1.00  0.00     0.023 A 
ATOM     77  C   UNL     1      -1.920  -1.484 -24.966  1.00  0.00     0.031 A 
ATOM     78  C   UNL     1      -0.328  -3.245 -25.380  1.00  0.00     0.131 A 
ATOM     79  C   UNL     1      -2.850  -2.176 -25.757  1.00  0.00     0.055 A 
ATOM     80  C   UNL     1      -1.231  -3.891 -26.226  1.00  0.00     0.041 A 
ATOM     81  F   UNL     1       0.865  -3.829 -25.183  1.00  0.00    -0.206 F 
ATOM     82  C   UNL     1      -2.506  -3.363 -26.409  1.00  0.00     0.022 A 
BRANCH  79  83
ATOM     83  S   UNL     1      -4.558  -1.570 -25.821  1.00  0.00     0.124 S 
ATOM     84  O   UNL     1      -4.941  -1.617 -24.412  1.00  0.00    -0.237 OA
ATOM     85  O   UNL     1      -4.399  -0.239 -26.396  1.00  0.00    -0.237 OA
ATOM     86  O   UNL     1      -5.235  -2.543 -26.676  1.00  0.00    -0.744 OA
ENDBRANCH  79  83
ENDBRANCH  62  76
BRANCH  63  87
ATOM     87  C   UNL     1       5.875   1.989 -18.278  1.00  0.00     0.023 A 
ATOM     88  C   UNL     1       6.377   3.295 -18.392  1.00  0.00     0.031 A 
ATOM     89  C   UNL     1       6.404   1.167 -17.265  1.00  0.00     0.131 A 
ATOM     90  C   UNL     1       7.409   3.725 -17.543  1.00  0.00     0.055 A 
ATOM     91  C   UNL     1       7.391   1.618 -16.388  1.00  0.00     0.041 A 
ATOM     92  F   UNL     1       5.963  -0.092 -17.113  1.00  0.00    -0.206 F 
ATOM     93  C   UNL     1       7.910   2.900 -16.534  1.00  0.00     0.022 A 
BRANCH  90  94
ATOM     94  S   UNL     1       8.160   5.349 -17.841  1.00  0.00     0.124 S 
ATOM     95  O   UNL     1       8.611   5.218 -19.222  1.00  0.00    -0.237 OA
ATOM     96  O   UNL     1       7.033   6.248 -17.616  1.00  0.00    -0.237 OA
ATOM     97  O   UNL     1       9.222   5.422 -16.840  1.00  0.00    -0.744 OA
ENDBRANCH  90  94
ENDBRANCH  63  87
BRANCH  75  98
ATOM     98  C   UNL     1       5.989   0.844 -25.162  1.00  0.00     0.023 A 
ATOM     99  C   UNL     1       7.227   0.181 -25.203  1.00  0.00     0.031 A 
ATOM    100  C   UNL     1       5.721   1.808 -26.151  1.00  0.00     0.131 A 
ATOM    101  C   UNL     1       8.172   0.526 -26.182  1.00  0.00     0.055 A 
ATOM    102  C   UNL     1       6.641   2.105 -27.157  1.00  0.00     0.041 A 
ATOM    103  F   UNL     1       4.555   2.473 -26.159  1.00  0.00    -0.206 F 
ATOM    104  C   UNL     1       7.880   1.471 -27.169  1.00  0.00     0.022 A 
BRANCH 101 105
ATOM    105  S   UNL     1       9.824  -0.220 -26.103  1.00  0.00     0.124 S 
ATOM    106  O   UNL     1      10.286   0.204 -24.785  1.00  0.00    -0.237 OA
ATOM    107  O   UNL     1       9.532  -1.643 -26.248  1.00  0.00    -0.237 OA
ATOM    108  O   UNL     1      10.528   0.385 -27.232  1.00  0.00    -0.744 OA
ENDBRANCH 101 105
ENDBRANCH  75  98
ENDBRANCH  49  50
ENDBRANCH  42  44
ENDBRANCH  41  42
ENDBRANCH  40  41
ENDBRANCH  39  40
ENDBRANCH  38  39
ENDBRANCH   1  38
TORSDOF 22
