REMARK SMILES C[C@@H](C(=O)OCCOCCOC(=O)c1ccc(-c2c3nc(c(-c4cc(S(=O)(=O)[O-])ccc4F)c4ccc([nH]4)c(-c4cc(S(=O)(=O)[O-])ccc4F)c4nc(c(-c5cc(S(=O)(=O)[O-])ccc5F)c5ccc2[nH]5)C=C4)C=C3)cc1)N1C(=O)/C(=C\c2ccc(OCc3ccccc3Cl)cc2)SC1=S
REMARK SMILES IDX 7 1 6 2 5 3 3 4 4 5 2 6 1 7 77 8 78 9 98 10 79 11 80 12
REMARK SMILES IDX 97 13 99 14 81 15 82 16 83 17 96 18 84 19 95 20 85 21 86 22
REMARK SMILES IDX 87 23 88 24 89 25 93 26 90 27 92 28 94 29 91 30 8 31 9 32
REMARK SMILES IDX 10 33 11 34 12 35 13 36 14 37 15 38 76 39 16 40 75 41 17 42
REMARK SMILES IDX 18 43 19 44 69 45 20 46 74 47 68 48 70 49 21 50 73 51 67 52
REMARK SMILES IDX 66 53 22 55 54 56 34 57 53 58 35 59 38 60 52 61 71 62 36 63
REMARK SMILES IDX 37 64 51 66 72 67 39 68 23 69 24 70 32 71 25 72 31 73 33 74
REMARK SMILES IDX 30 75 26 76 27 77 28 78 29 79 55 80 56 81 64 82 57 83 63 84
REMARK SMILES IDX 65 85 62 86 58 87 59 88 60 89 61 90 40 91 41 92 49 93 42 94
REMARK SMILES IDX 48 95 50 96 47 97 43 98 44 99 45 100 46 101
REMARK H PARENT 70 54 38 65
REMARK Flexibility Score: inf
ROOT
ATOM      1  C   UNL     1       2.013   4.643  -0.916  1.00  0.00     0.202 C 
ENDROOT
BRANCH   1   2
ATOM      2  C   UNL     1       2.078   4.204   0.555  1.00  0.00     0.261 C 
BRANCH   2   3
ATOM      3  O   UNL     1       1.756   2.810   0.658  1.00  0.00    -0.462 OA
BRANCH   3   4
ATOM      4  C   UNL     1       1.081   2.407   1.769  1.00  0.00     0.329 C 
ATOM      5  O   UNL     1       0.991   3.045   2.810  1.00  0.00    -0.250 OA
BRANCH   4   6
ATOM      6  C   UNL     1       0.318   1.099   1.493  1.00  0.00     0.199 C 
ATOM      7  C   UNL     1       1.023   0.247   0.413  1.00  0.00     0.044 C 
BRANCH   6   8
ATOM      8  N   UNL     1      -1.170   1.151   1.302  1.00  0.00    -0.279 N 
ATOM      9  C   UNL     1      -1.833  -0.073   1.303  1.00  0.00     0.266 C 
ATOM     10  C   UNL     1      -1.982   2.254   1.102  1.00  0.00     0.149 C 
ATOM     11  O   UNL     1      -1.296  -1.154   1.502  1.00  0.00    -0.268 OA
ATOM     12  C   UNL     1      -3.291   0.088   1.020  1.00  0.00     0.081 C 
ATOM     13  S   UNL     1      -3.643   1.748   0.786  1.00  0.00    -0.054 SA
ATOM     14  S   UNL     1      -1.669   3.887   1.141  1.00  0.00    -0.052 S 
ATOM     15  C   UNL     1      -4.243  -0.854   0.924  1.00  0.00     0.029 C 
BRANCH  15  16
ATOM     16  C   UNL     1      -4.018  -2.290   1.077  1.00  0.00    -0.024 A 
ATOM     17  C   UNL     1      -4.160  -3.129  -0.030  1.00  0.00     0.012 A 
ATOM     18  C   UNL     1      -3.599  -2.826   2.299  1.00  0.00     0.012 A 
ATOM     19  C   UNL     1      -3.761  -4.462   0.056  1.00  0.00     0.047 A 
ATOM     20  C   UNL     1      -3.193  -4.159   2.382  1.00  0.00     0.047 A 
ATOM     21  C   UNL     1      -3.207  -4.958   1.240  1.00  0.00     0.119 A 
BRANCH  21  22
ATOM     22  O   UNL     1      -2.615  -6.181   1.112  1.00  0.00    -0.489 OA
BRANCH  22  23
ATOM     23  C   UNL     1      -1.613  -6.574   2.062  1.00  0.00     0.267 C 
BRANCH  23  24
ATOM     24  C   UNL     1      -0.225  -5.961   1.913  1.00  0.00     0.008 A 
ATOM     25  C   UNL     1      -0.021  -4.685   1.357  1.00  0.00     0.009 A 
ATOM     26  C   UNL     1       0.910  -6.623   2.422  1.00  0.00     0.047 A 
ATOM     27  C   UNL     1       1.244  -4.091   1.321  1.00  0.00     0.001 A 
ATOM     28  C   UNL     1       2.181  -6.034   2.369  1.00  0.00     0.021 A 
ATOM     29  Cl  UNL     1       0.806  -8.186   3.160  1.00  0.00    -0.084 Cl
ATOM     30  C   UNL     1       2.347  -4.764   1.826  1.00  0.00     0.002 A 
ENDBRANCH  23  24
ENDBRANCH  22  23
ENDBRANCH  21  22
ENDBRANCH  15  16
ENDBRANCH   6   8
ENDBRANCH   4   6
ENDBRANCH   3   4
ENDBRANCH   2   3
ENDBRANCH   1   2
BRANCH   1  31
ATOM     31  O   UNL     1       0.761   4.482  -1.589  1.00  0.00    -0.374 OA
BRANCH  31  32
ATOM     32  C   UNL     1       0.338   3.161  -1.919  1.00  0.00     0.202 C 
BRANCH  32  33
ATOM     33  C   UNL     1       1.031   2.459  -3.092  1.00  0.00     0.261 C 
BRANCH  33  34
ATOM     34  O   UNL     1       2.436   2.255  -2.871  1.00  0.00    -0.460 OA
BRANCH  34  35
ATOM     35  C   UNL     1       3.234   2.995  -3.679  1.00  0.00     0.338 C 
ATOM     36  O   UNL     1       2.876   3.745  -4.577  1.00  0.00    -0.246 OA
BRANCH  35  37
ATOM     37  C   UNL     1       4.632   2.927  -3.221  1.00  0.00     0.060 A 
ATOM     38  C   UNL     1       5.276   4.138  -2.943  1.00  0.00     0.016 A 
ATOM     39  C   UNL     1       5.329   1.718  -3.158  1.00  0.00     0.016 A 
ATOM     40  C   UNL     1       6.636   4.153  -2.648  1.00  0.00     0.010 A 
ATOM     41  C   UNL     1       6.699   1.736  -2.869  1.00  0.00     0.010 A 
ATOM     42  C   UNL     1       7.365   2.956  -2.649  1.00  0.00    -0.014 A 
BRANCH  42  43
ATOM     43  C   UNL     1       8.846   3.010  -2.573  1.00  0.00     0.031 A 
ATOM     44  C   UNL     1       9.644   2.885  -3.843  1.00  0.00     0.074 A 
ATOM     45  C   UNL     1       9.467   3.214  -1.398  1.00  0.00     0.049 A 
ATOM     46  N   UNL     1      10.941   2.874  -4.012  1.00  0.00    -0.248 NA
ATOM     47  C   UNL     1       8.872   2.754  -5.088  1.00  0.00     0.031 C 
ATOM     48  C   UNL     1       8.795   3.403  -0.112  1.00  0.00     0.029 A 
ATOM     49  N   UNL     1      10.803   3.296  -1.094  1.00  0.00    -0.354 N 
ATOM     50  C   UNL     1      11.143   2.734  -5.382  1.00  0.00     0.074 A 
ATOM     51  C   UNL     1       9.834   2.623  -5.990  1.00  0.00     0.031 C 
ATOM     52  C   UNL     1       9.725   3.569   0.844  1.00  0.00     0.029 A 
ATOM     53  C   UNL     1      11.055   3.459   0.248  1.00  0.00     0.049 A 
ATOM     54  H   UNL     1      11.514   3.243  -1.774  1.00  0.00     0.167 HD
ATOM     55  C   UNL     1      12.313   2.710  -6.068  1.00  0.00     0.034 A 
ATOM     56  C   UNL     1      12.224   3.488   0.919  1.00  0.00     0.034 A 
ATOM     57  C   UNL     1      13.610   2.810  -5.444  1.00  0.00     0.049 A 
ATOM     58  C   UNL     1      13.515   3.366   0.144  1.00  0.00     0.074 A 
ATOM     59  C   UNL     1      14.858   2.802  -6.042  1.00  0.00     0.029 A 
ATOM     60  N   UNL     1      13.828   2.923  -4.076  1.00  0.00    -0.354 N 
ATOM     61  N   UNL     1      13.693   3.234  -1.151  1.00  0.00    -0.248 NA
ATOM     62  C   UNL     1      14.761   3.405   0.920  1.00  0.00     0.031 C 
ATOM     63  C   UNL     1      15.829   2.837  -5.035  1.00  0.00     0.029 A 
ATOM     64  C   UNL     1      15.189   2.951  -3.811  1.00  0.00     0.049 A 
ATOM     65  H   UNL     1      13.120   2.977  -3.395  1.00  0.00     0.167 HD
ATOM     66  C   UNL     1      15.073   3.208  -1.344  1.00  0.00     0.074 A 
ATOM     67  C   UNL     1      15.676   3.352  -0.036  1.00  0.00     0.031 C 
ATOM     68  C   UNL     1      15.778   3.083  -2.498  1.00  0.00     0.034 A 
BRANCH  55  69
ATOM     69  C   UNL     1      12.236   2.515  -7.563  1.00  0.00     0.023 A 
ATOM     70  C   UNL     1      11.631   3.465  -8.405  1.00  0.00     0.031 A 
ATOM     71  C   UNL     1      12.753   1.348  -8.153  1.00  0.00     0.131 A 
ATOM     72  C   UNL     1      11.498   3.200  -9.777  1.00  0.00     0.055 A 
ATOM     73  C   UNL     1      12.688   1.127  -9.530  1.00  0.00     0.041 A 
ATOM     74  F   UNL     1      13.321   0.395  -7.398  1.00  0.00    -0.206 F 
ATOM     75  C   UNL     1      12.045   2.050 -10.350  1.00  0.00     0.022 A 
BRANCH  72  76
ATOM     76  S   UNL     1      10.477   4.314 -10.782  1.00  0.00     0.124 S 
ATOM     77  O   UNL     1       9.188   4.228 -10.100  1.00  0.00    -0.237 OA
ATOM     78  O   UNL     1      11.182   5.585 -10.658  1.00  0.00    -0.237 OA
ATOM     79  O   UNL     1      10.513   3.708 -12.111  1.00  0.00    -0.744 OA
ENDBRANCH  72  76
ENDBRANCH  55  69
BRANCH  56  80
ATOM     80  C   UNL     1      12.239   3.590   2.407  1.00  0.00     0.023 A 
ATOM     81  C   UNL     1      12.829   4.684   3.058  1.00  0.00     0.031 A 
ATOM     82  C   UNL     1      11.712   2.556   3.203  1.00  0.00     0.131 A 
ATOM     83  C   UNL     1      12.922   4.697   4.459  1.00  0.00     0.055 A 
ATOM     84  C   UNL     1      11.757   2.600   4.597  1.00  0.00     0.041 A 
ATOM     85  F   UNL     1      11.139   1.484   2.633  1.00  0.00    -0.206 F 
ATOM     86  C   UNL     1      12.379   3.670   5.233  1.00  0.00     0.022 A 
BRANCH  83  87
ATOM     87  S   UNL     1      13.852   6.037   5.255  1.00  0.00     0.124 S 
ATOM     88  O   UNL     1      15.163   5.899   4.631  1.00  0.00    -0.237 OA
ATOM     89  O   UNL     1      13.077   7.212   4.871  1.00  0.00    -0.237 OA
ATOM     90  O   UNL     1      13.796   5.692   6.674  1.00  0.00    -0.744 OA
ENDBRANCH  83  87
ENDBRANCH  56  80
BRANCH  68  91
ATOM     91  C   UNL     1      17.283   3.147  -2.395  1.00  0.00     0.023 A 
ATOM     92  C   UNL     1      18.026   2.146  -1.744  1.00  0.00     0.031 A 
ATOM     93  C   UNL     1      17.984   4.232  -2.953  1.00  0.00     0.131 A 
ATOM     94  C   UNL     1      19.417   2.280  -1.617  1.00  0.00     0.055 A 
ATOM     95  C   UNL     1      19.374   4.328  -2.877  1.00  0.00     0.041 A 
ATOM     96  F   UNL     1      17.326   5.217  -3.585  1.00  0.00    -0.206 F 
ATOM     97  C   UNL     1      20.097   3.355  -2.195  1.00  0.00     0.022 A 
BRANCH  94  98
ATOM     98  S   UNL     1      20.320   1.075  -0.604  1.00  0.00     0.124 S 
ATOM     99  O   UNL     1      19.662   1.213   0.691  1.00  0.00    -0.237 OA
ATOM    100  O   UNL     1      20.073  -0.176  -1.314  1.00  0.00    -0.237 OA
ATOM    101  O   UNL     1      21.701   1.552  -0.652  1.00  0.00    -0.744 OA
ENDBRANCH  94  98
ENDBRANCH  68  91
ENDBRANCH  42  43
ENDBRANCH  35  37
ENDBRANCH  34  35
ENDBRANCH  33  34
ENDBRANCH  32  33
ENDBRANCH  31  32
ENDBRANCH   1  31
TORSDOF 22
