REMARK SMILES Cc1cc(F)c([C@H](O)[C@H]2CCCC[C@@H]2C(=O)OCCOCCOC(=O)c2ccc(-c3c4nc(c(-c5cc(S(=O)(=O)[O-])ccc5F)c5ccc([nH]5)c(-c5cc(S(=O)(=O)[O-])ccc5F)c5nc(c(-c6cc(S(=O)(=O)[O-])ccc6F)c6ccc3[nH]6)C=C5)C=C4)cc2)cc1F
REMARK SMILES IDX 21 1 20 2 19 3 18 4 17 5 15 6 16 7 14 8 9 9 10 10 11 11
REMARK SMILES IDX 13 12 12 13 7 14 6 15 1 16 2 17 3 18 90 19 4 20 89 21 91 22
REMARK SMILES IDX 5 23 8 24 22 26 23 27 24 28 25 29 26 30 27 31 88 32 28 33
REMARK SMILES IDX 87 34 29 35 30 36 31 37 81 38 32 39 86 40 80 41 82 42 33 43
REMARK SMILES IDX 85 44 79 45 78 46 34 48 66 49 46 50 65 51 47 52 50 53 64 54
REMARK SMILES IDX 83 55 48 56 49 57 63 59 84 60 51 61 35 62 36 63 44 64 37 65
REMARK SMILES IDX 43 66 45 67 42 68 38 69 39 70 40 71 41 72 67 73 68 74 76 75
REMARK SMILES IDX 69 76 75 77 77 78 74 79 70 80 71 81 72 82 73 83 52 84 53 85
REMARK SMILES IDX 61 86 54 87 60 88 62 89 59 90 55 91 56 92 57 93 58 94
REMARK H PARENT 8 25 82 47 50 58
REMARK Flexibility Score: inf
ROOT
ATOM      1  C   UNL     1       4.538  -4.478   0.816  1.00  0.00     0.202 C 
ENDROOT
BRANCH   1   2
ATOM      2  O   UNL     1       4.260  -3.229   0.191  1.00  0.00    -0.374 OA
BRANCH   2   3
ATOM      3  C   UNL     1       3.578  -2.253   0.985  1.00  0.00     0.202 C 
BRANCH   3   4
ATOM      4  C   UNL     1       2.078  -2.477   1.206  1.00  0.00     0.261 C 
BRANCH   4   5
ATOM      5  O   UNL     1       1.850  -3.577   2.113  1.00  0.00    -0.463 OA
BRANCH   5   6
ATOM      6  C   UNL     1       1.209  -4.655   1.600  1.00  0.00     0.309 C 
ATOM      7  O   UNL     1       0.714  -4.704   0.479  1.00  0.00    -0.252 OA
BRANCH   6   8
ATOM      8  C   UNL     1       1.156  -5.843   2.556  1.00  0.00     0.105 C 
ATOM      9  C   UNL     1       0.035  -5.692   3.606  1.00  0.00     0.037 C 
ATOM     10  C   UNL     1       0.538  -4.824   4.792  1.00  0.00     0.007 C 
ATOM     11  C   UNL     1       1.856  -5.308   5.398  1.00  0.00     0.000 C 
ATOM     12  C   UNL     1       2.481  -6.303   3.183  1.00  0.00     0.016 C 
ATOM     13  C   UNL     1       2.948  -5.440   4.346  1.00  0.00     0.001 C 
BRANCH   9  14
ATOM     14  C   UNL     1      -0.508  -7.081   4.081  1.00  0.00     0.151 C 
BRANCH  14  15
ATOM     15  C   UNL     1      -1.026  -7.976   2.969  1.00  0.00     0.019 A 
ATOM     16  C   UNL     1      -2.372 -10.458  -0.324  1.00  0.00     0.047 C 
ATOM     17  C   UNL     1      -1.915  -9.596   0.811  1.00  0.00    -0.012 A 
ATOM     18  C   UNL     1      -0.593  -9.667   1.252  1.00  0.00     0.046 A 
ATOM     19  C   UNL     1      -2.787  -8.725   1.470  1.00  0.00     0.126 A 
ATOM     20  C   UNL     1      -0.173  -8.887   2.328  1.00  0.00     0.129 A 
ATOM     21  C   UNL     1      -2.354  -7.912   2.520  1.00  0.00     0.049 A 
ATOM     22  F   UNL     1      -4.072  -8.657   1.093  1.00  0.00    -0.207 F 
ATOM     23  F   UNL     1       1.103  -9.003   2.720  1.00  0.00    -0.207 F 
ENDBRANCH  14  15
BRANCH  14  24
ATOM     24  O   UNL     1      -1.571  -6.924   5.027  1.00  0.00    -0.388 OA
ATOM     25  H   UNL     1      -2.326  -6.493   4.596  1.00  0.00     0.211 HD
ENDBRANCH  14  24
ENDBRANCH   9  14
ENDBRANCH   6   8
ENDBRANCH   5   6
ENDBRANCH   4   5
ENDBRANCH   3   4
ENDBRANCH   2   3
ENDBRANCH   1   2
BRANCH   1  26
ATOM     26  C   UNL     1       5.780  -4.550   1.715  1.00  0.00     0.261 C 
BRANCH  26  27
ATOM     27  O   UNL     1       5.626  -3.762   2.907  1.00  0.00    -0.460 OA
BRANCH  27  28
ATOM     28  C   UNL     1       6.271  -2.569   2.892  1.00  0.00     0.338 C 
ATOM     29  O   UNL     1       7.025  -2.164   2.020  1.00  0.00    -0.246 OA
BRANCH  28  30
ATOM     30  C   UNL     1       5.764  -1.710   3.987  1.00  0.00     0.060 A 
ATOM     31  C   UNL     1       5.499  -2.204   5.266  1.00  0.00     0.016 A 
ATOM     32  C   UNL     1       5.556  -0.354   3.700  1.00  0.00     0.016 A 
ATOM     33  C   UNL     1       5.071  -1.324   6.267  1.00  0.00     0.010 A 
ATOM     34  C   UNL     1       5.141   0.523   4.703  1.00  0.00     0.010 A 
ATOM     35  C   UNL     1       4.920   0.052   6.003  1.00  0.00    -0.014 A 
BRANCH  35  36
ATOM     36  C   UNL     1       4.700   1.011   7.119  1.00  0.00     0.031 A 
ATOM     37  C   UNL     1       3.412   1.764   7.285  1.00  0.00     0.074 A 
ATOM     38  C   UNL     1       5.718   1.232   7.975  1.00  0.00     0.049 A 
ATOM     39  N   UNL     1       3.051   2.559   8.258  1.00  0.00    -0.248 NA
ATOM     40  C   UNL     1       2.407   1.620   6.222  1.00  0.00     0.031 C 
ATOM     41  C   UNL     1       7.042   0.618   7.864  1.00  0.00     0.029 A 
ATOM     42  N   UNL     1       5.807   2.016   9.099  1.00  0.00    -0.354 N 
ATOM     43  C   UNL     1       1.771   2.998   7.941  1.00  0.00     0.074 A 
ATOM     44  C   UNL     1       1.443   2.426   6.652  1.00  0.00     0.031 C 
ATOM     45  C   UNL     1       7.795   1.011   8.900  1.00  0.00     0.029 A 
ATOM     46  C   UNL     1       7.027   1.935   9.731  1.00  0.00     0.049 A 
ATOM     47  H   UNL     1       5.069   2.582   9.421  1.00  0.00     0.167 HD
ATOM     48  C   UNL     1       0.943   3.784   8.673  1.00  0.00     0.034 A 
ATOM     49  C   UNL     1       7.480   2.524  10.858  1.00  0.00     0.034 A 
ATOM     50  C   UNL     1       1.299   4.359   9.949  1.00  0.00     0.049 A 
ATOM     51  C   UNL     1       6.540   3.393  11.654  1.00  0.00     0.074 A 
ATOM     52  C   UNL     1       0.508   5.124  10.790  1.00  0.00     0.029 A 
ATOM     53  N   UNL     1       2.537   4.247  10.567  1.00  0.00    -0.354 N 
ATOM     54  N   UNL     1       5.287   3.693  11.407  1.00  0.00    -0.248 NA
ATOM     55  C   UNL     1       7.061   3.985  12.894  1.00  0.00     0.031 C 
ATOM     56  C   UNL     1       1.288   5.542  11.867  1.00  0.00     0.029 A 
ATOM     57  C   UNL     1       2.538   4.954  11.760  1.00  0.00     0.049 A 
ATOM     58  H   UNL     1       3.302   3.740  10.210  1.00  0.00     0.167 HD
ATOM     59  C   UNL     1       4.859   4.473  12.478  1.00  0.00     0.074 A 
ATOM     60  C   UNL     1       5.982   4.582  13.384  1.00  0.00     0.031 C 
ATOM     61  C   UNL     1       3.645   5.043  12.685  1.00  0.00     0.034 A 
BRANCH  48  62
ATOM     62  C   UNL     1      -0.450   4.060   8.155  1.00  0.00     0.023 A 
ATOM     63  C   UNL     1      -0.875   5.384   7.931  1.00  0.00     0.031 A 
ATOM     64  C   UNL     1      -1.405   3.031   8.049  1.00  0.00     0.131 A 
ATOM     65  C   UNL     1      -2.224   5.647   7.660  1.00  0.00     0.055 A 
ATOM     66  C   UNL     1      -2.737   3.295   7.729  1.00  0.00     0.041 A 
ATOM     67  F   UNL     1      -1.056   1.752   8.262  1.00  0.00    -0.206 F 
ATOM     68  C   UNL     1      -3.156   4.610   7.550  1.00  0.00     0.022 A 
BRANCH  65  69
ATOM     69  S   UNL     1      -2.842   7.348   7.529  1.00  0.00     0.124 S 
ATOM     70  O   UNL     1      -3.404   7.358   6.180  1.00  0.00    -0.237 OA
ATOM     71  O   UNL     1      -3.820   7.402   8.612  1.00  0.00    -0.237 OA
ATOM     72  O   UNL     1      -1.651   8.169   7.711  1.00  0.00    -0.744 OA
ENDBRANCH  65  69
ENDBRANCH  48  62
BRANCH  49  73
ATOM     73  C   UNL     1       8.864   2.221  11.327  1.00  0.00     0.023 A 
ATOM     74  C   UNL     1       9.982   2.536  10.532  1.00  0.00     0.031 A 
ATOM     75  C   UNL     1       9.082   1.508  12.518  1.00  0.00     0.131 A 
ATOM     76  C   UNL     1      11.252   2.076  10.902  1.00  0.00     0.055 A 
ATOM     77  C   UNL     1      10.361   1.122  12.923  1.00  0.00     0.041 A 
ATOM     78  F   UNL     1       8.048   1.166  13.301  1.00  0.00    -0.206 F 
ATOM     79  C   UNL     1      11.453   1.390  12.103  1.00  0.00     0.022 A 
BRANCH  76  80
ATOM     80  S   UNL     1      12.660   2.227   9.767  1.00  0.00     0.124 S 
ATOM     81  O   UNL     1      13.610   3.001  10.560  1.00  0.00    -0.237 OA
ATOM     82  O   UNL     1      13.014   0.826   9.548  1.00  0.00    -0.237 OA
ATOM     83  O   UNL     1      12.097   2.912   8.609  1.00  0.00    -0.744 OA
ENDBRANCH  76  80
ENDBRANCH  49  73
BRANCH  61  84
ATOM     84  C   UNL     1       3.409   5.826  13.958  1.00  0.00     0.023 A 
ATOM     85  C   UNL     1       2.380   5.430  14.837  1.00  0.00     0.031 A 
ATOM     86  C   UNL     1       4.070   7.038  14.221  1.00  0.00     0.131 A 
ATOM     87  C   UNL     1       2.009   6.261  15.902  1.00  0.00     0.055 A 
ATOM     88  C   UNL     1       3.738   7.833  15.320  1.00  0.00     0.041 A 
ATOM     89  F   UNL     1       5.047   7.473  13.408  1.00  0.00    -0.206 F 
ATOM     90  C   UNL     1       2.691   7.454  16.155  1.00  0.00     0.022 A 
BRANCH  87  91
ATOM     91  S   UNL     1       0.560   5.879  16.926  1.00  0.00     0.124 S 
ATOM     92  O   UNL     1       1.156   5.741  18.253  1.00  0.00    -0.237 OA
ATOM     93  O   UNL     1      -0.270   7.065  16.736  1.00  0.00    -0.237 OA
ATOM     94  O   UNL     1       0.035   4.646  16.349  1.00  0.00    -0.744 OA
ENDBRANCH  87  91
ENDBRANCH  61  84
ENDBRANCH  35  36
ENDBRANCH  28  30
ENDBRANCH  27  28
ENDBRANCH  26  27
ENDBRANCH   1  26
TORSDOF 20
