REMARK SMILES Cc1ncccc1Oc1ccc(C(=O)OCCOCCOC(=O)c2ccc(-c3c4nc(c(-c5cc(S(=O)(=O)[O-])ccc5F)c5ccc([nH]5)c(-c5cc(S(=O)(=O)[O-])ccc5F)c5nc(c(-c6cc(S(=O)(=O)[O-])ccc6F)c6ccc3[nH]6)C=C5)C=C4)cc2)cc1Cl
REMARK SMILES IDX 19 1 18 2 17 3 16 4 15 5 13 6 14 7 12 8 9 9 10 10 88 11
REMARK SMILES IDX 11 12 87 13 89 14 8 15 7 16 1 17 2 18 3 19 4 20 6 21 5 22
REMARK SMILES IDX 20 23 21 24 22 25 23 26 24 27 25 28 86 29 26 30 85 31 27 32
REMARK SMILES IDX 28 33 29 34 79 35 30 36 84 37 78 38 80 39 31 40 83 41 77 42
REMARK SMILES IDX 76 43 32 45 64 46 44 47 63 48 45 49 48 50 62 51 81 52 46 53
REMARK SMILES IDX 47 54 61 56 82 57 49 58 33 59 34 60 42 61 35 62 41 63 43 64
REMARK SMILES IDX 40 65 36 66 37 67 38 68 39 69 65 70 66 71 74 72 67 73 73 74
REMARK SMILES IDX 75 75 72 76 68 77 69 78 70 79 71 80 50 81 51 82 59 83 52 84
REMARK SMILES IDX 58 85 60 86 57 87 53 88 54 89 55 90 56 91
REMARK H PARENT 80 44 48 55
REMARK Flexibility Score: inf
ROOT
ATOM      1  C   UNL     1       7.514  -4.821   0.257  1.00  0.00     0.202 C 
ENDROOT
BRANCH   1   2
ATOM      2  O   UNL     1       8.779  -4.272  -0.106  1.00  0.00    -0.374 OA
BRANCH   2   3
ATOM      3  C   UNL     1       9.228  -3.100   0.577  1.00  0.00     0.202 C 
BRANCH   3   4
ATOM      4  C   UNL     1       8.575  -1.775   0.178  1.00  0.00     0.261 C 
BRANCH   4   5
ATOM      5  O   UNL     1       7.174  -1.778   0.490  1.00  0.00    -0.460 OA
BRANCH   5   6
ATOM      6  C   UNL     1       6.355  -1.762  -0.583  1.00  0.00     0.338 C 
ATOM      7  O   UNL     1       6.675  -1.595  -1.753  1.00  0.00    -0.246 OA
BRANCH   6   8
ATOM      8  C   UNL     1       4.970  -2.103  -0.190  1.00  0.00     0.061 A 
ATOM      9  C   UNL     1       2.256  -2.384   0.263  1.00  0.00     0.146 A 
ATOM     10  C   UNL     1       2.785  -2.802  -0.958  1.00  0.00     0.049 A 
ATOM     11  C   UNL     1       3.097  -2.024   1.324  1.00  0.00     0.084 A 
ATOM     12  C   UNL     1       4.146  -2.646  -1.188  1.00  0.00     0.019 A 
ATOM     13  C   UNL     1       4.463  -1.864   1.094  1.00  0.00     0.040 A 
ATOM     14  Cl  UNL     1       2.461  -1.658   2.884  1.00  0.00    -0.080 Cl
BRANCH   9  15
ATOM     15  O   UNL     1       0.896  -2.316   0.366  1.00  0.00    -0.454 OA
BRANCH  15  16
ATOM     16  C   UNL     1       0.259  -1.111   0.128  1.00  0.00     0.148 A 
ATOM     17  C   UNL     1       2.201   0.502  -0.475  1.00  0.00     0.071 C 
ATOM     18  C   UNL     1       0.766   0.151  -0.227  1.00  0.00     0.080 A 
ATOM     19  N   UNL     1      -0.049   1.237  -0.375  1.00  0.00    -0.258 NA
ATOM     20  C   UNL     1      -1.372   1.088  -0.183  1.00  0.00     0.111 A 
ATOM     21  C   UNL     1      -1.130  -1.222   0.287  1.00  0.00     0.050 A 
ATOM     22  C   UNL     1      -1.959  -0.116   0.134  1.00  0.00     0.024 A 
ENDBRANCH  15  16
ENDBRANCH   9  15
ENDBRANCH   6   8
ENDBRANCH   5   6
ENDBRANCH   4   5
ENDBRANCH   3   4
ENDBRANCH   2   3
ENDBRANCH   1   2
BRANCH   1  23
ATOM     23  C   UNL     1       7.409  -5.587   1.581  1.00  0.00     0.261 C 
BRANCH  23  24
ATOM     24  O   UNL     1       7.729  -4.783   2.727  1.00  0.00    -0.460 OA
BRANCH  24  25
ATOM     25  C   UNL     1       8.937  -5.069   3.274  1.00  0.00     0.338 C 
ATOM     26  O   UNL     1       9.709  -5.948   2.916  1.00  0.00    -0.246 OA
BRANCH  25  27
ATOM     27  C   UNL     1       9.313  -4.052   4.273  1.00  0.00     0.060 A 
ATOM     28  C   UNL     1      10.602  -3.512   4.173  1.00  0.00     0.016 A 
ATOM     29  C   UNL     1       8.478  -3.702   5.337  1.00  0.00     0.016 A 
ATOM     30  C   UNL     1      11.091  -2.684   5.178  1.00  0.00     0.010 A 
ATOM     31  C   UNL     1       8.974  -2.871   6.350  1.00  0.00     0.010 A 
ATOM     32  C   UNL     1      10.300  -2.402   6.299  1.00  0.00    -0.014 A 
BRANCH  32  33
ATOM     33  C   UNL     1      10.945  -1.788   7.487  1.00  0.00     0.031 A 
ATOM     34  C   UNL     1      11.372  -2.683   8.621  1.00  0.00     0.074 A 
ATOM     35  C   UNL     1      11.220  -0.472   7.520  1.00  0.00     0.049 A 
ATOM     36  N   UNL     1      11.996  -2.382   9.730  1.00  0.00    -0.248 NA
ATOM     37  C   UNL     1      11.047  -4.112   8.482  1.00  0.00     0.031 C 
ATOM     38  C   UNL     1      10.897   0.483   6.461  1.00  0.00     0.029 A 
ATOM     39  N   UNL     1      11.847   0.285   8.477  1.00  0.00    -0.354 N 
ATOM     40  C   UNL     1      12.136  -3.581  10.424  1.00  0.00     0.074 A 
ATOM     41  C   UNL     1      11.492  -4.603   9.628  1.00  0.00     0.031 C 
ATOM     42  C   UNL     1      11.335   1.701   6.825  1.00  0.00     0.029 A 
ATOM     43  C   UNL     1      11.943   1.617   8.152  1.00  0.00     0.049 A 
ATOM     44  H   UNL     1      12.196  -0.091   9.317  1.00  0.00     0.167 HD
ATOM     45  C   UNL     1      12.755  -3.809  11.609  1.00  0.00     0.034 A 
ATOM     46  C   UNL     1      12.456   2.650   8.851  1.00  0.00     0.034 A 
ATOM     47  C   UNL     1      13.390  -2.777  12.393  1.00  0.00     0.049 A 
ATOM     48  C   UNL     1      13.078   2.383  10.201  1.00  0.00     0.074 A 
ATOM     49  C   UNL     1      14.063  -2.898  13.596  1.00  0.00     0.029 A 
ATOM     50  N   UNL     1      13.420  -1.429  12.058  1.00  0.00    -0.354 N 
ATOM     51  N   UNL     1      13.222   1.242  10.837  1.00  0.00    -0.248 NA
ATOM     52  C   UNL     1      13.621   3.543  10.918  1.00  0.00     0.031 C 
ATOM     53  C   UNL     1      14.434  -1.618  14.023  1.00  0.00     0.029 A 
ATOM     54  C   UNL     1      14.068  -0.705  13.047  1.00  0.00     0.049 A 
ATOM     55  H   UNL     1      13.036  -1.043  11.237  1.00  0.00     0.167 HD
ATOM     56  C   UNL     1      13.907   1.546  12.011  1.00  0.00     0.074 A 
ATOM     57  C   UNL     1      14.156   2.973  11.987  1.00  0.00     0.031 C 
ATOM     58  C   UNL     1      14.302   0.721  13.016  1.00  0.00     0.034 A 
BRANCH  45  59
ATOM     59  C   UNL     1      12.719  -5.220  12.149  1.00  0.00     0.023 A 
ATOM     60  C   UNL     1      13.338  -6.291  11.478  1.00  0.00     0.031 A 
ATOM     61  C   UNL     1      12.018  -5.505  13.334  1.00  0.00     0.131 A 
ATOM     62  C   UNL     1      13.180  -7.601  11.955  1.00  0.00     0.055 A 
ATOM     63  C   UNL     1      11.933  -6.801  13.847  1.00  0.00     0.041 A 
ATOM     64  F   UNL     1      11.386  -4.529  14.005  1.00  0.00    -0.206 F 
ATOM     65  C   UNL     1      12.502  -7.861  13.149  1.00  0.00     0.022 A 
BRANCH  62  66
ATOM     66  S   UNL     1      13.740  -8.978  10.915  1.00  0.00     0.124 S 
ATOM     67  O   UNL     1      12.977  -8.752   9.690  1.00  0.00    -0.237 OA
ATOM     68  O   UNL     1      15.176  -8.743  10.827  1.00  0.00    -0.237 OA
ATOM     69  O   UNL     1      13.346 -10.164  11.674  1.00  0.00    -0.744 OA
ENDBRANCH  62  66
ENDBRANCH  45  59
BRANCH  46  70
ATOM     70  C   UNL     1      12.391   4.038   8.308  1.00  0.00     0.023 A 
ATOM     71  C   UNL     1      13.559   4.757   8.009  1.00  0.00     0.031 A 
ATOM     72  C   UNL     1      11.155   4.687   8.137  1.00  0.00     0.131 A 
ATOM     73  C   UNL     1      13.470   6.098   7.602  1.00  0.00     0.055 A 
ATOM     74  C   UNL     1      11.070   6.003   7.682  1.00  0.00     0.041 A 
ATOM     75  F   UNL     1      10.008   4.045   8.408  1.00  0.00    -0.206 F 
ATOM     76  C   UNL     1      12.233   6.721   7.425  1.00  0.00     0.022 A 
BRANCH  73  77
ATOM     77  S   UNL     1      15.003   7.045   7.389  1.00  0.00     0.124 S 
ATOM     78  O   UNL     1      15.603   6.941   8.714  1.00  0.00    -0.237 OA
ATOM     79  O   UNL     1      15.669   6.304   6.322  1.00  0.00    -0.237 OA
ATOM     80  O   UNL     1      14.530   8.377   7.018  1.00  0.00    -0.744 OA
ENDBRANCH  73  77
ENDBRANCH  46  70
BRANCH  58  81
ATOM     81  C   UNL     1      15.094   1.342  14.143  1.00  0.00     0.023 A 
ATOM     82  C   UNL     1      14.530   2.291  15.014  1.00  0.00     0.031 A 
ATOM     83  C   UNL     1      16.444   0.996  14.330  1.00  0.00     0.131 A 
ATOM     84  C   UNL     1      15.330   2.909  15.988  1.00  0.00     0.055 A 
ATOM     85  C   UNL     1      17.217   1.565  15.342  1.00  0.00     0.041 A 
ATOM     86  F   UNL     1      17.037   0.097  13.527  1.00  0.00    -0.206 F 
ATOM     87  C   UNL     1      16.665   2.540  16.168  1.00  0.00     0.022 A 
BRANCH  84  88
ATOM     88  S   UNL     1      14.632   4.284  16.944  1.00  0.00     0.124 S 
ATOM     89  O   UNL     1      14.216   5.206  15.892  1.00  0.00    -0.237 OA
ATOM     90  O   UNL     1      13.556   3.634  17.684  1.00  0.00    -0.237 OA
ATOM     91  O   UNL     1      15.756   4.740  17.759  1.00  0.00    -0.744 OA
ENDBRANCH  84  88
ENDBRANCH  58  81
ENDBRANCH  32  33
ENDBRANCH  25  27
ENDBRANCH  24  25
ENDBRANCH  23  24
ENDBRANCH   1  23
TORSDOF 19
