REMARK SMILES Cc1ccc(Cn2c(C)c(C[NH2+]Cc3ccco3)c(C(=O)OCCOCCOC(=O)c3ccc(-c4c5nc(c(-c6cc(S(=O)(=O)[O-])ccc6F)c6ccc([nH]6)c(-c6cc(S(=O)(=O)[O-])ccc6F)c6nc(c(-c7cc(S(=O)(=O)[O-])ccc7F)c7ccc4[nH]7)C=C6)C=C5)cc3)c2C)cc1
REMARK SMILES IDX 24 1 23 2 22 3 20 4 21 5 19 6 7 7 8 8 94 9 9 10 10 11 95 12
REMARK SMILES IDX 6 13 5 14 1 15 2 16 3 17 97 18 4 19 96 20 11 21 12 22 13 25
REMARK SMILES IDX 14 26 15 27 18 28 16 29 17 30 25 31 26 32 27 33 28 34 29 35
REMARK SMILES IDX 30 36 31 37 32 38 93 39 33 40 92 41 34 42 35 43 36 44 86 45
REMARK SMILES IDX 37 46 91 47 85 48 87 49 38 50 90 51 84 52 83 53 39 55 71 56
REMARK SMILES IDX 51 57 70 58 52 59 55 60 69 61 88 62 53 63 54 64 68 66 89 67
REMARK SMILES IDX 56 68 40 69 41 70 49 71 42 72 48 73 50 74 47 75 43 76 44 77
REMARK SMILES IDX 45 78 46 79 72 80 73 81 81 82 74 83 80 84 82 85 79 86 75 87
REMARK SMILES IDX 76 88 77 89 78 90 57 91 58 92 66 93 59 94 65 95 67 96 64 97
REMARK SMILES IDX 60 98 61 99 62 100 63 101
REMARK H PARENT 12 23 12 24 87 54 55 65
REMARK Flexibility Score: inf
ROOT
ATOM      1  C   UNL     1      -5.737  -5.475  -1.142  1.00  0.00     0.202 C 
ENDROOT
BRANCH   1   2
ATOM      2  C   UNL     1      -4.401  -5.240  -1.764  1.00  0.00     0.261 C 
BRANCH   2   3
ATOM      3  O   UNL     1      -4.178  -3.864  -2.108  1.00  0.00    -0.460 OA
BRANCH   3   4
ATOM      4  C   UNL     1      -4.906  -3.123  -2.980  1.00  0.00     0.340 C 
ATOM      5  O   UNL     1      -5.529  -3.545  -3.947  1.00  0.00    -0.246 OA
BRANCH   4   6
ATOM      6  C   UNL     1      -4.836  -1.712  -2.594  1.00  0.00     0.089 A 
ATOM      7  N   UNL     1      -4.234   0.090  -1.396  1.00  0.00    -0.343 N 
ATOM      8  C   UNL     1      -5.070   0.540  -2.416  1.00  0.00     0.025 A 
ATOM      9  C   UNL     1      -4.357  -1.278  -1.365  1.00  0.00     0.030 A 
ATOM     10  C   UNL     1      -5.603   1.926  -2.523  1.00  0.00     0.065 C 
ATOM     11  C   UNL     1      -5.376  -0.555  -3.240  1.00  0.00     0.042 A 
ATOM     12  C   UNL     1      -4.020  -2.110  -0.180  1.00  0.00     0.065 C 
BRANCH   7  13
ATOM     13  C   UNL     1      -3.574   0.871  -0.332  1.00  0.00     0.157 C 
BRANCH  13  14
ATOM     14  C   UNL     1      -2.062   0.702  -0.213  1.00  0.00    -0.028 A 
ATOM     15  C   UNL     1       2.252   0.254   0.116  1.00  0.00     0.044 C 
ATOM     16  C   UNL     1       0.766   0.442   0.042  1.00  0.00    -0.051 A 
ATOM     17  C   UNL     1      -0.085  -0.515   0.585  1.00  0.00     0.004 A 
ATOM     18  C   UNL     1       0.200   1.538  -0.617  1.00  0.00     0.004 A 
ATOM     19  C   UNL     1      -1.472  -0.360   0.493  1.00  0.00     0.006 A 
ATOM     20  C   UNL     1      -1.194   1.660  -0.753  1.00  0.00     0.006 A 
ENDBRANCH  13  14
ENDBRANCH   7  13
BRANCH  11  21
ATOM     21  C   UNL     1      -6.213  -0.585  -4.500  1.00  0.00     0.300 C 
BRANCH  21  22
ATOM     22  N   UNL     1      -7.512  -1.180  -4.165  1.00  0.00    -0.336 N 
ATOM     23  H   UNL     1      -7.989  -0.568  -3.503  1.00  0.00     0.346 HD
ATOM     24  H   UNL     1      -7.333  -2.103  -3.769  1.00  0.00     0.346 HD
BRANCH  22  25
ATOM     25  C   UNL     1      -8.373  -1.364  -5.335  1.00  0.00     0.337 C 
BRANCH  25  26
ATOM     26  C   UNL     1      -8.258  -2.714  -5.961  1.00  0.00     0.157 A 
ATOM     27  C   UNL     1      -7.651  -3.187  -7.107  1.00  0.00     0.052 A 
ATOM     28  O   UNL     1      -8.908  -3.738  -5.328  1.00  0.00    -0.463 OA
ATOM     29  C   UNL     1      -7.946  -4.571  -7.178  1.00  0.00     0.042 A 
ATOM     30  C   UNL     1      -8.703  -4.857  -6.068  1.00  0.00     0.195 A 
ENDBRANCH  25  26
ENDBRANCH  22  25
ENDBRANCH  21  22
ENDBRANCH  11  21
ENDBRANCH   4   6
ENDBRANCH   3   4
ENDBRANCH   2   3
ENDBRANCH   1   2
BRANCH   1  31
ATOM     31  O   UNL     1      -6.658  -5.340  -2.213  1.00  0.00    -0.374 OA
BRANCH  31  32
ATOM     32  C   UNL     1      -8.002  -5.590  -1.880  1.00  0.00     0.202 C 
BRANCH  32  33
ATOM     33  C   UNL     1      -8.231  -7.068  -1.546  1.00  0.00     0.261 C 
BRANCH  33  34
ATOM     34  O   UNL     1      -7.837  -7.889  -2.669  1.00  0.00    -0.460 OA
BRANCH  34  35
ATOM     35  C   UNL     1      -6.643  -8.539  -2.542  1.00  0.00     0.338 C 
ATOM     36  O   UNL     1      -6.340  -9.272  -1.616  1.00  0.00    -0.246 OA
BRANCH  35  37
ATOM     37  C   UNL     1      -5.704  -8.112  -3.622  1.00  0.00     0.060 A 
ATOM     38  C   UNL     1      -4.332  -8.427  -3.553  1.00  0.00     0.016 A 
ATOM     39  C   UNL     1      -6.145  -7.166  -4.543  1.00  0.00     0.016 A 
ATOM     40  C   UNL     1      -3.398  -7.705  -4.319  1.00  0.00     0.010 A 
ATOM     41  C   UNL     1      -5.220  -6.402  -5.221  1.00  0.00     0.010 A 
ATOM     42  C   UNL     1      -3.846  -6.646  -5.112  1.00  0.00    -0.014 A 
BRANCH  42  43
ATOM     43  C   UNL     1      -3.004  -5.625  -5.742  1.00  0.00     0.031 A 
ATOM     44  C   UNL     1      -3.021  -5.463  -7.208  1.00  0.00     0.074 A 
ATOM     45  C   UNL     1      -2.438  -4.653  -4.990  1.00  0.00     0.049 A 
ATOM     46  N   UNL     1      -2.056  -4.930  -7.875  1.00  0.00    -0.248 NA
ATOM     47  C   UNL     1      -4.121  -5.909  -8.059  1.00  0.00     0.031 C 
ATOM     48  C   UNL     1      -2.040  -3.305  -5.389  1.00  0.00     0.029 A 
ATOM     49  N   UNL     1      -2.123  -4.699  -3.637  1.00  0.00    -0.354 N 
ATOM     50  C   UNL     1      -2.547  -4.631  -9.124  1.00  0.00     0.074 A 
ATOM     51  C   UNL     1      -3.781  -5.372  -9.233  1.00  0.00     0.031 C 
ATOM     52  C   UNL     1      -1.383  -2.712  -4.374  1.00  0.00     0.029 A 
ATOM     53  C   UNL     1      -1.212  -3.693  -3.310  1.00  0.00     0.049 A 
ATOM     54  H   UNL     1      -2.492  -5.350  -2.998  1.00  0.00     0.167 HD
ATOM     55  C   UNL     1      -1.975  -3.633  -9.855  1.00  0.00     0.034 A 
ATOM     56  C   UNL     1      -0.069  -4.003  -2.642  1.00  0.00     0.034 A 
ATOM     57  C   UNL     1      -0.942  -2.929  -9.074  1.00  0.00     0.049 A 
ATOM     58  C   UNL     1       1.054  -3.866  -3.642  1.00  0.00     0.074 A 
ATOM     59  C   UNL     1      -0.908  -1.666  -8.501  1.00  0.00     0.029 A 
ATOM     60  N   UNL     1       0.127  -3.631  -8.507  1.00  0.00    -0.354 N 
ATOM     61  N   UNL     1       0.854  -3.894  -4.935  1.00  0.00    -0.248 NA
ATOM     62  C   UNL     1       2.436  -3.568  -3.296  1.00  0.00     0.031 C 
ATOM     63  C   UNL     1       0.157  -1.631  -7.561  1.00  0.00     0.029 A 
ATOM     64  C   UNL     1       0.798  -2.860  -7.574  1.00  0.00     0.049 A 
ATOM     65  H   UNL     1       0.371  -4.555  -8.741  1.00  0.00     0.167 HD
ATOM     66  C   UNL     1       1.989  -3.519  -5.582  1.00  0.00     0.074 A 
ATOM     67  C   UNL     1       2.971  -3.374  -4.516  1.00  0.00     0.031 C 
ATOM     68  C   UNL     1       2.027  -3.320  -6.932  1.00  0.00     0.034 A 
BRANCH  55  69
ATOM     69  C   UNL     1      -2.605  -3.081 -11.124  1.00  0.00     0.023 A 
ATOM     70  C   UNL     1      -2.358  -1.750 -11.513  1.00  0.00     0.031 A 
ATOM     71  C   UNL     1      -3.454  -3.804 -11.990  1.00  0.00     0.131 A 
ATOM     72  C   UNL     1      -3.023  -1.164 -12.609  1.00  0.00     0.055 A 
ATOM     73  C   UNL     1      -4.172  -3.207 -13.036  1.00  0.00     0.041 A 
ATOM     74  F   UNL     1      -3.576  -5.136 -11.903  1.00  0.00    -0.206 F 
ATOM     75  C   UNL     1      -3.969  -1.872 -13.343  1.00  0.00     0.022 A 
BRANCH  72  76
ATOM     76  S   UNL     1      -2.589   0.527 -13.101  1.00  0.00     0.124 S 
ATOM     77  O   UNL     1      -3.050   1.307 -11.958  1.00  0.00    -0.237 OA
ATOM     78  O   UNL     1      -1.145   0.436 -13.284  1.00  0.00    -0.237 OA
ATOM     79  O   UNL     1      -3.351   0.727 -14.334  1.00  0.00    -0.744 OA
ENDBRANCH  72  76
ENDBRANCH  55  69
BRANCH  56  80
ATOM     80  C   UNL     1      -0.255  -5.045  -1.574  1.00  0.00     0.023 A 
ATOM     81  C   UNL     1      -0.878  -4.665  -0.353  1.00  0.00     0.031 A 
ATOM     82  C   UNL     1      -0.222  -6.418  -1.869  1.00  0.00     0.131 A 
ATOM     83  C   UNL     1      -1.512  -5.624   0.468  1.00  0.00     0.055 A 
ATOM     84  C   UNL     1      -0.855  -7.368  -1.050  1.00  0.00     0.041 A 
ATOM     85  F   UNL     1       0.315  -6.855  -3.018  1.00  0.00    -0.206 F 
ATOM     86  C   UNL     1      -1.521  -6.973   0.109  1.00  0.00     0.022 A 
BRANCH  83  87
ATOM     87  S   UNL     1      -2.575  -5.139   1.877  1.00  0.00     0.124 S 
ATOM     88  O   UNL     1      -1.909  -5.773   3.008  1.00  0.00    -0.237 OA
ATOM     89  O   UNL     1      -2.531  -3.681   1.869  1.00  0.00    -0.237 OA
ATOM     90  O   UNL     1      -3.867  -5.716   1.504  1.00  0.00    -0.744 OA
ENDBRANCH  83  87
ENDBRANCH  56  80
BRANCH  68  91
ATOM     91  C   UNL     1       3.291  -3.408  -7.740  1.00  0.00     0.023 A 
ATOM     92  C   UNL     1       4.461  -3.968  -7.216  1.00  0.00     0.031 A 
ATOM     93  C   UNL     1       3.330  -3.055  -9.108  1.00  0.00     0.131 A 
ATOM     94  C   UNL     1       5.628  -4.056  -7.983  1.00  0.00     0.055 A 
ATOM     95  C   UNL     1       4.463  -3.241  -9.901  1.00  0.00     0.041 A 
ATOM     96  F   UNL     1       2.268  -2.541  -9.744  1.00  0.00    -0.206 F 
ATOM     97  C   UNL     1       5.632  -3.725  -9.334  1.00  0.00     0.022 A 
BRANCH  94  98
ATOM     98  S   UNL     1       7.148  -4.532  -7.131  1.00  0.00     0.124 S 
ATOM     99  O   UNL     1       7.302  -3.443  -6.169  1.00  0.00    -0.237 OA
ATOM    100  O   UNL     1       6.800  -5.831  -6.563  1.00  0.00    -0.237 OA
ATOM    101  O   UNL     1       8.143  -4.564  -8.199  1.00  0.00    -0.744 OA
ENDBRANCH  94  98
ENDBRANCH  68  91
ENDBRANCH  42  43
ENDBRANCH  35  37
ENDBRANCH  34  35
ENDBRANCH  33  34
ENDBRANCH  32  33
ENDBRANCH  31  32
ENDBRANCH   1  31
TORSDOF 23
