REMARK SMILES O=C(Nc1ccc(N2CC[NH+](CC(=O)N3CCOCC3)CC2)c(C(=O)OCCOCCOC(=O)c2ccc(-c3c4nc(c(-c5cc(S(=O)(=O)[O-])ccc5F)c5ccc([nH]5)c(-c5cc(S(=O)(=O)[O-])ccc5F)c5nc(c(-c6cc(S(=O)(=O)[O-])ccc6F)c6ccc3[nH]6)C=C5)C=C4)cc2)c1)c1cccc(Cl)c1
REMARK SMILES IDX 29 1 28 2 27 3 26 4 24 5 25 6 23 7 4 8 5 9 98 10 6 11 7 12
REMARK SMILES IDX 3 13 1 14 2 15 99 17 100 18 105 19 101 20 103 21 102 22
REMARK SMILES IDX 104 23 8 24 9 25 22 26 10 27 21 28 11 29 12 31 13 32 14 33
REMARK SMILES IDX 15 34 16 35 20 36 17 37 19 38 18 39 30 40 31 41 32 42 33 43
REMARK SMILES IDX 34 44 35 45 36 46 97 47 37 48 96 49 38 50 39 51 40 52 90 53
REMARK SMILES IDX 41 54 95 55 89 56 91 57 42 58 94 59 88 60 87 61 43 63 75 64
REMARK SMILES IDX 55 65 74 66 56 67 59 68 73 69 92 70 57 71 58 72 72 74 93 75
REMARK SMILES IDX 60 76 44 77 45 78 53 79 46 80 52 81 54 82 51 83 47 84 48 85
REMARK SMILES IDX 49 86 50 87 76 88 77 89 85 90 78 91 84 92 86 93 83 94 79 95
REMARK SMILES IDX 80 96 81 97 82 98 61 99 62 100 70 101 63 102 69 103 71 104
REMARK SMILES IDX 68 105 64 106 65 107 66 108 67 109
REMARK H PARENT 3 16 11 30 91 62 59 73
REMARK Flexibility Score: inf
ROOT
ATOM      1  O   UNL     1       8.352  -3.917  -1.954  1.00  0.00    -0.374 OA
ENDROOT
BRANCH   1   2
ATOM      2  C   UNL     1       7.527  -4.627  -1.014  1.00  0.00     0.202 C 
BRANCH   2   3
ATOM      3  C   UNL     1       7.382  -3.900   0.324  1.00  0.00     0.261 C 
BRANCH   3   4
ATOM      4  O   UNL     1       6.576  -2.735   0.099  1.00  0.00    -0.460 OA
BRANCH   4   5
ATOM      5  C   UNL     1       6.932  -1.627   0.796  1.00  0.00     0.340 C 
ATOM      6  O   UNL     1       7.659  -1.586   1.763  1.00  0.00    -0.246 OA
BRANCH   5   7
ATOM      7  C   UNL     1       6.377  -0.456   0.061  1.00  0.00     0.085 A 
ATOM      8  C   UNL     1       4.348   0.648  -0.651  1.00  0.00     0.042 A 
ATOM      9  C   UNL     1       5.090   1.779  -0.975  1.00  0.00     0.028 A 
ATOM     10  C   UNL     1       5.020  -0.502  -0.261  1.00  0.00     0.044 A 
ATOM     11  C   UNL     1       6.481   1.790  -0.766  1.00  0.00     0.029 A 
ATOM     12  C   UNL     1       7.160   0.682  -0.228  1.00  0.00     0.052 A 
BRANCH   8  13
ATOM     13  N   UNL     1       2.942   0.724  -0.624  1.00  0.00    -0.322 N 
ATOM     14  O   UNL     1       0.850   0.093   0.020  1.00  0.00    -0.269 OA
ATOM     15  C   UNL     1       2.062   0.036   0.204  1.00  0.00     0.255 C 
ATOM     16  H   UNL     1       2.532   1.340  -1.273  1.00  0.00     0.170 HD
BRANCH  15  17
ATOM     17  C   UNL     1       2.588  -0.721   1.374  1.00  0.00     0.041 A 
ATOM     18  C   UNL     1       3.473  -0.105   2.276  1.00  0.00     0.014 A 
ATOM     19  C   UNL     1       2.337  -2.093   1.454  1.00  0.00     0.034 A 
ATOM     20  C   UNL     1       4.200  -0.884   3.176  1.00  0.00     0.002 A 
ATOM     21  C   UNL     1       3.061  -2.859   2.368  1.00  0.00     0.041 A 
ATOM     22  C   UNL     1       4.005  -2.265   3.209  1.00  0.00     0.020 A 
ATOM     23  Cl  UNL     1       2.856  -4.566   2.401  1.00  0.00    -0.084 Cl
ENDBRANCH  15  17
ENDBRANCH   8  13
BRANCH  12  24
ATOM     24  N   UNL     1       8.547   0.669  -0.085  1.00  0.00    -0.360 N 
ATOM     25  C   UNL     1       9.354   1.892   0.057  1.00  0.00     0.178 C 
ATOM     26  C   UNL     1       9.213  -0.401  -0.833  1.00  0.00     0.178 C 
ATOM     27  C   UNL     1      10.835   1.567   0.431  1.00  0.00     0.284 C 
ATOM     28  C   UNL     1      10.589  -0.728  -0.264  1.00  0.00     0.284 C 
ATOM     29  N   UNL     1      11.488   0.423  -0.236  1.00  0.00    -0.324 N 
ATOM     30  H   UNL     1      12.286   0.196   0.357  1.00  0.00     0.348 HD
BRANCH  29  31
ATOM     31  C   UNL     1      12.207   0.680  -1.492  1.00  0.00     0.363 C 
BRANCH  31  32
ATOM     32  C   UNL     1      11.470   1.438  -2.605  1.00  0.00     0.277 C 
ATOM     33  O   UNL     1      11.260   2.651  -2.487  1.00  0.00    -0.268 OA
ATOM     34  N   UNL     1      11.160   0.769  -3.790  1.00  0.00    -0.333 N 
ATOM     35  C   UNL     1      10.761  -0.640  -3.880  1.00  0.00     0.148 C 
ATOM     36  C   UNL     1      10.741   1.575  -4.940  1.00  0.00     0.148 C 
ATOM     37  C   UNL     1      10.988  -1.264  -5.258  1.00  0.00     0.181 C 
ATOM     38  C   UNL     1      11.022   0.861  -6.265  1.00  0.00     0.181 C 
ATOM     39  O   UNL     1      10.423  -0.441  -6.287  1.00  0.00    -0.378 OA
ENDBRANCH  31  32
ENDBRANCH  29  31
ENDBRANCH  12  24
ENDBRANCH   5   7
ENDBRANCH   4   5
ENDBRANCH   3   4
ENDBRANCH   2   3
ENDBRANCH   1   2
BRANCH   1  40
ATOM     40  C   UNL     1       7.675  -2.932  -2.739  1.00  0.00     0.202 C 
BRANCH  40  41
ATOM     41  C   UNL     1       7.190  -3.410  -4.106  1.00  0.00     0.261 C 
BRANCH  41  42
ATOM     42  O   UNL     1       6.112  -4.333  -3.942  1.00  0.00    -0.460 OA
BRANCH  42  43
ATOM     43  C   UNL     1       6.486  -5.634  -3.991  1.00  0.00     0.338 C 
ATOM     44  O   UNL     1       7.571  -6.072  -4.331  1.00  0.00    -0.246 OA
BRANCH  43  45
ATOM     45  C   UNL     1       5.432  -6.447  -3.354  1.00  0.00     0.060 A 
ATOM     46  C   UNL     1       5.848  -7.540  -2.584  1.00  0.00     0.016 A 
ATOM     47  C   UNL     1       4.073  -6.137  -3.481  1.00  0.00     0.016 A 
ATOM     48  C   UNL     1       4.904  -8.364  -1.986  1.00  0.00     0.010 A 
ATOM     49  C   UNL     1       3.126  -6.967  -2.884  1.00  0.00     0.010 A 
ATOM     50  C   UNL     1       3.541  -8.104  -2.172  1.00  0.00    -0.014 A 
BRANCH  50  51
ATOM     51  C   UNL     1       2.559  -9.145  -1.805  1.00  0.00     0.031 A 
ATOM     52  C   UNL     1       2.108 -10.093  -2.881  1.00  0.00     0.074 A 
ATOM     53  C   UNL     1       2.119  -9.259  -0.541  1.00  0.00     0.049 A 
ATOM     54  N   UNL     1       1.250 -11.074  -2.818  1.00  0.00    -0.248 NA
ATOM     55  C   UNL     1       2.710  -9.901  -4.212  1.00  0.00     0.031 C 
ATOM     56  C   UNL     1       2.529  -8.406   0.575  1.00  0.00     0.029 A 
ATOM     57  N   UNL     1       1.228 -10.138   0.014  1.00  0.00    -0.354 N 
ATOM     58  C   UNL     1       1.212 -11.621  -4.097  1.00  0.00     0.074 A 
ATOM     59  C   UNL     1       2.099 -10.833  -4.923  1.00  0.00     0.031 C 
ATOM     60  C   UNL     1       1.877  -8.799   1.683  1.00  0.00     0.029 A 
ATOM     61  C   UNL     1       0.986  -9.908   1.347  1.00  0.00     0.049 A 
ATOM     62  H   UNL     1       0.800 -10.865  -0.494  1.00  0.00     0.167 HD
ATOM     63  C   UNL     1       0.507 -12.693  -4.534  1.00  0.00     0.034 A 
ATOM     64  C   UNL     1       0.123 -10.515   2.186  1.00  0.00     0.034 A 
ATOM     65  C   UNL     1      -0.392 -13.442  -3.695  1.00  0.00     0.049 A 
ATOM     66  C   UNL     1      -0.709 -11.659   1.658  1.00  0.00     0.074 A 
ATOM     67  C   UNL     1      -1.178 -14.531  -4.024  1.00  0.00     0.029 A 
ATOM     68  N   UNL     1      -0.633 -13.168  -2.353  1.00  0.00    -0.354 N 
ATOM     69  N   UNL     1      -0.736 -12.173   0.447  1.00  0.00    -0.248 NA
ATOM     70  C   UNL     1      -1.615 -12.314   2.608  1.00  0.00     0.031 C 
ATOM     71  C   UNL     1      -1.937 -14.877  -2.899  1.00  0.00     0.029 A 
ATOM     72  C   UNL     1      -1.571 -14.051  -1.847  1.00  0.00     0.049 A 
ATOM     73  H   UNL     1      -0.199 -12.449  -1.838  1.00  0.00     0.167 HD
ATOM     74  C   UNL     1      -1.641 -13.229   0.502  1.00  0.00     0.074 A 
ATOM     75  C   UNL     1      -2.125 -13.287   1.867  1.00  0.00     0.031 C 
ATOM     76  C   UNL     1      -2.038 -14.078  -0.481  1.00  0.00     0.034 A 
BRANCH  63  77
ATOM     77  C   UNL     1       0.653 -13.063  -5.989  1.00  0.00     0.023 A 
ATOM     78  C   UNL     1       1.880 -13.502  -6.520  1.00  0.00     0.031 A 
ATOM     79  C   UNL     1      -0.433 -12.925  -6.870  1.00  0.00     0.131 A 
ATOM     80  C   UNL     1       2.008 -13.719  -7.901  1.00  0.00     0.055 A 
ATOM     81  C   UNL     1      -0.319 -13.215  -8.231  1.00  0.00     0.041 A 
ATOM     82  F   UNL     1      -1.621 -12.482  -6.427  1.00  0.00    -0.206 F 
ATOM     83  C   UNL     1       0.911 -13.601  -8.757  1.00  0.00     0.022 A 
BRANCH  80  84
ATOM     84  S   UNL     1       3.662 -14.022  -8.583  1.00  0.00     0.124 S 
ATOM     85  O   UNL     1       4.363 -12.795  -8.212  1.00  0.00    -0.237 OA
ATOM     86  O   UNL     1       4.077 -15.231  -7.882  1.00  0.00    -0.237 OA
ATOM     87  O   UNL     1       3.418 -14.183 -10.015  1.00  0.00    -0.744 OA
ENDBRANCH  80  84
ENDBRANCH  63  77
BRANCH  64  88
ATOM     88  C   UNL     1      -0.030 -10.037   3.590  1.00  0.00     0.023 A 
ATOM     89  C   UNL     1       0.292 -10.859   4.681  1.00  0.00     0.031 A 
ATOM     90  C   UNL     1      -0.553  -8.759   3.860  1.00  0.00     0.131 A 
ATOM     91  C   UNL     1       0.046 -10.413   5.990  1.00  0.00     0.055 A 
ATOM     92  C   UNL     1      -0.748  -8.300   5.163  1.00  0.00     0.041 A 
ATOM     93  F   UNL     1      -0.879  -7.933   2.853  1.00  0.00    -0.206 F 
ATOM     94  C   UNL     1      -0.460  -9.135   6.238  1.00  0.00     0.022 A 
BRANCH  91  95
ATOM     95  S   UNL     1       0.315 -11.564   7.366  1.00  0.00     0.124 S 
ATOM     96  O   UNL     1      -0.541 -12.684   6.991  1.00  0.00    -0.237 OA
ATOM     97  O   UNL     1       1.753 -11.801   7.285  1.00  0.00    -0.237 OA
ATOM     98  O   UNL     1      -0.124 -10.806   8.536  1.00  0.00    -0.744 OA
ENDBRANCH  91  95
ENDBRANCH  64  88
BRANCH  76  99
ATOM     99  C   UNL     1      -3.006 -15.166  -0.091  1.00  0.00     0.023 A 
ATOM    100  C   UNL     1      -4.333 -14.880   0.272  1.00  0.00     0.031 A 
ATOM    101  C   UNL     1      -2.589 -16.509  -0.081  1.00  0.00     0.131 A 
ATOM    102  C   UNL     1      -5.183 -15.918   0.681  1.00  0.00     0.055 A 
ATOM    103  C   UNL     1      -3.456 -17.543   0.272  1.00  0.00     0.041 A 
ATOM    104  F   UNL     1      -1.332 -16.837  -0.420  1.00  0.00    -0.206 F 
ATOM    105  C   UNL     1      -4.757 -17.249   0.669  1.00  0.00     0.022 A 
BRANCH 102 106
ATOM    106  S   UNL     1      -6.829 -15.496   1.313  1.00  0.00     0.124 S 
ATOM    107  O   UNL     1      -6.509 -14.621   2.436  1.00  0.00    -0.237 OA
ATOM    108  O   UNL     1      -7.451 -14.853   0.161  1.00  0.00    -0.237 OA
ATOM    109  O   UNL     1      -7.398 -16.792   1.680  1.00  0.00    -0.744 OA
ENDBRANCH 102 106
ENDBRANCH  76  99
ENDBRANCH  50  51
ENDBRANCH  43  45
ENDBRANCH  42  43
ENDBRANCH  41  42
ENDBRANCH  40  41
ENDBRANCH   1  40
TORSDOF 22
