REMARK SMILES CNc1nccc(-c2cc(C(=O)OCCOCCOC(=O)c3ccc(-c4c5nc(c(-c6cc(S(=O)(=O)[O-])ccc6F)c6ccc([nH]6)c(-c6cc(S(=O)(=O)[O-])ccc6F)c6nc(c(-c7cc(S(=O)(=O)[O-])ccc7F)c7ccc4[nH]7)C=C6)C=C5)cc3)ccn2)n1
REMARK SMILES IDX 17 1 16 2 15 3 14 4 13 5 11 6 12 7 10 8 8 9 9 10 87 11 86 12
REMARK SMILES IDX 85 13 7 14 3 15 4 16 88 17 5 18 6 19 2 20 1 21 18 23 19 24
REMARK SMILES IDX 20 25 21 26 22 27 23 28 84 29 24 30 83 31 25 32 26 33 27 34
REMARK SMILES IDX 77 35 28 36 82 37 76 38 78 39 29 40 81 41 75 42 74 43 30 45
REMARK SMILES IDX 62 46 42 47 61 48 43 49 46 50 60 51 79 52 44 53 45 54 59 56
REMARK SMILES IDX 80 57 47 58 31 59 32 60 40 61 33 62 39 63 41 64 38 65 34 66
REMARK SMILES IDX 35 67 36 68 37 69 63 70 64 71 72 72 65 73 71 74 73 75 70 76
REMARK SMILES IDX 66 77 67 78 68 79 69 80 48 81 49 82 57 83 50 84 56 85 58 86
REMARK SMILES IDX 55 87 51 88 52 89 53 90 54 91
REMARK H PARENT 2 22 78 44 46 55
REMARK Flexibility Score: inf
ROOT
ATOM      1  C   UNL     1      -4.295   4.631   5.387  1.00  0.00     0.202 C 
ENDROOT
BRANCH   1   2
ATOM      2  O   UNL     1      -4.754   4.809   6.727  1.00  0.00    -0.374 OA
BRANCH   2   3
ATOM      3  C   UNL     1      -4.046   4.130   7.763  1.00  0.00     0.202 C 
BRANCH   3   4
ATOM      4  C   UNL     1      -4.364   2.643   7.957  1.00  0.00     0.261 C 
BRANCH   4   5
ATOM      5  O   UNL     1      -4.031   1.872   6.790  1.00  0.00    -0.460 OA
BRANCH   5   6
ATOM      6  C   UNL     1      -5.089   1.406   6.087  1.00  0.00     0.338 C 
ATOM      7  O   UNL     1      -6.269   1.455   6.404  1.00  0.00    -0.246 OA
BRANCH   6   8
ATOM      8  C   UNL     1      -4.647   0.964   4.747  1.00  0.00     0.063 A 
ATOM      9  C   UNL     1      -3.117  -0.102   3.242  1.00  0.00     0.090 A 
ATOM     10  C   UNL     1      -3.427   0.322   4.534  1.00  0.00     0.046 A 
ATOM     11  N   UNL     1      -3.944   0.155   2.191  1.00  0.00    -0.255 NA
ATOM     12  C   UNL     1      -5.100   0.808   2.425  1.00  0.00     0.112 A 
ATOM     13  C   UNL     1      -5.505   1.212   3.677  1.00  0.00     0.036 A 
BRANCH   9  14
ATOM     14  C   UNL     1      -1.963  -0.984   2.960  1.00  0.00     0.094 A 
ATOM     15  C   UNL     1      -0.227  -1.565   1.562  1.00  0.00     0.222 A 
ATOM     16  N   UNL     1       0.039  -2.679   2.255  1.00  0.00    -0.222 NA
ATOM     17  N   UNL     1      -1.206  -0.704   1.871  1.00  0.00    -0.211 NA
ATOM     18  C   UNL     1      -0.700  -2.911   3.349  1.00  0.00     0.117 A 
ATOM     19  C   UNL     1      -1.717  -2.089   3.754  1.00  0.00     0.051 A 
BRANCH  15  20
ATOM     20  N   UNL     1       0.625  -1.338   0.514  1.00  0.00    -0.357 N 
ATOM     21  C   UNL     1       0.860  -0.015   0.015  1.00  0.00     0.143 C 
ATOM     22  H   UNL     1       1.086  -2.100   0.094  1.00  0.00     0.163 HD
ENDBRANCH  15  20
ENDBRANCH   9  14
ENDBRANCH   6   8
ENDBRANCH   5   6
ENDBRANCH   4   5
ENDBRANCH   3   4
ENDBRANCH   2   3
ENDBRANCH   1   2
BRANCH   1  23
ATOM     23  C   UNL     1      -3.030   5.385   4.958  1.00  0.00     0.261 C 
BRANCH  23  24
ATOM     24  O   UNL     1      -1.859   4.968   5.680  1.00  0.00    -0.460 OA
BRANCH  24  25
ATOM     25  C   UNL     1      -1.413   5.869   6.590  1.00  0.00     0.338 C 
ATOM     26  O   UNL     1      -1.871   6.981   6.805  1.00  0.00    -0.246 OA
BRANCH  25  27
ATOM     27  C   UNL     1      -0.385   5.253   7.449  1.00  0.00     0.060 A 
ATOM     28  C   UNL     1      -0.576   5.325   8.835  1.00  0.00     0.016 A 
ATOM     29  C   UNL     1       0.775   4.682   6.922  1.00  0.00     0.016 A 
ATOM     30  C   UNL     1       0.416   4.870   9.701  1.00  0.00     0.010 A 
ATOM     31  C   UNL     1       1.772   4.232   7.794  1.00  0.00     0.010 A 
ATOM     32  C   UNL     1       1.612   4.355   9.187  1.00  0.00    -0.014 A 
BRANCH  32  33
ATOM     33  C   UNL     1       2.744   4.074  10.107  1.00  0.00     0.031 A 
ATOM     34  C   UNL     1       3.883   5.055  10.185  1.00  0.00     0.074 A 
ATOM     35  C   UNL     1       2.741   2.974  10.882  1.00  0.00     0.049 A 
ATOM     36  N   UNL     1       4.987   4.992  10.883  1.00  0.00    -0.248 NA
ATOM     37  C   UNL     1       3.760   6.268   9.361  1.00  0.00     0.031 C 
ATOM     38  C   UNL     1       1.674   1.974  10.922  1.00  0.00     0.029 A 
ATOM     39  N   UNL     1       3.670   2.507  11.779  1.00  0.00    -0.354 N 
ATOM     40  C   UNL     1       5.699   6.146  10.572  1.00  0.00     0.074 A 
ATOM     41  C   UNL     1       4.913   6.875   9.600  1.00  0.00     0.031 C 
ATOM     42  C   UNL     1       2.016   1.006  11.788  1.00  0.00     0.029 A 
ATOM     43  C   UNL     1       3.342   1.292  12.332  1.00  0.00     0.049 A 
ATOM     44  H   UNL     1       4.494   2.997  12.004  1.00  0.00     0.167 HD
ATOM     45  C   UNL     1       6.896   6.559  11.058  1.00  0.00     0.034 A 
ATOM     46  C   UNL     1       4.044   0.487  13.157  1.00  0.00     0.034 A 
ATOM     47  C   UNL     1       7.665   5.818  12.029  1.00  0.00     0.049 A 
ATOM     48  C   UNL     1       5.407   0.937  13.630  1.00  0.00     0.074 A 
ATOM     49  C   UNL     1       8.869   6.165  12.617  1.00  0.00     0.029 A 
ATOM     50  N   UNL     1       7.318   4.575  12.542  1.00  0.00    -0.354 N 
ATOM     51  N   UNL     1       6.056   2.045  13.351  1.00  0.00    -0.248 NA
ATOM     52  C   UNL     1       6.126   0.034  14.538  1.00  0.00     0.031 C 
ATOM     53  C   UNL     1       9.290   5.098  13.417  1.00  0.00     0.029 A 
ATOM     54  C   UNL     1       8.305   4.123  13.404  1.00  0.00     0.049 A 
ATOM     55  H   UNL     1       6.491   4.086  12.325  1.00  0.00     0.167 HD
ATOM     56  C   UNL     1       7.244   1.983  14.077  1.00  0.00     0.074 A 
ATOM     57  C   UNL     1       7.212   0.739  14.818  1.00  0.00     0.031 C 
ATOM     58  C   UNL     1       8.267   2.875  14.131  1.00  0.00     0.034 A 
BRANCH  45  59
ATOM     59  C   UNL     1       7.475   7.838  10.503  1.00  0.00     0.023 A 
ATOM     60  C   UNL     1       6.856   9.086  10.694  1.00  0.00     0.031 A 
ATOM     61  C   UNL     1       8.671   7.805   9.761  1.00  0.00     0.131 A 
ATOM     62  C   UNL     1       7.401  10.236  10.103  1.00  0.00     0.055 A 
ATOM     63  C   UNL     1       9.249   8.964   9.242  1.00  0.00     0.041 A 
ATOM     64  F   UNL     1       9.295   6.641   9.524  1.00  0.00    -0.206 F 
ATOM     65  C   UNL     1       8.608  10.188   9.401  1.00  0.00     0.022 A 
BRANCH  62  66
ATOM     66  S   UNL     1       6.444  11.777  10.153  1.00  0.00     0.124 S 
ATOM     67  O   UNL     1       5.205  11.376   9.492  1.00  0.00    -0.237 OA
ATOM     68  O   UNL     1       6.348  12.042  11.583  1.00  0.00    -0.237 OA
ATOM     69  O   UNL     1       7.269  12.717   9.397  1.00  0.00    -0.744 OA
ENDBRANCH  62  66
ENDBRANCH  45  59
BRANCH  46  70
ATOM     70  C   UNL     1       3.507  -0.849  13.550  1.00  0.00     0.023 A 
ATOM     71  C   UNL     1       3.253  -1.168  14.893  1.00  0.00     0.031 A 
ATOM     72  C   UNL     1       3.306  -1.855  12.587  1.00  0.00     0.131 A 
ATOM     73  C   UNL     1       2.868  -2.473  15.242  1.00  0.00     0.055 A 
ATOM     74  C   UNL     1       2.863  -3.132  12.932  1.00  0.00     0.041 A 
ATOM     75  F   UNL     1       3.536  -1.607  11.287  1.00  0.00    -0.206 F 
ATOM     76  C   UNL     1       2.657  -3.452  14.269  1.00  0.00     0.022 A 
BRANCH  73  77
ATOM     77  S   UNL     1       2.751  -2.903  17.000  1.00  0.00     0.124 S 
ATOM     78  O   UNL     1       4.090  -2.576  17.475  1.00  0.00    -0.237 OA
ATOM     79  O   UNL     1       1.676  -2.026  17.454  1.00  0.00    -0.237 OA
ATOM     80  O   UNL     1       2.424  -4.327  16.980  1.00  0.00    -0.744 OA
ENDBRANCH  73  77
ENDBRANCH  46  70
BRANCH  58  81
ATOM     81  C   UNL     1       9.412   2.557  15.065  1.00  0.00     0.023 A 
ATOM     82  C   UNL     1      10.259   1.454  14.857  1.00  0.00     0.031 A 
ATOM     83  C   UNL     1       9.652   3.369  16.189  1.00  0.00     0.131 A 
ATOM     84  C   UNL     1      11.265   1.158  15.790  1.00  0.00     0.055 A 
ATOM     85  C   UNL     1      10.698   3.109  17.076  1.00  0.00     0.041 A 
ATOM     86  F   UNL     1       8.874   4.434  16.442  1.00  0.00    -0.206 F 
ATOM     87  C   UNL     1      11.502   1.990  16.887  1.00  0.00     0.022 A 
BRANCH  84  88
ATOM     88  S   UNL     1      12.195  -0.389  15.607  1.00  0.00     0.124 S 
ATOM     89  O   UNL     1      11.131  -1.387  15.634  1.00  0.00    -0.237 OA
ATOM     90  O   UNL     1      12.862  -0.202  14.323  1.00  0.00    -0.237 OA
ATOM     91  O   UNL     1      13.081  -0.395  16.770  1.00  0.00    -0.744 OA
ENDBRANCH  84  88
ENDBRANCH  58  81
ENDBRANCH  32  33
ENDBRANCH  25  27
ENDBRANCH  24  25
ENDBRANCH  23  24
ENDBRANCH   1  23
TORSDOF 19
