REMARK SMILES C[C@H](c1cccc(-c2cc(C(=O)OCCOCCOC(=O)c3ccc(-c4c5nc(c(-c6cc(S(=O)(=O)[O-])ccc6F)c6ccc([nH]6)c(-c6cc(S(=O)(=O)[O-])ccc6F)c6nc(c(-c7cc(S(=O)(=O)[O-])ccc7F)c7ccc4[nH]7)C=C6)C=C5)cc3)cc(S(=O)(=O)N3CCOCC3)c2)c1)[NH+](C)C
REMARK SMILES IDX 16 1 15 2 14 3 13 4 11 5 12 6 10 7 8 8 9 9 96 10 86 11 85 12
REMARK SMILES IDX 7 13 3 14 4 15 97 16 5 17 6 18 2 19 1 20 98 21 99 22 100 23
REMARK SMILES IDX 87 25 88 26 89 27 90 28 91 29 95 30 92 31 94 32 93 33 17 34
REMARK SMILES IDX 18 35 19 36 20 37 21 38 22 39 23 40 84 41 24 42 83 43 25 44
REMARK SMILES IDX 26 45 27 46 77 47 28 48 82 49 76 50 78 51 29 52 81 53 75 54
REMARK SMILES IDX 74 55 30 57 62 58 42 59 61 60 43 61 46 62 60 63 79 64 44 65
REMARK SMILES IDX 45 66 59 68 80 69 47 70 31 71 32 72 40 73 33 74 39 75 41 76
REMARK SMILES IDX 38 77 34 78 35 79 36 80 37 81 63 82 64 83 72 84 65 85 71 86
REMARK SMILES IDX 73 87 70 88 66 89 67 90 68 91 69 92 48 93 49 94 57 95 50 96
REMARK SMILES IDX 56 97 58 98 55 99 51 100 52 101 53 102 54 103
REMARK H PARENT 98 24 78 56 46 67
REMARK Flexibility Score: inf
ROOT
ATOM      1  O   UNL     1       4.354  -6.011   5.657  1.00  0.00    -0.374 OA
ENDROOT
BRANCH   1   2
ATOM      2  C   UNL     1       3.563  -6.795   6.553  1.00  0.00     0.202 C 
BRANCH   2   3
ATOM      3  C   UNL     1       2.368  -6.087   7.201  1.00  0.00     0.261 C 
BRANCH   3   4
ATOM      4  O   UNL     1       1.427  -5.654   6.205  1.00  0.00    -0.460 OA
BRANCH   4   5
ATOM      5  C   UNL     1       1.361  -4.316   6.002  1.00  0.00     0.338 C 
ATOM      6  O   UNL     1       1.861  -3.440   6.685  1.00  0.00    -0.246 OA
BRANCH   5   7
ATOM      7  C   UNL     1       0.765  -4.061   4.666  1.00  0.00     0.062 A 
ATOM      8  C   UNL     1       0.917  -2.792   2.590  1.00  0.00    -0.016 A 
ATOM      9  C   UNL     1       1.320  -3.007   3.909  1.00  0.00     0.024 A 
ATOM     10  C   UNL     1      -0.053  -3.655   2.070  1.00  0.00     0.030 A 
ATOM     11  C   UNL     1      -0.626  -4.687   2.804  1.00  0.00     0.084 A 
ATOM     12  C   UNL     1      -0.215  -4.903   4.117  1.00  0.00     0.037 A 
BRANCH   8  13
ATOM     13  C   UNL     1       1.555  -1.825   1.679  1.00  0.00    -0.018 A 
ATOM     14  C   UNL     1       1.406   0.086   0.103  1.00  0.00     0.010 A 
ATOM     15  C   UNL     1       2.716  -0.216  -0.308  1.00  0.00     0.010 A 
ATOM     16  C   UNL     1       0.854  -0.726   1.124  1.00  0.00     0.018 A 
ATOM     17  C   UNL     1       3.431  -1.282   0.240  1.00  0.00     0.001 A 
ATOM     18  C   UNL     1       2.855  -2.080   1.223  1.00  0.00     0.009 A 
BRANCH  14  19
ATOM     19  C   UNL     1       0.660   1.316  -0.473  1.00  0.00     0.211 C 
ATOM     20  C   UNL     1       1.117   1.719  -1.896  1.00  0.00     0.081 C 
BRANCH  19  21
ATOM     21  N   UNL     1      -0.823   1.228  -0.372  1.00  0.00    -0.334 N 
ATOM     22  C   UNL     1      -1.476   2.530  -0.557  1.00  0.00     0.333 C 
ATOM     23  C   UNL     1      -1.413   0.263  -1.300  1.00  0.00     0.333 C 
ATOM     24  H   UNL     1      -0.993   0.900   0.579  1.00  0.00     0.348 HD
ENDBRANCH  19  21
ENDBRANCH  14  19
ENDBRANCH   8  13
BRANCH  11  25
ATOM     25  S   UNL     1      -1.842  -5.771   2.079  1.00  0.00     0.243 S 
ATOM     26  O   UNL     1      -1.155  -7.011   1.804  1.00  0.00    -0.207 OA
ATOM     27  O   UNL     1      -2.993  -5.704   2.956  1.00  0.00    -0.207 OA
BRANCH  25  28
ATOM     28  N   UNL     1      -2.296  -5.093   0.613  1.00  0.00    -0.193 NA
ATOM     29  C   UNL     1      -1.641  -5.421  -0.669  1.00  0.00     0.131 C 
ATOM     30  C   UNL     1      -3.256  -3.981   0.520  1.00  0.00     0.131 C 
ATOM     31  C   UNL     1      -1.038  -4.169  -1.318  1.00  0.00     0.177 C 
ATOM     32  C   UNL     1      -2.584  -2.763  -0.113  1.00  0.00     0.177 C 
ATOM     33  O   UNL     1      -1.961  -3.070  -1.372  1.00  0.00    -0.379 OA
ENDBRANCH  25  28
ENDBRANCH  11  25
ENDBRANCH   5   7
ENDBRANCH   4   5
ENDBRANCH   3   4
ENDBRANCH   2   3
ENDBRANCH   1   2
BRANCH   1  34
ATOM     34  C   UNL     1       3.887  -5.903   4.312  1.00  0.00     0.202 C 
BRANCH  34  35
ATOM     35  C   UNL     1       4.158  -7.089   3.377  1.00  0.00     0.261 C 
BRANCH  35  36
ATOM     36  O   UNL     1       3.392  -8.250   3.738  1.00  0.00    -0.460 OA
BRANCH  36  37
ATOM     37  C   UNL     1       4.106  -9.229   4.348  1.00  0.00     0.338 C 
ATOM     38  O   UNL     1       5.308  -9.238   4.552  1.00  0.00    -0.246 OA
BRANCH  37  39
ATOM     39  C   UNL     1       3.185 -10.226   4.930  1.00  0.00     0.060 A 
ATOM     40  C   UNL     1       3.349 -10.544   6.285  1.00  0.00     0.016 A 
ATOM     41  C   UNL     1       2.224 -10.879   4.158  1.00  0.00     0.016 A 
ATOM     42  C   UNL     1       2.586 -11.557   6.861  1.00  0.00     0.010 A 
ATOM     43  C   UNL     1       1.464 -11.902   4.737  1.00  0.00     0.010 A 
ATOM     44  C   UNL     1       1.668 -12.271   6.080  1.00  0.00    -0.014 A 
BRANCH  44  45
ATOM     45  C   UNL     1       1.040 -13.504   6.620  1.00  0.00     0.031 A 
ATOM     46  C   UNL     1       1.573 -14.839   6.174  1.00  0.00     0.074 A 
ATOM     47  C   UNL     1       0.034 -13.437   7.510  1.00  0.00     0.049 A 
ATOM     48  N   UNL     1       1.136 -16.042   6.444  1.00  0.00    -0.248 NA
ATOM     49  C   UNL     1       2.756 -14.810   5.299  1.00  0.00     0.031 C 
ATOM     50  C   UNL     1      -0.524 -12.204   8.061  1.00  0.00     0.029 A 
ATOM     51  N   UNL     1      -0.702 -14.433   8.101  1.00  0.00    -0.354 N 
ATOM     52  C   UNL     1       1.984 -16.913   5.768  1.00  0.00     0.074 A 
ATOM     53  C   UNL     1       2.934 -16.097   5.043  1.00  0.00     0.031 C 
ATOM     54  C   UNL     1      -1.522 -12.517   8.906  1.00  0.00     0.029 A 
ATOM     55  C   UNL     1      -1.707 -13.967   8.917  1.00  0.00     0.049 A 
ATOM     56  H   UNL     1      -0.528 -15.391   7.956  1.00  0.00     0.167 HD
ATOM     57  C   UNL     1       1.976 -18.269   5.763  1.00  0.00     0.034 A 
ATOM     58  C   UNL     1      -2.682 -14.633   9.569  1.00  0.00     0.034 A 
ATOM     59  C   UNL     1       1.014 -19.067   6.484  1.00  0.00     0.049 A 
ATOM     60  C   UNL     1      -2.738 -16.140   9.460  1.00  0.00     0.074 A 
ATOM     61  C   UNL     1       0.913 -20.445   6.549  1.00  0.00     0.029 A 
ATOM     62  N   UNL     1      -0.022 -18.558   7.258  1.00  0.00    -0.354 N 
ATOM     63  N   UNL     1      -1.937 -16.954   8.810  1.00  0.00    -0.248 NA
ATOM     64  C   UNL     1      -3.827 -16.817  10.176  1.00  0.00     0.031 C 
ATOM     65  C   UNL     1      -0.226 -20.768   7.293  1.00  0.00     0.029 A 
ATOM     66  C   UNL     1      -0.783 -19.595   7.775  1.00  0.00     0.049 A 
ATOM     67  H   UNL     1      -0.190 -17.601   7.417  1.00  0.00     0.167 HD
ATOM     68  C   UNL     1      -2.401 -18.240   9.081  1.00  0.00     0.074 A 
ATOM     69  C   UNL     1      -3.544 -18.093   9.956  1.00  0.00     0.031 C 
ATOM     70  C   UNL     1      -1.921 -19.436   8.651  1.00  0.00     0.034 A 
BRANCH  57  71
ATOM     71  C   UNL     1       3.007 -18.969   4.911  1.00  0.00     0.023 A 
ATOM     72  C   UNL     1       4.385 -18.855   5.169  1.00  0.00     0.031 A 
ATOM     73  C   UNL     1       2.608 -19.750   3.811  1.00  0.00     0.131 A 
ATOM     74  C   UNL     1       5.312 -19.454   4.303  1.00  0.00     0.055 A 
ATOM     75  C   UNL     1       3.533 -20.413   3.002  1.00  0.00     0.041 A 
ATOM     76  F   UNL     1       1.309 -19.876   3.498  1.00  0.00    -0.206 F 
ATOM     77  C   UNL     1       4.895 -20.256   3.238  1.00  0.00     0.022 A 
BRANCH  74  78
ATOM     78  S   UNL     1       7.070 -19.055   4.503  1.00  0.00     0.124 S 
ATOM     79  O   UNL     1       7.062 -17.602   4.347  1.00  0.00    -0.237 OA
ATOM     80  O   UNL     1       7.356 -19.552   5.844  1.00  0.00    -0.237 OA
ATOM     81  O   UNL     1       7.714 -19.787   3.414  1.00  0.00    -0.744 OA
ENDBRANCH  74  78
ENDBRANCH  57  71
BRANCH  58  82
ATOM     82  C   UNL     1      -3.717 -13.894  10.352  1.00  0.00     0.023 A 
ATOM     83  C   UNL     1      -3.874 -14.111  11.730  1.00  0.00     0.031 A 
ATOM     84  C   UNL     1      -4.616 -13.017   9.718  1.00  0.00     0.131 A 
ATOM     85  C   UNL     1      -4.941 -13.509  12.416  1.00  0.00     0.055 A 
ATOM     86  C   UNL     1      -5.635 -12.369  10.419  1.00  0.00     0.041 A 
ATOM     87  F   UNL     1      -4.519 -12.778   8.401  1.00  0.00    -0.206 F 
ATOM     88  C   UNL     1      -5.812 -12.627  11.774  1.00  0.00     0.022 A 
BRANCH  85  89
ATOM     89  S   UNL     1      -5.245 -13.992  14.139  1.00  0.00     0.124 S 
ATOM     90  O   UNL     1      -5.416 -15.435  14.014  1.00  0.00    -0.237 OA
ATOM     91  O   UNL     1      -4.022 -13.545  14.798  1.00  0.00    -0.237 OA
ATOM     92  O   UNL     1      -6.451 -13.248  14.493  1.00  0.00    -0.744 OA
ENDBRANCH  85  89
ENDBRANCH  58  82
BRANCH  70  93
ATOM     93  C   UNL     1      -2.590 -20.684   9.181  1.00  0.00     0.023 A 
ATOM     94  C   UNL     1      -3.921 -21.010   8.870  1.00  0.00     0.031 A 
ATOM     95  C   UNL     1      -1.874 -21.562  10.016  1.00  0.00     0.131 A 
ATOM     96  C   UNL     1      -4.512 -22.151   9.435  1.00  0.00     0.055 A 
ATOM     97  C   UNL     1      -2.445 -22.731  10.519  1.00  0.00     0.041 A 
ATOM     98  F   UNL     1      -0.600 -21.301  10.351  1.00  0.00    -0.206 F 
ATOM     99  C   UNL     1      -3.776 -23.024  10.240  1.00  0.00     0.022 A 
BRANCH  96 100
ATOM    100  S   UNL     1      -6.287 -22.430   9.184  1.00  0.00     0.124 S 
ATOM    101  O   UNL     1      -6.867 -21.208   9.732  1.00  0.00    -0.237 OA
ATOM    102  O   UNL     1      -6.378 -22.585   7.736  1.00  0.00    -0.237 OA
ATOM    103  O   UNL     1      -6.556 -23.643   9.954  1.00  0.00    -0.744 OA
ENDBRANCH  96 100
ENDBRANCH  70  93
ENDBRANCH  44  45
ENDBRANCH  37  39
ENDBRANCH  36  37
ENDBRANCH  35  36
ENDBRANCH  34  35
ENDBRANCH   1  34
TORSDOF 22
