REMARK SMILES O=C(OCCOCCOC(=O)[C@@H]1[C@@H](C(=O)NCc2ccccc2OCc2ccccc2)[C@@H]2C=C[C@H]1C2)c1ccc(-c2c3nc(c(-c4cc(S(=O)(=O)[O-])ccc4F)c4ccc([nH]4)c(-c4cc(S(=O)(=O)[O-])ccc4F)c4nc(c(-c5cc(S(=O)(=O)[O-])ccc5F)c5ccc2[nH]5)C=C4)C=C3)cc1
REMARK SMILES IDX 7 1 6 2 5 3 4 4 3 5 2 6 1 7 37 8 38 9 99 10 39 11 98 12
REMARK SMILES IDX 40 13 41 14 42 15 92 16 43 17 97 18 91 19 93 20 44 21 96 22
REMARK SMILES IDX 90 23 89 24 45 26 77 27 57 28 76 29 58 30 61 31 75 32 94 33
REMARK SMILES IDX 59 34 60 35 74 37 95 38 62 39 46 40 47 41 55 42 48 43 54 44
REMARK SMILES IDX 56 45 53 46 49 47 50 48 51 49 52 50 78 51 79 52 87 53 80 54
REMARK SMILES IDX 86 55 88 56 85 57 81 58 82 59 83 60 84 61 63 62 64 63 72 64
REMARK SMILES IDX 65 65 71 66 73 67 70 68 66 69 67 70 68 71 69 72 8 73 9 74
REMARK SMILES IDX 10 75 11 76 12 77 13 78 35 79 32 80 34 81 36 82 33 83 14 84
REMARK SMILES IDX 15 85 16 86 17 88 18 89 19 90 23 91 20 92 22 93 21 94 24 95
REMARK SMILES IDX 25 96 26 97 27 98 31 99 28 100 30 101 29 102
REMARK H PARENT 93 25 61 36 16 87
REMARK Flexibility Score: inf
ROOT
ATOM      1  C   UNL     1       3.109   1.565  -1.537  1.00  0.00     0.202 C 
ENDROOT
BRANCH   1   2
ATOM      2  O   UNL     1       4.351   1.413  -0.850  1.00  0.00    -0.374 OA
BRANCH   2   3
ATOM      3  C   UNL     1       4.792   0.106  -0.525  1.00  0.00     0.202 C 
BRANCH   3   4
ATOM      4  C   UNL     1       3.973  -0.803   0.404  1.00  0.00     0.261 C 
BRANCH   4   5
ATOM      5  O   UNL     1       2.540  -0.611   0.327  1.00  0.00    -0.460 OA
BRANCH   5   6
ATOM      6  C   UNL     1       1.789  -0.028   1.311  1.00  0.00     0.338 C 
ATOM      7  O   UNL     1       0.576  -0.183   1.363  1.00  0.00    -0.246 OA
BRANCH   6   8
ATOM      8  C   UNL     1       2.482   0.832   2.298  1.00  0.00     0.060 A 
ATOM      9  C   UNL     1       3.482   1.664   1.846  1.00  0.00     0.016 A 
ATOM     10  C   UNL     1       2.180   0.864   3.650  1.00  0.00     0.016 A 
ATOM     11  C   UNL     1       4.440   2.173   2.665  1.00  0.00     0.010 A 
ATOM     12  C   UNL     1       2.978   1.650   4.499  1.00  0.00     0.010 A 
ATOM     13  C   UNL     1       4.150   2.260   4.006  1.00  0.00    -0.014 A 
BRANCH  13  14
ATOM     14  C   UNL     1       5.170   2.931   4.827  1.00  0.00     0.031 A 
ATOM     15  C   UNL     1       5.872   2.108   5.854  1.00  0.00     0.074 A 
ATOM     16  C   UNL     1       5.580   4.175   4.497  1.00  0.00     0.049 A 
ATOM     17  N   UNL     1       6.716   2.479   6.771  1.00  0.00    -0.248 NA
ATOM     18  C   UNL     1       5.578   0.664   5.848  1.00  0.00     0.031 C 
ATOM     19  C   UNL     1       5.082   4.966   3.356  1.00  0.00     0.029 A 
ATOM     20  N   UNL     1       6.548   4.976   5.035  1.00  0.00    -0.354 N 
ATOM     21  C   UNL     1       6.996   1.330   7.500  1.00  0.00     0.074 A 
ATOM     22  C   UNL     1       6.234   0.251   6.917  1.00  0.00     0.031 C 
ATOM     23  C   UNL     1       5.795   6.095   3.248  1.00  0.00     0.029 A 
ATOM     24  C   UNL     1       6.688   6.185   4.389  1.00  0.00     0.049 A 
ATOM     25  H   UNL     1       7.094   4.714   5.811  1.00  0.00     0.167 HD
ATOM     26  C   UNL     1       7.808   1.219   8.575  1.00  0.00     0.034 A 
ATOM     27  C   UNL     1       7.412   7.266   4.730  1.00  0.00     0.034 A 
ATOM     28  C   UNL     1       8.544   2.343   9.092  1.00  0.00     0.049 A 
ATOM     29  C   UNL     1       8.205   7.157   6.006  1.00  0.00     0.074 A 
ATOM     30  C   UNL     1       9.329   2.424  10.224  1.00  0.00     0.029 A 
ATOM     31  N   UNL     1       8.581   3.599   8.487  1.00  0.00    -0.354 N 
ATOM     32  N   UNL     1       8.356   6.113   6.794  1.00  0.00    -0.248 NA
ATOM     33  C   UNL     1       8.906   8.361   6.451  1.00  0.00     0.031 C 
ATOM     34  C   UNL     1       9.775   3.745  10.344  1.00  0.00     0.029 A 
ATOM     35  C   UNL     1       9.351   4.468   9.237  1.00  0.00     0.049 A 
ATOM     36  H   UNL     1       8.123   3.834   7.647  1.00  0.00     0.167 HD
ATOM     37  C   UNL     1       9.198   6.528   7.817  1.00  0.00     0.074 A 
ATOM     38  C   UNL     1       9.534   7.912   7.528  1.00  0.00     0.031 C 
ATOM     39  C   UNL     1       9.655   5.841   8.896  1.00  0.00     0.034 A 
BRANCH  26  40
ATOM     40  C   UNL     1       7.791  -0.103   9.300  1.00  0.00     0.023 A 
ATOM     41  C   UNL     1       8.208  -1.301   8.691  1.00  0.00     0.031 A 
ATOM     42  C   UNL     1       7.205  -0.183  10.576  1.00  0.00     0.131 A 
ATOM     43  C   UNL     1       7.939  -2.530   9.314  1.00  0.00     0.055 A 
ATOM     44  C   UNL     1       7.029  -1.403  11.231  1.00  0.00     0.041 A 
ATOM     45  F   UNL     1       6.747   0.920  11.188  1.00  0.00    -0.206 F 
ATOM     46  C   UNL     1       7.377  -2.588  10.592  1.00  0.00     0.022 A 
BRANCH  43  47
ATOM     47  S   UNL     1       8.147  -4.056   8.351  1.00  0.00     0.124 S 
ATOM     48  O   UNL     1       7.209  -3.838   7.251  1.00  0.00    -0.237 OA
ATOM     49  O   UNL     1       9.561  -4.018   8.000  1.00  0.00    -0.237 OA
ATOM     50  O   UNL     1       7.763  -5.109   9.288  1.00  0.00    -0.744 OA
ENDBRANCH  43  47
ENDBRANCH  26  40
BRANCH  27  51
ATOM     51  C   UNL     1       7.346   8.537   3.944  1.00  0.00     0.023 A 
ATOM     52  C   UNL     1       8.504   9.131   3.419  1.00  0.00     0.031 A 
ATOM     53  C   UNL     1       6.126   9.218   3.758  1.00  0.00     0.131 A 
ATOM     54  C   UNL     1       8.428  10.383   2.785  1.00  0.00     0.055 A 
ATOM     55  C   UNL     1       6.046  10.430   3.069  1.00  0.00     0.041 A 
ATOM     56  F   UNL     1       4.980   8.712   4.243  1.00  0.00    -0.206 F 
ATOM     57  C   UNL     1       7.206  11.029   2.593  1.00  0.00     0.022 A 
BRANCH  54  58
ATOM     58  S   UNL     1       9.971  11.214   2.311  1.00  0.00     0.124 S 
ATOM     59  O   UNL     1      10.681  11.267   3.583  1.00  0.00    -0.237 OA
ATOM     60  O   UNL     1      10.511  10.300   1.310  1.00  0.00    -0.237 OA
ATOM     61  O   UNL     1       9.518  12.504   1.794  1.00  0.00    -0.744 OA
ENDBRANCH  54  58
ENDBRANCH  27  51
BRANCH  39  62
ATOM     62  C   UNL     1      10.620   6.573   9.788  1.00  0.00     0.023 A 
ATOM     63  C   UNL     1      10.231   7.695  10.537  1.00  0.00     0.031 A 
ATOM     64  C   UNL     1      11.955   6.142   9.872  1.00  0.00     0.131 A 
ATOM     65  C   UNL     1      11.188   8.393  11.283  1.00  0.00     0.055 A 
ATOM     66  C   UNL     1      12.883   6.793  10.681  1.00  0.00     0.041 A 
ATOM     67  F   UNL     1      12.375   5.076   9.171  1.00  0.00    -0.206 F 
ATOM     68  C   UNL     1      12.505   7.936  11.379  1.00  0.00     0.022 A 
BRANCH  65  69
ATOM     69  S   UNL     1      10.715   9.976  12.026  1.00  0.00     0.124 S 
ATOM     70  O   UNL     1      10.261  10.732  10.863  1.00  0.00    -0.237 OA
ATOM     71  O   UNL     1       9.677   9.579  12.972  1.00  0.00    -0.237 OA
ATOM     72  O   UNL     1      11.957  10.454  12.631  1.00  0.00    -0.744 OA
ENDBRANCH  65  69
ENDBRANCH  39  62
ENDBRANCH  13  14
ENDBRANCH   6   8
ENDBRANCH   5   6
ENDBRANCH   4   5
ENDBRANCH   3   4
ENDBRANCH   2   3
ENDBRANCH   1   2
BRANCH   1  73
ATOM     73  C   UNL     1       3.396   2.391  -2.774  1.00  0.00     0.261 C 
BRANCH  73  74
ATOM     74  O   UNL     1       4.098   1.499  -3.651  1.00  0.00    -0.463 OA
BRANCH  74  75
ATOM     75  C   UNL     1       5.442   1.418  -3.582  1.00  0.00     0.310 C 
ATOM     76  O   UNL     1       6.168   2.286  -3.105  1.00  0.00    -0.252 OA
BRANCH  75  77
ATOM     77  C   UNL     1       5.906   0.155  -4.287  1.00  0.00     0.119 C 
ATOM     78  C   UNL     1       5.241  -1.202  -3.857  1.00  0.00     0.100 C 
ATOM     79  C   UNL     1       7.410  -0.101  -4.030  1.00  0.00     0.027 C 
ATOM     80  C   UNL     1       6.494  -2.061  -3.467  1.00  0.00     0.025 C 
ATOM     81  C   UNL     1       7.672  -0.318  -2.557  1.00  0.00    -0.027 C 
ATOM     82  C   UNL     1       7.526  -1.554  -4.488  1.00  0.00     0.017 C 
ATOM     83  C   UNL     1       7.138  -1.500  -2.223  1.00  0.00    -0.027 C 
BRANCH  78  84
ATOM     84  C   UNL     1       4.496  -1.901  -4.975  1.00  0.00     0.224 C 
ATOM     85  O   UNL     1       4.932  -2.932  -5.494  1.00  0.00    -0.275 OA
ATOM     86  N   UNL     1       3.311  -1.448  -5.432  1.00  0.00    -0.352 N 
ATOM     87  H   UNL     1       3.042  -1.890  -6.270  1.00  0.00     0.163 HD
BRANCH  86  88
ATOM     88  C   UNL     1       2.336  -0.470  -4.992  1.00  0.00     0.155 C 
BRANCH  88  89
ATOM     89  C   UNL     1       2.034   0.562  -6.059  1.00  0.00     0.013 A 
ATOM     90  C   UNL     1       3.068   1.480  -6.363  1.00  0.00     0.009 A 
ATOM     91  C   UNL     1       0.830   0.728  -6.756  1.00  0.00     0.124 A 
ATOM     92  C   UNL     1       2.905   2.584  -7.196  1.00  0.00     0.001 A 
ATOM     93  C   UNL     1       0.669   1.859  -7.590  1.00  0.00     0.047 A 
ATOM     94  C   UNL     1       1.685   2.788  -7.800  1.00  0.00     0.004 A 
BRANCH  91  95
ATOM     95  O   UNL     1      -0.281  -0.057  -6.829  1.00  0.00    -0.489 OA
BRANCH  95  96
ATOM     96  C   UNL     1      -0.362  -1.424  -6.439  1.00  0.00     0.265 C 
BRANCH  96  97
ATOM     97  C   UNL     1       0.659  -2.409  -6.973  1.00  0.00    -0.011 A 
ATOM     98  C   UNL     1       1.476  -2.147  -8.084  1.00  0.00     0.007 A 
ATOM     99  C   UNL     1       0.842  -3.616  -6.272  1.00  0.00     0.007 A 
ATOM    100  C   UNL     1       2.529  -3.010  -8.406  1.00  0.00     0.000 A 
ATOM    101  C   UNL     1       1.881  -4.484  -6.607  1.00  0.00     0.000 A 
ATOM    102  C   UNL     1       2.740  -4.169  -7.658  1.00  0.00     0.000 A 
ENDBRANCH  96  97
ENDBRANCH  95  96
ENDBRANCH  91  95
ENDBRANCH  88  89
ENDBRANCH  86  88
ENDBRANCH  78  84
ENDBRANCH  75  77
ENDBRANCH  74  75
ENDBRANCH  73  74
ENDBRANCH   1  73
TORSDOF 23
