REMARK SMILES O=C(OCCOCCOC(=O)[C@@H]1[C@@H](C(=O)NCCCn2ccnc2)[C@@H]2C=C[C@H]1C2)c1ccc(-c2c3nc(c(-c4cc(S(=O)(=O)[O-])ccc4F)c4ccc([nH]4)c(-c4cc(S(=O)(=O)[O-])ccc4F)c4nc(c(-c5cc(S(=O)(=O)[O-])ccc5F)c5ccc2[nH]5)C=C4)C=C3)cc1
REMARK SMILES IDX 7 1 6 2 5 3 4 4 3 5 2 6 1 7 30 8 31 9 92 10 32 11 91 12
REMARK SMILES IDX 33 13 34 14 35 15 85 16 36 17 90 18 84 19 86 20 37 21 89 22
REMARK SMILES IDX 83 23 82 24 38 26 70 27 50 28 69 29 51 30 54 31 68 32 87 33
REMARK SMILES IDX 52 34 53 35 67 37 88 38 55 39 39 40 40 41 48 42 41 43 47 44
REMARK SMILES IDX 49 45 46 46 42 47 43 48 44 49 45 50 71 51 72 52 80 53 73 54
REMARK SMILES IDX 79 55 81 56 78 57 74 58 75 59 76 60 77 61 56 62 57 63 65 64
REMARK SMILES IDX 58 65 64 66 66 67 63 68 59 69 60 70 61 71 62 72 8 73 9 74
REMARK SMILES IDX 10 75 11 76 12 77 13 78 28 79 25 80 27 81 29 82 26 83 14 84
REMARK SMILES IDX 15 85 16 86 17 88 18 89 19 90 20 91 21 92 24 93 22 94 23 95
REMARK H PARENT 86 25 54 36 16 87
REMARK Flexibility Score: inf
ROOT
ATOM      1  C   UNL     1       2.951   2.228  -0.301  1.00  0.00     0.202 C 
ENDROOT
BRANCH   1   2
ATOM      2  O   UNL     1       4.084   1.568   0.269  1.00  0.00    -0.374 OA
BRANCH   2   3
ATOM      3  C   UNL     1       4.797   0.584  -0.474  1.00  0.00     0.202 C 
BRANCH   3   4
ATOM      4  C   UNL     1       4.250  -0.848  -0.582  1.00  0.00     0.261 C 
BRANCH   4   5
ATOM      5  O   UNL     1       2.892  -0.892  -1.014  1.00  0.00    -0.460 OA
BRANCH   5   6
ATOM      6  C   UNL     1       1.794  -0.652  -0.271  1.00  0.00     0.338 C 
ATOM      7  O   UNL     1       0.733  -0.428  -0.851  1.00  0.00    -0.246 OA
BRANCH   6   8
ATOM      8  C   UNL     1       1.806  -0.686   1.212  1.00  0.00     0.060 A 
ATOM      9  C   UNL     1       2.935  -0.846   2.013  1.00  0.00     0.016 A 
ATOM     10  C   UNL     1       0.539  -0.725   1.803  1.00  0.00     0.016 A 
ATOM     11  C   UNL     1       2.813  -1.485   3.215  1.00  0.00     0.010 A 
ATOM     12  C   UNL     1       0.405  -1.234   3.070  1.00  0.00     0.010 A 
ATOM     13  C   UNL     1       1.537  -1.756   3.681  1.00  0.00    -0.014 A 
BRANCH  13  14
ATOM     14  C   UNL     1       1.433  -2.522   4.899  1.00  0.00     0.031 A 
ATOM     15  C   UNL     1       2.103  -1.857   6.043  1.00  0.00     0.074 A 
ATOM     16  C   UNL     1       0.710  -3.656   4.914  1.00  0.00     0.049 A 
ATOM     17  N   UNL     1       3.100  -2.283   6.743  1.00  0.00    -0.248 NA
ATOM     18  C   UNL     1       1.776  -0.436   6.278  1.00  0.00     0.031 C 
ATOM     19  C   UNL     1      -0.113  -4.225   3.842  1.00  0.00     0.029 A 
ATOM     20  N   UNL     1       0.445  -4.479   5.952  1.00  0.00    -0.354 N 
ATOM     21  C   UNL     1       3.344  -1.284   7.679  1.00  0.00     0.074 A 
ATOM     22  C   UNL     1       2.686  -0.106   7.192  1.00  0.00     0.031 C 
ATOM     23  C   UNL     1      -0.992  -5.102   4.375  1.00  0.00     0.029 A 
ATOM     24  C   UNL     1      -0.700  -5.249   5.790  1.00  0.00     0.049 A 
ATOM     25  H   UNL     1       1.014  -4.529   6.754  1.00  0.00     0.167 HD
ATOM     26  C   UNL     1       3.803  -1.590   8.921  1.00  0.00     0.034 A 
ATOM     27  C   UNL     1      -1.410  -5.843   6.787  1.00  0.00     0.034 A 
ATOM     28  C   UNL     1       4.459  -2.878   8.926  1.00  0.00     0.049 A 
ATOM     29  C   UNL     1      -0.485  -5.937   7.953  1.00  0.00     0.074 A 
ATOM     30  C   UNL     1       5.549  -3.401   8.257  1.00  0.00     0.029 A 
ATOM     31  N   UNL     1       3.754  -3.968   9.390  1.00  0.00    -0.354 N 
ATOM     32  N   UNL     1       0.605  -6.661   7.934  1.00  0.00    -0.248 NA
ATOM     33  C   UNL     1      -0.467  -4.832   8.905  1.00  0.00     0.031 C 
ATOM     34  C   UNL     1       5.166  -4.732   7.917  1.00  0.00     0.029 A 
ATOM     35  C   UNL     1       3.908  -4.980   8.471  1.00  0.00     0.049 A 
ATOM     36  H   UNL     1       3.235  -4.014  10.226  1.00  0.00     0.167 HD
ATOM     37  C   UNL     1       1.580  -5.875   8.534  1.00  0.00     0.074 A 
ATOM     38  C   UNL     1       0.841  -4.791   9.185  1.00  0.00     0.031 C 
ATOM     39  C   UNL     1       2.900  -5.988   8.192  1.00  0.00     0.034 A 
BRANCH  26  40
ATOM     40  C   UNL     1       3.289  -0.925  10.180  1.00  0.00     0.023 A 
ATOM     41  C   UNL     1       3.827  -1.369  11.399  1.00  0.00     0.031 A 
ATOM     42  C   UNL     1       2.122  -0.127  10.279  1.00  0.00     0.131 A 
ATOM     43  C   UNL     1       3.159  -1.127  12.611  1.00  0.00     0.055 A 
ATOM     44  C   UNL     1       1.499   0.167  11.493  1.00  0.00     0.041 A 
ATOM     45  F   UNL     1       1.459   0.341   9.216  1.00  0.00    -0.206 F 
ATOM     46  C   UNL     1       1.995  -0.365  12.667  1.00  0.00     0.022 A 
BRANCH  43  47
ATOM     47  S   UNL     1       3.736  -1.992  14.091  1.00  0.00     0.124 S 
ATOM     48  O   UNL     1       3.755  -3.377  13.633  1.00  0.00    -0.237 OA
ATOM     49  O   UNL     1       5.037  -1.367  14.311  1.00  0.00    -0.237 OA
ATOM     50  O   UNL     1       2.715  -1.676  15.086  1.00  0.00    -0.744 OA
ENDBRANCH  43  47
ENDBRANCH  26  40
BRANCH  27  51
ATOM     51  C   UNL     1      -2.901  -5.874   6.879  1.00  0.00     0.023 A 
ATOM     52  C   UNL     1      -3.609  -6.796   7.678  1.00  0.00     0.031 A 
ATOM     53  C   UNL     1      -3.662  -4.825   6.306  1.00  0.00     0.131 A 
ATOM     54  C   UNL     1      -5.009  -6.656   7.858  1.00  0.00     0.055 A 
ATOM     55  C   UNL     1      -5.041  -4.697   6.481  1.00  0.00     0.041 A 
ATOM     56  F   UNL     1      -3.076  -3.834   5.615  1.00  0.00    -0.206 F 
ATOM     57  C   UNL     1      -5.722  -5.612   7.265  1.00  0.00     0.022 A 
BRANCH  54  58
ATOM     58  S   UNL     1      -5.926  -7.806   8.936  1.00  0.00     0.124 S 
ATOM     59  O   UNL     1      -5.822  -9.065   8.209  1.00  0.00    -0.237 OA
ATOM     60  O   UNL     1      -5.186  -7.717  10.190  1.00  0.00    -0.237 OA
ATOM     61  O   UNL     1      -7.273  -7.233   8.981  1.00  0.00    -0.744 OA
ENDBRANCH  54  58
ENDBRANCH  27  51
BRANCH  39  62
ATOM     62  C   UNL     1       3.313  -7.135   7.284  1.00  0.00     0.023 A 
ATOM     63  C   UNL     1       2.838  -7.338   5.965  1.00  0.00     0.031 A 
ATOM     64  C   UNL     1       4.345  -7.975   7.736  1.00  0.00     0.131 A 
ATOM     65  C   UNL     1       3.390  -8.359   5.162  1.00  0.00     0.055 A 
ATOM     66  C   UNL     1       4.900  -8.971   6.932  1.00  0.00     0.041 A 
ATOM     67  F   UNL     1       4.866  -7.811   8.963  1.00  0.00    -0.206 F 
ATOM     68  C   UNL     1       4.420  -9.171   5.643  1.00  0.00     0.022 A 
BRANCH  65  69
ATOM     69  S   UNL     1       2.771  -8.655   3.470  1.00  0.00     0.124 S 
ATOM     70  O   UNL     1       1.325  -8.716   3.643  1.00  0.00    -0.237 OA
ATOM     71  O   UNL     1       3.282  -7.498   2.739  1.00  0.00    -0.237 OA
ATOM     72  O   UNL     1       3.394  -9.928   3.099  1.00  0.00    -0.744 OA
ENDBRANCH  65  69
ENDBRANCH  39  62
ENDBRANCH  13  14
ENDBRANCH   6   8
ENDBRANCH   5   6
ENDBRANCH   4   5
ENDBRANCH   3   4
ENDBRANCH   2   3
ENDBRANCH   1   2
BRANCH   1  73
ATOM     73  C   UNL     1       3.074   2.990  -1.625  1.00  0.00     0.261 C 
BRANCH  73  74
ATOM     74  O   UNL     1       3.447   2.141  -2.726  1.00  0.00    -0.463 OA
BRANCH  74  75
ATOM     75  C   UNL     1       4.676   2.395  -3.259  1.00  0.00     0.310 C 
ATOM     76  O   UNL     1       5.388   3.331  -2.945  1.00  0.00    -0.252 OA
BRANCH  75  77
ATOM     77  C   UNL     1       5.061   1.397  -4.329  1.00  0.00     0.119 C 
ATOM     78  C   UNL     1       4.431  -0.031  -4.295  1.00  0.00     0.100 C 
ATOM     79  C   UNL     1       6.584   1.088  -4.281  1.00  0.00     0.027 C 
ATOM     80  C   UNL     1       5.685  -0.948  -4.493  1.00  0.00     0.025 C 
ATOM     81  C   UNL     1       6.973   0.289  -3.051  1.00  0.00    -0.027 C 
ATOM     82  C   UNL     1       6.647  -0.058  -5.292  1.00  0.00     0.017 C 
ATOM     83  C   UNL     1       6.473  -0.946  -3.204  1.00  0.00    -0.027 C 
BRANCH  78  84
ATOM     84  C   UNL     1       3.468  -0.227  -5.454  1.00  0.00     0.224 C 
ATOM     85  O   UNL     1       3.852  -0.181  -6.626  1.00  0.00    -0.275 OA
ATOM     86  N   UNL     1       2.141  -0.436  -5.256  1.00  0.00    -0.356 N 
ATOM     87  H   UNL     1       1.618  -0.522  -6.085  1.00  0.00     0.163 HD
BRANCH  86  88
ATOM     88  C   UNL     1       1.351  -0.557  -4.039  1.00  0.00     0.117 C 
BRANCH  88  89
ATOM     89  C   UNL     1       0.211   0.460  -3.982  1.00  0.00     0.043 C 
BRANCH  89  90
ATOM     90  C   UNL     1      -0.790   0.369  -5.133  1.00  0.00     0.125 C 
BRANCH  90  91
ATOM     91  N   UNL     1      -1.498  -0.891  -5.207  1.00  0.00    -0.337 N 
ATOM     92  C   UNL     1      -2.626  -1.227  -4.515  1.00  0.00     0.107 A 
ATOM     93  C   UNL     1      -1.185  -1.940  -6.023  1.00  0.00     0.199 A 
ATOM     94  C   UNL     1      -2.932  -2.501  -4.934  1.00  0.00     0.130 A 
ATOM     95  N   UNL     1      -2.041  -2.926  -5.886  1.00  0.00    -0.245 NA
ENDBRANCH  90  91
ENDBRANCH  89  90
ENDBRANCH  88  89
ENDBRANCH  86  88
ENDBRANCH  78  84
ENDBRANCH  75  77
ENDBRANCH  74  75
ENDBRANCH  73  74
ENDBRANCH   1  73
TORSDOF 22
