REMARK SMILES CCCOC(=O)c1c(NC(=O)[C@@H]2CC=CC[C@H]2C(=O)OCCOCCOC(=O)c2ccc(-c3c4nc(c(-c5cc(S(=O)(=O)[O-])ccc5F)c5ccc([nH]5)c(-c5cc(S(=O)(=O)[O-])ccc5F)c5nc(c(-c6cc(S(=O)(=O)[O-])ccc6F)c6ccc3[nH]6)C=C5)C=C4)cc2)sc2c1CCCC2
REMARK SMILES IDX 21 1 20 2 18 3 19 4 17 5 12 6 13 7 14 8 16 9 15 10 10 11
REMARK SMILES IDX 9 12 11 14 8 15 7 16 94 17 92 18 93 19 95 20 98 21 96 22
REMARK SMILES IDX 97 23 5 24 6 25 4 26 3 27 2 28 1 29 22 30 23 31 24 32 25 33
REMARK SMILES IDX 26 34 27 35 28 36 29 37 30 38 91 39 31 40 90 41 32 42 33 43
REMARK SMILES IDX 34 44 84 45 35 46 89 47 83 48 85 49 36 50 88 51 82 52 81 53
REMARK SMILES IDX 37 55 69 56 49 57 68 58 50 59 53 60 67 61 86 62 51 63 52 64
REMARK SMILES IDX 66 66 87 67 54 68 38 69 39 70 47 71 40 72 46 73 48 74 45 75
REMARK SMILES IDX 41 76 42 77 43 78 44 79 70 80 71 81 79 82 72 83 78 84 80 85
REMARK SMILES IDX 77 86 73 87 74 88 75 89 76 90 55 91 56 92 64 93 57 94 63 95
REMARK SMILES IDX 65 96 62 97 58 98 59 99 60 100 61 101
REMARK H PARENT 9 13 85 54 53 65
REMARK Flexibility Score: inf
ROOT
ATOM      1  C   UNL     1      -0.712   2.736  -0.630  1.00  0.00     0.261 C 
ENDROOT
BRANCH   1   2
ATOM      2  O   UNL     1      -0.271   1.503   0.076  1.00  0.00    -0.463 OA
BRANCH   2   3
ATOM      3  C   UNL     1       0.325   0.382  -0.447  1.00  0.00     0.310 C 
ATOM      4  O   UNL     1       0.743   0.468  -1.599  1.00  0.00    -0.252 OA
BRANCH   3   5
ATOM      5  C   UNL     1       0.427  -1.129   0.419  1.00  0.00     0.116 C 
ATOM      6  C   UNL     1       1.250  -1.475   1.699  1.00  0.00     0.097 C 
ATOM      7  C   UNL     1       1.782  -2.955   1.555  1.00  0.00     0.041 C 
ATOM      8  C   UNL     1       0.749  -3.990   1.236  1.00  0.00    -0.030 C 
ATOM      9  C   UNL     1      -0.794  -2.203   0.563  1.00  0.00     0.043 C 
ATOM     10  C   UNL     1      -0.455  -3.636   0.801  1.00  0.00    -0.030 C 
BRANCH   6  11
ATOM     11  C   UNL     1       2.465  -0.679   2.096  1.00  0.00     0.229 C 
ATOM     12  N   UNL     1       2.391   0.146   3.195  1.00  0.00    -0.317 N 
ATOM     13  H   UNL     1       3.130   0.146   3.844  1.00  0.00     0.170 HD
ATOM     14  O   UNL     1       3.548  -0.839   1.528  1.00  0.00    -0.274 OA
BRANCH  12  15
ATOM     15  C   UNL     1       1.295   0.986   3.414  1.00  0.00     0.110 A 
ATOM     16  C   UNL     1      -0.358   1.179   2.720  1.00  0.00     0.098 A 
ATOM     17  C   UNL     1      -0.905   2.993   2.699  1.00  0.00    -0.017 A 
ATOM     18  S   UNL     1       2.139   3.023   4.264  1.00  0.00    -0.122 S 
ATOM     19  C   UNL     1       0.209   4.122   3.498  1.00  0.00     0.011 A 
ATOM     20  C   UNL     1      -2.342   3.373   2.499  1.00  0.00     0.038 C 
ATOM     21  C   UNL     1      -0.098   5.567   3.673  1.00  0.00     0.047 C 
ATOM     22  C   UNL     1      -2.580   4.882   2.705  1.00  0.00     0.005 C 
ATOM     23  C   UNL     1      -1.660   5.756   3.640  1.00  0.00     0.006 C 
BRANCH  16  24
ATOM     24  C   UNL     1      -1.425   0.165   2.236  1.00  0.00     0.341 C 
ATOM     25  O   UNL     1      -1.850  -0.698   2.991  1.00  0.00    -0.246 OA
BRANCH  24  26
ATOM     26  O   UNL     1      -1.829   0.315   0.896  1.00  0.00    -0.462 OA
BRANCH  26  27
ATOM     27  C   UNL     1      -2.598  -0.305  -0.312  1.00  0.00     0.233 C 
BRANCH  27  28
ATOM     28  C   UNL     1      -1.951  -0.812  -1.839  1.00  0.00     0.038 C 
ATOM     29  C   UNL     1      -0.735  -1.731  -2.338  1.00  0.00     0.007 C 
ENDBRANCH  27  28
ENDBRANCH  26  27
ENDBRANCH  24  26
ENDBRANCH  16  24
ENDBRANCH  12  15
ENDBRANCH   6  11
ENDBRANCH   3   5
ENDBRANCH   2   3
ENDBRANCH   1   2
BRANCH   1  30
ATOM     30  C   UNL     1       0.048   4.053  -0.325  1.00  0.00     0.202 C 
BRANCH  30  31
ATOM     31  O   UNL     1       1.399   4.177  -0.746  1.00  0.00    -0.374 OA
BRANCH  31  32
ATOM     32  C   UNL     1       2.125   2.969  -0.851  1.00  0.00     0.202 C 
BRANCH  32  33
ATOM     33  C   UNL     1       2.532   2.195   0.432  1.00  0.00     0.261 C 
BRANCH  33  34
ATOM     34  O   UNL     1       1.513   1.766   1.423  1.00  0.00    -0.460 OA
BRANCH  34  35
ATOM     35  C   UNL     1       1.059   2.687   2.485  1.00  0.00     0.338 C 
ATOM     36  O   UNL     1       1.569   3.752   2.013  1.00  0.00    -0.246 OA
BRANCH  35  37
ATOM     37  C   UNL     1       0.093   2.276   4.420  1.00  0.00     0.060 A 
ATOM     38  C   UNL     1      -0.934   3.054   5.100  1.00  0.00     0.016 A 
ATOM     39  C   UNL     1       0.398   1.347   5.615  1.00  0.00     0.016 A 
ATOM     40  C   UNL     1      -0.870   3.563   6.361  1.00  0.00     0.010 A 
ATOM     41  C   UNL     1      -0.164   1.453   6.960  1.00  0.00     0.010 A 
ATOM     42  C   UNL     1      -0.887   2.589   7.287  1.00  0.00    -0.014 A 
BRANCH  42  43
ATOM     43  C   UNL     1      -1.745   3.028   8.405  1.00  0.00     0.031 A 
ATOM     44  C   UNL     1      -1.115   3.882   9.459  1.00  0.00     0.074 A 
ATOM     45  C   UNL     1      -3.078   3.185   8.161  1.00  0.00     0.049 A 
ATOM     46  N   UNL     1      -1.664   4.446  10.494  1.00  0.00    -0.248 NA
ATOM     47  C   UNL     1       0.315   4.195   9.278  1.00  0.00     0.031 C 
ATOM     48  C   UNL     1      -3.767   2.826   6.903  1.00  0.00     0.029 A 
ATOM     49  N   UNL     1      -4.077   3.789   8.885  1.00  0.00    -0.354 N 
ATOM     50  C   UNL     1      -0.630   5.101  11.145  1.00  0.00     0.074 A 
ATOM     51  C   UNL     1       0.559   4.945  10.340  1.00  0.00     0.031 C 
ATOM     52  C   UNL     1      -5.050   3.216   6.956  1.00  0.00     0.029 A 
ATOM     53  C   UNL     1      -5.324   3.713   8.293  1.00  0.00     0.049 A 
ATOM     54  H   UNL     1      -3.920   4.236   9.748  1.00  0.00     0.167 HD
ATOM     55  C   UNL     1      -0.687   5.703  12.353  1.00  0.00     0.034 A 
ATOM     56  C   UNL     1      -6.552   3.916   8.816  1.00  0.00     0.034 A 
ATOM     57  C   UNL     1      -1.911   5.804  13.102  1.00  0.00     0.049 A 
ATOM     58  C   UNL     1      -6.591   4.335  10.265  1.00  0.00     0.074 A 
ATOM     59  C   UNL     1      -2.098   6.224  14.403  1.00  0.00     0.029 A 
ATOM     60  N   UNL     1      -3.164   5.464  12.604  1.00  0.00    -0.354 N 
ATOM     61  N   UNL     1      -5.590   4.698  11.037  1.00  0.00    -0.248 NA
ATOM     62  C   UNL     1      -7.897   4.337  10.928  1.00  0.00     0.031 C 
ATOM     63  C   UNL     1      -3.446   6.035  14.723  1.00  0.00     0.029 A 
ATOM     64  C   UNL     1      -4.124   5.622  13.585  1.00  0.00     0.049 A 
ATOM     65  H   UNL     1      -3.342   5.156  11.686  1.00  0.00     0.167 HD
ATOM     66  C   UNL     1      -6.151   4.997  12.272  1.00  0.00     0.074 A 
ATOM     67  C   UNL     1      -7.580   4.789  12.132  1.00  0.00     0.031 C 
ATOM     68  C   UNL     1      -5.543   5.406  13.415  1.00  0.00     0.034 A 
BRANCH  55  69
ATOM     69  C   UNL     1       0.629   6.048  12.991  1.00  0.00     0.023 A 
ATOM     70  C   UNL     1       1.497   7.018  12.469  1.00  0.00     0.031 A 
ATOM     71  C   UNL     1       1.073   5.275  14.080  1.00  0.00     0.131 A 
ATOM     72  C   UNL     1       2.797   7.128  12.985  1.00  0.00     0.055 A 
ATOM     73  C   UNL     1       2.329   5.462  14.653  1.00  0.00     0.041 A 
ATOM     74  F   UNL     1       0.307   4.290  14.578  1.00  0.00    -0.206 F 
ATOM     75  C   UNL     1       3.207   6.383  14.094  1.00  0.00     0.022 A 
BRANCH  72  76
ATOM     76  S   UNL     1       4.011   8.109  12.060  1.00  0.00     0.124 S 
ATOM     77  O   UNL     1       4.027   7.415  10.774  1.00  0.00    -0.237 OA
ATOM     78  O   UNL     1       3.411   9.437  12.061  1.00  0.00    -0.237 OA
ATOM     79  O   UNL     1       5.234   7.974  12.849  1.00  0.00    -0.744 OA
ENDBRANCH  72  76
ENDBRANCH  55  69
BRANCH  56  80
ATOM     80  C   UNL     1      -7.810   3.538   8.084  1.00  0.00     0.023 A 
ATOM     81  C   UNL     1      -8.899   4.419   7.963  1.00  0.00     0.031 A 
ATOM     82  C   UNL     1      -7.993   2.224   7.604  1.00  0.00     0.131 A 
ATOM     83  C   UNL     1     -10.121   3.964   7.428  1.00  0.00     0.055 A 
ATOM     84  C   UNL     1      -9.183   1.799   7.008  1.00  0.00     0.041 A 
ATOM     85  F   UNL     1      -7.017   1.310   7.726  1.00  0.00    -0.206 F 
ATOM     86  C   UNL     1     -10.262   2.667   6.931  1.00  0.00     0.022 A 
BRANCH  83  87
ATOM     87  S   UNL     1     -11.576   5.049   7.510  1.00  0.00     0.124 S 
ATOM     88  O   UNL     1     -11.679   5.295   8.944  1.00  0.00    -0.237 OA
ATOM     89  O   UNL     1     -11.156   6.181   6.691  1.00  0.00    -0.237 OA
ATOM     90  O   UNL     1     -12.645   4.232   6.938  1.00  0.00    -0.744 OA
ENDBRANCH  83  87
ENDBRANCH  56  80
BRANCH  68  91
ATOM     91  C   UNL     1      -6.434   5.733  14.582  1.00  0.00     0.023 A 
ATOM     92  C   UNL     1      -7.223   4.758  15.211  1.00  0.00     0.031 A 
ATOM     93  C   UNL     1      -6.487   7.051  15.069  1.00  0.00     0.131 A 
ATOM     94  C   UNL     1      -8.089   5.134  16.246  1.00  0.00     0.055 A 
ATOM     95  C   UNL     1      -7.277   7.397  16.162  1.00  0.00     0.041 A 
ATOM     96  F   UNL     1      -5.759   8.023  14.495  1.00  0.00    -0.206 F 
ATOM     97  C   UNL     1      -8.098   6.439  16.746  1.00  0.00     0.022 A 
BRANCH  94  98
ATOM     98  S   UNL     1      -9.309   3.927  16.827  1.00  0.00     0.124 S 
ATOM     99  O   UNL     1     -10.013   3.595  15.593  1.00  0.00    -0.237 OA
ATOM    100  O   UNL     1      -8.467   2.874  17.384  1.00  0.00    -0.237 OA
ATOM    101  O   UNL     1     -10.092   4.679  17.805  1.00  0.00    -0.744 OA
ENDBRANCH  94  98
ENDBRANCH  68  91
ENDBRANCH  42  43
ENDBRANCH  35  37
ENDBRANCH  34  35
ENDBRANCH  33  34
ENDBRANCH  32  33
ENDBRANCH  31  32
ENDBRANCH  30  31
ENDBRANCH   1  30
TORSDOF 23
