REMARK SMILES O=C(C[C@@H]([NH2+]C[C@H]1CCCO1)C(=O)OCCOCCOC(=O)c1ccc(-c2c3nc(c(-c4cc(S(=O)(=O)[O-])ccc4F)c4ccc([nH]4)c(-c4cc(S(=O)(=O)[O-])ccc4F)c4nc(c(-c5cc(S(=O)(=O)[O-])ccc5F)c5ccc2[nH]5)C=C4)C=C3)cc1)Nc1cccc(Cl)c1
REMARK SMILES IDX 17 1 16 2 15 3 14 4 12 5 13 6 4 7 3 8 2 9 1 10 86 11 87 13
REMARK SMILES IDX 88 14 93 15 89 16 91 17 90 18 92 19 5 20 6 23 7 24 8 25
REMARK SMILES IDX 11 26 9 27 10 28 18 29 19 30 20 31 21 32 22 33 23 34 24 35
REMARK SMILES IDX 85 36 25 37 84 38 26 39 27 40 28 41 78 42 29 43 83 44 77 45
REMARK SMILES IDX 79 46 30 47 82 48 76 49 75 50 31 52 63 53 43 54 62 55 44 56
REMARK SMILES IDX 47 57 61 58 80 59 45 60 46 61 60 63 81 64 48 65 32 66 33 67
REMARK SMILES IDX 41 68 34 69 40 70 42 71 39 72 35 73 36 74 37 75 38 76 64 77
REMARK SMILES IDX 65 78 73 79 66 80 72 81 74 82 71 83 67 84 68 85 69 86 70 87
REMARK SMILES IDX 49 88 50 89 58 90 51 91 57 92 59 93 56 94 52 95 53 96 54 97
REMARK SMILES IDX 55 98
REMARK H PARENT 86 12 5 21 5 22 79 51 47 62
REMARK Flexibility Score: inf
ROOT
ATOM      1  O   UNL     1       1.799   5.009  -6.347  1.00  0.00    -0.374 OA
ENDROOT
BRANCH   1   2
ATOM      2  C   UNL     1       0.558   4.324  -6.480  1.00  0.00     0.202 C 
BRANCH   2   3
ATOM      3  C   UNL     1       0.250   3.152  -5.533  1.00  0.00     0.261 C 
BRANCH   3   4
ATOM      4  O   UNL     1       0.737   3.323  -4.195  1.00  0.00    -0.459 OA
BRANCH   4   5
ATOM      5  C   UNL     1       1.980   2.803  -3.995  1.00  0.00     0.365 C 
ATOM      6  O   UNL     1       2.606   2.221  -4.877  1.00  0.00    -0.245 OA
BRANCH   5   7
ATOM      7  C   UNL     1       2.573   3.150  -2.608  1.00  0.00     0.302 C 
BRANCH   7   8
ATOM      8  C   UNL     1       1.547   3.830  -1.678  1.00  0.00     0.177 C 
BRANCH   8   9
ATOM      9  C   UNL     1       2.160   4.321  -0.375  1.00  0.00     0.231 C 
ATOM     10  O   UNL     1       2.301   5.515  -0.139  1.00  0.00    -0.274 OA
ATOM     11  N   UNL     1       2.542   3.272   0.440  1.00  0.00    -0.326 N 
ATOM     12  H   UNL     1       2.391   2.370   0.075  1.00  0.00     0.169 HD
BRANCH  11  13
ATOM     13  C   UNL     1       3.118   3.324   1.719  1.00  0.00     0.042 A 
ATOM     14  C   UNL     1       3.709   2.143   2.189  1.00  0.00     0.026 A 
ATOM     15  C   UNL     1       3.110   4.457   2.533  1.00  0.00     0.046 A 
ATOM     16  C   UNL     1       4.296   2.092   3.453  1.00  0.00     0.004 A 
ATOM     17  C   UNL     1       3.677   4.393   3.809  1.00  0.00     0.043 A 
ATOM     18  C   UNL     1       4.273   3.219   4.269  1.00  0.00     0.020 A 
ATOM     19  Cl  UNL     1       3.627   5.771   4.841  1.00  0.00    -0.084 Cl
ENDBRANCH  11  13
ENDBRANCH   8   9
ENDBRANCH   7   8
BRANCH   7  20
ATOM     20  N   UNL     1       3.217   1.982  -1.909  1.00  0.00    -0.332 N 
ATOM     21  H   UNL     1       2.479   1.439  -1.462  1.00  0.00     0.347 HD
ATOM     22  H   UNL     1       3.889   2.386  -1.257  1.00  0.00     0.347 HD
BRANCH  20  23
ATOM     23  C   UNL     1       3.995   1.066  -2.771  1.00  0.00     0.293 C 
BRANCH  23  24
ATOM     24  C   UNL     1       5.382   1.576  -3.248  1.00  0.00     0.173 C 
ATOM     25  C   UNL     1       5.708   1.287  -4.705  1.00  0.00     0.040 C 
ATOM     26  O   UNL     1       5.536   2.988  -3.033  1.00  0.00    -0.372 OA
ATOM     27  C   UNL     1       5.675   2.630  -5.390  1.00  0.00     0.031 C 
ATOM     28  C   UNL     1       5.837   3.633  -4.273  1.00  0.00     0.161 C 
ENDBRANCH  23  24
ENDBRANCH  20  23
ENDBRANCH   7  20
ENDBRANCH   5   7
ENDBRANCH   4   5
ENDBRANCH   3   4
ENDBRANCH   2   3
ENDBRANCH   1   2
BRANCH   1  29
ATOM     29  C   UNL     1       2.012   5.843  -5.208  1.00  0.00     0.202 C 
BRANCH  29  30
ATOM     30  C   UNL     1       0.986   6.928  -4.865  1.00  0.00     0.261 C 
BRANCH  30  31
ATOM     31  O   UNL     1      -0.298   6.380  -4.516  1.00  0.00    -0.460 OA
BRANCH  31  32
ATOM     32  C   UNL     1      -1.331   6.899  -5.222  1.00  0.00     0.338 C 
ATOM     33  O   UNL     1      -1.275   7.806  -6.047  1.00  0.00    -0.246 OA
BRANCH  32  34
ATOM     34  C   UNL     1      -2.542   6.084  -5.040  1.00  0.00     0.060 A 
ATOM     35  C   UNL     1      -3.091   5.484  -6.180  1.00  0.00     0.016 A 
ATOM     36  C   UNL     1      -3.193   6.002  -3.807  1.00  0.00     0.016 A 
ATOM     37  C   UNL     1      -4.322   4.842  -6.102  1.00  0.00     0.010 A 
ATOM     38  C   UNL     1      -4.437   5.363  -3.735  1.00  0.00     0.010 A 
ATOM     39  C   UNL     1      -5.023   4.814  -4.890  1.00  0.00    -0.014 A 
BRANCH  39  40
ATOM     40  C   UNL     1      -6.428   4.336  -4.895  1.00  0.00     0.031 A 
ATOM     41  C   UNL     1      -7.545   5.343  -4.950  1.00  0.00     0.074 A 
ATOM     42  C   UNL     1      -6.697   3.018  -4.942  1.00  0.00     0.049 A 
ATOM     43  N   UNL     1      -8.836   5.148  -5.033  1.00  0.00    -0.248 NA
ATOM     44  C   UNL     1      -7.152   6.759  -4.909  1.00  0.00     0.031 C 
ATOM     45  C   UNL     1      -5.692   1.955  -4.936  1.00  0.00     0.029 A 
ATOM     46  N   UNL     1      -7.893   2.351  -5.017  1.00  0.00    -0.354 N 
ATOM     47  C   UNL     1      -9.411   6.415  -5.062  1.00  0.00     0.074 A 
ATOM     48  C   UNL     1      -8.328   7.368  -4.941  1.00  0.00     0.031 C 
ATOM     49  C   UNL     1      -6.316   0.767  -5.012  1.00  0.00     0.029 A 
ATOM     50  C   UNL     1      -7.761   0.983  -5.041  1.00  0.00     0.049 A 
ATOM     51  H   UNL     1      -8.764   2.809  -5.051  1.00  0.00     0.167 HD
ATOM     52  C   UNL     1     -10.719   6.751  -5.191  1.00  0.00     0.034 A 
ATOM     53  C   UNL     1      -8.700   0.016  -5.071  1.00  0.00     0.034 A 
ATOM     54  C   UNL     1     -11.788   5.787  -5.293  1.00  0.00     0.049 A 
ATOM     55  C   UNL     1     -10.154   0.415  -5.133  1.00  0.00     0.074 A 
ATOM     56  C   UNL     1     -13.146   6.015  -5.438  1.00  0.00     0.029 A 
ATOM     57  N   UNL     1     -11.624   4.407  -5.246  1.00  0.00    -0.354 N 
ATOM     58  N   UNL     1     -10.682   1.617  -5.179  1.00  0.00    -0.248 NA
ATOM     59  C   UNL     1     -11.136  -0.676  -5.162  1.00  0.00     0.031 C 
ATOM     60  C   UNL     1     -13.806   4.781  -5.403  1.00  0.00     0.029 A 
ATOM     61  C   UNL     1     -12.857   3.775  -5.320  1.00  0.00     0.049 A 
ATOM     62  H   UNL     1     -10.758   3.945  -5.171  1.00  0.00     0.167 HD
ATOM     63  C   UNL     1     -12.059   1.423  -5.265  1.00  0.00     0.074 A 
ATOM     64  C   UNL     1     -12.273  -0.009  -5.292  1.00  0.00     0.031 C 
ATOM     65  C   UNL     1     -13.057   2.344  -5.318  1.00  0.00     0.034 A 
BRANCH  52  66
ATOM     66  C   UNL     1     -11.061   8.222  -5.175  1.00  0.00     0.023 A 
ATOM     67  C   UNL     1     -10.616   9.100  -6.180  1.00  0.00     0.031 A 
ATOM     68  C   UNL     1     -11.820   8.762  -4.121  1.00  0.00     0.131 A 
ATOM     69  C   UNL     1     -10.874  10.476  -6.074  1.00  0.00     0.055 A 
ATOM     70  C   UNL     1     -12.139  10.120  -4.062  1.00  0.00     0.041 A 
ATOM     71  F   UNL     1     -12.253   7.979  -3.120  1.00  0.00    -0.206 F 
ATOM     72  C   UNL     1     -11.653  10.988  -5.035  1.00  0.00     0.022 A 
BRANCH  69  73
ATOM     73  S   UNL     1     -10.060  11.605  -7.238  1.00  0.00     0.124 S 
ATOM     74  O   UNL     1      -8.649  11.307  -7.001  1.00  0.00    -0.237 OA
ATOM     75  O   UNL     1     -10.598  11.175  -8.523  1.00  0.00    -0.237 OA
ATOM     76  O   UNL     1     -10.493  12.928  -6.791  1.00  0.00    -0.744 OA
ENDBRANCH  69  73
ENDBRANCH  52  66
BRANCH  53  77
ATOM     77  C   UNL     1      -8.307  -1.421  -5.009  1.00  0.00     0.023 A 
ATOM     78  C   UNL     1      -8.586  -2.302  -6.066  1.00  0.00     0.031 A 
ATOM     79  C   UNL     1      -7.690  -1.946  -3.859  1.00  0.00     0.131 A 
ATOM     80  C   UNL     1      -8.292  -3.668  -5.933  1.00  0.00     0.055 A 
ATOM     81  C   UNL     1      -7.351  -3.296  -3.753  1.00  0.00     0.041 A 
ATOM     82  F   UNL     1      -7.401  -1.148  -2.819  1.00  0.00    -0.206 F 
ATOM     83  C   UNL     1      -7.665  -4.168  -4.790  1.00  0.00     0.022 A 
BRANCH  80  84
ATOM     84  S   UNL     1      -8.818  -4.803  -7.247  1.00  0.00     0.124 S 
ATOM     85  O   UNL     1     -10.257  -4.575  -7.279  1.00  0.00    -0.237 OA
ATOM     86  O   UNL     1      -8.063  -4.307  -8.393  1.00  0.00    -0.237 OA
ATOM     87  O   UNL     1      -8.402  -6.114  -6.751  1.00  0.00    -0.744 OA
ENDBRANCH  80  84
ENDBRANCH  53  77
BRANCH  65  88
ATOM     88  C   UNL     1     -14.467   1.813  -5.437  1.00  0.00     0.023 A 
ATOM     89  C   UNL     1     -15.059   1.055  -4.410  1.00  0.00     0.031 A 
ATOM     90  C   UNL     1     -15.216   2.034  -6.606  1.00  0.00     0.131 A 
ATOM     91  C   UNL     1     -16.326   0.485  -4.601  1.00  0.00     0.055 A 
ATOM     92  C   UNL     1     -16.505   1.523  -6.763  1.00  0.00     0.041 A 
ATOM     93  F   UNL     1     -14.703   2.748  -7.622  1.00  0.00    -0.206 F 
ATOM     94  C   UNL     1     -17.060   0.728  -5.765  1.00  0.00     0.022 A 
BRANCH  91  95
ATOM     95  S   UNL     1     -16.952  -0.680  -3.359  1.00  0.00     0.124 S 
ATOM     96  O   UNL     1     -15.892  -1.681  -3.321  1.00  0.00    -0.237 OA
ATOM     97  O   UNL     1     -17.075   0.164  -2.175  1.00  0.00    -0.237 OA
ATOM     98  O   UNL     1     -18.219  -1.139  -3.927  1.00  0.00    -0.744 OA
ENDBRANCH  91  95
ENDBRANCH  65  88
ENDBRANCH  39  40
ENDBRANCH  32  34
ENDBRANCH  31  32
ENDBRANCH  30  31
ENDBRANCH  29  30
ENDBRANCH   1  29
TORSDOF 23
