REMARK SMILES O=C(OCCOCCOC(=O)[C@@H]1CC[C@H](CNC(=O)c2cccn2C2CC2)O1)c1ccc(-c2c3nc(c(-c4cc(S(=O)(=O)[O-])ccc4F)c4ccc([nH]4)c(-c4cc(S(=O)(=O)[O-])ccc4F)c4nc(c(-c5cc(S(=O)(=O)[O-])ccc5F)c5ccc2[nH]5)C=C4)C=C3)cc1
REMARK SMILES IDX 7 1 6 2 5 3 4 4 3 5 2 6 1 7 29 8 30 9 91 10 31 11 90 12
REMARK SMILES IDX 32 13 33 14 34 15 84 16 35 17 89 18 83 19 85 20 36 21 88 22
REMARK SMILES IDX 82 23 81 24 37 26 69 27 49 28 68 29 50 30 53 31 67 32 86 33
REMARK SMILES IDX 51 34 52 35 66 37 87 38 54 39 38 40 39 41 47 42 40 43 46 44
REMARK SMILES IDX 48 45 45 46 41 47 42 48 43 49 44 50 70 51 71 52 79 53 72 54
REMARK SMILES IDX 78 55 80 56 77 57 73 58 74 59 75 60 76 61 55 62 56 63 64 64
REMARK SMILES IDX 57 65 63 66 65 67 62 68 58 69 59 70 60 71 61 72 8 73 9 74
REMARK SMILES IDX 10 75 11 76 12 77 13 78 28 79 14 80 15 81 16 82 17 83 18 84
REMARK SMILES IDX 19 86 20 87 21 88 24 89 22 90 23 91 25 92 26 93 27 94
REMARK H PARENT 85 25 53 36 17 85
REMARK Flexibility Score: inf
ROOT
ATOM      1  C   UNL     1       3.213  -1.356   2.195  1.00  0.00     0.202 C 
ENDROOT
BRANCH   1   2
ATOM      2  O   UNL     1       4.262  -1.388   1.220  1.00  0.00    -0.374 OA
BRANCH   2   3
ATOM      3  C   UNL     1       4.889  -0.155   0.875  1.00  0.00     0.202 C 
BRANCH   3   4
ATOM      4  C   UNL     1       4.069   0.826   0.025  1.00  0.00     0.261 C 
BRANCH   4   5
ATOM      5  O   UNL     1       2.663   0.810   0.308  1.00  0.00    -0.460 OA
BRANCH   5   6
ATOM      6  C   UNL     1       1.689   0.194  -0.416  1.00  0.00     0.338 C 
ATOM      7  O   UNL     1       0.541   0.168  -0.002  1.00  0.00    -0.246 OA
BRANCH   6   8
ATOM      8  C   UNL     1       1.994  -0.358  -1.757  1.00  0.00     0.060 A 
ATOM      9  C   UNL     1       3.154  -1.079  -2.035  1.00  0.00     0.016 A 
ATOM     10  C   UNL     1       1.054  -0.145  -2.774  1.00  0.00     0.016 A 
ATOM     11  C   UNL     1       3.483  -1.378  -3.347  1.00  0.00     0.010 A 
ATOM     12  C   UNL     1       1.330  -0.549  -4.080  1.00  0.00     0.010 A 
ATOM     13  C   UNL     1       2.577  -1.108  -4.380  1.00  0.00    -0.014 A 
BRANCH  13  14
ATOM     14  C   UNL     1       2.956  -1.567  -5.741  1.00  0.00     0.031 A 
ATOM     15  C   UNL     1       3.219  -3.073  -5.795  1.00  0.00     0.074 A 
ATOM     16  C   UNL     1       3.129  -0.631  -6.717  1.00  0.00     0.049 A 
ATOM     17  N   UNL     1       4.152  -3.742  -6.404  1.00  0.00    -0.248 NA
ATOM     18  C   UNL     1       2.424  -3.936  -4.882  1.00  0.00     0.031 C 
ATOM     19  C   UNL     1       2.893   0.816  -6.548  1.00  0.00     0.029 A 
ATOM     20  N   UNL     1       3.539  -0.698  -8.031  1.00  0.00    -0.354 N 
ATOM     21  C   UNL     1       3.938  -5.106  -6.105  1.00  0.00     0.074 A 
ATOM     22  C   UNL     1       3.004  -5.129  -5.016  1.00  0.00     0.031 C 
ATOM     23  C   UNL     1       3.175   1.484  -7.686  1.00  0.00     0.029 A 
ATOM     24  C   UNL     1       3.634   0.549  -8.695  1.00  0.00     0.049 A 
ATOM     25  H   UNL     1       3.751  -1.551  -8.476  1.00  0.00     0.167 HD
ATOM     26  C   UNL     1       4.399  -6.145  -6.866  1.00  0.00     0.034 A 
ATOM     27  C   UNL     1       4.082   0.829  -9.956  1.00  0.00     0.034 A 
ATOM     28  C   UNL     1       5.099  -5.667  -8.016  1.00  0.00     0.049 A 
ATOM     29  C   UNL     1       4.452  -0.465 -10.558  1.00  0.00     0.074 A 
ATOM     30  C   UNL     1       6.341  -5.145  -8.260  1.00  0.00     0.029 A 
ATOM     31  N   UNL     1       4.366  -5.566  -9.178  1.00  0.00    -0.354 N 
ATOM     32  N   UNL     1       3.612  -1.371 -10.951  1.00  0.00    -0.248 NA
ATOM     33  C   UNL     1       5.874  -0.810 -10.678  1.00  0.00     0.031 C 
ATOM     34  C   UNL     1       6.199  -4.412  -9.466  1.00  0.00     0.029 A 
ATOM     35  C   UNL     1       4.867  -4.502  -9.888  1.00  0.00     0.049 A 
ATOM     36  H   UNL     1       3.619  -6.148  -9.449  1.00  0.00     0.167 HD
ATOM     37  C   UNL     1       4.391  -2.495 -11.089  1.00  0.00     0.074 A 
ATOM     38  C   UNL     1       5.759  -2.038 -11.178  1.00  0.00     0.031 C 
ATOM     39  C   UNL     1       3.929  -3.693 -10.649  1.00  0.00     0.034 A 
BRANCH  26  40
ATOM     40  C   UNL     1       4.088  -7.630  -6.831  1.00  0.00     0.023 A 
ATOM     41  C   UNL     1       4.933  -8.477  -7.596  1.00  0.00     0.031 A 
ATOM     42  C   UNL     1       2.930  -8.232  -6.317  1.00  0.00     0.131 A 
ATOM     43  C   UNL     1       4.593  -9.809  -7.876  1.00  0.00     0.055 A 
ATOM     44  C   UNL     1       2.622  -9.583  -6.545  1.00  0.00     0.041 A 
ATOM     45  F   UNL     1       2.003  -7.536  -5.648  1.00  0.00    -0.206 F 
ATOM     46  C   UNL     1       3.439 -10.372  -7.347  1.00  0.00     0.022 A 
BRANCH  43  47
ATOM     47  S   UNL     1       5.606 -10.738  -9.065  1.00  0.00     0.124 S 
ATOM     48  O   UNL     1       5.716  -9.807 -10.183  1.00  0.00    -0.237 OA
ATOM     49  O   UNL     1       6.829 -10.970  -8.304  1.00  0.00    -0.237 OA
ATOM     50  O   UNL     1       4.805 -11.931  -9.331  1.00  0.00    -0.744 OA
ENDBRANCH  43  47
ENDBRANCH  26  40
BRANCH  27  51
ATOM     51  C   UNL     1       4.330   2.065 -10.794  1.00  0.00     0.023 A 
ATOM     52  C   UNL     1       4.046   3.383 -10.403  1.00  0.00     0.031 A 
ATOM     53  C   UNL     1       4.922   1.941 -12.087  1.00  0.00     0.131 A 
ATOM     54  C   UNL     1       4.386   4.478 -11.237  1.00  0.00     0.055 A 
ATOM     55  C   UNL     1       5.296   3.023 -12.887  1.00  0.00     0.041 A 
ATOM     56  F   UNL     1       5.181   0.747 -12.639  1.00  0.00    -0.206 F 
ATOM     57  C   UNL     1       5.037   4.306 -12.458  1.00  0.00     0.022 A 
BRANCH  54  58
ATOM     58  S   UNL     1       4.022   6.186 -10.738  1.00  0.00     0.124 S 
ATOM     59  O   UNL     1       2.814   6.475 -11.504  1.00  0.00    -0.237 OA
ATOM     60  O   UNL     1       3.850   6.084  -9.292  1.00  0.00    -0.237 OA
ATOM     61  O   UNL     1       5.221   6.906 -11.166  1.00  0.00    -0.744 OA
ENDBRANCH  54  58
ENDBRANCH  27  51
BRANCH  39  62
ATOM     62  C   UNL     1       2.401  -3.757 -10.562  1.00  0.00     0.023 A 
ATOM     63  C   UNL     1       1.597  -3.559 -11.700  1.00  0.00     0.031 A 
ATOM     64  C   UNL     1       1.713  -3.864  -9.340  1.00  0.00     0.131 A 
ATOM     65  C   UNL     1       0.195  -3.449 -11.580  1.00  0.00     0.055 A 
ATOM     66  C   UNL     1       0.325  -3.778  -9.218  1.00  0.00     0.041 A 
ATOM     67  F   UNL     1       2.373  -4.047  -8.202  1.00  0.00    -0.206 F 
ATOM     68  C   UNL     1      -0.445  -3.560 -10.344  1.00  0.00     0.022 A 
BRANCH  65  69
ATOM     69  S   UNL     1      -0.816  -3.174 -13.061  1.00  0.00     0.124 S 
ATOM     70  O   UNL     1      -0.555  -1.773 -13.370  1.00  0.00    -0.237 OA
ATOM     71  O   UNL     1      -0.274  -4.149 -14.002  1.00  0.00    -0.237 OA
ATOM     72  O   UNL     1      -2.176  -3.462 -12.602  1.00  0.00    -0.744 OA
ENDBRANCH  65  69
ENDBRANCH  39  62
ENDBRANCH  13  14
ENDBRANCH   6   8
ENDBRANCH   5   6
ENDBRANCH   4   5
ENDBRANCH   3   4
ENDBRANCH   2   3
ENDBRANCH   1   2
BRANCH   1  73
ATOM     73  C   UNL     1       3.575  -0.782   3.567  1.00  0.00     0.261 C 
BRANCH  73  74
ATOM     74  O   UNL     1       3.819   0.637   3.489  1.00  0.00    -0.461 OA
BRANCH  74  75
ATOM     75  C   UNL     1       4.788   1.105   4.322  1.00  0.00     0.335 C 
ATOM     76  O   UNL     1       5.343   0.433   5.186  1.00  0.00    -0.249 OA
BRANCH  75  77
ATOM     77  C   UNL     1       5.178   2.560   4.029  1.00  0.00     0.228 C 
ATOM     78  C   UNL     1       4.089   3.456   3.472  1.00  0.00     0.047 C 
ATOM     79  O   UNL     1       6.268   2.702   3.103  1.00  0.00    -0.361 OA
ATOM     80  C   UNL     1       4.903   4.647   3.011  1.00  0.00     0.037 C 
ATOM     81  C   UNL     1       6.185   4.010   2.483  1.00  0.00     0.138 C 
BRANCH  81  82
ATOM     82  C   UNL     1       6.200   3.834   0.961  1.00  0.00     0.148 C 
BRANCH  82  83
ATOM     83  N   UNL     1       6.378   5.053   0.202  1.00  0.00    -0.348 N 
ATOM     84  C   UNL     1       7.077   5.252  -0.965  1.00  0.00     0.268 C 
ATOM     85  H   UNL     1       5.938   5.851   0.573  1.00  0.00     0.163 HD
ATOM     86  O   UNL     1       6.869   6.302  -1.560  1.00  0.00    -0.268 OA
BRANCH  84  87
ATOM     87  C   UNL     1       7.985   4.234  -1.433  1.00  0.00     0.107 A 
ATOM     88  C   UNL     1       7.668   2.940  -1.840  1.00  0.00     0.033 A 
ATOM     89  N   UNL     1       9.325   4.403  -1.718  1.00  0.00    -0.340 N 
ATOM     90  C   UNL     1       8.833   2.324  -2.350  1.00  0.00     0.020 A 
ATOM     91  C   UNL     1       9.837   3.259  -2.280  1.00  0.00     0.086 A 
BRANCH  89  92
ATOM     92  C   UNL     1      10.209   5.519  -1.426  1.00  0.00     0.087 C 
ATOM     93  C   UNL     1       9.830   6.929  -1.037  1.00  0.00     0.027 C 
ATOM     94  C   UNL     1      10.383   6.012  -0.001  1.00  0.00     0.027 C 
ENDBRANCH  89  92
ENDBRANCH  84  87
ENDBRANCH  82  83
ENDBRANCH  81  82
ENDBRANCH  75  77
ENDBRANCH  74  75
ENDBRANCH  73  74
ENDBRANCH   1  73
TORSDOF 21
