REMARK SMILES C[C@H]([C@@H](C)C(=O)OCCOCCOC(=O)c1ccc(-c2c3nc(c(-c4cc(S(=O)(=O)[O-])ccc4F)c4ccc([nH]4)c(-c4cc(S(=O)(=O)[O-])ccc4F)c4nc(c(-c5cc(S(=O)(=O)[O-])ccc5F)c5ccc2[nH]5)C=C4)C=C3)cc1)[S@@](=O)c1ccc2ccccc2c1
REMARK SMILES IDX 10 1 9 2 8 3 7 4 5 5 6 6 3 7 4 8 2 9 1 10 79 11 80 12 81 13
REMARK SMILES IDX 82 14 90 15 83 16 89 17 84 18 88 19 85 20 87 21 86 22 11 23
REMARK SMILES IDX 12 24 13 25 14 26 15 27 16 28 17 29 78 30 18 31 77 32 19 33
REMARK SMILES IDX 20 34 21 35 71 36 22 37 76 38 70 39 72 40 23 41 75 42 69 43
REMARK SMILES IDX 68 44 24 46 56 47 36 48 55 49 37 50 40 51 54 52 73 53 38 54
REMARK SMILES IDX 39 55 53 57 74 58 41 59 25 60 26 61 34 62 27 63 33 64 35 65
REMARK SMILES IDX 32 66 28 67 29 68 30 69 31 70 57 71 58 72 66 73 59 74 65 75
REMARK SMILES IDX 67 76 64 77 60 78 61 79 62 80 63 81 42 82 43 83 51 84 44 85
REMARK SMILES IDX 50 86 52 87 49 88 45 89 46 90 47 91 48 92
REMARK H PARENT 72 45 40 56
REMARK Flexibility Score: inf
ROOT
ATOM      1  O   UNL     1       2.643  -1.615   3.338  1.00  0.00    -0.374 OA
ENDROOT
BRANCH   1   2
ATOM      2  C   UNL     1       3.805  -0.909   2.905  1.00  0.00     0.202 C 
BRANCH   2   3
ATOM      3  C   UNL     1       4.061  -0.845   1.395  1.00  0.00     0.261 C 
BRANCH   3   4
ATOM      4  O   UNL     1       3.024  -0.138   0.690  1.00  0.00    -0.463 OA
BRANCH   4   5
ATOM      5  C   UNL     1       2.245  -0.893  -0.125  1.00  0.00     0.309 C 
ATOM      6  O   UNL     1       2.410  -2.087  -0.349  1.00  0.00    -0.252 OA
BRANCH   5   7
ATOM      7  C   UNL     1       1.120  -0.107  -0.781  1.00  0.00     0.112 C 
ATOM      8  C   UNL     1       1.554   0.219  -2.208  1.00  0.00     0.021 C 
BRANCH   7   9
ATOM      9  C   UNL     1       0.609   1.095   0.051  1.00  0.00     0.095 C 
ATOM     10  C   UNL     1       1.025   2.481  -0.431  1.00  0.00     0.023 C 
BRANCH   9  11
ATOM     11  S   UNL     1      -1.215   0.950   0.370  1.00  0.00     0.057 S 
ATOM     12  O   UNL     1      -1.636   2.158   1.153  1.00  0.00    -0.254 OA
BRANCH  11  13
ATOM     13  C   UNL     1      -1.876   1.182  -1.287  1.00  0.00     0.040 A 
ATOM     14  C   UNL     1      -1.913   2.444  -1.877  1.00  0.00     0.018 A 
ATOM     15  C   UNL     1      -2.405   0.084  -1.976  1.00  0.00     0.026 A 
ATOM     16  C   UNL     1      -2.374   2.598  -3.184  1.00  0.00     0.010 A 
ATOM     17  C   UNL     1      -2.920   0.231  -3.276  1.00  0.00    -0.017 A 
ATOM     18  C   UNL     1      -2.872   1.500  -3.898  1.00  0.00    -0.018 A 
ATOM     19  C   UNL     1      -3.486  -0.850  -3.974  1.00  0.00     0.009 A 
ATOM     20  C   UNL     1      -3.340   1.643  -5.213  1.00  0.00     0.009 A 
ATOM     21  C   UNL     1      -3.972  -0.685  -5.273  1.00  0.00     0.001 A 
ATOM     22  C   UNL     1      -3.886   0.557  -5.896  1.00  0.00     0.001 A 
ENDBRANCH  11  13
ENDBRANCH   9  11
ENDBRANCH   7   9
ENDBRANCH   5   7
ENDBRANCH   4   5
ENDBRANCH   3   4
ENDBRANCH   2   3
ENDBRANCH   1   2
BRANCH   1  23
ATOM     23  C   UNL     1       1.382  -0.963   3.213  1.00  0.00     0.202 C 
BRANCH  23  24
ATOM     24  C   UNL     1       1.080   0.210   4.159  1.00  0.00     0.261 C 
BRANCH  24  25
ATOM     25  O   UNL     1       1.976   1.323   3.990  1.00  0.00    -0.460 OA
BRANCH  25  26
ATOM     26  C   UNL     1       2.795   1.547   5.051  1.00  0.00     0.338 C 
ATOM     27  O   UNL     1       2.804   0.939   6.108  1.00  0.00    -0.246 OA
BRANCH  26  28
ATOM     28  C   UNL     1       3.845   2.524   4.696  1.00  0.00     0.060 A 
ATOM     29  C   UNL     1       5.176   2.136   4.897  1.00  0.00     0.016 A 
ATOM     30  C   UNL     1       3.542   3.818   4.268  1.00  0.00     0.016 A 
ATOM     31  C   UNL     1       6.208   3.054   4.717  1.00  0.00     0.010 A 
ATOM     32  C   UNL     1       4.582   4.742   4.096  1.00  0.00     0.010 A 
ATOM     33  C   UNL     1       5.916   4.375   4.354  1.00  0.00    -0.014 A 
BRANCH  33  34
ATOM     34  C   UNL     1       6.994   5.397   4.397  1.00  0.00     0.031 A 
ATOM     35  C   UNL     1       7.093   6.304   5.595  1.00  0.00     0.074 A 
ATOM     36  C   UNL     1       7.902   5.485   3.408  1.00  0.00     0.049 A 
ATOM     37  N   UNL     1       7.934   7.277   5.835  1.00  0.00    -0.248 NA
ATOM     38  C   UNL     1       6.106   6.082   6.662  1.00  0.00     0.031 C 
ATOM     39  C   UNL     1       7.943   4.630   2.223  1.00  0.00     0.029 A 
ATOM     40  N   UNL     1       8.965   6.338   3.244  1.00  0.00    -0.354 N 
ATOM     41  C   UNL     1       7.580   7.784   7.082  1.00  0.00     0.074 A 
ATOM     42  C   UNL     1       6.421   7.037   7.524  1.00  0.00     0.031 C 
ATOM     43  C   UNL     1       8.973   5.009   1.448  1.00  0.00     0.029 A 
ATOM     44  C   UNL     1       9.642   6.156   2.061  1.00  0.00     0.049 A 
ATOM     45  H   UNL     1       9.220   7.017   3.910  1.00  0.00     0.167 HD
ATOM     46  C   UNL     1       8.173   8.773   7.796  1.00  0.00     0.034 A 
ATOM     47  C   UNL     1      10.665   6.850   1.522  1.00  0.00     0.034 A 
ATOM     48  C   UNL     1       9.319   9.521   7.336  1.00  0.00     0.049 A 
ATOM     49  C   UNL     1      11.251   8.010   2.291  1.00  0.00     0.074 A 
ATOM     50  C   UNL     1      10.002  10.538   7.981  1.00  0.00     0.029 A 
ATOM     51  N   UNL     1       9.944   9.343   6.108  1.00  0.00    -0.354 N 
ATOM     52  N   UNL     1      10.910   8.478   3.470  1.00  0.00    -0.248 NA
ATOM     53  C   UNL     1      12.367   8.728   1.660  1.00  0.00     0.031 C 
ATOM     54  C   UNL     1      10.990  11.022   7.117  1.00  0.00     0.029 A 
ATOM     55  C   UNL     1      10.980  10.254   5.963  1.00  0.00     0.049 A 
ATOM     56  H   UNL     1       9.689   8.668   5.438  1.00  0.00     0.167 HD
ATOM     57  C   UNL     1      11.789   9.527   3.732  1.00  0.00     0.074 A 
ATOM     58  C   UNL     1      12.682   9.612   2.595  1.00  0.00     0.031 C 
ATOM     59  C   UNL     1      11.856  10.341   4.817  1.00  0.00     0.034 A 
BRANCH  46  60
ATOM     60  C   UNL     1       7.551   9.134   9.125  1.00  0.00     0.023 A 
ATOM     61  C   UNL     1       7.505   8.221  10.194  1.00  0.00     0.031 A 
ATOM     62  C   UNL     1       6.964  10.398   9.314  1.00  0.00     0.131 A 
ATOM     63  C   UNL     1       6.821   8.557  11.372  1.00  0.00     0.055 A 
ATOM     64  C   UNL     1       6.355  10.755  10.518  1.00  0.00     0.041 A 
ATOM     65  F   UNL     1       6.957  11.303   8.323  1.00  0.00    -0.206 F 
ATOM     66  C   UNL     1       6.267   9.826  11.551  1.00  0.00     0.022 A 
BRANCH  63  67
ATOM     67  S   UNL     1       6.537   7.261  12.610  1.00  0.00     0.124 S 
ATOM     68  O   UNL     1       5.814   6.260  11.828  1.00  0.00    -0.237 OA
ATOM     69  O   UNL     1       7.893   6.903  13.009  1.00  0.00    -0.237 OA
ATOM     70  O   UNL     1       5.741   7.934  13.634  1.00  0.00    -0.744 OA
ENDBRANCH  63  67
ENDBRANCH  46  60
BRANCH  47  71
ATOM     71  C   UNL     1      11.176   6.505   0.164  1.00  0.00     0.023 A 
ATOM     72  C   UNL     1      12.489   6.050  -0.030  1.00  0.00     0.031 A 
ATOM     73  C   UNL     1      10.363   6.678  -0.972  1.00  0.00     0.131 A 
ATOM     74  C   UNL     1      12.965   5.823  -1.332  1.00  0.00     0.055 A 
ATOM     75  C   UNL     1      10.824   6.402  -2.260  1.00  0.00     0.041 A 
ATOM     76  F   UNL     1       9.099   7.113  -0.843  1.00  0.00    -0.206 F 
ATOM     77  C   UNL     1      12.137   5.982  -2.446  1.00  0.00     0.022 A 
BRANCH  74  78
ATOM     78  S   UNL     1      14.712   5.389  -1.556  1.00  0.00     0.124 S 
ATOM     79  O   UNL     1      15.382   6.537  -0.959  1.00  0.00    -0.237 OA
ATOM     80  O   UNL     1      14.808   4.133  -0.819  1.00  0.00    -0.237 OA
ATOM     81  O   UNL     1      14.849   5.269  -3.006  1.00  0.00    -0.744 OA
ENDBRANCH  74  78
ENDBRANCH  47  71
BRANCH  59  82
ATOM     82  C   UNL     1      12.966  11.366   4.841  1.00  0.00     0.023 A 
ATOM     83  C   UNL     1      13.001  12.445   3.940  1.00  0.00     0.031 A 
ATOM     84  C   UNL     1      14.009  11.255   5.779  1.00  0.00     0.131 A 
ATOM     85  C   UNL     1      14.084  13.337   3.959  1.00  0.00     0.055 A 
ATOM     86  C   UNL     1      15.052  12.180   5.833  1.00  0.00     0.041 A 
ATOM     87  F   UNL     1      14.029  10.244   6.662  1.00  0.00    -0.206 F 
ATOM     88  C   UNL     1      15.101  13.222   4.911  1.00  0.00     0.022 A 
BRANCH  85  89
ATOM     89  S   UNL     1      14.196  14.602   2.663  1.00  0.00     0.124 S 
ATOM     90  O   UNL     1      14.210  13.793   1.449  1.00  0.00    -0.237 OA
ATOM     91  O   UNL     1      12.989  15.390   2.891  1.00  0.00    -0.237 OA
ATOM     92  O   UNL     1      15.450  15.291   2.963  1.00  0.00    -0.744 OA
ENDBRANCH  85  89
ENDBRANCH  59  82
ENDBRANCH  33  34
ENDBRANCH  26  28
ENDBRANCH  25  26
ENDBRANCH  24  25
ENDBRANCH  23  24
ENDBRANCH   1  23
TORSDOF 20
