REMARK SMILES O=C(OCCOCCOC(=O)[C@@H]1C[C@@H]1C(=O)N1CC2(CCCC2)c2c(F)cccc21)c1ccc(-c2c3nc(c(-c4cc(S(=O)(=O)[O-])ccc4F)c4ccc([nH]4)c(-c4cc(S(=O)(=O)[O-])ccc4F)c4nc(c(-c5cc(S(=O)(=O)[O-])ccc5F)c5ccc2[nH]5)C=C4)C=C3)cc1
REMARK SMILES IDX 5 1 4 2 3 3 2 4 1 5 31 6 32 7 93 8 33 9 92 10 34 11 35 12
REMARK SMILES IDX 36 13 86 14 37 15 91 16 85 17 87 18 38 19 90 20 84 21 83 22
REMARK SMILES IDX 39 24 71 25 51 26 70 27 52 28 55 29 69 30 88 31 53 32 54 33
REMARK SMILES IDX 68 35 89 36 56 37 40 38 41 39 49 40 42 41 48 42 50 43 47 44
REMARK SMILES IDX 43 45 44 46 45 47 46 48 72 49 73 50 81 51 74 52 80 53 82 54
REMARK SMILES IDX 79 55 75 56 76 57 77 58 78 59 57 60 58 61 66 62 59 63 65 64
REMARK SMILES IDX 67 65 64 66 60 67 61 68 62 69 63 70 6 71 7 72 8 73 9 74
REMARK SMILES IDX 10 75 11 76 12 77 13 78 14 79 15 80 16 81 17 82 18 83 30 84
REMARK SMILES IDX 19 85 24 86 29 87 20 88 23 89 25 90 28 91 21 92 22 93 26 94
REMARK SMILES IDX 27 95
REMARK H PARENT 87 23 55 34
REMARK Flexibility Score: inf
ROOT
ATOM      1  C   UNL     1       4.419   1.524  -0.350  1.00  0.00     0.202 C 
ENDROOT
BRANCH   1   2
ATOM      2  C   UNL     1       4.332   0.326  -1.297  1.00  0.00     0.261 C 
BRANCH   2   3
ATOM      3  O   UNL     1       2.992  -0.185  -1.378  1.00  0.00    -0.460 OA
BRANCH   3   4
ATOM      4  C   UNL     1       2.437  -1.262  -0.778  1.00  0.00     0.338 C 
ATOM      5  O   UNL     1       1.371  -1.678  -1.233  1.00  0.00    -0.246 OA
BRANCH   4   6
ATOM      6  C   UNL     1       2.987  -1.940   0.444  1.00  0.00     0.060 A 
ATOM      7  C   UNL     1       4.205  -1.664   1.065  1.00  0.00     0.016 A 
ATOM      8  C   UNL     1       2.170  -2.926   1.037  1.00  0.00     0.016 A 
ATOM      9  C   UNL     1       4.592  -2.307   2.235  1.00  0.00     0.010 A 
ATOM     10  C   UNL     1       2.564  -3.606   2.196  1.00  0.00     0.010 A 
ATOM     11  C   UNL     1       3.787  -3.297   2.789  1.00  0.00    -0.014 A 
BRANCH  11  12
ATOM     12  C   UNL     1       4.353  -4.065   3.909  1.00  0.00     0.031 A 
ATOM     13  C   UNL     1       5.332  -5.152   3.584  1.00  0.00     0.074 A 
ATOM     14  C   UNL     1       4.129  -3.670   5.173  1.00  0.00     0.049 A 
ATOM     15  N   UNL     1       6.113  -5.821   4.385  1.00  0.00    -0.248 NA
ATOM     16  C   UNL     1       5.486  -5.498   2.158  1.00  0.00     0.031 C 
ATOM     17  C   UNL     1       3.275  -2.548   5.564  1.00  0.00     0.029 A 
ATOM     18  N   UNL     1       4.631  -4.141   6.357  1.00  0.00    -0.354 N 
ATOM     19  C   UNL     1       6.881  -6.633   3.562  1.00  0.00     0.074 A 
ATOM     20  C   UNL     1       6.457  -6.398   2.201  1.00  0.00     0.031 C 
ATOM     21  C   UNL     1       3.316  -2.416   6.901  1.00  0.00     0.029 A 
ATOM     22  C   UNL     1       4.183  -3.451   7.458  1.00  0.00     0.049 A 
ATOM     23  H   UNL     1       5.253  -4.902   6.414  1.00  0.00     0.167 HD
ATOM     24  C   UNL     1       7.857  -7.494   3.921  1.00  0.00     0.034 A 
ATOM     25  C   UNL     1       4.451  -3.642   8.766  1.00  0.00     0.034 A 
ATOM     26  C   UNL     1       8.213  -7.761   5.286  1.00  0.00     0.049 A 
ATOM     27  C   UNL     1       5.437  -4.722   9.142  1.00  0.00     0.074 A 
ATOM     28  C   UNL     1       9.132  -8.675   5.767  1.00  0.00     0.029 A 
ATOM     29  N   UNL     1       7.655  -7.129   6.387  1.00  0.00    -0.354 N 
ATOM     30  N   UNL     1       6.173  -5.477   8.358  1.00  0.00    -0.248 NA
ATOM     31  C   UNL     1       5.633  -4.979  10.575  1.00  0.00     0.031 C 
ATOM     32  C   UNL     1       9.088  -8.634   7.161  1.00  0.00     0.029 A 
ATOM     33  C   UNL     1       8.187  -7.654   7.550  1.00  0.00     0.049 A 
ATOM     34  H   UNL     1       6.980  -6.412   6.347  1.00  0.00     0.167 HD
ATOM     35  C   UNL     1       6.934  -6.280   9.202  1.00  0.00     0.074 A 
ATOM     36  C   UNL     1       6.587  -5.901  10.556  1.00  0.00     0.031 C 
ATOM     37  C   UNL     1       7.832  -7.248   8.888  1.00  0.00     0.034 A 
BRANCH  24  38
ATOM     38  C   UNL     1       8.587  -8.233   2.838  1.00  0.00     0.023 A 
ATOM     39  C   UNL     1       8.387  -9.613   2.673  1.00  0.00     0.031 A 
ATOM     40  C   UNL     1       9.553  -7.592   2.044  1.00  0.00     0.131 A 
ATOM     41  C   UNL     1       9.175 -10.322   1.760  1.00  0.00     0.055 A 
ATOM     42  C   UNL     1      10.318  -8.299   1.115  1.00  0.00     0.041 A 
ATOM     43  F   UNL     1       9.761  -6.270   2.157  1.00  0.00    -0.206 F 
ATOM     44  C   UNL     1      10.137  -9.673   0.978  1.00  0.00     0.022 A 
BRANCH  41  45
ATOM     45  S   UNL     1       8.990 -12.115   1.571  1.00  0.00     0.124 S 
ATOM     46  O   UNL     1       8.906 -12.262   0.119  1.00  0.00    -0.237 OA
ATOM     47  O   UNL     1      10.219 -12.612   2.180  1.00  0.00    -0.237 OA
ATOM     48  O   UNL     1       7.756 -12.414   2.291  1.00  0.00    -0.744 OA
ENDBRANCH  41  45
ENDBRANCH  24  38
BRANCH  25  49
ATOM     49  C   UNL     1       3.796  -2.785   9.795  1.00  0.00     0.023 A 
ATOM     50  C   UNL     1       2.397  -2.776   9.941  1.00  0.00     0.031 A 
ATOM     51  C   UNL     1       4.550  -1.937  10.622  1.00  0.00     0.131 A 
ATOM     52  C   UNL     1       1.794  -1.910  10.864  1.00  0.00     0.055 A 
ATOM     53  C   UNL     1       3.950  -1.115  11.579  1.00  0.00     0.041 A 
ATOM     54  F   UNL     1       5.888  -1.904  10.517  1.00  0.00    -0.206 F 
ATOM     55  C   UNL     1       2.564  -1.092  11.696  1.00  0.00     0.022 A 
BRANCH  52  56
ATOM     56  S   UNL     1      -0.011  -1.762  10.961  1.00  0.00     0.124 S 
ATOM     57  O   UNL     1      -0.271  -2.104  12.356  1.00  0.00    -0.237 OA
ATOM     58  O   UNL     1      -0.214  -0.359  10.608  1.00  0.00    -0.237 OA
ATOM     59  O   UNL     1      -0.490  -2.726   9.977  1.00  0.00    -0.744 OA
ENDBRANCH  52  56
ENDBRANCH  25  49
BRANCH  37  60
ATOM     60  C   UNL     1       8.513  -7.980  10.015  1.00  0.00     0.023 A 
ATOM     61  C   UNL     1       9.906  -7.871  10.182  1.00  0.00     0.031 A 
ATOM     62  C   UNL     1       7.811  -8.895  10.817  1.00  0.00     0.131 A 
ATOM     63  C   UNL     1      10.560  -8.694  11.106  1.00  0.00     0.055 A 
ATOM     64  C   UNL     1       8.461  -9.679  11.769  1.00  0.00     0.041 A 
ATOM     65  F   UNL     1       6.483  -9.040  10.681  1.00  0.00    -0.206 F 
ATOM     66  C   UNL     1       9.844  -9.590  11.907  1.00  0.00     0.022 A 
BRANCH  63  67
ATOM     67  S   UNL     1      12.367  -8.688  11.248  1.00  0.00     0.124 S 
ATOM     68  O   UNL     1      12.560  -8.318  12.648  1.00  0.00    -0.237 OA
ATOM     69  O   UNL     1      12.705 -10.070  10.915  1.00  0.00    -0.237 OA
ATOM     70  O   UNL     1      12.795  -7.687  10.276  1.00  0.00    -0.744 OA
ENDBRANCH  63  67
ENDBRANCH  37  60
ENDBRANCH  11  12
ENDBRANCH   4   6
ENDBRANCH   3   4
ENDBRANCH   2   3
ENDBRANCH   1   2
BRANCH   1  71
ATOM     71  O   UNL     1       4.169   1.227   1.022  1.00  0.00    -0.374 OA
BRANCH  71  72
ATOM     72  C   UNL     1       2.824   1.468   1.464  1.00  0.00     0.202 C 
BRANCH  72  73
ATOM     73  C   UNL     1       2.759   2.705   2.367  1.00  0.00     0.261 C 
BRANCH  73  74
ATOM     74  O   UNL     1       3.068   3.868   1.585  1.00  0.00    -0.463 OA
BRANCH  74  75
ATOM     75  C   UNL     1       4.365   4.240   1.584  1.00  0.00     0.309 C 
ATOM     76  O   UNL     1       5.165   4.082   2.488  1.00  0.00    -0.252 OA
BRANCH  75  77
ATOM     77  C   UNL     1       4.810   4.785   0.278  1.00  0.00     0.112 C 
ATOM     78  C   UNL     1       4.547   6.215  -0.098  1.00  0.00     0.030 C 
ATOM     79  C   UNL     1       3.941   5.099  -0.921  1.00  0.00     0.094 C 
BRANCH  79  80
ATOM     80  C   UNL     1       2.462   4.949  -0.988  1.00  0.00     0.231 C 
ATOM     81  O   UNL     1       1.903   3.886  -0.753  1.00  0.00    -0.274 OA
BRANCH  80  82
ATOM     82  N   UNL     1       1.816   6.048  -1.499  1.00  0.00    -0.311 N 
ATOM     83  C   UNL     1       0.749   6.730  -0.764  1.00  0.00     0.137 C 
ATOM     84  C   UNL     1       1.532   6.156  -2.870  1.00  0.00     0.050 A 
ATOM     85  C   UNL     1       0.011   7.646  -1.783  1.00  0.00     0.018 C 
ATOM     86  C   UNL     1       0.519   7.085  -3.085  1.00  0.00     0.020 A 
ATOM     87  C   UNL     1       2.098   5.435  -3.913  1.00  0.00     0.027 A 
ATOM     88  C   UNL     1      -1.516   7.559  -1.609  1.00  0.00     0.014 C 
ATOM     89  C   UNL     1       0.367   9.140  -1.605  1.00  0.00     0.014 C 
ATOM     90  C   UNL     1       0.109   7.354  -4.378  1.00  0.00     0.129 A 
ATOM     91  C   UNL     1       1.658   5.690  -5.213  1.00  0.00     0.005 A 
ATOM     92  C   UNL     1      -1.862   8.780  -0.772  1.00  0.00     0.001 C 
ATOM     93  C   UNL     1      -0.963   9.853  -1.360  1.00  0.00     0.001 C 
ATOM     94  F   UNL     1      -0.832   8.276  -4.617  1.00  0.00    -0.207 F 
ATOM     95  C   UNL     1       0.675   6.660  -5.447  1.00  0.00     0.040 A 
ENDBRANCH  80  82
ENDBRANCH  79  80
ENDBRANCH  75  77
ENDBRANCH  74  75
ENDBRANCH  73  74
ENDBRANCH  72  73
ENDBRANCH  71  72
ENDBRANCH   1  71
TORSDOF 19
