REMARK SMILES O=C(OCCOCCOC(=O)[C@H]1Cc2c([nH]c3ccccc23)[C@@H](c2ccc(OC(F)(F)F)cc2)[NH2+]1)c1ccc(-c2c3nc(c(-c4cc(S(=O)(=O)[O-])ccc4F)c4ccc([nH]4)c(-c4cc(S(=O)(=O)[O-])ccc4F)c4nc(c(-c5cc(S(=O)(=O)[O-])ccc5F)c5ccc2[nH]5)C=C4)C=C3)cc1
REMARK SMILES IDX 6 1 5 2 4 3 3 4 2 5 1 6 36 7 37 8 98 9 38 10 97 11 39 12
REMARK SMILES IDX 40 13 41 14 91 15 42 16 96 17 90 18 92 19 43 20 95 21 89 22
REMARK SMILES IDX 88 23 44 25 76 26 56 27 75 28 57 29 60 30 74 31 93 32 58 33
REMARK SMILES IDX 59 34 73 36 94 37 61 38 45 39 46 40 54 41 47 42 53 43 55 44
REMARK SMILES IDX 52 45 48 46 49 47 50 48 51 49 77 50 78 51 86 52 79 53 85 54
REMARK SMILES IDX 87 55 84 56 80 57 81 58 82 59 83 60 62 61 63 62 71 63 64 64
REMARK SMILES IDX 70 65 72 66 69 67 65 68 66 69 67 70 68 71 7 72 8 73 9 74
REMARK SMILES IDX 10 75 11 76 12 77 13 78 35 79 14 80 23 81 15 84 22 85 16 86
REMARK SMILES IDX 17 87 21 88 18 90 20 91 19 92 24 93 25 94 34 95 26 96 33 97
REMARK SMILES IDX 27 98 28 99 29 100 30 101 31 102 32 103
REMARK H PARENT 92 24 60 35 35 82 35 83 16 89
REMARK Flexibility Score: inf
ROOT
ATOM      1  O   UNL     1       3.933   1.183  -1.008  1.00  0.00    -0.374 OA
ENDROOT
BRANCH   1   2
ATOM      2  C   UNL     1       4.262  -0.174  -1.312  1.00  0.00     0.202 C 
BRANCH   2   3
ATOM      3  C   UNL     1       4.002  -1.201  -0.205  1.00  0.00     0.261 C 
BRANCH   3   4
ATOM      4  O   UNL     1       2.605  -1.202   0.144  1.00  0.00    -0.460 OA
BRANCH   4   5
ATOM      5  C   UNL     1       2.001  -0.553   1.168  1.00  0.00     0.338 C 
ATOM      6  O   UNL     1       0.776  -0.602   1.263  1.00  0.00    -0.246 OA
BRANCH   5   7
ATOM      7  C   UNL     1       2.764   0.184   2.214  1.00  0.00     0.060 A 
ATOM      8  C   UNL     1       3.973   0.836   1.987  1.00  0.00     0.016 A 
ATOM      9  C   UNL     1       2.199   0.264   3.498  1.00  0.00     0.016 A 
ATOM     10  C   UNL     1       4.673   1.438   3.011  1.00  0.00     0.010 A 
ATOM     11  C   UNL     1       2.867   0.931   4.530  1.00  0.00     0.010 A 
ATOM     12  C   UNL     1       4.126   1.489   4.287  1.00  0.00    -0.014 A 
BRANCH  12  13
ATOM     13  C   UNL     1       5.001   2.024   5.342  1.00  0.00     0.031 A 
ATOM     14  C   UNL     1       5.693   1.049   6.241  1.00  0.00     0.074 A 
ATOM     15  C   UNL     1       5.333   3.328   5.303  1.00  0.00     0.049 A 
ATOM     16  N   UNL     1       6.558   1.269   7.191  1.00  0.00    -0.248 NA
ATOM     17  C   UNL     1       5.384  -0.374   6.020  1.00  0.00     0.031 C 
ATOM     18  C   UNL     1       4.815   4.294   4.327  1.00  0.00     0.029 A 
ATOM     19  N   UNL     1       6.231   4.048   6.038  1.00  0.00    -0.354 N 
ATOM     20  C   UNL     1       6.875   0.017   7.704  1.00  0.00     0.074 A 
ATOM     21  C   UNL     1       6.109  -0.957   6.960  1.00  0.00     0.031 C 
ATOM     22  C   UNL     1       5.454   5.463   4.487  1.00  0.00     0.029 A 
ATOM     23  C   UNL     1       6.353   5.356   5.628  1.00  0.00     0.049 A 
ATOM     24  H   UNL     1       6.742   3.668   6.788  1.00  0.00     0.167 HD
ATOM     25  C   UNL     1       7.722  -0.277   8.720  1.00  0.00     0.034 A 
ATOM     26  C   UNL     1       7.093   6.354   6.147  1.00  0.00     0.034 A 
ATOM     27  C   UNL     1       8.447   0.740   9.439  1.00  0.00     0.049 A 
ATOM     28  C   UNL     1       7.939   6.023   7.349  1.00  0.00     0.074 A 
ATOM     29  C   UNL     1       9.241   0.617  10.563  1.00  0.00     0.029 A 
ATOM     30  N   UNL     1       8.458   2.089   9.089  1.00  0.00    -0.354 N 
ATOM     31  N   UNL     1       8.139   4.854   7.920  1.00  0.00    -0.248 NA
ATOM     32  C   UNL     1       8.640   7.138   7.990  1.00  0.00     0.031 C 
ATOM     33  C   UNL     1       9.683   1.897  10.925  1.00  0.00     0.029 A 
ATOM     34  C   UNL     1       9.223   2.812   9.988  1.00  0.00     0.049 A 
ATOM     35  H   UNL     1       7.989   2.473   8.313  1.00  0.00     0.167 HD
ATOM     36  C   UNL     1       8.993   5.094   8.988  1.00  0.00     0.074 A 
ATOM     37  C   UNL     1       9.295   6.514   8.958  1.00  0.00     0.031 C 
ATOM     38  C   UNL     1       9.480   4.233   9.920  1.00  0.00     0.034 A 
BRANCH  25  39
ATOM     39  C   UNL     1       7.768  -1.719   9.162  1.00  0.00     0.023 A 
ATOM     40  C   UNL     1       8.249  -2.744   8.326  1.00  0.00     0.031 A 
ATOM     41  C   UNL     1       7.188  -2.089  10.388  1.00  0.00     0.131 A 
ATOM     42  C   UNL     1       8.053  -4.088   8.685  1.00  0.00     0.055 A 
ATOM     43  C   UNL     1       7.071  -3.425  10.776  1.00  0.00     0.041 A 
ATOM     44  F   UNL     1       6.679  -1.159  11.211  1.00  0.00    -0.206 F 
ATOM     45  C   UNL     1       7.487  -4.435   9.914  1.00  0.00     0.022 A 
BRANCH  42  46
ATOM     46  S   UNL     1       8.376  -5.378   7.445  1.00  0.00     0.124 S 
ATOM     47  O   UNL     1       7.481  -4.976   6.363  1.00  0.00    -0.237 OA
ATOM     48  O   UNL     1       9.801  -5.217   7.188  1.00  0.00    -0.237 OA
ATOM     49  O   UNL     1       8.000  -6.611   8.128  1.00  0.00    -0.744 OA
ENDBRANCH  42  46
ENDBRANCH  25  39
BRANCH  26  50
ATOM     50  C   UNL     1       7.004   7.741   5.601  1.00  0.00     0.023 A 
ATOM     51  C   UNL     1       8.135   8.415   5.111  1.00  0.00     0.031 A 
ATOM     52  C   UNL     1       5.778   8.435   5.597  1.00  0.00     0.131 A 
ATOM     53  C   UNL     1       8.022   9.745   4.670  1.00  0.00     0.055 A 
ATOM     54  C   UNL     1       5.660   9.736   5.105  1.00  0.00     0.041 A 
ATOM     55  F   UNL     1       4.663   7.850   6.064  1.00  0.00    -0.206 F 
ATOM     56  C   UNL     1       6.790  10.404   4.649  1.00  0.00     0.022 A 
BRANCH  53  57
ATOM     57  S   UNL     1       9.528  10.643   4.201  1.00  0.00     0.124 S 
ATOM     58  O   UNL     1      10.339  10.517   5.407  1.00  0.00    -0.237 OA
ATOM     59  O   UNL     1       9.982   9.886   3.039  1.00  0.00    -0.237 OA
ATOM     60  O   UNL     1       9.045  11.992   3.913  1.00  0.00    -0.744 OA
ENDBRANCH  53  57
ENDBRANCH  26  50
BRANCH  38  61
ATOM     61  C   UNL     1      10.402   4.826  10.950  1.00  0.00     0.023 A 
ATOM     62  C   UNL     1       9.928   5.716  11.928  1.00  0.00     0.031 A 
ATOM     63  C   UNL     1      11.772   4.516  10.933  1.00  0.00     0.131 A 
ATOM     64  C   UNL     1      10.831   6.316  12.815  1.00  0.00     0.055 A 
ATOM     65  C   UNL     1      12.656   5.071  11.855  1.00  0.00     0.041 A 
ATOM     66  F   UNL     1      12.269   3.670  10.016  1.00  0.00    -0.206 F 
ATOM     67  C   UNL     1      12.190   5.988  12.794  1.00  0.00     0.022 A 
BRANCH  64  68
ATOM     68  S   UNL     1      10.220   7.604  13.934  1.00  0.00     0.124 S 
ATOM     69  O   UNL     1       9.679   8.586  12.999  1.00  0.00    -0.237 OA
ATOM     70  O   UNL     1       9.239   6.881  14.736  1.00  0.00    -0.237 OA
ATOM     71  O   UNL     1      11.418   8.028  14.655  1.00  0.00    -0.744 OA
ENDBRANCH  64  68
ENDBRANCH  38  61
ENDBRANCH  12  13
ENDBRANCH   5   7
ENDBRANCH   4   5
ENDBRANCH   3   4
ENDBRANCH   2   3
ENDBRANCH   1   2
BRANCH   1  72
ATOM     72  C   UNL     1       2.583   1.567  -1.303  1.00  0.00     0.202 C 
BRANCH  72  73
ATOM     73  C   UNL     1       2.558   2.493  -2.517  1.00  0.00     0.261 C 
BRANCH  73  74
ATOM     74  O   UNL     1       3.079   1.754  -3.634  1.00  0.00    -0.459 OA
BRANCH  74  75
ATOM     75  C   UNL     1       4.305   2.125  -4.079  1.00  0.00     0.365 C 
ATOM     76  O   UNL     1       4.810   3.228  -3.894  1.00  0.00    -0.245 OA
BRANCH  75  77
ATOM     77  C   UNL     1       5.007   1.019  -4.883  1.00  0.00     0.298 C 
ATOM     78  C   UNL     1       4.455  -0.407  -4.610  1.00  0.00     0.115 C 
ATOM     79  N   UNL     1       5.210   1.458  -6.291  1.00  0.00    -0.323 N 
ATOM     80  C   UNL     1       4.511  -1.264  -5.808  1.00  0.00    -0.006 A 
ATOM     81  C   UNL     1       4.444   0.773  -7.334  1.00  0.00     0.262 C 
ATOM     82  H   UNL     1       6.198   1.335  -6.509  1.00  0.00     0.347 HD
ATOM     83  H   UNL     1       4.871   2.420  -6.312  1.00  0.00     0.347 HD
ATOM     84  C   UNL     1       4.520  -0.697  -7.058  1.00  0.00     0.083 A 
ATOM     85  C   UNL     1       4.506  -2.670  -5.947  1.00  0.00     0.003 A 
ATOM     86  N   UNL     1       4.607  -1.712  -7.971  1.00  0.00    -0.353 N 
ATOM     87  C   UNL     1       4.561  -2.930  -7.318  1.00  0.00     0.046 A 
ATOM     88  C   UNL     1       4.448  -3.748  -5.043  1.00  0.00     0.010 A 
ATOM     89  H   UNL     1       4.691  -1.593  -8.945  1.00  0.00     0.166 HD
ATOM     90  C   UNL     1       4.562  -4.234  -7.828  1.00  0.00     0.026 A 
ATOM     91  C   UNL     1       4.446  -5.055  -5.539  1.00  0.00     0.001 A 
ATOM     92  C   UNL     1       4.503  -5.291  -6.911  1.00  0.00     0.002 A 
BRANCH  81  93
ATOM     93  C   UNL     1       3.023   1.311  -7.543  1.00  0.00     0.016 A 
ATOM     94  C   UNL     1       1.931   0.458  -7.784  1.00  0.00     0.014 A 
ATOM     95  C   UNL     1       2.788   2.693  -7.655  1.00  0.00     0.014 A 
ATOM     96  C   UNL     1       0.684   0.961  -8.170  1.00  0.00     0.047 A 
ATOM     97  C   UNL     1       1.532   3.199  -8.028  1.00  0.00     0.047 A 
ATOM     98  C   UNL     1       0.483   2.332  -8.322  1.00  0.00     0.129 A 
BRANCH  98  99
ATOM     99  O   UNL     1      -0.759   2.674  -8.770  1.00  0.00    -0.406 OA
BRANCH  99 100
ATOM    100  C   UNL     1      -0.981   4.026  -9.129  1.00  0.00     0.573 C 
ATOM    101  F   UNL     1      -0.961   4.824  -8.042  1.00  0.00    -0.132 F 
ATOM    102  F   UNL     1      -0.070   4.459 -10.028  1.00  0.00    -0.132 F 
ATOM    103  F   UNL     1      -2.203   4.125  -9.701  1.00  0.00    -0.132 F 
ENDBRANCH  99 100
ENDBRANCH  98  99
ENDBRANCH  81  93
ENDBRANCH  75  77
ENDBRANCH  74  75
ENDBRANCH  73  74
ENDBRANCH  72  73
ENDBRANCH   1  72
TORSDOF 20
