REMARK SMILES C[C@@H]1[NH2+]CC[C@H]1C(=O)NCc1cccc(C(=O)OCCOCCOC(=O)c2ccc(-c3c4nc(c(-c5cc(S(=O)(=O)[O-])ccc5F)c5ccc([nH]5)c(-c5cc(S(=O)(=O)[O-])ccc5F)c5nc(c(-c6cc(S(=O)(=O)[O-])ccc6F)c6ccc3[nH]6)C=C5)C=C4)cc2)c1
REMARK SMILES IDX 21 1 20 2 19 3 18 4 16 5 17 6 15 7 11 8 12 9 90 10 13 11
REMARK SMILES IDX 14 12 10 13 9 14 7 15 8 16 6 18 1 19 2 20 3 21 4 22 5 25
REMARK SMILES IDX 22 26 23 27 24 28 25 29 26 30 27 31 28 32 89 33 29 34 88 35
REMARK SMILES IDX 30 36 31 37 32 38 82 39 33 40 87 41 81 42 83 43 34 44 86 45
REMARK SMILES IDX 80 46 79 47 35 49 67 50 47 51 66 52 48 53 51 54 65 55 84 56
REMARK SMILES IDX 49 57 50 58 64 60 85 61 52 62 36 63 37 64 45 65 38 66 44 67
REMARK SMILES IDX 46 68 43 69 39 70 40 71 41 72 42 73 68 74 69 75 77 76 70 77
REMARK SMILES IDX 76 78 78 79 75 80 71 81 72 82 73 83 74 84 53 85 54 86 62 87
REMARK SMILES IDX 55 88 61 89 63 90 60 91 56 92 57 93 58 94 59 95
REMARK H PARENT 9 17 3 23 3 24 83 48 51 59
REMARK Flexibility Score: inf
ROOT
ATOM      1  O   UNL     1       2.130   1.769   9.365  1.00  0.00    -0.374 OA
ENDROOT
BRANCH   1   2
ATOM      2  C   UNL     1       2.588   2.940   8.687  1.00  0.00     0.202 C 
BRANCH   2   3
ATOM      3  C   UNL     1       3.419   2.720   7.418  1.00  0.00     0.261 C 
BRANCH   3   4
ATOM      4  O   UNL     1       2.651   2.050   6.405  1.00  0.00    -0.460 OA
BRANCH   4   5
ATOM      5  C   UNL     1       3.028   0.778   6.132  1.00  0.00     0.338 C 
ATOM      6  O   UNL     1       4.027   0.204   6.536  1.00  0.00    -0.246 OA
BRANCH   5   7
ATOM      7  C   UNL     1       1.931   0.080   5.416  1.00  0.00     0.060 A 
ATOM      8  C   UNL     1      -0.030   0.056   3.971  1.00  0.00    -0.028 A 
ATOM      9  C   UNL     1      -0.186  -1.313   4.254  1.00  0.00     0.005 A 
ATOM     10  C   UNL     1       1.031   0.751   4.576  1.00  0.00     0.021 A 
ATOM     11  C   UNL     1       0.705  -1.980   5.096  1.00  0.00     0.001 A 
ATOM     12  C   UNL     1       1.764  -1.286   5.671  1.00  0.00     0.016 A 
BRANCH   8  13
ATOM     13  C   UNL     1      -1.047   0.731   3.080  1.00  0.00     0.151 C 
BRANCH  13  14
ATOM     14  N   UNL     1      -0.576   1.956   2.471  1.00  0.00    -0.352 N 
ATOM     15  C   UNL     1      -0.123   2.235   1.222  1.00  0.00     0.229 C 
ATOM     16  O   UNL     1       0.277   3.383   1.017  1.00  0.00    -0.275 OA
ATOM     17  H   UNL     1      -0.585   2.733   3.075  1.00  0.00     0.163 HD
BRANCH  15  18
ATOM     18  C   UNL     1      -0.103   1.217   0.093  1.00  0.00     0.142 C 
ATOM     19  C   UNL     1       2.011  -0.013  -0.566  1.00  0.00     0.076 C 
ATOM     20  C   UNL     1       0.796   0.011   0.362  1.00  0.00     0.192 C 
ATOM     21  N   UNL     1      -0.018  -1.199   0.135  1.00  0.00    -0.343 N 
ATOM     22  C   UNL     1      -1.203  -0.790  -0.622  1.00  0.00     0.261 C 
ATOM     23  H   UNL     1      -0.297  -1.605   1.028  1.00  0.00     0.346 HD
ATOM     24  H   UNL     1       0.513  -1.902  -0.380  1.00  0.00     0.346 HD
ATOM     25  C   UNL     1      -1.469   0.662  -0.277  1.00  0.00     0.081 C 
ENDBRANCH  15  18
ENDBRANCH  13  14
ENDBRANCH   8  13
ENDBRANCH   5   7
ENDBRANCH   4   5
ENDBRANCH   3   4
ENDBRANCH   2   3
ENDBRANCH   1   2
BRANCH   1  26
ATOM     26  C   UNL     1       0.968   1.124   8.843  1.00  0.00     0.202 C 
BRANCH  26  27
ATOM     27  C   UNL     1      -0.394   1.763   9.145  1.00  0.00     0.261 C 
BRANCH  27  28
ATOM     28  O   UNL     1      -0.548   3.057   8.539  1.00  0.00    -0.460 OA
BRANCH  28  29
ATOM     29  C   UNL     1      -0.494   4.096   9.410  1.00  0.00     0.338 C 
ATOM     30  O   UNL     1      -0.396   4.031  10.624  1.00  0.00    -0.246 OA
BRANCH  29  31
ATOM     31  C   UNL     1      -0.380   5.364   8.664  1.00  0.00     0.060 A 
ATOM     32  C   UNL     1       0.712   6.192   8.955  1.00  0.00     0.016 A 
ATOM     33  C   UNL     1      -1.349   5.764   7.743  1.00  0.00     0.016 A 
ATOM     34  C   UNL     1       0.823   7.441   8.347  1.00  0.00     0.010 A 
ATOM     35  C   UNL     1      -1.240   7.022   7.141  1.00  0.00     0.010 A 
ATOM     36  C   UNL     1      -0.169   7.878   7.459  1.00  0.00    -0.014 A 
BRANCH  36  37
ATOM     37  C   UNL     1      -0.149   9.274   6.957  1.00  0.00     0.031 A 
ATOM     38  C   UNL     1      -1.083  10.284   7.564  1.00  0.00     0.074 A 
ATOM     39  C   UNL     1       0.705   9.640   5.983  1.00  0.00     0.049 A 
ATOM     40  N   UNL     1      -1.286  11.533   7.234  1.00  0.00    -0.248 NA
ATOM     41  C   UNL     1      -1.901   9.817   8.693  1.00  0.00     0.031 C 
ATOM     42  C   UNL     1       1.691   8.762   5.355  1.00  0.00     0.029 A 
ATOM     43  N   UNL     1       0.872  10.844   5.347  1.00  0.00    -0.354 N 
ATOM     44  C   UNL     1      -2.260  12.003   8.109  1.00  0.00     0.074 A 
ATOM     45  C   UNL     1      -2.633  10.889   8.956  1.00  0.00     0.031 C 
ATOM     46  C   UNL     1       2.356   9.457   4.416  1.00  0.00     0.029 A 
ATOM     47  C   UNL     1       1.810  10.810   4.342  1.00  0.00     0.049 A 
ATOM     48  H   UNL     1       0.369  11.656   5.588  1.00  0.00     0.167 HD
ATOM     49  C   UNL     1      -2.787  13.249   8.200  1.00  0.00     0.034 A 
ATOM     50  C   UNL     1       2.163  11.752   3.444  1.00  0.00     0.034 A 
ATOM     51  C   UNL     1      -2.411  14.344   7.336  1.00  0.00     0.049 A 
ATOM     52  C   UNL     1       1.484  13.101   3.493  1.00  0.00     0.074 A 
ATOM     53  C   UNL     1      -2.867  15.651   7.353  1.00  0.00     0.029 A 
ATOM     54  N   UNL     1      -1.502  14.257   6.289  1.00  0.00    -0.354 N 
ATOM     55  N   UNL     1       0.569  13.537   4.329  1.00  0.00    -0.248 NA
ATOM     56  C   UNL     1       1.887  14.082   2.478  1.00  0.00     0.031 C 
ATOM     57  C   UNL     1      -2.300  16.327   6.267  1.00  0.00     0.029 A 
ATOM     58  C   UNL     1      -1.419  15.472   5.625  1.00  0.00     0.049 A 
ATOM     59  H   UNL     1      -0.991  13.449   6.052  1.00  0.00     0.167 HD
ATOM     60  C   UNL     1       0.310  14.854   3.955  1.00  0.00     0.074 A 
ATOM     61  C   UNL     1       1.178  15.144   2.832  1.00  0.00     0.031 C 
ATOM     62  C   UNL     1      -0.564  15.745   4.492  1.00  0.00     0.034 A 
BRANCH  49  63
ATOM     63  C   UNL     1      -3.868  13.473   9.232  1.00  0.00     0.023 A 
ATOM     64  C   UNL     1      -3.622  13.329  10.609  1.00  0.00     0.031 A 
ATOM     65  C   UNL     1      -5.174  13.805   8.831  1.00  0.00     0.131 A 
ATOM     66  C   UNL     1      -4.679  13.439  11.525  1.00  0.00     0.055 A 
ATOM     67  C   UNL     1      -6.203  13.999   9.754  1.00  0.00     0.041 A 
ATOM     68  F   UNL     1      -5.478  13.932   7.529  1.00  0.00    -0.206 F 
ATOM     69  C   UNL     1      -5.963  13.800  11.110  1.00  0.00     0.022 A 
BRANCH  66  70
ATOM     70  S   UNL     1      -4.388  12.950  13.248  1.00  0.00     0.124 S 
ATOM     71  O   UNL     1      -3.932  11.571  13.089  1.00  0.00    -0.237 OA
ATOM     72  O   UNL     1      -3.380  13.910  13.682  1.00  0.00    -0.237 OA
ATOM     73  O   UNL     1      -5.701  13.095  13.872  1.00  0.00    -0.744 OA
ENDBRANCH  66  70
ENDBRANCH  49  63
BRANCH  50  74
ATOM     74  C   UNL     1       3.170  11.448   2.387  1.00  0.00     0.023 A 
ATOM     75  C   UNL     1       4.381  12.155   2.312  1.00  0.00     0.031 A 
ATOM     76  C   UNL     1       2.911  10.480   1.400  1.00  0.00     0.131 A 
ATOM     77  C   UNL     1       5.267  11.914   1.251  1.00  0.00     0.055 A 
ATOM     78  C   UNL     1       3.822  10.202   0.380  1.00  0.00     0.041 A 
ATOM     79  F   UNL     1       1.765   9.781   1.419  1.00  0.00    -0.206 F 
ATOM     80  C   UNL     1       5.004  10.931   0.294  1.00  0.00     0.022 A 
BRANCH  77  81
ATOM     81  S   UNL     1       6.732  12.971   1.087  1.00  0.00     0.124 S 
ATOM     82  O   UNL     1       6.131  14.294   0.970  1.00  0.00    -0.237 OA
ATOM     83  O   UNL     1       7.444  12.697   2.330  1.00  0.00    -0.237 OA
ATOM     84  O   UNL     1       7.380  12.469  -0.123  1.00  0.00    -0.744 OA
ENDBRANCH  77  81
ENDBRANCH  50  74
BRANCH  62  85
ATOM     85  C   UNL     1      -0.593  17.131   3.890  1.00  0.00     0.023 A 
ATOM     86  C   UNL     1      -1.023  17.358   2.571  1.00  0.00     0.031 A 
ATOM     87  C   UNL     1      -0.172  18.241   4.646  1.00  0.00     0.131 A 
ATOM     88  C   UNL     1      -0.969  18.651   2.029  1.00  0.00     0.055 A 
ATOM     89  C   UNL     1      -0.185  19.535   4.123  1.00  0.00     0.041 A 
ATOM     90  F   UNL     1       0.254  18.086   5.910  1.00  0.00    -0.206 F 
ATOM     91  C   UNL     1      -0.572  19.744   2.803  1.00  0.00     0.022 A 
BRANCH  88  92
ATOM     92  S   UNL     1      -1.330  18.873   0.265  1.00  0.00     0.124 S 
ATOM     93  O   UNL     1      -0.335  18.007  -0.359  1.00  0.00    -0.237 OA
ATOM     94  O   UNL     1      -2.715  18.424   0.171  1.00  0.00    -0.237 OA
ATOM     95  O   UNL     1      -1.127  20.305   0.051  1.00  0.00    -0.744 OA
ENDBRANCH  88  92
ENDBRANCH  62  85
ENDBRANCH  36  37
ENDBRANCH  29  31
ENDBRANCH  28  29
ENDBRANCH  27  28
ENDBRANCH  26  27
ENDBRANCH   1  26
TORSDOF 20
