REMARK SMILES O=C(OCCOCCOC(=O)c1cccc(CSc2nc(-c3ccccc3)n[nH]2)c1)c1ccc(-c2c3nc(c(-c4cc(S(=O)(=O)[O-])ccc4F)c4ccc([nH]4)c(-c4cc(S(=O)(=O)[O-])ccc4F)c4nc(c(-c5cc(S(=O)(=O)[O-])ccc5F)c5ccc2[nH]5)C=C4)C=C3)cc1
REMARK SMILES IDX 7 1 6 2 5 3 4 4 3 5 2 6 1 7 31 8 32 9 93 10 33 11 92 12
REMARK SMILES IDX 34 13 35 14 36 15 86 16 37 17 91 18 85 19 87 20 38 21 90 22
REMARK SMILES IDX 84 23 83 24 39 26 71 27 51 28 70 29 52 30 55 31 69 32 88 33
REMARK SMILES IDX 53 34 54 35 68 37 89 38 56 39 40 40 41 41 49 42 42 43 48 44
REMARK SMILES IDX 50 45 47 46 43 47 44 48 45 49 46 50 72 51 73 52 81 53 74 54
REMARK SMILES IDX 80 55 82 56 79 57 75 58 76 59 77 60 78 61 57 62 58 63 66 64
REMARK SMILES IDX 59 65 65 66 67 67 64 68 60 69 61 70 62 71 63 72 8 73 9 74
REMARK SMILES IDX 10 75 11 76 12 77 13 78 30 79 14 80 16 81 15 82 17 83 18 84
REMARK SMILES IDX 19 85 20 86 29 87 21 88 28 89 22 91 23 92 27 93 24 94 26 95
REMARK SMILES IDX 25 96
REMARK H PARENT 87 25 55 36 29 90
REMARK Flexibility Score: inf
ROOT
ATOM      1  C   UNL     1       2.681   1.520  -1.621  1.00  0.00     0.202 C 
ENDROOT
BRANCH   1   2
ATOM      2  O   UNL     1       3.989   1.044  -1.295  1.00  0.00    -0.374 OA
BRANCH   2   3
ATOM      3  C   UNL     1       4.227  -0.348  -1.505  1.00  0.00     0.202 C 
BRANCH   3   4
ATOM      4  C   UNL     1       3.867  -1.245  -0.318  1.00  0.00     0.261 C 
BRANCH   4   5
ATOM      5  O   UNL     1       2.488  -1.068   0.043  1.00  0.00    -0.460 OA
BRANCH   5   6
ATOM      6  C   UNL     1       1.982  -0.299   1.037  1.00  0.00     0.338 C 
ATOM      7  O   UNL     1       0.760  -0.257   1.178  1.00  0.00    -0.246 OA
BRANCH   6   8
ATOM      8  C   UNL     1       2.825   0.491   1.985  1.00  0.00     0.060 A 
ATOM      9  C   UNL     1       4.078   1.026   1.684  1.00  0.00     0.016 A 
ATOM     10  C   UNL     1       2.276   0.779   3.246  1.00  0.00     0.016 A 
ATOM     11  C   UNL     1       4.803   1.752   2.610  1.00  0.00     0.010 A 
ATOM     12  C   UNL     1       2.981   1.549   4.177  1.00  0.00     0.010 A 
ATOM     13  C   UNL     1       4.261   2.016   3.862  1.00  0.00    -0.014 A 
BRANCH  13  14
ATOM     14  C   UNL     1       5.152   2.659   4.842  1.00  0.00     0.031 A 
ATOM     15  C   UNL     1       5.789   1.790   5.882  1.00  0.00     0.074 A 
ATOM     16  C   UNL     1       5.521   3.939   4.653  1.00  0.00     0.049 A 
ATOM     17  N   UNL     1       6.630   2.106   6.826  1.00  0.00    -0.248 NA
ATOM     18  C   UNL     1       5.440   0.360   5.836  1.00  0.00     0.031 C 
ATOM     19  C   UNL     1       5.055   4.792   3.554  1.00  0.00     0.029 A 
ATOM     20  N   UNL     1       6.407   4.727   5.332  1.00  0.00    -0.354 N 
ATOM     21  C   UNL     1       6.890   0.922   7.507  1.00  0.00     0.074 A 
ATOM     22  C   UNL     1       6.109  -0.116   6.873  1.00  0.00     0.031 C 
ATOM     23  C   UNL     1       5.694   5.971   3.614  1.00  0.00     0.029 A 
ATOM     24  C   UNL     1       6.548   5.986   4.795  1.00  0.00     0.049 A 
ATOM     25  H   UNL     1       6.897   4.423   6.130  1.00  0.00     0.167 HD
ATOM     26  C   UNL     1       7.704   0.736   8.573  1.00  0.00     0.034 A 
ATOM     27  C   UNL     1       7.268   7.035   5.238  1.00  0.00     0.034 A 
ATOM     28  C   UNL     1       8.453   1.813   9.171  1.00  0.00     0.049 A 
ATOM     29  C   UNL     1       8.075   6.831   6.496  1.00  0.00     0.074 A 
ATOM     30  C   UNL     1       9.246   1.797  10.302  1.00  0.00     0.029 A 
ATOM     31  N   UNL     1       8.491   3.114   8.675  1.00  0.00    -0.354 N 
ATOM     32  N   UNL     1       8.241   5.733   7.202  1.00  0.00    -0.248 NA
ATOM     33  C   UNL     1       8.780   8.002   7.024  1.00  0.00     0.031 C 
ATOM     34  C   UNL     1       9.705   3.101  10.528  1.00  0.00     0.029 A 
ATOM     35  C   UNL     1       9.269   3.916   9.492  1.00  0.00     0.049 A 
ATOM     36  H   UNL     1       8.030   3.420   7.861  1.00  0.00     0.167 HD
ATOM     37  C   UNL     1       9.093   6.076   8.246  1.00  0.00     0.074 A 
ATOM     38  C   UNL     1       9.420   7.478   8.059  1.00  0.00     0.031 C 
ATOM     39  C   UNL     1       9.563   5.314   9.268  1.00  0.00     0.034 A 
BRANCH  26  40
ATOM     40  C   UNL     1       7.701  -0.638   9.199  1.00  0.00     0.023 A 
ATOM     41  C   UNL     1       8.141  -1.781   8.506  1.00  0.00     0.031 A 
ATOM     42  C   UNL     1       7.131  -0.821  10.471  1.00  0.00     0.131 A 
ATOM     43  C   UNL     1       7.916  -3.058   9.048  1.00  0.00     0.055 A 
ATOM     44  C   UNL     1       6.991  -2.088  11.042  1.00  0.00     0.041 A 
ATOM     45  F   UNL     1       6.661   0.226  11.167  1.00  0.00    -0.206 F 
ATOM     46  C   UNL     1       7.365  -3.217  10.322  1.00  0.00     0.022 A 
BRANCH  43  47
ATOM     47  S   UNL     1       8.178  -4.511   7.991  1.00  0.00     0.124 S 
ATOM     48  O   UNL     1       7.258  -4.244   6.888  1.00  0.00    -0.237 OA
ATOM     49  O   UNL     1       9.599  -4.420   7.675  1.00  0.00    -0.237 OA
ATOM     50  O   UNL     1       7.801  -5.633   8.849  1.00  0.00    -0.744 OA
ENDBRANCH  43  47
ENDBRANCH  26  40
BRANCH  27  51
ATOM     51  C   UNL     1       7.208   8.359   4.549  1.00  0.00     0.023 A 
ATOM     52  C   UNL     1       8.363   8.982   4.049  1.00  0.00     0.031 A 
ATOM     53  C   UNL     1       5.989   9.055   4.430  1.00  0.00     0.131 A 
ATOM     54  C   UNL     1       8.283  10.272   3.497  1.00  0.00     0.055 A 
ATOM     55  C   UNL     1       5.905  10.311   3.826  1.00  0.00     0.041 A 
ATOM     56  F   UNL     1       4.850   8.520   4.898  1.00  0.00    -0.206 F 
ATOM     57  C   UNL     1       7.060  10.933   3.368  1.00  0.00     0.022 A 
BRANCH  54  58
ATOM     58  S   UNL     1       9.820  11.123   3.038  1.00  0.00     0.124 S 
ATOM     59  O   UNL     1      10.561  11.095   4.294  1.00  0.00    -0.237 OA
ATOM     60  O   UNL     1      10.332  10.271   1.971  1.00  0.00    -0.237 OA
ATOM     61  O   UNL     1       9.363  12.445   2.614  1.00  0.00    -0.744 OA
ENDBRANCH  54  58
ENDBRANCH  27  51
BRANCH  39  62
ATOM     62  C   UNL     1      10.519   5.987  10.219  1.00  0.00     0.023 A 
ATOM     63  C   UNL     1      10.107   7.032  11.062  1.00  0.00     0.031 A 
ATOM     64  C   UNL     1      11.865   5.585  10.263  1.00  0.00     0.131 A 
ATOM     65  C   UNL     1      11.050   7.687  11.866  1.00  0.00     0.055 A 
ATOM     66  C   UNL     1      12.783   6.193  11.118  1.00  0.00     0.041 A 
ATOM     67  F   UNL     1      12.308   4.591   9.476  1.00  0.00    -0.206 F 
ATOM     68  C   UNL     1      12.380   7.262  11.914  1.00  0.00     0.022 A 
BRANCH  65  69
ATOM     69  S   UNL     1      10.536   9.176  12.764  1.00  0.00     0.124 S 
ATOM     70  O   UNL     1      10.056  10.031  11.683  1.00  0.00    -0.237 OA
ATOM     71  O   UNL     1       9.515   8.659  13.668  1.00  0.00    -0.237 OA
ATOM     72  O   UNL     1      11.767   9.627  13.411  1.00  0.00    -0.744 OA
ENDBRANCH  65  69
ENDBRANCH  39  62
ENDBRANCH  13  14
ENDBRANCH   6   8
ENDBRANCH   5   6
ENDBRANCH   4   5
ENDBRANCH   3   4
ENDBRANCH   2   3
ENDBRANCH   1   2
BRANCH   1  73
ATOM     73  C   UNL     1       2.785   2.638  -2.661  1.00  0.00     0.261 C 
BRANCH  73  74
ATOM     74  O   UNL     1       3.381   2.099  -3.851  1.00  0.00    -0.460 OA
BRANCH  74  75
ATOM     75  C   UNL     1       4.741   2.124  -3.855  1.00  0.00     0.338 C 
ATOM     76  O   UNL     1       5.478   2.820  -3.179  1.00  0.00    -0.246 OA
BRANCH  75  77
ATOM     77  C   UNL     1       5.191   0.992  -4.684  1.00  0.00     0.060 A 
ATOM     78  C   UNL     1       6.207   0.159  -4.210  1.00  0.00     0.016 A 
ATOM     79  C   UNL     1       4.596   0.744  -5.919  1.00  0.00     0.020 A 
ATOM     80  C   UNL     1       6.574  -0.971  -4.937  1.00  0.00     0.001 A 
ATOM     81  C   UNL     1       5.058  -0.312  -6.714  1.00  0.00    -0.037 A 
ATOM     82  C   UNL     1       6.004  -1.205  -6.188  1.00  0.00     0.004 A 
BRANCH  81  83
ATOM     83  C   UNL     1       4.677  -0.360  -8.169  1.00  0.00     0.113 C 
BRANCH  83  84
ATOM     84  S   UNL     1       5.988   0.321  -9.256  1.00  0.00    -0.082 SA
BRANCH  84  85
ATOM     85  C   UNL     1       6.493   1.733  -8.399  1.00  0.00     0.184 A 
ATOM     86  N   UNL     1       7.617   1.931  -7.756  1.00  0.00    -0.201 NA
ATOM     87  N   UNL     1       5.710   2.836  -8.299  1.00  0.00    -0.254 N 
ATOM     88  C   UNL     1       7.440   3.181  -7.184  1.00  0.00     0.182 A 
ATOM     89  N   UNL     1       6.263   3.756  -7.496  1.00  0.00    -0.153 NA
ATOM     90  H   UNL     1       4.846   2.947  -8.757  1.00  0.00     0.192 HD
BRANCH  88  91
ATOM     91  C   UNL     1       8.466   3.836  -6.377  1.00  0.00     0.021 A 
ATOM     92  C   UNL     1       8.119   4.772  -5.390  1.00  0.00     0.012 A 
ATOM     93  C   UNL     1       9.823   3.570  -6.606  1.00  0.00     0.012 A 
ATOM     94  C   UNL     1       9.110   5.444  -4.666  1.00  0.00     0.001 A 
ATOM     95  C   UNL     1      10.813   4.251  -5.889  1.00  0.00     0.001 A 
ATOM     96  C   UNL     1      10.455   5.191  -4.924  1.00  0.00     0.000 A 
ENDBRANCH  88  91
ENDBRANCH  84  85
ENDBRANCH  83  84
ENDBRANCH  81  83
ENDBRANCH  75  77
ENDBRANCH  74  75
ENDBRANCH  73  74
ENDBRANCH   1  73
TORSDOF 21
