REMARK SMILES CCCC[C@H](C(=O)OCCOCCOC(=O)c1ccc(-c2c3nc(c(-c4cc(S(=O)(=O)[O-])ccc4F)c4ccc([nH]4)c(-c4cc(S(=O)(=O)[O-])ccc4F)c4nc(c(-c5cc(S(=O)(=O)[O-])ccc5F)c5ccc2[nH]5)C=C4)C=C3)cc1)[C@](C)(O)c1ccc(Cl)c(Cl)c1
REMARK SMILES IDX 11 1 10 2 9 3 8 4 6 5 7 6 5 7 4 8 3 9 2 10 1 11 80 12 81 13
REMARK SMILES IDX 82 14 83 16 84 17 90 18 85 19 88 20 86 21 89 22 87 23 12 24
REMARK SMILES IDX 13 25 14 26 15 27 16 28 17 29 18 30 79 31 19 32 78 33 20 34
REMARK SMILES IDX 21 35 22 36 72 37 23 38 77 39 71 40 73 41 24 42 76 43 70 44
REMARK SMILES IDX 69 45 25 47 57 48 37 49 56 50 38 51 41 52 55 53 74 54 39 55
REMARK SMILES IDX 40 56 54 58 75 59 42 60 26 61 27 62 35 63 28 64 34 65 36 66
REMARK SMILES IDX 33 67 29 68 30 69 31 70 32 71 58 72 59 73 67 74 60 75 66 76
REMARK SMILES IDX 68 77 65 78 61 79 62 80 63 81 64 82 43 83 44 84 52 85 45 86
REMARK SMILES IDX 51 87 53 88 50 89 46 90 47 91 48 92 49 93
REMARK H PARENT 82 15 73 46 41 57
REMARK Flexibility Score: inf
ROOT
ATOM      1  O   UNL     1      -3.421   4.726  -4.843  1.00  0.00    -0.374 OA
ENDROOT
BRANCH   1   2
ATOM      2  C   UNL     1      -2.379   5.694  -4.998  1.00  0.00     0.202 C 
BRANCH   2   3
ATOM      3  C   UNL     1      -2.007   6.446  -3.711  1.00  0.00     0.261 C 
BRANCH   3   4
ATOM      4  O   UNL     1      -1.194   5.638  -2.835  1.00  0.00    -0.463 OA
BRANCH   4   5
ATOM      5  C   UNL     1      -1.855   4.844  -1.977  1.00  0.00     0.312 C 
ATOM      6  O   UNL     1      -3.077   4.848  -1.832  1.00  0.00    -0.252 OA
BRANCH   5   7
ATOM      7  C   UNL     1      -0.986   3.877  -1.194  1.00  0.00     0.135 C 
BRANCH   7   8
ATOM      8  C   UNL     1       0.546   3.932  -1.451  1.00  0.00     0.019 C 
BRANCH   8   9
ATOM      9  C   UNL     1       1.076   3.480  -2.828  1.00  0.00     0.001 C 
BRANCH   9  10
ATOM     10  C   UNL     1       1.278   4.530  -3.926  1.00  0.00    -0.003 C 
ATOM     11  C   UNL     1       1.922   5.836  -3.486  1.00  0.00     0.004 C 
ENDBRANCH   9  10
ENDBRANCH   8   9
ENDBRANCH   7   8
BRANCH   7  12
ATOM     12  C   UNL     1      -1.364   4.045   0.333  1.00  0.00     0.100 C 
ATOM     13  C   UNL     1      -0.820   2.851   1.146  1.00  0.00     0.048 C 
BRANCH  12  14
ATOM     14  O   UNL     1      -2.782   3.918   0.565  1.00  0.00    -0.385 OA
ATOM     15  H   UNL     1      -2.966   4.029   1.511  1.00  0.00     0.211 HD
ENDBRANCH  12  14
BRANCH  12  16
ATOM     16  C   UNL     1      -0.938   5.417   0.879  1.00  0.00    -0.014 A 
ATOM     17  C   UNL     1       0.177   5.583   1.714  1.00  0.00     0.008 A 
ATOM     18  C   UNL     1      -1.628   6.585   0.488  1.00  0.00     0.028 A 
ATOM     19  C   UNL     1       0.607   6.859   2.099  1.00  0.00     0.022 A 
ATOM     20  C   UNL     1      -1.176   7.864   0.832  1.00  0.00     0.060 A 
ATOM     21  C   UNL     1      -0.053   8.001   1.643  1.00  0.00     0.059 A 
ATOM     22  Cl  UNL     1      -2.035   9.219   0.190  1.00  0.00    -0.083 Cl
ATOM     23  Cl  UNL     1       0.568   9.540   2.118  1.00  0.00    -0.083 Cl
ENDBRANCH  12  16
ENDBRANCH   7  12
ENDBRANCH   5   7
ENDBRANCH   4   5
ENDBRANCH   3   4
ENDBRANCH   2   3
ENDBRANCH   1   2
BRANCH   1  24
ATOM     24  C   UNL     1      -3.018   3.420  -4.427  1.00  0.00     0.202 C 
BRANCH  24  25
ATOM     25  C   UNL     1      -2.849   2.406  -5.554  1.00  0.00     0.261 C 
BRANCH  25  26
ATOM     26  O   UNL     1      -1.625   2.667  -6.259  1.00  0.00    -0.460 OA
BRANCH  26  27
ATOM     27  C   UNL     1      -1.782   3.449  -7.349  1.00  0.00     0.338 C 
ATOM     28  O   UNL     1      -2.845   3.825  -7.829  1.00  0.00    -0.246 OA
BRANCH  27  29
ATOM     29  C   UNL     1      -0.478   3.954  -7.811  1.00  0.00     0.060 A 
ATOM     30  C   UNL     1      -0.454   5.264  -8.300  1.00  0.00     0.016 A 
ATOM     31  C   UNL     1       0.676   3.164  -7.837  1.00  0.00     0.016 A 
ATOM     32  C   UNL     1       0.690   5.753  -8.914  1.00  0.00     0.010 A 
ATOM     33  C   UNL     1       1.832   3.662  -8.447  1.00  0.00     0.010 A 
ATOM     34  C   UNL     1       1.821   4.936  -9.041  1.00  0.00    -0.014 A 
BRANCH  34  35
ATOM     35  C   UNL     1       2.905   5.382  -9.949  1.00  0.00     0.031 A 
ATOM     36  C   UNL     1       3.001   4.779 -11.325  1.00  0.00     0.074 A 
ATOM     37  C   UNL     1       3.715   6.393  -9.586  1.00  0.00     0.049 A 
ATOM     38  N   UNL     1       3.799   5.090 -12.315  1.00  0.00    -0.248 NA
ATOM     39  C   UNL     1       2.074   3.677 -11.626  1.00  0.00     0.031 C 
ATOM     40  C   UNL     1       3.683   7.072  -8.290  1.00  0.00     0.029 A 
ATOM     41  N   UNL     1       4.703   7.039 -10.281  1.00  0.00    -0.354 N 
ATOM     42  C   UNL     1       3.469   4.226 -13.355  1.00  0.00     0.074 A 
ATOM     43  C   UNL     1       2.436   3.345 -12.856  1.00  0.00     0.031 C 
ATOM     44  C   UNL     1       4.600   8.053  -8.291  1.00  0.00     0.029 A 
ATOM     45  C   UNL     1       5.304   8.051  -9.572  1.00  0.00     0.049 A 
ATOM     46  H   UNL     1       4.959   6.801 -11.202  1.00  0.00     0.167 HD
ATOM     47  C   UNL     1       3.972   4.183 -14.614  1.00  0.00     0.034 A 
ATOM     48  C   UNL     1       6.311   8.878  -9.916  1.00  0.00     0.034 A 
ATOM     49  C   UNL     1       5.009   5.069 -15.089  1.00  0.00     0.049 A 
ATOM     50  C   UNL     1       6.892   8.775 -11.304  1.00  0.00     0.074 A 
ATOM     51  C   UNL     1       5.586   5.125 -16.346  1.00  0.00     0.029 A 
ATOM     52  N   UNL     1       5.634   6.048 -14.325  1.00  0.00    -0.354 N 
ATOM     53  N   UNL     1       6.559   7.965 -12.285  1.00  0.00    -0.248 NA
ATOM     54  C   UNL     1       7.970   9.713 -11.637  1.00  0.00     0.031 C 
ATOM     55  C   UNL     1       6.610   6.078 -16.318  1.00  0.00     0.029 A 
ATOM     56  C   UNL     1       6.612   6.686 -15.073  1.00  0.00     0.049 A 
ATOM     57  H   UNL     1       5.414   6.257 -13.389  1.00  0.00     0.167 HD
ATOM     58  C   UNL     1       7.368   8.321 -13.361  1.00  0.00     0.074 A 
ATOM     59  C   UNL     1       8.182   9.434 -12.914  1.00  0.00     0.031 C 
ATOM     60  C   UNL     1       7.434   7.781 -14.607  1.00  0.00     0.034 A 
BRANCH  47  61
ATOM     61  C   UNL     1       3.444   3.110 -15.539  1.00  0.00     0.023 A 
ATOM     62  C   UNL     1       2.095   3.062 -15.936  1.00  0.00     0.031 A 
ATOM     63  C   UNL     1       4.301   2.099 -16.010  1.00  0.00     0.131 A 
ATOM     64  C   UNL     1       1.631   1.992 -16.717  1.00  0.00     0.055 A 
ATOM     65  C   UNL     1       3.851   1.083 -16.855  1.00  0.00     0.041 A 
ATOM     66  F   UNL     1       5.593   2.073 -15.645  1.00  0.00    -0.206 F 
ATOM     67  C   UNL     1       2.505   1.016 -17.201  1.00  0.00     0.022 A 
BRANCH  64  68
ATOM     68  S   UNL     1      -0.157   1.808 -16.967  1.00  0.00     0.124 S 
ATOM     69  O   UNL     1      -0.640   1.725 -15.591  1.00  0.00    -0.237 OA
ATOM     70  O   UNL     1      -0.500   3.025 -17.694  1.00  0.00    -0.237 OA
ATOM     71  O   UNL     1      -0.271   0.569 -17.734  1.00  0.00    -0.744 OA
ENDBRANCH  64  68
ENDBRANCH  47  61
BRANCH  48  72
ATOM     72  C   UNL     1       6.849   9.859  -8.930  1.00  0.00     0.023 A 
ATOM     73  C   UNL     1       6.782  11.242  -9.160  1.00  0.00     0.031 A 
ATOM     74  C   UNL     1       7.489   9.417  -7.757  1.00  0.00     0.131 A 
ATOM     75  C   UNL     1       7.387  12.131  -8.258  1.00  0.00     0.055 A 
ATOM     76  C   UNL     1       8.036  10.307  -6.833  1.00  0.00     0.041 A 
ATOM     77  F   UNL     1       7.580   8.105  -7.487  1.00  0.00    -0.206 F 
ATOM     78  C   UNL     1       8.000  11.674  -7.089  1.00  0.00     0.022 A 
BRANCH  75  79
ATOM     79  S   UNL     1       7.441  13.895  -8.679  1.00  0.00     0.124 S 
ATOM     80  O   UNL     1       8.141  13.873  -9.959  1.00  0.00    -0.237 OA
ATOM     81  O   UNL     1       6.024  14.237  -8.728  1.00  0.00    -0.237 OA
ATOM     82  O   UNL     1       8.185  14.486  -7.569  1.00  0.00    -0.744 OA
ENDBRANCH  75  79
ENDBRANCH  48  72
BRANCH  60  83
ATOM     83  C   UNL     1       8.397   8.426 -15.579  1.00  0.00     0.023 A 
ATOM     84  C   UNL     1       9.784   8.440 -15.348  1.00  0.00     0.031 A 
ATOM     85  C   UNL     1       7.915   9.081 -16.727  1.00  0.00     0.131 A 
ATOM     86  C   UNL     1      10.628   9.170 -16.198  1.00  0.00     0.055 A 
ATOM     87  C   UNL     1       8.770   9.738 -17.614  1.00  0.00     0.041 A 
ATOM     88  F   UNL     1       6.601   9.103 -17.002  1.00  0.00    -0.206 F 
ATOM     89  C   UNL     1      10.132   9.804 -17.340  1.00  0.00     0.022 A 
BRANCH  86  90
ATOM     90  S   UNL     1      12.359   9.407 -15.707  1.00  0.00     0.124 S 
ATOM     91  O   UNL     1      12.220   9.978 -14.372  1.00  0.00    -0.237 OA
ATOM     92  O   UNL     1      12.887   8.048 -15.767  1.00  0.00    -0.237 OA
ATOM     93  O   UNL     1      12.881  10.321 -16.722  1.00  0.00    -0.744 OA
ENDBRANCH  86  90
ENDBRANCH  60  83
ENDBRANCH  34  35
ENDBRANCH  27  29
ENDBRANCH  26  27
ENDBRANCH  25  26
ENDBRANCH  24  25
ENDBRANCH   1  24
TORSDOF 23
