REMARK SMILES CC[C@](C)(NC(=O)CNC(=O)c1cccc(Cl)c1)C(=O)OCCOCCOC(=O)c1ccc(-c2c3nc(c(-c4cc(S(=O)(=O)[O-])ccc4F)c4ccc([nH]4)c(-c4cc(S(=O)(=O)[O-])ccc4F)c4nc(c(-c5cc(S(=O)(=O)[O-])ccc5F)c5ccc2[nH]5)C=C4)C=C3)cc1
REMARK SMILES IDX 23 1 22 2 21 3 19 4 20 5 3 6 4 7 2 8 1 9 5 10 6 11 7 13 8 14
REMARK SMILES IDX 9 15 10 16 11 18 12 19 13 20 18 21 14 22 16 23 15 24 17 25
REMARK SMILES IDX 24 26 25 27 26 28 27 29 28 30 29 31 30 32 31 33 92 34 32 35
REMARK SMILES IDX 91 36 33 37 34 38 35 39 85 40 36 41 90 42 84 43 86 44 37 45
REMARK SMILES IDX 89 46 83 47 82 48 38 50 70 51 50 52 69 53 51 54 54 55 68 56
REMARK SMILES IDX 87 57 52 58 53 59 67 61 88 62 55 63 39 64 40 65 48 66 41 67
REMARK SMILES IDX 47 68 49 69 46 70 42 71 43 72 44 73 45 74 71 75 72 76 80 77
REMARK SMILES IDX 73 78 79 79 81 80 78 81 74 82 75 83 76 84 77 85 56 86 57 87
REMARK SMILES IDX 65 88 58 89 64 90 66 91 63 92 59 93 60 94 61 95 62 96
REMARK H PARENT 5 12 9 17 86 49 54 60
REMARK Flexibility Score: inf
ROOT
ATOM      1  C   UNL     1       5.023   2.395   3.535  1.00  0.00     0.202 C 
ENDROOT
BRANCH   1   2
ATOM      2  C   UNL     1       3.907   3.475   3.123  1.00  0.00     0.261 C 
BRANCH   2   3
ATOM      3  O   UNL     1       3.331   3.303   1.733  1.00  0.00    -0.462 OA
BRANCH   3   4
ATOM      4  C   UNL     1       2.259   3.480   0.906  1.00  0.00     0.331 C 
ATOM      5  O   UNL     1       2.505   4.023  -0.179  1.00  0.00    -0.249 OA
BRANCH   4   6
ATOM      6  C   UNL     1       0.796   2.834   1.063  1.00  0.00     0.135 C 
ATOM      7  C   UNL     1       0.468   1.465   0.386  1.00  0.00     0.047 C 
BRANCH   6   8
ATOM      8  C   UNL     1      -0.207   3.810   0.314  1.00  0.00     0.037 C 
ATOM      9  C   UNL     1      -0.298   3.625  -1.222  1.00  0.00     0.007 C 
ENDBRANCH   6   8
BRANCH   6  10
ATOM     10  N   UNL     1       0.408   2.703   2.453  1.00  0.00    -0.339 N 
ATOM     11  C   UNL     1       0.816   1.697   3.276  1.00  0.00     0.240 C 
ATOM     12  H   UNL     1      -0.191   3.389   2.829  1.00  0.00     0.164 HD
ATOM     13  O   UNL     1       0.305   1.640   4.398  1.00  0.00    -0.273 OA
BRANCH  11  14
ATOM     14  C   UNL     1       2.082   0.867   2.915  1.00  0.00     0.216 C 
BRANCH  14  15
ATOM     15  N   UNL     1       2.602   0.321   1.600  1.00  0.00    -0.343 N 
ATOM     16  C   UNL     1       3.885   0.365   1.034  1.00  0.00     0.251 C 
ATOM     17  H   UNL     1       1.928  -0.141   1.052  1.00  0.00     0.164 HD
ATOM     18  O   UNL     1       4.615  -0.620   1.153  1.00  0.00    -0.269 OA
BRANCH  16  19
ATOM     19  C   UNL     1       4.276   1.352  -0.038  1.00  0.00     0.041 A 
ATOM     20  C   UNL     1       5.387   2.204   0.107  1.00  0.00     0.014 A 
ATOM     21  C   UNL     1       3.646   1.343  -1.284  1.00  0.00     0.034 A 
ATOM     22  C   UNL     1       5.721   3.169  -0.855  1.00  0.00     0.002 A 
ATOM     23  C   UNL     1       4.026   2.261  -2.280  1.00  0.00     0.041 A 
ATOM     24  C   UNL     1       5.030   3.201  -2.056  1.00  0.00     0.020 A 
ATOM     25  Cl  UNL     1       3.247   2.220  -3.816  1.00  0.00    -0.084 Cl
ENDBRANCH  16  19
ENDBRANCH  14  15
ENDBRANCH  11  14
ENDBRANCH   6  10
ENDBRANCH   4   6
ENDBRANCH   3   4
ENDBRANCH   2   3
ENDBRANCH   1   2
BRANCH   1  26
ATOM     26  O   UNL     1       4.589   1.050   3.747  1.00  0.00    -0.374 OA
BRANCH  26  27
ATOM     27  C   UNL     1       4.974   0.355   4.934  1.00  0.00     0.202 C 
BRANCH  27  28
ATOM     28  C   UNL     1       4.086   0.707   6.141  1.00  0.00     0.261 C 
BRANCH  28  29
ATOM     29  O   UNL     1       4.164   2.101   6.454  1.00  0.00    -0.460 OA
BRANCH  29  30
ATOM     30  C   UNL     1       5.394   2.470   6.909  1.00  0.00     0.338 C 
ATOM     31  O   UNL     1       6.281   1.735   7.261  1.00  0.00    -0.246 OA
BRANCH  30  32
ATOM     32  C   UNL     1       5.571   3.901   6.577  1.00  0.00     0.060 A 
ATOM     33  C   UNL     1       6.811   4.274   6.036  1.00  0.00     0.016 A 
ATOM     34  C   UNL     1       4.541   4.835   6.724  1.00  0.00     0.016 A 
ATOM     35  C   UNL     1       7.063   5.605   5.741  1.00  0.00     0.010 A 
ATOM     36  C   UNL     1       4.802   6.179   6.458  1.00  0.00     0.010 A 
ATOM     37  C   UNL     1       6.090   6.565   6.045  1.00  0.00    -0.014 A 
BRANCH  37  38
ATOM     38  C   UNL     1       6.572   7.932   6.334  1.00  0.00     0.031 A 
ATOM     39  C   UNL     1       7.042   8.194   7.742  1.00  0.00     0.074 A 
ATOM     40  C   UNL     1       6.681   8.867   5.380  1.00  0.00     0.049 A 
ATOM     41  N   UNL     1       7.593   9.261   8.255  1.00  0.00    -0.248 NA
ATOM     42  C   UNL     1       6.870   7.087   8.700  1.00  0.00     0.031 C 
ATOM     43  C   UNL     1       6.309   8.699   3.977  1.00  0.00     0.029 A 
ATOM     44  N   UNL     1       7.156  10.149   5.457  1.00  0.00    -0.354 N 
ATOM     45  C   UNL     1       7.850   8.944   9.585  1.00  0.00     0.074 A 
ATOM     46  C   UNL     1       7.343   7.612   9.815  1.00  0.00     0.031 C 
ATOM     47  C   UNL     1       6.570   9.845   3.322  1.00  0.00     0.029 A 
ATOM     48  C   UNL     1       7.109  10.825   4.264  1.00  0.00     0.049 A 
ATOM     49  H   UNL     1       7.498  10.547   6.289  1.00  0.00     0.167 HD
ATOM     50  C   UNL     1       8.471   9.689  10.530  1.00  0.00     0.034 A 
ATOM     51  C   UNL     1       7.459  12.095   3.980  1.00  0.00     0.034 A 
ATOM     52  C   UNL     1       8.928  11.032  10.299  1.00  0.00     0.049 A 
ATOM     53  C   UNL     1       8.037  12.956   5.079  1.00  0.00     0.074 A 
ATOM     54  C   UNL     1       9.545  11.899  11.181  1.00  0.00     0.029 A 
ATOM     55  N   UNL     1       8.792  11.713   9.095  1.00  0.00    -0.354 N 
ATOM     56  N   UNL     1       8.291  12.646   6.331  1.00  0.00    -0.248 NA
ATOM     57  C   UNL     1       8.387  14.335   4.719  1.00  0.00     0.031 C 
ATOM     58  C   UNL     1       9.719  13.127  10.531  1.00  0.00     0.029 A 
ATOM     59  C   UNL     1       9.283  13.001   9.220  1.00  0.00     0.049 A 
ATOM     60  H   UNL     1       8.404  11.335   8.274  1.00  0.00     0.167 HD
ATOM     61  C   UNL     1       8.867  13.782   6.895  1.00  0.00     0.074 A 
ATOM     62  C   UNL     1       8.924  14.780   5.846  1.00  0.00     0.031 C 
ATOM     63  C   UNL     1       9.321  13.982   8.160  1.00  0.00     0.034 A 
BRANCH  50  64
ATOM     64  C   UNL     1       8.605   9.068  11.898  1.00  0.00     0.023 A 
ATOM     65  C   UNL     1       9.363   7.901  12.106  1.00  0.00     0.031 A 
ATOM     66  C   UNL     1       7.881   9.586  12.984  1.00  0.00     0.131 A 
ATOM     67  C   UNL     1       9.303   7.239  13.342  1.00  0.00     0.055 A 
ATOM     68  C   UNL     1       7.896   8.971  14.237  1.00  0.00     0.041 A 
ATOM     69  F   UNL     1       7.113  10.677  12.836  1.00  0.00    -0.206 F 
ATOM     70  C   UNL     1       8.593   7.779  14.416  1.00  0.00     0.022 A 
BRANCH  67  71
ATOM     71  S   UNL     1      10.005   5.570  13.466  1.00  0.00     0.124 S 
ATOM     72  O   UNL     1       9.278   4.865  12.412  1.00  0.00    -0.237 OA
ATOM     73  O   UNL     1      11.423   5.806  13.217  1.00  0.00    -0.237 OA
ATOM     74  O   UNL     1       9.669   5.157  14.827  1.00  0.00    -0.744 OA
ENDBRANCH  67  71
ENDBRANCH  50  64
BRANCH  51  75
ATOM     75  C   UNL     1       7.255  12.645   2.612  1.00  0.00     0.023 A 
ATOM     76  C   UNL     1       8.343  13.029   1.814  1.00  0.00     0.031 A 
ATOM     77  C   UNL     1       5.958  12.845   2.106  1.00  0.00     0.131 A 
ATOM     78  C   UNL     1       8.114  13.635   0.569  1.00  0.00     0.055 A 
ATOM     79  C   UNL     1       5.737  13.408   0.849  1.00  0.00     0.041 A 
ATOM     80  F   UNL     1       4.885  12.492   2.831  1.00  0.00    -0.206 F 
ATOM     81  C   UNL     1       6.820  13.818   0.077  1.00  0.00     0.022 A 
BRANCH  78  82
ATOM     82  S   UNL     1       9.538  14.244  -0.375  1.00  0.00     0.124 S 
ATOM     83  O   UNL     1      10.094  15.238   0.536  1.00  0.00    -0.237 OA
ATOM     84  O   UNL     1      10.324  13.028  -0.557  1.00  0.00    -0.237 OA
ATOM     85  O   UNL     1       8.935  14.780  -1.593  1.00  0.00    -0.744 OA
ENDBRANCH  78  82
ENDBRANCH  51  75
BRANCH  63  86
ATOM     86  C   UNL     1       9.969  15.312   8.457  1.00  0.00     0.023 A 
ATOM     87  C   UNL     1       9.235  16.510   8.468  1.00  0.00     0.031 A 
ATOM     88  C   UNL     1      11.345  15.374   8.739  1.00  0.00     0.131 A 
ATOM     89  C   UNL     1       9.893  17.727   8.702  1.00  0.00     0.055 A 
ATOM     90  C   UNL     1      11.982  16.580   9.029  1.00  0.00     0.041 A 
ATOM     91  F   UNL     1      12.093  14.259   8.743  1.00  0.00    -0.206 F 
ATOM     92  C   UNL     1      11.258  17.768   8.999  1.00  0.00     0.022 A 
BRANCH  89  93
ATOM     93  S   UNL     1       8.957  19.271   8.526  1.00  0.00     0.124 S 
ATOM     94  O   UNL     1       8.461  19.172   7.157  1.00  0.00    -0.237 OA
ATOM     95  O   UNL     1       7.953  19.148   9.578  1.00  0.00    -0.237 OA
ATOM     96  O   UNL     1       9.962  20.309   8.748  1.00  0.00    -0.744 OA
ENDBRANCH  89  93
ENDBRANCH  63  86
ENDBRANCH  37  38
ENDBRANCH  30  32
ENDBRANCH  29  30
ENDBRANCH  28  29
ENDBRANCH  27  28
ENDBRANCH  26  27
ENDBRANCH   1  26
TORSDOF 22
