REMARK SMILES Cc1cc2c(c(C)c1Cl)C=C(C(=O)OCCOCCOC(=O)c1ccc(-c3c4nc(c(-c5cc(S(=O)(=O)[O-])ccc5F)c5ccc([nH]5)c(-c5cc(S(=O)(=O)[O-])ccc5F)c5nc(c(-c6cc(S(=O)(=O)[O-])ccc6F)c6ccc3[nH]6)C=C5)C=C4)cc1)[C@@H](C(F)(F)F)O2
REMARK SMILES IDX 18 1 17 2 16 3 15 4 14 5 12 6 13 7 11 8 1 9 2 10 3 11 8 12
REMARK SMILES IDX 4 13 6 14 9 15 5 16 91 17 7 18 10 19 86 20 87 21 88 22 89 23
REMARK SMILES IDX 90 24 19 25 20 26 21 27 22 28 23 29 24 30 85 31 25 32 84 33
REMARK SMILES IDX 26 34 27 35 28 36 78 37 29 38 83 39 77 40 79 41 30 42 82 43
REMARK SMILES IDX 76 44 75 45 31 47 63 48 43 49 62 50 44 51 47 52 61 53 80 54
REMARK SMILES IDX 45 55 46 56 60 58 81 59 48 60 32 61 33 62 41 63 34 64 40 65
REMARK SMILES IDX 42 66 39 67 35 68 36 69 37 70 38 71 64 72 65 73 73 74 66 75
REMARK SMILES IDX 72 76 74 77 71 78 67 79 68 80 69 81 70 82 49 83 50 84 58 85
REMARK SMILES IDX 51 86 57 87 59 88 56 89 52 90 53 91 54 92 55 93
REMARK H PARENT 79 46 47 57
REMARK Flexibility Score: inf
ROOT
ATOM      1  C   UNL     1       0.087   1.211   8.761  1.00  0.00     0.202 C 
ENDROOT
BRANCH   1   2
ATOM      2  O   UNL     1      -0.965   1.679   9.608  1.00  0.00    -0.374 OA
BRANCH   2   3
ATOM      3  C   UNL     1      -1.893   0.722  10.114  1.00  0.00     0.202 C 
BRANCH   3   4
ATOM      4  C   UNL     1      -2.986   0.234   9.157  1.00  0.00     0.261 C 
BRANCH   4   5
ATOM      5  O   UNL     1      -2.448  -0.234   7.912  1.00  0.00    -0.460 OA
BRANCH   5   6
ATOM      6  C   UNL     1      -2.702   0.572   6.856  1.00  0.00     0.338 C 
ATOM      7  O   UNL     1      -3.420   1.561   6.839  1.00  0.00    -0.246 OA
BRANCH   6   8
ATOM      8  C   UNL     1      -1.865   0.175   5.709  1.00  0.00     0.087 C 
ATOM      9  C   UNL     1       1.056  -0.153  -0.049  1.00  0.00     0.046 C 
ATOM     10  C   UNL     1       0.545   0.242   1.310  1.00  0.00    -0.028 A 
ATOM     11  C   UNL     1       0.082  -0.760   2.173  1.00  0.00     0.052 A 
ATOM     12  C   UNL     1       0.528   1.581   1.748  1.00  0.00     0.047 A 
ATOM     13  C   UNL     1      -0.472  -0.437   3.409  1.00  0.00     0.128 A 
ATOM     14  C   UNL     1      -0.015   1.927   3.007  1.00  0.00    -0.021 A 
ATOM     15  Cl  UNL     1       1.175   2.806   0.697  1.00  0.00    -0.084 Cl
ATOM     16  C   UNL     1      -0.562   0.898   3.815  1.00  0.00     0.022 A 
ATOM     17  O   UNL     1      -0.896  -1.501   4.155  1.00  0.00    -0.475 OA
ATOM     18  C   UNL     1      -0.032   3.354   3.506  1.00  0.00     0.047 C 
ATOM     19  C   UNL     1      -1.291   1.186   5.045  1.00  0.00     0.027 C 
ATOM     20  C   UNL     1      -1.720  -1.268   5.330  1.00  0.00     0.316 C 
BRANCH  20  21
ATOM     21  C   UNL     1      -3.071  -1.966   5.116  1.00  0.00     0.430 C 
ATOM     22  F   UNL     1      -2.899  -3.253   4.728  1.00  0.00    -0.167 F 
ATOM     23  F   UNL     1      -3.809  -1.993   6.248  1.00  0.00    -0.167 F 
ATOM     24  F   UNL     1      -3.808  -1.351   4.163  1.00  0.00    -0.167 F 
ENDBRANCH  20  21
ENDBRANCH   6   8
ENDBRANCH   5   6
ENDBRANCH   4   5
ENDBRANCH   3   4
ENDBRANCH   2   3
ENDBRANCH   1   2
BRANCH   1  25
ATOM     25  C   UNL     1       1.162   0.310   9.380  1.00  0.00     0.261 C 
BRANCH  25  26
ATOM     26  O   UNL     1       0.651  -0.995   9.710  1.00  0.00    -0.460 OA
BRANCH  26  27
ATOM     27  C   UNL     1       0.733  -1.320  11.025  1.00  0.00     0.338 C 
ATOM     28  O   UNL     1       1.245  -0.659  11.915  1.00  0.00    -0.246 OA
BRANCH  27  29
ATOM     29  C   UNL     1      -0.074  -2.522  11.289  1.00  0.00     0.060 A 
ATOM     30  C   UNL     1      -1.176  -2.395  12.145  1.00  0.00     0.016 A 
ATOM     31  C   UNL     1       0.295  -3.769  10.781  1.00  0.00     0.016 A 
ATOM     32  C   UNL     1      -1.896  -3.525  12.523  1.00  0.00     0.010 A 
ATOM     33  C   UNL     1      -0.420  -4.905  11.176  1.00  0.00     0.010 A 
ATOM     34  C   UNL     1      -1.497  -4.790  12.074  1.00  0.00    -0.014 A 
BRANCH  34  35
ATOM     35  C   UNL     1      -2.105  -5.993  12.693  1.00  0.00     0.031 A 
ATOM     36  C   UNL     1      -1.382  -6.660  13.831  1.00  0.00     0.074 A 
ATOM     37  C   UNL     1      -3.314  -6.434  12.302  1.00  0.00     0.049 A 
ATOM     38  N   UNL     1      -1.733  -7.703  14.537  1.00  0.00    -0.248 NA
ATOM     39  C   UNL     1      -0.096  -6.067  14.232  1.00  0.00     0.031 C 
ATOM     40  C   UNL     1      -4.133  -5.827  11.253  1.00  0.00     0.029 A 
ATOM     41  N   UNL     1      -4.071  -7.484  12.754  1.00  0.00    -0.354 N 
ATOM     42  C   UNL     1      -0.721  -7.884  15.471  1.00  0.00     0.074 A 
ATOM     43  C   UNL     1       0.280  -6.872  15.215  1.00  0.00     0.031 C 
ATOM     44  C   UNL     1      -5.287  -6.510  11.152  1.00  0.00     0.029 A 
ATOM     45  C   UNL     1      -5.275  -7.620  12.104  1.00  0.00     0.049 A 
ATOM     46  H   UNL     1      -3.780  -8.086  13.477  1.00  0.00     0.167 HD
ATOM     47  C   UNL     1      -0.642  -8.800  16.466  1.00  0.00     0.034 A 
ATOM     48  C   UNL     1      -6.248  -8.542  12.252  1.00  0.00     0.034 A 
ATOM     49  C   UNL     1      -1.643  -9.804  16.714  1.00  0.00     0.049 A 
ATOM     50  C   UNL     1      -6.078  -9.630  13.283  1.00  0.00     0.074 A 
ATOM     51  C   UNL     1      -1.664 -10.771  17.703  1.00  0.00     0.029 A 
ATOM     52  N   UNL     1      -2.794  -9.977  15.960  1.00  0.00    -0.354 N 
ATOM     53  N   UNL     1      -5.109  -9.795  14.153  1.00  0.00    -0.248 NA
ATOM     54  C   UNL     1      -7.124 -10.661  13.345  1.00  0.00     0.031 C 
ATOM     55  C   UNL     1      -2.795 -11.569  17.508  1.00  0.00     0.029 A 
ATOM     56  C   UNL     1      -3.510 -11.063  16.434  1.00  0.00     0.049 A 
ATOM     57  H   UNL     1      -3.062  -9.412  15.200  1.00  0.00     0.167 HD
ATOM     58  C   UNL     1      -5.434 -10.943  14.871  1.00  0.00     0.074 A 
ATOM     59  C   UNL     1      -6.693 -11.424  14.342  1.00  0.00     0.031 C 
ATOM     60  C   UNL     1      -4.752 -11.542  15.878  1.00  0.00     0.034 A 
BRANCH  47  61
ATOM     61  C   UNL     1       0.581  -8.773  17.342  1.00  0.00     0.023 A 
ATOM     62  C   UNL     1       0.811  -7.723  18.246  1.00  0.00     0.031 A 
ATOM     63  C   UNL     1       1.520  -9.817  17.280  1.00  0.00     0.131 A 
ATOM     64  C   UNL     1       1.977  -7.718  19.025  1.00  0.00     0.055 A 
ATOM     65  C   UNL     1       2.648  -9.837  18.102  1.00  0.00     0.041 A 
ATOM     66  F   UNL     1       1.356 -10.833  16.419  1.00  0.00    -0.206 F 
ATOM     67  C   UNL     1       2.885  -8.779  18.976  1.00  0.00     0.022 A 
BRANCH  64  68
ATOM     68  S   UNL     1       2.332  -6.264  20.048  1.00  0.00     0.124 S 
ATOM     69  O   UNL     1       2.503  -5.227  19.034  1.00  0.00    -0.237 OA
ATOM     70  O   UNL     1       1.135  -6.158  20.875  1.00  0.00    -0.237 OA
ATOM     71  O   UNL     1       3.551  -6.638  20.762  1.00  0.00    -0.744 OA
ENDBRANCH  64  68
ENDBRANCH  47  61
BRANCH  48  72
ATOM     72  C   UNL     1      -7.454  -8.505  11.379  1.00  0.00     0.023 A 
ATOM     73  C   UNL     1      -8.723  -8.222  11.907  1.00  0.00     0.031 A 
ATOM     74  C   UNL     1      -7.354  -8.771  10.001  1.00  0.00     0.131 A 
ATOM     75  C   UNL     1      -9.846  -8.232  11.065  1.00  0.00     0.055 A 
ATOM     76  C   UNL     1      -8.468  -8.743   9.162  1.00  0.00     0.041 A 
ATOM     77  F   UNL     1      -6.161  -9.049   9.449  1.00  0.00    -0.206 F 
ATOM     78  C   UNL     1      -9.725  -8.477   9.694  1.00  0.00     0.022 A 
BRANCH  75  79
ATOM     79  S   UNL     1     -11.484  -7.949  11.792  1.00  0.00     0.124 S 
ATOM     80  O   UNL     1     -11.624  -9.108  12.665  1.00  0.00    -0.237 OA
ATOM     81  O   UNL     1     -11.304  -6.662  12.456  1.00  0.00    -0.237 OA
ATOM     82  O   UNL     1     -12.372  -7.928  10.632  1.00  0.00    -0.744 OA
ENDBRANCH  75  79
ENDBRANCH  48  72
BRANCH  60  83
ATOM     83  C   UNL     1      -5.340 -12.791  16.476  1.00  0.00     0.023 A 
ATOM     84  C   UNL     1      -5.300 -14.013  15.784  1.00  0.00     0.031 A 
ATOM     85  C   UNL     1      -5.867 -12.778  17.779  1.00  0.00     0.131 A 
ATOM     86  C   UNL     1      -5.791 -15.175  16.397  1.00  0.00     0.055 A 
ATOM     87  C   UNL     1      -6.316 -13.944  18.399  1.00  0.00     0.041 A 
ATOM     88  F   UNL     1      -5.919 -11.635  18.483  1.00  0.00    -0.206 F 
ATOM     89  C   UNL     1      -6.281 -15.152  17.706  1.00  0.00     0.022 A 
BRANCH  86  90
ATOM     90  S   UNL     1      -5.785 -16.725  15.457  1.00  0.00     0.124 S 
ATOM     91  O   UNL     1      -6.760 -16.446  14.408  1.00  0.00    -0.237 OA
ATOM     92  O   UNL     1      -4.395 -16.829  15.024  1.00  0.00    -0.237 OA
ATOM     93  O   UNL     1      -6.201 -17.724  16.440  1.00  0.00    -0.744 OA
ENDBRANCH  86  90
ENDBRANCH  60  83
ENDBRANCH  34  35
ENDBRANCH  27  29
ENDBRANCH  26  27
ENDBRANCH  25  26
ENDBRANCH   1  25
TORSDOF 18
