REMARK SMILES C[C@@H](C(=O)[C@H](C)[C@@H](C)C(=O)OCCOCCOC(=O)c1ccc(-c2c3nc(c(-c4cc(S(=O)(=O)[O-])ccc4F)c4ccc([nH]4)c(-c4cc(S(=O)(=O)[O-])ccc4F)c4nc(c(-c5cc(S(=O)(=O)[O-])ccc5F)c5ccc2[nH]5)C=C4)C=C3)cc1)c1ccccc1
REMARK SMILES IDX 13 1 12 2 11 3 9 4 10 5 7 6 8 7 5 8 6 9 3 10 4 11 2 12 1 13
REMARK SMILES IDX 83 14 84 15 88 16 85 17 87 18 86 19 14 20 15 21 16 22 17 23
REMARK SMILES IDX 18 24 19 25 20 26 21 27 82 28 22 29 81 30 23 31 24 32 25 33
REMARK SMILES IDX 75 34 26 35 80 36 74 37 76 38 27 39 79 40 73 41 72 42 28 44
REMARK SMILES IDX 60 45 40 46 59 47 41 48 44 49 58 50 77 51 42 52 43 53 57 55
REMARK SMILES IDX 78 56 45 57 29 58 30 59 38 60 31 61 37 62 39 63 36 64 32 65
REMARK SMILES IDX 33 66 34 67 35 68 61 69 62 70 70 71 63 72 69 73 71 74 68 75
REMARK SMILES IDX 64 76 65 77 66 78 67 79 46 80 47 81 55 82 48 83 54 84 56 85
REMARK SMILES IDX 53 86 49 87 50 88 51 89 52 90
REMARK H PARENT 76 43 44 54
REMARK Flexibility Score: inf
ROOT
ATOM      1  C   UNL     1       7.248  -1.841   2.304  1.00  0.00     0.202 C 
ENDROOT
BRANCH   1   2
ATOM      2  C   UNL     1       6.145  -0.919   2.828  1.00  0.00     0.261 C 
BRANCH   2   3
ATOM      3  O   UNL     1       4.807  -1.268   2.410  1.00  0.00    -0.463 OA
BRANCH   3   4
ATOM      4  C   UNL     1       4.177  -0.304   1.680  1.00  0.00     0.309 C 
ATOM      5  O   UNL     1       4.724   0.690   1.213  1.00  0.00    -0.252 OA
BRANCH   4   6
ATOM      6  C   UNL     1       2.665  -0.450   1.688  1.00  0.00     0.106 C 
ATOM      7  C   UNL     1       2.211   0.025   3.078  1.00  0.00     0.021 C 
BRANCH   6   8
ATOM      8  C   UNL     1       2.048  -1.821   1.277  1.00  0.00     0.067 C 
ATOM      9  C   UNL     1       0.513  -1.699   1.359  1.00  0.00     0.017 C 
BRANCH   8  10
ATOM     10  C   UNL     1       2.473  -2.275  -0.140  1.00  0.00     0.143 C 
ATOM     11  O   UNL     1       3.232  -1.540  -0.779  1.00  0.00    -0.299 OA
BRANCH  10  12
ATOM     12  C   UNL     1       1.867  -3.581  -0.777  1.00  0.00     0.083 C 
ATOM     13  C   UNL     1       1.322  -4.570   0.272  1.00  0.00     0.021 C 
BRANCH  12  14
ATOM     14  C   UNL     1       2.768  -4.306  -1.810  1.00  0.00    -0.038 A 
ATOM     15  C   UNL     1       2.833  -5.715  -1.887  1.00  0.00     0.004 A 
ATOM     16  C   UNL     1       3.515  -3.598  -2.768  1.00  0.00     0.004 A 
ATOM     17  C   UNL     1       3.640  -6.373  -2.822  1.00  0.00     0.000 A 
ATOM     18  C   UNL     1       4.346  -4.254  -3.688  1.00  0.00     0.000 A 
ATOM     19  C   UNL     1       4.411  -5.642  -3.713  1.00  0.00     0.000 A 
ENDBRANCH  12  14
ENDBRANCH  10  12
ENDBRANCH   8  10
ENDBRANCH   6   8
ENDBRANCH   4   6
ENDBRANCH   3   4
ENDBRANCH   2   3
ENDBRANCH   1   2
BRANCH   1  20
ATOM     20  O   UNL     1       7.490  -1.893   0.902  1.00  0.00    -0.374 OA
BRANCH  20  21
ATOM     21  C   UNL     1       6.428  -2.305   0.054  1.00  0.00     0.202 C 
BRANCH  21  22
ATOM     22  C   UNL     1       5.971  -3.771   0.100  1.00  0.00     0.261 C 
BRANCH  22  23
ATOM     23  O   UNL     1       5.989  -4.385   1.393  1.00  0.00    -0.460 OA
BRANCH  23  24
ATOM     24  C   UNL     1       7.098  -5.138   1.612  1.00  0.00     0.338 C 
ATOM     25  O   UNL     1       8.005  -5.355   0.828  1.00  0.00    -0.246 OA
BRANCH  24  26
ATOM     26  C   UNL     1       7.145  -5.567   3.023  1.00  0.00     0.060 A 
ATOM     27  C   UNL     1       8.356  -5.392   3.700  1.00  0.00     0.016 A 
ATOM     28  C   UNL     1       6.061  -6.188   3.653  1.00  0.00     0.016 A 
ATOM     29  C   UNL     1       8.509  -5.891   4.989  1.00  0.00     0.010 A 
ATOM     30  C   UNL     1       6.218  -6.693   4.949  1.00  0.00     0.010 A 
ATOM     31  C   UNL     1       7.456  -6.581   5.606  1.00  0.00    -0.014 A 
BRANCH  31  32
ATOM     32  C   UNL     1       7.735  -7.304   6.870  1.00  0.00     0.031 A 
ATOM     33  C   UNL     1       8.063  -8.772   6.812  1.00  0.00     0.074 A 
ATOM     34  C   UNL     1       7.793  -6.635   8.036  1.00  0.00     0.049 A 
ATOM     35  N   UNL     1       8.457  -9.574   7.767  1.00  0.00    -0.248 NA
ATOM     36  C   UNL     1       7.927  -9.420   5.499  1.00  0.00     0.031 C 
ATOM     37  C   UNL     1       7.507  -5.210   8.203  1.00  0.00     0.029 A 
ATOM     38  N   UNL     1       8.129  -7.061   9.295  1.00  0.00    -0.354 N 
ATOM     39  C   UNL     1       8.645 -10.814   7.167  1.00  0.00     0.074 A 
ATOM     40  C   UNL     1       8.258 -10.671   5.779  1.00  0.00     0.031 C 
ATOM     41  C   UNL     1       7.685  -4.879   9.493  1.00  0.00     0.029 A 
ATOM     42  C   UNL     1       8.086  -6.066  10.244  1.00  0.00     0.049 A 
ATOM     43  H   UNL     1       8.376  -7.991   9.501  1.00  0.00     0.167 HD
ATOM     44  C   UNL     1       9.118 -11.961   7.716  1.00  0.00     0.034 A 
ATOM     45  C   UNL     1       8.347  -6.112  11.565  1.00  0.00     0.034 A 
ATOM     46  C   UNL     1       9.468 -12.095   9.110  1.00  0.00     0.049 A 
ATOM     47  C   UNL     1       8.832  -7.409  12.164  1.00  0.00     0.074 A 
ATOM     48  C   UNL     1       9.924 -13.213   9.786  1.00  0.00     0.029 A 
ATOM     49  N   UNL     1       9.392 -11.071  10.047  1.00  0.00    -0.354 N 
ATOM     50  N   UNL     1       9.023  -8.571  11.579  1.00  0.00    -0.248 NA
ATOM     51  C   UNL     1       9.165  -7.393  13.594  1.00  0.00     0.031 C 
ATOM     52  C   UNL     1      10.072 -12.880  11.138  1.00  0.00     0.029 A 
ATOM     53  C   UNL     1       9.775 -11.535  11.296  1.00  0.00     0.049 A 
ATOM     54  H   UNL     1       9.107 -10.149   9.852  1.00  0.00     0.167 HD
ATOM     55  C   UNL     1       9.521  -9.416  12.568  1.00  0.00     0.074 A 
ATOM     56  C   UNL     1       9.628  -8.620  13.774  1.00  0.00     0.031 C 
ATOM     57  C   UNL     1       9.856 -10.730  12.492  1.00  0.00     0.034 A 
BRANCH  44  58
ATOM     58  C   UNL     1       9.242 -13.159   6.805  1.00  0.00     0.023 A 
ATOM     59  C   UNL     1      10.136 -13.167   5.719  1.00  0.00     0.031 A 
ATOM     60  C   UNL     1       8.431 -14.291   6.997  1.00  0.00     0.131 A 
ATOM     61  C   UNL     1      10.149 -14.252   4.829  1.00  0.00     0.055 A 
ATOM     62  C   UNL     1       8.502 -15.400   6.151  1.00  0.00     0.041 A 
ATOM     63  F   UNL     1       7.542 -14.332   8.002  1.00  0.00    -0.206 F 
ATOM     64  C   UNL     1       9.355 -15.379   5.051  1.00  0.00     0.022 A 
BRANCH  61  65
ATOM     65  S   UNL     1      11.120 -14.114   3.303  1.00  0.00     0.124 S 
ATOM     66  O   UNL     1      10.493 -12.963   2.658  1.00  0.00    -0.237 OA
ATOM     67  O   UNL     1      12.473 -13.909   3.806  1.00  0.00    -0.237 OA
ATOM     68  O   UNL     1      10.891 -15.394   2.634  1.00  0.00    -0.744 OA
ENDBRANCH  61  65
ENDBRANCH  44  58
BRANCH  45  69
ATOM     69  C   UNL     1       8.143  -4.905  12.418  1.00  0.00     0.023 A 
ATOM     70  C   UNL     1       9.211  -4.284  13.084  1.00  0.00     0.031 A 
ATOM     71  C   UNL     1       6.850  -4.388  12.621  1.00  0.00     0.131 A 
ATOM     72  C   UNL     1       8.963  -3.216  13.961  1.00  0.00     0.055 A 
ATOM     73  C   UNL     1       6.615  -3.293  13.455  1.00  0.00     0.041 A 
ATOM     74  F   UNL     1       5.793  -4.941  12.005  1.00  0.00    -0.206 F 
ATOM     75  C   UNL     1       7.674  -2.710  14.143  1.00  0.00     0.022 A 
BRANCH  72  76
ATOM     76  S   UNL     1      10.341  -2.553  14.938  1.00  0.00     0.124 S 
ATOM     77  O   UNL     1      10.829  -3.748  15.617  1.00  0.00    -0.237 OA
ATOM     78  O   UNL     1      11.208  -2.005  13.900  1.00  0.00    -0.237 OA
ATOM     79  O   UNL     1       9.700  -1.562  15.800  1.00  0.00    -0.744 OA
ENDBRANCH  72  76
ENDBRANCH  45  69
BRANCH  57  80
ATOM     80  C   UNL     1      10.395 -11.365  13.752  1.00  0.00     0.023 A 
ATOM     81  C   UNL     1       9.596 -11.516  14.899  1.00  0.00     0.031 A 
ATOM     82  C   UNL     1      11.736 -11.782  13.820  1.00  0.00     0.131 A 
ATOM     83  C   UNL     1      10.165 -11.996  16.088  1.00  0.00     0.055 A 
ATOM     84  C   UNL     1      12.279 -12.319  14.988  1.00  0.00     0.041 A 
ATOM     85  F   UNL     1      12.544 -11.662  12.755  1.00  0.00    -0.206 F 
ATOM     86  C   UNL     1      11.498 -12.411  16.136  1.00  0.00     0.022 A 
BRANCH  83  87
ATOM     87  S   UNL     1       9.170 -11.951  17.605  1.00  0.00     0.124 S 
ATOM     88  O   UNL     1       8.773 -10.548  17.667  1.00  0.00    -0.237 OA
ATOM     89  O   UNL     1       8.105 -12.902  17.306  1.00  0.00    -0.237 OA
ATOM     90  O   UNL     1      10.108 -12.376  18.642  1.00  0.00    -0.744 OA
ENDBRANCH  83  87
ENDBRANCH  57  80
ENDBRANCH  31  32
ENDBRANCH  24  26
ENDBRANCH  23  24
ENDBRANCH  22  23
ENDBRANCH  21  22
ENDBRANCH  20  21
ENDBRANCH   1  20
TORSDOF 21
