REMARK SMILES Cc1c(Cc2ccccc2)c(=O)oc2cc(OCC(=O)N[C@H](C)C(=O)OCCOCCOC(=O)c3ccc(-c4c5nc(c(-c6cc(S(=O)(=O)[O-])ccc6F)c6ccc([nH]6)c(-c6cc(S(=O)(=O)[O-])ccc6F)c6nc(c(-c7cc(S(=O)(=O)[O-])ccc7F)c7ccc4[nH]7)C=C6)C=C5)cc3)ccc12
REMARK SMILES IDX 27 1 26 2 24 3 25 4 22 5 23 6 21 7 19 8 20 9 18 11 17 12
REMARK SMILES IDX 16 13 1 14 2 15 3 16 100 17 11 18 14 19 99 20 12 21 13 22
REMARK SMILES IDX 15 23 98 24 4 25 5 26 6 27 10 28 7 29 9 30 8 31 28 32 29 33
REMARK SMILES IDX 30 34 31 35 32 36 33 37 34 38 35 39 36 40 97 41 37 42 96 43
REMARK SMILES IDX 38 44 39 45 40 46 90 47 41 48 95 49 89 50 91 51 42 52 94 53
REMARK SMILES IDX 88 54 87 55 43 57 75 58 55 59 74 60 56 61 59 62 73 63 92 64
REMARK SMILES IDX 57 65 58 66 72 68 93 69 60 70 44 71 45 72 53 73 46 74 52 75
REMARK SMILES IDX 54 76 51 77 47 78 48 79 49 80 50 81 76 82 77 83 85 84 78 85
REMARK SMILES IDX 84 86 86 87 83 88 79 89 80 90 81 91 82 92 61 93 62 94 70 95
REMARK SMILES IDX 63 96 69 97 71 98 68 99 64 100 65 101 66 102 67 103
REMARK H PARENT 21 10 91 56 59 67
REMARK Flexibility Score: inf
ROOT
ATOM      1  C   UNL     1       6.762   4.545  -5.135  1.00  0.00     0.261 C 
ENDROOT
BRANCH   1   2
ATOM      2  O   UNL     1       5.664   3.915  -4.449  1.00  0.00    -0.462 OA
BRANCH   2   3
ATOM      3  C   UNL     1       6.000   2.928  -3.575  1.00  0.00     0.328 C 
ATOM      4  O   UNL     1       7.127   2.467  -3.429  1.00  0.00    -0.250 OA
BRANCH   3   5
ATOM      5  C   UNL     1       4.774   2.341  -2.870  1.00  0.00     0.189 C 
ATOM      6  C   UNL     1       3.748   3.347  -2.380  1.00  0.00     0.043 C 
BRANCH   5   7
ATOM      7  N   UNL     1       4.308   1.197  -3.645  1.00  0.00    -0.340 N 
ATOM      8  C   UNL     1       3.487   1.104  -4.723  1.00  0.00     0.258 C 
ATOM      9  O   UNL     1       3.586   0.085  -5.413  1.00  0.00    -0.271 OA
ATOM     10  H   UNL     1       4.652   0.331  -3.328  1.00  0.00     0.164 HD
BRANCH   8  11
ATOM     11  C   UNL     1       2.453   2.184  -5.069  1.00  0.00     0.329 C 
BRANCH  11  12
ATOM     12  O   UNL     1       1.493   2.560  -4.094  1.00  0.00    -0.484 OA
BRANCH  12  13
ATOM     13  C   UNL     1       0.767   1.592  -3.463  1.00  0.00     0.123 A 
ATOM     14  C   UNL     1      -2.512  -0.655  -0.134  1.00  0.00     0.046 C 
ATOM     15  C   UNL     1      -1.494  -1.202  -1.100  1.00  0.00    -0.029 A 
ATOM     16  C   UNL     1      -1.260  -2.518  -1.309  1.00  0.00     0.046 A 
ATOM     17  C   UNL     1      -0.723  -0.211  -1.870  1.00  0.00     0.021 A 
ATOM     18  C   UNL     1      -0.346  -2.968  -2.401  1.00  0.00     0.340 A 
ATOM     19  C   UNL     1      -0.004  -0.637  -2.980  1.00  0.00     0.142 A 
ATOM     20  C   UNL     1      -0.674   1.151  -1.554  1.00  0.00     0.016 A 
ATOM     21  O   UNL     1      -0.061  -4.151  -2.562  1.00  0.00    -0.246 OA
ATOM     22  O   UNL     1       0.097  -2.002  -3.291  1.00  0.00    -0.422 OA
ATOM     23  C   UNL     1       0.698   0.247  -3.807  1.00  0.00     0.094 A 
ATOM     24  C   UNL     1       0.068   2.039  -2.340  1.00  0.00     0.047 A 
BRANCH  16  25
ATOM     25  C   UNL     1      -1.934  -3.657  -0.571  1.00  0.00     0.079 C 
BRANCH  25  26
ATOM     26  C   UNL     1      -1.246  -4.075   0.716  1.00  0.00    -0.043 A 
ATOM     27  C   UNL     1      -0.589  -5.311   0.802  1.00  0.00     0.004 A 
ATOM     28  C   UNL     1      -1.287  -3.265   1.861  1.00  0.00     0.004 A 
ATOM     29  C   UNL     1      -0.007  -5.727   2.004  1.00  0.00     0.000 A 
ATOM     30  C   UNL     1      -0.696  -3.675   3.057  1.00  0.00     0.000 A 
ATOM     31  C   UNL     1      -0.061  -4.910   3.131  1.00  0.00     0.000 A 
ENDBRANCH  25  26
ENDBRANCH  16  25
ENDBRANCH  12  13
ENDBRANCH  11  12
ENDBRANCH   8  11
ENDBRANCH   5   7
ENDBRANCH   3   5
ENDBRANCH   2   3
ENDBRANCH   1   2
BRANCH   1  32
ATOM     32  C   UNL     1       6.757   6.058  -4.907  1.00  0.00     0.202 C 
BRANCH  32  33
ATOM     33  O   UNL     1       6.976   6.494  -3.564  1.00  0.00    -0.374 OA
BRANCH  33  34
ATOM     34  C   UNL     1       5.899   6.346  -2.643  1.00  0.00     0.202 C 
BRANCH  34  35
ATOM     35  C   UNL     1       4.741   7.348  -2.739  1.00  0.00     0.261 C 
BRANCH  35  36
ATOM     36  O   UNL     1       4.048   7.288  -3.998  1.00  0.00    -0.460 OA
BRANCH  36  37
ATOM     37  C   UNL     1       4.265   8.358  -4.804  1.00  0.00     0.338 C 
ATOM     38  O   UNL     1       4.923   9.354  -4.535  1.00  0.00    -0.246 OA
BRANCH  37  39
ATOM     39  C   UNL     1       3.750   8.095  -6.160  1.00  0.00     0.060 A 
ATOM     40  C   UNL     1       4.637   8.274  -7.230  1.00  0.00     0.016 A 
ATOM     41  C   UNL     1       2.415   7.758  -6.395  1.00  0.00     0.016 A 
ATOM     42  C   UNL     1       4.181   8.166  -8.542  1.00  0.00     0.010 A 
ATOM     43  C   UNL     1       1.957   7.660  -7.715  1.00  0.00     0.010 A 
ATOM     44  C   UNL     1       2.830   7.897  -8.794  1.00  0.00    -0.014 A 
BRANCH  44  45
ATOM     45  C   UNL     1       2.309   8.024 -10.179  1.00  0.00     0.031 A 
ATOM     46  C   UNL     1       1.600   9.291 -10.576  1.00  0.00     0.074 A 
ATOM     47  C   UNL     1       2.506   7.047 -11.082  1.00  0.00     0.049 A 
ATOM     48  N   UNL     1       1.045   9.612 -11.716  1.00  0.00    -0.248 NA
ATOM     49  C   UNL     1       1.507  10.334  -9.544  1.00  0.00     0.031 C 
ATOM     50  C   UNL     1       3.230   5.802 -10.832  1.00  0.00     0.029 A 
ATOM     51  N   UNL     1       2.114   6.952 -12.394  1.00  0.00    -0.354 N 
ATOM     52  C   UNL     1       0.537  10.895 -11.542  1.00  0.00     0.074 A 
ATOM     53  C   UNL     1       0.811  11.271 -10.170  1.00  0.00     0.031 C 
ATOM     54  C   UNL     1       3.229   5.065 -11.957  1.00  0.00     0.029 A 
ATOM     55  C   UNL     1       2.471   5.766 -12.992  1.00  0.00     0.049 A 
ATOM     56  H   UNL     1       1.624   7.665 -12.863  1.00  0.00     0.167 HD
ATOM     57  C   UNL     1      -0.089  11.691 -12.445  1.00  0.00     0.034 A 
ATOM     58  C   UNL     1       2.197   5.293 -14.224  1.00  0.00     0.034 A 
ATOM     59  C   UNL     1      -0.372  11.295 -13.803  1.00  0.00     0.049 A 
ATOM     60  C   UNL     1       1.395   6.149 -15.176  1.00  0.00     0.074 A 
ATOM     61  C   UNL     1      -0.998  12.021 -14.803  1.00  0.00     0.029 A 
ATOM     62  N   UNL     1      -0.061  10.056 -14.352  1.00  0.00    -0.354 N 
ATOM     63  N   UNL     1       0.918   7.360 -15.000  1.00  0.00    -0.248 NA
ATOM     64  C   UNL     1       1.099   5.572 -16.494  1.00  0.00     0.031 C 
ATOM     65  C   UNL     1      -1.131  11.197 -15.927  1.00  0.00     0.029 A 
ATOM     66  C   UNL     1      -0.515   9.985 -15.660  1.00  0.00     0.049 A 
ATOM     67  H   UNL     1       0.414   9.334 -13.880  1.00  0.00     0.167 HD
ATOM     68  C   UNL     1       0.296   7.701 -16.199  1.00  0.00     0.074 A 
ATOM     69  C   UNL     1       0.467   6.573 -17.091  1.00  0.00     0.031 C 
ATOM     70  C   UNL     1      -0.350   8.847 -16.536  1.00  0.00     0.034 A 
BRANCH  57  71
ATOM     71  C   UNL     1      -0.557  13.045 -11.963  1.00  0.00     0.023 A 
ATOM     72  C   UNL     1       0.348  14.026 -11.520  1.00  0.00     0.031 A 
ATOM     73  C   UNL     1      -1.930  13.342 -11.902  1.00  0.00     0.131 A 
ATOM     74  C   UNL     1      -0.132  15.220 -10.961  1.00  0.00     0.055 A 
ATOM     75  C   UNL     1      -2.398  14.567 -11.423  1.00  0.00     0.041 A 
ATOM     76  F   UNL     1      -2.843  12.437 -12.287  1.00  0.00    -0.206 F 
ATOM     77  C   UNL     1      -1.498  15.508 -10.932  1.00  0.00     0.022 A 
BRANCH  74  78
ATOM     78  S   UNL     1       1.044  16.320 -10.124  1.00  0.00     0.124 S 
ATOM     79  O   UNL     1       1.619  15.427  -9.120  1.00  0.00    -0.237 OA
ATOM     80  O   UNL     1       1.932  16.717 -11.211  1.00  0.00    -0.237 OA
ATOM     81  O   UNL     1       0.197  17.384  -9.588  1.00  0.00    -0.744 OA
ENDBRANCH  74  78
ENDBRANCH  57  71
BRANCH  58  82
ATOM     82  C   UNL     1       2.646   3.929 -14.628  1.00  0.00     0.023 A 
ATOM     83  C   UNL     1       3.551   3.748 -15.685  1.00  0.00     0.031 A 
ATOM     84  C   UNL     1       2.129   2.783 -13.997  1.00  0.00     0.131 A 
ATOM     85  C   UNL     1       3.879   2.450 -16.110  1.00  0.00     0.055 A 
ATOM     86  C   UNL     1       2.500   1.495 -14.388  1.00  0.00     0.041 A 
ATOM     87  F   UNL     1       1.257   2.900 -12.983  1.00  0.00    -0.206 F 
ATOM     88  C   UNL     1       3.371   1.324 -15.460  1.00  0.00     0.022 A 
BRANCH  85  89
ATOM     89  S   UNL     1       4.919   2.257 -17.583  1.00  0.00     0.124 S 
ATOM     90  O   UNL     1       4.130   2.947 -18.596  1.00  0.00    -0.237 OA
ATOM     91  O   UNL     1       6.154   2.917 -17.171  1.00  0.00    -0.237 OA
ATOM     92  O   UNL     1       5.014   0.807 -17.744  1.00  0.00    -0.744 OA
ENDBRANCH  85  89
ENDBRANCH  58  82
BRANCH  70  93
ATOM     93  C   UNL     1      -0.876   8.951 -17.948  1.00  0.00     0.023 A 
ATOM     94  C   UNL     1      -1.929   8.142 -18.410  1.00  0.00     0.031 A 
ATOM     95  C   UNL     1      -0.306   9.871 -18.847  1.00  0.00     0.131 A 
ATOM     96  C   UNL     1      -2.344   8.231 -19.748  1.00  0.00     0.055 A 
ATOM     97  C   UNL     1      -0.763   9.997 -20.160  1.00  0.00     0.041 A 
ATOM     98  F   UNL     1       0.703  10.668 -18.461  1.00  0.00    -0.206 F 
ATOM     99  C   UNL     1      -1.779   9.165 -20.621  1.00  0.00     0.022 A 
BRANCH  96 100
ATOM    100  S   UNL     1      -3.575   7.049 -20.361  1.00  0.00     0.124 S 
ATOM    101  O   UNL     1      -2.916   5.770 -20.118  1.00  0.00    -0.237 OA
ATOM    102  O   UNL     1      -4.733   7.339 -19.521  1.00  0.00    -0.237 OA
ATOM    103  O   UNL     1      -3.727   7.410 -21.770  1.00  0.00    -0.744 OA
ENDBRANCH  96 100
ENDBRANCH  70  93
ENDBRANCH  44  45
ENDBRANCH  37  39
ENDBRANCH  36  37
ENDBRANCH  35  36
ENDBRANCH  34  35
ENDBRANCH  33  34
ENDBRANCH  32  33
ENDBRANCH   1  32
TORSDOF 23
