REMARK SMILES C=CCn1nc(C(=O)OCCOCCOC(=O)c2ccc(-c3c4nc(c(-c5cc(S(=O)(=O)[O-])ccc5F)c5ccc([nH]5)c(-c5cc(S(=O)(=O)[O-])ccc5F)c5nc(c(-c6cc(S(=O)(=O)[O-])ccc6F)c6ccc3[nH]6)C=C5)C=C4)cc2)c2c1CC[C@@H]([NH2+]Cc1nc(C)cc(=O)[nH]1)C2
REMARK SMILES IDX 12 1 11 2 10 3 9 4 7 5 8 6 6 7 4 8 5 9 82 10 81 11 83 12
REMARK SMILES IDX 96 13 84 14 85 15 3 16 2 17 1 18 86 19 87 22 88 23 89 24
REMARK SMILES IDX 95 25 90 26 93 27 91 29 92 30 94 31 13 32 14 33 15 34 16 35
REMARK SMILES IDX 17 36 18 37 19 38 80 39 20 40 79 41 21 42 22 43 23 44 73 45
REMARK SMILES IDX 24 46 78 47 72 48 74 49 25 50 77 51 71 52 70 53 26 55 58 56
REMARK SMILES IDX 38 57 57 58 39 59 42 60 56 61 75 62 40 63 41 64 55 66 76 67
REMARK SMILES IDX 43 68 27 69 28 70 36 71 29 72 35 73 37 74 34 75 30 76 31 77
REMARK SMILES IDX 32 78 33 79 59 80 60 81 68 82 61 83 67 84 69 85 66 86 62 87
REMARK SMILES IDX 63 88 64 89 65 90 44 91 45 92 53 93 46 94 52 95 54 96 51 97
REMARK SMILES IDX 47 98 48 99 49 100 50 101
REMARK H PARENT 86 20 86 21 95 28 74 54 42 65
REMARK Flexibility Score: inf
ROOT
ATOM      1  O   UNL     1      -6.041   5.221  -3.873  1.00  0.00    -0.374 OA
ENDROOT
BRANCH   1   2
ATOM      2  C   UNL     1      -5.745   6.440  -3.193  1.00  0.00     0.202 C 
BRANCH   2   3
ATOM      3  C   UNL     1      -5.638   6.331  -1.674  1.00  0.00     0.261 C 
BRANCH   3   4
ATOM      4  O   UNL     1      -4.415   5.682  -1.288  1.00  0.00    -0.458 OA
BRANCH   4   5
ATOM      5  C   UNL     1      -4.520   4.376  -0.897  1.00  0.00     0.359 C 
ATOM      6  O   UNL     1      -5.588   3.788  -0.763  1.00  0.00    -0.244 OA
BRANCH   5   7
ATOM      7  C   UNL     1      -3.201   3.739  -0.715  1.00  0.00     0.174 A 
ATOM      8  N   UNL     1      -1.748   2.155  -0.589  1.00  0.00    -0.265 N 
ATOM      9  N   UNL     1      -3.076   2.397  -0.680  1.00  0.00    -0.165 NA
ATOM     10  C   UNL     1      -1.041   3.300  -0.345  1.00  0.00     0.043 A 
ATOM     11  C   UNL     1      -1.919   4.342  -0.598  1.00  0.00     0.014 A 
ATOM     12  C   UNL     1       0.422   3.439  -0.080  1.00  0.00     0.062 C 
ATOM     13  C   UNL     1      -1.472   5.764  -0.723  1.00  0.00     0.105 C 
ATOM     14  C   UNL     1       0.785   4.924   0.092  1.00  0.00     0.072 C 
ATOM     15  C   UNL     1       0.071   5.849  -0.929  1.00  0.00     0.187 C 
BRANCH   8  16
ATOM     16  C   UNL     1      -1.312   0.770  -0.803  1.00  0.00     0.171 C 
BRANCH  16  17
ATOM     17  C   UNL     1       0.160   0.538  -0.986  1.00  0.00    -0.011 C 
ATOM     18  C   UNL     1       0.945  -0.085  -0.096  1.00  0.00     0.006 C 
ENDBRANCH  16  17
ENDBRANCH   8  16
BRANCH  15  19
ATOM     19  N   UNL     1       0.576   5.650  -2.311  1.00  0.00    -0.337 N 
ATOM     20  H   UNL     1       1.550   5.353  -2.250  1.00  0.00     0.346 HD
ATOM     21  H   UNL     1       0.448   6.543  -2.787  1.00  0.00     0.346 HD
BRANCH  19  22
ATOM     22  C   UNL     1      -0.156   4.651  -3.117  1.00  0.00     0.337 C 
BRANCH  22  23
ATOM     23  C   UNL     1       0.556   4.397  -4.422  1.00  0.00     0.164 A 
ATOM     24  N   UNL     1       0.508   3.241  -5.000  1.00  0.00    -0.234 NA
ATOM     25  N   UNL     1       1.226   5.462  -4.918  1.00  0.00    -0.306 N 
ATOM     26  C   UNL     1       1.171   3.121  -6.201  1.00  0.00     0.045 A 
ATOM     27  C   UNL     1       1.937   5.404  -6.065  1.00  0.00     0.251 A 
ATOM     28  H   UNL     1       1.195   6.313  -4.423  1.00  0.00     0.171 HD
ATOM     29  C   UNL     1       1.121   1.753  -6.819  1.00  0.00     0.067 C 
ATOM     30  C   UNL     1       1.847   4.124  -6.788  1.00  0.00     0.095 A 
ATOM     31  O   UNL     1       2.638   6.347  -6.393  1.00  0.00    -0.270 OA
ENDBRANCH  22  23
ENDBRANCH  19  22
ENDBRANCH  15  19
ENDBRANCH   5   7
ENDBRANCH   4   5
ENDBRANCH   3   4
ENDBRANCH   2   3
ENDBRANCH   1   2
BRANCH   1  32
ATOM     32  C   UNL     1      -4.959   4.342  -4.182  1.00  0.00     0.202 C 
BRANCH  32  33
ATOM     33  C   UNL     1      -4.107   4.711  -5.389  1.00  0.00     0.261 C 
BRANCH  33  34
ATOM     34  O   UNL     1      -3.370   5.903  -5.144  1.00  0.00    -0.460 OA
BRANCH  34  35
ATOM     35  C   UNL     1      -3.914   7.040  -5.658  1.00  0.00     0.338 C 
ATOM     36  O   UNL     1      -5.014   7.184  -6.129  1.00  0.00    -0.246 OA
BRANCH  35  37
ATOM     37  C   UNL     1      -2.848   8.057  -5.666  1.00  0.00     0.060 A 
ATOM     38  C   UNL     1      -3.000   9.085  -6.595  1.00  0.00     0.016 A 
ATOM     39  C   UNL     1      -1.613   7.765  -5.080  1.00  0.00     0.016 A 
ATOM     40  C   UNL     1      -1.863   9.579  -7.195  1.00  0.00     0.010 A 
ATOM     41  C   UNL     1      -0.489   8.238  -5.702  1.00  0.00     0.010 A 
ATOM     42  C   UNL     1      -0.633   9.032  -6.833  1.00  0.00    -0.014 A 
BRANCH  42  43
ATOM     43  C   UNL     1       0.558   9.388  -7.570  1.00  0.00     0.031 A 
ATOM     44  C   UNL     1       1.128  10.657  -7.075  1.00  0.00     0.074 A 
ATOM     45  C   UNL     1       1.132   8.584  -8.488  1.00  0.00     0.049 A 
ATOM     46  N   UNL     1       0.986  11.825  -7.606  1.00  0.00    -0.248 NA
ATOM     47  C   UNL     1       1.656  10.689  -5.698  1.00  0.00     0.031 C 
ATOM     48  C   UNL     1       0.808   7.203  -8.850  1.00  0.00     0.029 A 
ATOM     49  N   UNL     1       2.225   8.836  -9.253  1.00  0.00    -0.354 N 
ATOM     50  C   UNL     1       1.653  12.689  -6.752  1.00  0.00     0.074 A 
ATOM     51  C   UNL     1       1.746  12.003  -5.496  1.00  0.00     0.031 C 
ATOM     52  C   UNL     1       1.830   6.677  -9.574  1.00  0.00     0.029 A 
ATOM     53  C   UNL     1       2.813   7.717  -9.840  1.00  0.00     0.049 A 
ATOM     54  H   UNL     1       2.578   9.746  -9.384  1.00  0.00     0.167 HD
ATOM     55  C   UNL     1       2.350  13.751  -7.236  1.00  0.00     0.034 A 
ATOM     56  C   UNL     1       4.044   7.671 -10.434  1.00  0.00     0.034 A 
ATOM     57  C   UNL     1       1.976  14.023  -8.609  1.00  0.00     0.049 A 
ATOM     58  C   UNL     1       4.387   9.082 -10.775  1.00  0.00     0.074 A 
ATOM     59  C   UNL     1       0.785  14.337  -9.237  1.00  0.00     0.029 A 
ATOM     60  N   UNL     1       2.809  13.560  -9.607  1.00  0.00    -0.354 N 
ATOM     61  N   UNL     1       3.721   9.780 -11.656  1.00  0.00    -0.248 NA
ATOM     62  C   UNL     1       5.094   9.874  -9.774  1.00  0.00     0.031 C 
ATOM     63  C   UNL     1       0.799  13.586 -10.450  1.00  0.00     0.029 A 
ATOM     64  C   UNL     1       2.029  12.931 -10.549  1.00  0.00     0.049 A 
ATOM     65  H   UNL     1       3.788  13.663  -9.639  1.00  0.00     0.167 HD
ATOM     66  C   UNL     1       3.562  11.035 -11.085  1.00  0.00     0.074 A 
ATOM     67  C   UNL     1       4.502  11.060  -9.963  1.00  0.00     0.031 C 
ATOM     68  C   UNL     1       2.477  11.818 -11.371  1.00  0.00     0.034 A 
BRANCH  55  69
ATOM     69  C   UNL     1       3.624  14.284  -6.617  1.00  0.00     0.023 A 
ATOM     70  C   UNL     1       4.214  15.394  -7.244  1.00  0.00     0.031 A 
ATOM     71  C   UNL     1       4.422  13.639  -5.640  1.00  0.00     0.131 A 
ATOM     72  C   UNL     1       5.546  15.752  -6.976  1.00  0.00     0.055 A 
ATOM     73  C   UNL     1       5.723  14.039  -5.330  1.00  0.00     0.041 A 
ATOM     74  F   UNL     1       4.043  12.535  -4.988  1.00  0.00    -0.206 F 
ATOM     75  C   UNL     1       6.306  15.081  -6.023  1.00  0.00     0.022 A 
BRANCH  72  76
ATOM     76  S   UNL     1       6.322  17.002  -8.026  1.00  0.00     0.124 S 
ATOM     77  O   UNL     1       6.066  16.469  -9.359  1.00  0.00    -0.237 OA
ATOM     78  O   UNL     1       5.580  18.203  -7.656  1.00  0.00    -0.237 OA
ATOM     79  O   UNL     1       7.720  16.977  -7.601  1.00  0.00    -0.744 OA
ENDBRANCH  72  76
ENDBRANCH  55  69
BRANCH  56  80
ATOM     80  C   UNL     1       5.069   6.577 -10.354  1.00  0.00     0.023 A 
ATOM     81  C   UNL     1       6.142   6.416 -11.261  1.00  0.00     0.031 A 
ATOM     82  C   UNL     1       5.136   5.789  -9.185  1.00  0.00     0.131 A 
ATOM     83  C   UNL     1       7.199   5.507 -10.972  1.00  0.00     0.055 A 
ATOM     84  C   UNL     1       6.184   4.913  -8.893  1.00  0.00     0.041 A 
ATOM     85  F   UNL     1       4.204   5.895  -8.237  1.00  0.00    -0.206 F 
ATOM     86  C   UNL     1       7.227   4.772  -9.786  1.00  0.00     0.022 A 
BRANCH  83  87
ATOM     87  S   UNL     1       8.603   5.294 -12.120  1.00  0.00     0.124 S 
ATOM     88  O   UNL     1       7.960   4.719 -13.296  1.00  0.00    -0.237 OA
ATOM     89  O   UNL     1       9.110   6.654 -12.254  1.00  0.00    -0.237 OA
ATOM     90  O   UNL     1       9.496   4.378 -11.405  1.00  0.00    -0.744 OA
ENDBRANCH  83  87
ENDBRANCH  56  80
BRANCH  68  91
ATOM     91  C   UNL     1       1.561  11.392 -12.509  1.00  0.00     0.023 A 
ATOM     92  C   UNL     1       0.863  10.161 -12.580  1.00  0.00     0.031 A 
ATOM     93  C   UNL     1       1.289  12.347 -13.504  1.00  0.00     0.131 A 
ATOM     94  C   UNL     1      -0.057   9.927 -13.625  1.00  0.00     0.055 A 
ATOM     95  C   UNL     1       0.363  12.121 -14.521  1.00  0.00     0.041 A 
ATOM     96  F   UNL     1       1.898  13.544 -13.481  1.00  0.00    -0.206 F 
ATOM     97  C   UNL     1      -0.310  10.908 -14.589  1.00  0.00     0.022 A 
BRANCH  94  98
ATOM     98  S   UNL     1      -0.933   8.332 -13.769  1.00  0.00     0.124 S 
ATOM     99  O   UNL     1       0.127   7.344 -13.607  1.00  0.00    -0.237 OA
ATOM    100  O   UNL     1      -1.908   8.409 -12.684  1.00  0.00    -0.237 OA
ATOM    101  O   UNL     1      -1.516   8.384 -15.112  1.00  0.00    -0.744 OA
ENDBRANCH  94  98
ENDBRANCH  68  91
ENDBRANCH  42  43
ENDBRANCH  35  37
ENDBRANCH  34  35
ENDBRANCH  33  34
ENDBRANCH  32  33
ENDBRANCH   1  32
TORSDOF 22
