REMARK SMILES C[C@H]1CCc2sc3ncn4nc(/C=C\C(=O)OCCOCCOC(=O)c5ccc(-c6c7nc(c(-c8cc(S(=O)(=O)[O-])ccc8F)c8ccc([nH]8)c(-c8cc(S(=O)(=O)[O-])ccc8F)c8nc(c(-c9cc(S(=O)(=O)[O-])ccc9F)c9ccc6[nH]9)C=C8)C=C7)cc5)nc4c3c2C1
REMARK SMILES IDX 21 1 20 2 19 3 18 4 17 5 15 6 16 7 14 8 13 9 12 10 1 11 2 12
REMARK SMILES IDX 3 13 93 14 4 15 92 16 5 17 91 18 6 19 7 20 90 21 8 22 10 23
REMARK SMILES IDX 89 24 9 25 11 26 22 27 23 28 24 29 25 30 26 31 27 32 88 33
REMARK SMILES IDX 28 34 87 35 29 36 30 37 31 38 81 39 32 40 86 41 80 42 82 43
REMARK SMILES IDX 33 44 85 45 79 46 78 47 34 49 66 50 46 51 65 52 47 53 50 54
REMARK SMILES IDX 64 55 83 56 48 57 49 58 63 60 84 61 51 62 35 63 36 64 44 65
REMARK SMILES IDX 37 66 43 67 45 68 42 69 38 70 39 71 40 72 41 73 67 74 68 75
REMARK SMILES IDX 76 76 69 77 75 78 77 79 74 80 70 81 71 82 72 83 73 84 52 85
REMARK SMILES IDX 53 86 61 87 54 88 60 89 62 90 59 91 55 92 56 93 57 94 58 95
REMARK H PARENT 82 48 50 59
REMARK Flexibility Score: inf
ROOT
ATOM      1  C   UNL     1      -1.743  -4.414   1.464  1.00  0.00     0.202 C 
ENDROOT
BRANCH   1   2
ATOM      2  O   UNL     1      -0.688  -3.515   1.795  1.00  0.00    -0.374 OA
BRANCH   2   3
ATOM      3  C   UNL     1      -0.220  -2.642   0.766  1.00  0.00     0.202 C 
BRANCH   3   4
ATOM      4  C   UNL     1       0.694  -3.302  -0.262  1.00  0.00     0.261 C 
BRANCH   4   5
ATOM      5  O   UNL     1      -0.091  -4.078  -1.181  1.00  0.00    -0.460 OA
BRANCH   5   6
ATOM      6  C   UNL     1       0.138  -5.399  -1.229  1.00  0.00     0.330 C 
ATOM      7  O   UNL     1       1.014  -6.002  -0.622  1.00  0.00    -0.247 OA
BRANCH   6   8
ATOM      8  C   UNL     1      -0.905  -6.139  -1.969  1.00  0.00     0.097 C 
ATOM      9  C   UNL     1      -1.765  -5.809  -2.945  1.00  0.00     0.058 C 
BRANCH   9  10
ATOM     10  C   UNL     1      -1.986  -4.600  -3.666  1.00  0.00     0.175 A 
ATOM     11  C   UNL     1       1.905   0.773  -2.482  1.00  0.00     0.008 C 
ATOM     12  C   UNL     1       0.533   0.760  -1.801  1.00  0.00    -0.009 C 
ATOM     13  C   UNL     1      -0.222   2.095  -1.991  1.00  0.00     0.009 C 
ATOM     14  C   UNL     1      -0.319  -0.435  -2.268  1.00  0.00     0.041 C 
ATOM     15  C   UNL     1      -0.692   2.351  -3.438  1.00  0.00     0.047 C 
ATOM     16  C   UNL     1      -1.089  -0.165  -3.513  1.00  0.00    -0.020 A 
ATOM     17  C   UNL     1      -1.260   1.101  -4.037  1.00  0.00     0.011 A 
ATOM     18  C   UNL     1      -1.769  -1.111  -4.303  1.00  0.00     0.060 A 
ATOM     19  S   UNL     1      -2.164   1.099  -5.490  1.00  0.00    -0.120 S 
ATOM     20  C   UNL     1      -2.381  -0.601  -5.435  1.00  0.00     0.129 A 
ATOM     21  C   UNL     1      -1.925  -2.561  -4.136  1.00  0.00     0.168 A 
ATOM     22  N   UNL     1      -3.067  -1.301  -6.403  1.00  0.00    -0.225 NA
ATOM     23  N   UNL     1      -2.630  -3.223  -5.088  1.00  0.00    -0.201 N 
ATOM     24  N   UNL     1      -1.500  -3.395  -3.224  1.00  0.00    -0.207 NA
ATOM     25  C   UNL     1      -3.179  -2.594  -6.206  1.00  0.00     0.227 A 
ATOM     26  N   UNL     1      -2.689  -4.540  -4.815  1.00  0.00    -0.145 NA
ENDBRANCH   9  10
ENDBRANCH   6   8
ENDBRANCH   5   6
ENDBRANCH   4   5
ENDBRANCH   3   4
ENDBRANCH   2   3
ENDBRANCH   1   2
BRANCH   1  27
ATOM     27  C   UNL     1      -3.132  -3.806   1.338  1.00  0.00     0.261 C 
BRANCH  27  28
ATOM     28  O   UNL     1      -3.283  -3.050   0.138  1.00  0.00    -0.460 OA
BRANCH  28  29
ATOM     29  C   UNL     1      -3.400  -1.716   0.325  1.00  0.00     0.338 C 
ATOM     30  O   UNL     1      -2.904  -1.059   1.232  1.00  0.00    -0.246 OA
BRANCH  29  31
ATOM     31  C   UNL     1      -4.413  -1.203  -0.605  1.00  0.00     0.060 A 
ATOM     32  C   UNL     1      -4.920   0.068  -0.331  1.00  0.00     0.016 A 
ATOM     33  C   UNL     1      -5.037  -2.062  -1.526  1.00  0.00     0.016 A 
ATOM     34  C   UNL     1      -6.163   0.398  -0.825  1.00  0.00     0.010 A 
ATOM     35  C   UNL     1      -6.284  -1.733  -2.012  1.00  0.00     0.010 A 
ATOM     36  C   UNL     1      -6.866  -0.542  -1.590  1.00  0.00    -0.014 A 
BRANCH  36  37
ATOM     37  C   UNL     1      -8.195  -0.182  -2.040  1.00  0.00     0.031 A 
ATOM     38  C   UNL     1      -8.172   0.875  -3.073  1.00  0.00     0.074 A 
ATOM     39  C   UNL     1      -9.327  -0.759  -1.596  1.00  0.00     0.049 A 
ATOM     40  N   UNL     1      -8.479   2.116  -2.908  1.00  0.00    -0.248 NA
ATOM     41  C   UNL     1      -7.543   0.577  -4.367  1.00  0.00     0.031 C 
ATOM     42  C   UNL     1      -9.494  -1.931  -0.739  1.00  0.00     0.029 A 
ATOM     43  N   UNL     1     -10.610  -0.420  -1.897  1.00  0.00    -0.354 N 
ATOM     44  C   UNL     1      -8.302   2.717  -4.145  1.00  0.00     0.074 A 
ATOM     45  C   UNL     1      -7.544   1.784  -4.936  1.00  0.00     0.031 C 
ATOM     46  C   UNL     1     -10.788  -2.332  -0.775  1.00  0.00     0.029 A 
ATOM     47  C   UNL     1     -11.562  -1.372  -1.549  1.00  0.00     0.049 A 
ATOM     48  H   UNL     1     -10.846   0.433  -2.327  1.00  0.00     0.167 HD
ATOM     49  C   UNL     1      -9.005   3.832  -4.480  1.00  0.00     0.034 A 
ATOM     50  C   UNL     1     -12.874  -1.382  -1.920  1.00  0.00     0.034 A 
ATOM     51  C   UNL     1      -9.566   4.466  -3.308  1.00  0.00     0.049 A 
ATOM     52  C   UNL     1     -13.232   0.036  -2.202  1.00  0.00     0.074 A 
ATOM     53  C   UNL     1      -9.028   5.009  -2.156  1.00  0.00     0.029 A 
ATOM     54  N   UNL     1     -10.895   4.240  -3.023  1.00  0.00    -0.354 N 
ATOM     55  N   UNL     1     -13.235   0.960  -1.277  1.00  0.00    -0.248 NA
ATOM     56  C   UNL     1     -13.065   0.528  -3.564  1.00  0.00     0.031 C 
ATOM     57  C   UNL     1      -9.911   4.602  -1.113  1.00  0.00     0.029 A 
ATOM     58  C   UNL     1     -10.976   3.909  -1.692  1.00  0.00     0.049 A 
ATOM     59  H   UNL     1     -11.646   4.303  -3.656  1.00  0.00     0.167 HD
ATOM     60  C   UNL     1     -12.642   2.066  -1.870  1.00  0.00     0.074 A 
ATOM     61  C   UNL     1     -12.632   1.766  -3.303  1.00  0.00     0.031 C 
ATOM     62  C   UNL     1     -11.953   2.990  -1.137  1.00  0.00     0.034 A 
BRANCH  49  63
ATOM     63  C   UNL     1      -9.503   4.135  -5.871  1.00  0.00     0.023 A 
ATOM     64  C   UNL     1     -10.201   5.342  -6.053  1.00  0.00     0.031 A 
ATOM     65  C   UNL     1      -9.597   3.200  -6.927  1.00  0.00     0.131 A 
ATOM     66  C   UNL     1     -11.026   5.534  -7.174  1.00  0.00     0.055 A 
ATOM     67  C   UNL     1     -10.369   3.422  -8.069  1.00  0.00     0.041 A 
ATOM     68  F   UNL     1      -9.037   1.986  -6.877  1.00  0.00    -0.206 F 
ATOM     69  C   UNL     1     -11.117   4.579  -8.183  1.00  0.00     0.022 A 
BRANCH  66  70
ATOM     70  S   UNL     1     -12.105   6.986  -7.205  1.00  0.00     0.124 S 
ATOM     71  O   UNL     1     -12.858   6.821  -5.966  1.00  0.00    -0.237 OA
ATOM     72  O   UNL     1     -11.138   8.079  -7.231  1.00  0.00    -0.237 OA
ATOM     73  O   UNL     1     -12.876   6.808  -8.433  1.00  0.00    -0.744 OA
ENDBRANCH  66  70
ENDBRANCH  49  63
BRANCH  50  74
ATOM     74  C   UNL     1     -13.659  -2.563  -2.403  1.00  0.00     0.023 A 
ATOM     75  C   UNL     1     -15.066  -2.553  -2.569  1.00  0.00     0.031 A 
ATOM     76  C   UNL     1     -12.979  -3.680  -2.943  1.00  0.00     0.131 A 
ATOM     77  C   UNL     1     -15.719  -3.623  -3.236  1.00  0.00     0.055 A 
ATOM     78  C   UNL     1     -13.628  -4.731  -3.596  1.00  0.00     0.041 A 
ATOM     79  F   UNL     1     -11.640  -3.753  -2.934  1.00  0.00    -0.206 F 
ATOM     80  C   UNL     1     -15.002  -4.704  -3.753  1.00  0.00     0.022 A 
BRANCH  77  81
ATOM     81  S   UNL     1     -17.521  -3.590  -3.539  1.00  0.00     0.124 S 
ATOM     82  O   UNL     1     -18.062  -3.842  -2.208  1.00  0.00    -0.237 OA
ATOM     83  O   UNL     1     -17.727  -2.252  -4.081  1.00  0.00    -0.237 OA
ATOM     84  O   UNL     1     -17.726  -4.675  -4.500  1.00  0.00    -0.744 OA
ENDBRANCH  77  81
ENDBRANCH  50  74
BRANCH  62  85
ATOM     85  C   UNL     1     -12.040   2.939   0.376  1.00  0.00     0.023 A 
ATOM     86  C   UNL     1     -11.576   1.871   1.178  1.00  0.00     0.031 A 
ATOM     87  C   UNL     1     -12.454   4.114   1.028  1.00  0.00     0.131 A 
ATOM     88  C   UNL     1     -11.539   2.010   2.582  1.00  0.00     0.055 A 
ATOM     89  C   UNL     1     -12.396   4.255   2.413  1.00  0.00     0.041 A 
ATOM     90  F   UNL     1     -12.873   5.174   0.316  1.00  0.00    -0.206 F 
ATOM     91  C   UNL     1     -11.938   3.202   3.196  1.00  0.00     0.022 A 
BRANCH  88  92
ATOM     92  S   UNL     1     -10.937   0.649   3.638  1.00  0.00     0.124 S 
ATOM     93  O   UNL     1     -11.813  -0.461   3.283  1.00  0.00    -0.237 OA
ATOM     94  O   UNL     1      -9.540   0.519   3.232  1.00  0.00    -0.237 OA
ATOM     95  O   UNL     1     -11.126   1.161   4.997  1.00  0.00    -0.744 OA
ENDBRANCH  88  92
ENDBRANCH  62  85
ENDBRANCH  36  37
ENDBRANCH  29  31
ENDBRANCH  28  29
ENDBRANCH  27  28
ENDBRANCH   1  27
TORSDOF 18
