REMARK SMILES CCc1cccc(OCC(=O)N/N=C/c2ccc(C(=O)OCCOCCOC(=O)c3ccc(-c4c5nc(c(-c6cc(S(=O)(=O)[O-])ccc6F)c6ccc([nH]6)c(-c6cc(S(=O)(=O)[O-])ccc6F)c6nc(c(-c7cc(S(=O)(=O)[O-])ccc7F)c7ccc4[nH]7)C=C6)C=C5)cc3)cc2)c1
REMARK SMILES IDX 22 1 21 2 19 3 20 4 18 5 15 6 16 7 94 8 17 9 93 10 14 11
REMARK SMILES IDX 13 12 12 13 10 14 11 15 9 17 8 18 7 19 3 20 4 21 95 22 5 23
REMARK SMILES IDX 6 24 2 25 1 26 23 27 24 28 25 29 26 30 27 31 28 32 29 33
REMARK SMILES IDX 30 34 31 35 92 36 32 37 91 38 33 39 34 40 35 41 85 42 36 43
REMARK SMILES IDX 90 44 84 45 86 46 37 47 89 48 83 49 82 50 38 52 70 53 50 54
REMARK SMILES IDX 69 55 51 56 54 57 68 58 87 59 52 60 53 61 67 63 88 64 55 65
REMARK SMILES IDX 39 66 40 67 48 68 41 69 47 70 49 71 46 72 42 73 43 74 44 75
REMARK SMILES IDX 45 76 71 77 72 78 80 79 73 80 79 81 81 82 78 83 74 84 75 85
REMARK SMILES IDX 76 86 77 87 56 88 57 89 65 90 58 91 64 92 66 93 63 94 59 95
REMARK SMILES IDX 60 96 61 97 62 98
REMARK H PARENT 12 16 86 51 54 62
REMARK Flexibility Score: inf
ROOT
ATOM      1  C   UNL     1       2.917  14.204  -1.088  1.00  0.00     0.261 C 
ENDROOT
BRANCH   1   2
ATOM      2  O   UNL     1       2.389  12.920  -1.455  1.00  0.00    -0.460 OA
BRANCH   2   3
ATOM      3  C   UNL     1       2.889  11.877  -0.753  1.00  0.00     0.338 C 
ATOM      4  O   UNL     1       3.799  11.904   0.064  1.00  0.00    -0.246 OA
BRANCH   3   5
ATOM      5  C   UNL     1       2.048  10.678  -0.962  1.00  0.00     0.060 A 
ATOM      6  C   UNL     1       0.495   8.390  -1.207  1.00  0.00    -0.005 A 
ATOM      7  C   UNL     1       1.062   8.701   0.029  1.00  0.00     0.010 A 
ATOM      8  C   UNL     1       0.675   9.217  -2.319  1.00  0.00     0.010 A 
ATOM      9  C   UNL     1       1.855   9.838   0.145  1.00  0.00     0.016 A 
ATOM     10  C   UNL     1       1.440  10.381  -2.190  1.00  0.00     0.016 A 
BRANCH   6  11
ATOM     11  C   UNL     1      -0.305   7.161  -1.292  1.00  0.00     0.141 C 
ATOM     12  N   UNL     1      -0.081   6.291  -2.213  1.00  0.00    -0.181 NA
BRANCH  12  13
ATOM     13  N   UNL     1      -0.730   5.095  -2.266  1.00  0.00    -0.244 N 
ATOM     14  C   UNL     1      -1.413   4.330  -1.357  1.00  0.00     0.277 C 
ATOM     15  O   UNL     1      -1.870   3.244  -1.742  1.00  0.00    -0.269 OA
ATOM     16  H   UNL     1      -0.702   4.686  -3.161  1.00  0.00     0.193 HD
BRANCH  14  17
ATOM     17  C   UNL     1      -1.653   4.767   0.087  1.00  0.00     0.331 C 
BRANCH  17  18
ATOM     18  O   UNL     1      -0.509   5.103   0.858  1.00  0.00    -0.484 OA
BRANCH  18  19
ATOM     19  C   UNL     1       0.336   4.085   1.208  1.00  0.00     0.120 A 
ATOM     20  C   UNL     1       1.014   1.762   1.472  1.00  0.00    -0.045 A 
ATOM     21  C   UNL     1       2.239   2.184   1.998  1.00  0.00     0.004 A 
ATOM     22  C   UNL     1       0.069   2.722   1.076  1.00  0.00     0.050 A 
ATOM     23  C   UNL     1       2.508   3.545   2.140  1.00  0.00     0.004 A 
ATOM     24  C   UNL     1       1.557   4.489   1.750  1.00  0.00     0.046 A 
BRANCH  20  25
ATOM     25  C   UNL     1       0.710   0.297   1.286  1.00  0.00     0.032 C 
ATOM     26  C   UNL     1       1.121  -0.189  -0.095  1.00  0.00     0.009 C 
ENDBRANCH  20  25
ENDBRANCH  18  19
ENDBRANCH  17  18
ENDBRANCH  14  17
ENDBRANCH  12  13
ENDBRANCH   6  11
ENDBRANCH   3   5
ENDBRANCH   2   3
ENDBRANCH   1   2
BRANCH   1  27
ATOM     27  C   UNL     1       1.890  15.041  -0.319  1.00  0.00     0.202 C 
BRANCH  27  28
ATOM     28  O   UNL     1       1.421  14.505   0.918  1.00  0.00    -0.374 OA
BRANCH  28  29
ATOM     29  C   UNL     1       0.384  13.526   0.856  1.00  0.00     0.202 C 
BRANCH  29  30
ATOM     30  C   UNL     1      -1.039  14.024   0.568  1.00  0.00     0.261 C 
BRANCH  30  31
ATOM     31  O   UNL     1      -1.185  14.530  -0.770  1.00  0.00    -0.460 OA
BRANCH  31  32
ATOM     32  C   UNL     1      -1.323  15.876  -0.854  1.00  0.00     0.338 C 
ATOM     33  O   UNL     1      -1.395  16.665   0.077  1.00  0.00    -0.246 OA
BRANCH  32  34
ATOM     34  C   UNL     1      -1.176  16.308  -2.256  1.00  0.00     0.060 A 
ATOM     35  C   UNL     1      -0.214  17.288  -2.537  1.00  0.00     0.016 A 
ATOM     36  C   UNL     1      -2.000  15.813  -3.269  1.00  0.00     0.016 A 
ATOM     37  C   UNL     1      -0.102  17.808  -3.824  1.00  0.00     0.010 A 
ATOM     38  C   UNL     1      -1.890  16.343  -4.559  1.00  0.00     0.010 A 
ATOM     39  C   UNL     1      -0.963  17.365  -4.836  1.00  0.00    -0.014 A 
BRANCH  39  40
ATOM     40  C   UNL     1      -0.985  18.068  -6.143  1.00  0.00     0.031 A 
ATOM     41  C   UNL     1      -2.094  19.043  -6.428  1.00  0.00     0.074 A 
ATOM     42  C   UNL     1      -0.016  17.858  -7.052  1.00  0.00     0.049 A 
ATOM     43  N   UNL     1      -2.341  19.727  -7.515  1.00  0.00    -0.248 NA
ATOM     44  C   UNL     1      -3.058  19.270  -5.341  1.00  0.00     0.031 C 
ATOM     45  C   UNL     1       1.134  16.973  -6.868  1.00  0.00     0.029 A 
ATOM     46  N   UNL     1       0.153  18.371  -8.313  1.00  0.00    -0.354 N 
ATOM     47  C   UNL     1      -3.492  20.461  -7.248  1.00  0.00     0.074 A 
ATOM     48  C   UNL     1      -3.915  20.103  -5.910  1.00  0.00     0.031 C 
ATOM     49  C   UNL     1       1.886  17.000  -7.981  1.00  0.00     0.029 A 
ATOM     50  C   UNL     1       1.250  17.866  -8.972  1.00  0.00     0.049 A 
ATOM     51  H   UNL     1      -0.454  19.038  -8.710  1.00  0.00     0.167 HD
ATOM     52  C   UNL     1      -4.131  21.356  -8.042  1.00  0.00     0.034 A 
ATOM     53  C   UNL     1       1.674  18.058 -10.237  1.00  0.00     0.034 A 
ATOM     54  C   UNL     1      -3.699  21.692  -9.378  1.00  0.00     0.049 A 
ATOM     55  C   UNL     1       0.897  18.989 -11.137  1.00  0.00     0.074 A 
ATOM     56  C   UNL     1      -4.258  22.598 -10.263  1.00  0.00     0.029 A 
ATOM     57  N   UNL     1      -2.611  21.124 -10.030  1.00  0.00    -0.354 N 
ATOM     58  N   UNL     1      -0.186  19.685 -10.871  1.00  0.00    -0.248 NA
ATOM     59  C   UNL     1       1.403  19.167 -12.504  1.00  0.00     0.031 C 
ATOM     60  C   UNL     1      -3.562  22.516 -11.474  1.00  0.00     0.029 A 
ATOM     61  C   UNL     1      -2.509  21.630 -11.318  1.00  0.00     0.049 A 
ATOM     62  H   UNL     1      -2.001  20.459  -9.636  1.00  0.00     0.167 HD
ATOM     63  C   UNL     1      -0.467  20.408 -12.028  1.00  0.00     0.074 A 
ATOM     64  C   UNL     1       0.565  20.072 -12.987  1.00  0.00     0.031 C 
ATOM     65  C   UNL     1      -1.481  21.278 -12.272  1.00  0.00     0.034 A 
BRANCH  52  66
ATOM     66  C   UNL     1      -5.394  21.987  -7.503  1.00  0.00     0.023 A 
ATOM     67  C   UNL     1      -5.388  22.802  -6.357  1.00  0.00     0.031 A 
ATOM     68  C   UNL     1      -6.630  21.743  -8.128  1.00  0.00     0.131 A 
ATOM     69  C   UNL     1      -6.598  23.278  -5.830  1.00  0.00     0.055 A 
ATOM     70  C   UNL     1      -7.821  22.291  -7.648  1.00  0.00     0.041 A 
ATOM     71  F   UNL     1      -6.704  20.953  -9.211  1.00  0.00    -0.206 F 
ATOM     72  C   UNL     1      -7.812  23.051  -6.483  1.00  0.00     0.022 A 
BRANCH  69  73
ATOM     73  S   UNL     1      -6.582  24.065  -4.195  1.00  0.00     0.124 S 
ATOM     74  O   UNL     1      -5.993  23.014  -3.369  1.00  0.00    -0.237 OA
ATOM     75  O   UNL     1      -5.751  25.242  -4.420  1.00  0.00    -0.237 OA
ATOM     76  O   UNL     1      -7.994  24.337  -3.931  1.00  0.00    -0.744 OA
ENDBRANCH  69  73
ENDBRANCH  52  66
BRANCH  53  77
ATOM     77  C   UNL     1       2.870  17.328 -10.749  1.00  0.00     0.023 A 
ATOM     78  C   UNL     1       4.022  18.015 -11.161  1.00  0.00     0.031 A 
ATOM     79  C   UNL     1       2.857  15.927 -10.877  1.00  0.00     0.131 A 
ATOM     80  C   UNL     1       5.096  17.306 -11.722  1.00  0.00     0.055 A 
ATOM     81  C   UNL     1       3.950  15.221 -11.383  1.00  0.00     0.041 A 
ATOM     82  F   UNL     1       1.780  15.219 -10.501  1.00  0.00    -0.206 F 
ATOM     83  C   UNL     1       5.075  15.913 -11.820  1.00  0.00     0.022 A 
BRANCH  80  84
ATOM     84  S   UNL     1       6.494  18.241 -12.401  1.00  0.00     0.124 S 
ATOM     85  O   UNL     1       5.836  19.067 -13.407  1.00  0.00    -0.237 OA
ATOM     86  O   UNL     1       6.993  18.940 -11.222  1.00  0.00    -0.237 OA
ATOM     87  O   UNL     1       7.376  17.200 -12.926  1.00  0.00    -0.744 OA
ENDBRANCH  80  84
ENDBRANCH  53  77
BRANCH  65  88
ATOM     88  C   UNL     1      -1.492  21.969 -13.617  1.00  0.00     0.023 A 
ATOM     89  C   UNL     1      -1.696  21.263 -14.816  1.00  0.00     0.031 A 
ATOM     90  C   UNL     1      -1.290  23.359 -13.696  1.00  0.00     0.131 A 
ATOM     91  C   UNL     1      -1.639  21.940 -16.044  1.00  0.00     0.055 A 
ATOM     92  C   UNL     1      -1.300  24.037 -14.916  1.00  0.00     0.041 A 
ATOM     93  F   UNL     1      -1.086  24.085 -12.585  1.00  0.00    -0.206 F 
ATOM     94  C   UNL     1      -1.462  23.325 -16.100  1.00  0.00     0.022 A 
BRANCH  91  95
ATOM     95  S   UNL     1      -1.702  20.973 -17.577  1.00  0.00     0.124 S 
ATOM     96  O   UNL     1      -0.561  20.077 -17.417  1.00  0.00    -0.237 OA
ATOM     97  O   UNL     1      -3.019  20.349 -17.499  1.00  0.00    -0.237 OA
ATOM     98  O   UNL     1      -1.556  21.981 -18.626  1.00  0.00    -0.744 OA
ENDBRANCH  91  95
ENDBRANCH  65  88
ENDBRANCH  39  40
ENDBRANCH  32  34
ENDBRANCH  31  32
ENDBRANCH  30  31
ENDBRANCH  29  30
ENDBRANCH  28  29
ENDBRANCH  27  28
ENDBRANCH   1  27
TORSDOF 23
