REMARK SMILES C[C@H]1[C@H](C(=O)OCCOCCOC(=O)c2ccc(-c3c4nc(c(-c5cc(S(=O)(=O)[O-])ccc5F)c5ccc([nH]5)c(-c5cc(S(=O)(=O)[O-])ccc5F)c5nc(c(-c6cc(S(=O)(=O)[O-])ccc6F)c6ccc3[nH]6)C=C5)C=C4)cc2)CCN1C(=O)Nc1ccc(F)c(Cl)c1
REMARK SMILES IDX 10 1 9 2 8 3 7 4 6 5 4 6 5 7 3 8 1 9 2 10 80 11 78 12 79 13
REMARK SMILES IDX 81 14 82 15 83 16 84 18 85 19 91 20 86 21 89 22 87 23 90 24
REMARK SMILES IDX 88 25 11 26 12 27 13 28 14 29 15 30 16 31 77 32 17 33 76 34
REMARK SMILES IDX 18 35 19 36 20 37 70 38 21 39 75 40 69 41 71 42 22 43 74 44
REMARK SMILES IDX 68 45 67 46 23 48 55 49 35 50 54 51 36 52 39 53 53 54 72 55
REMARK SMILES IDX 37 56 38 57 52 59 73 60 40 61 24 62 25 63 33 64 26 65 32 66
REMARK SMILES IDX 34 67 31 68 27 69 28 70 29 71 30 72 56 73 57 74 65 75 58 76
REMARK SMILES IDX 64 77 66 78 63 79 59 80 60 81 61 82 62 83 41 84 42 85 50 86
REMARK SMILES IDX 43 87 49 88 51 89 48 90 44 91 45 92 46 93 47 94
REMARK H PARENT 83 17 71 47 39 58
REMARK Flexibility Score: inf
ROOT
ATOM      1  C   UNL     1       1.847   3.706   1.676  1.00  0.00     0.202 C 
ENDROOT
BRANCH   1   2
ATOM      2  O   UNL     1       0.981   4.692   2.222  1.00  0.00    -0.374 OA
BRANCH   2   3
ATOM      3  C   UNL     1       0.028   4.296   3.200  1.00  0.00     0.202 C 
BRANCH   3   4
ATOM      4  C   UNL     1      -1.124   3.384   2.761  1.00  0.00     0.261 C 
BRANCH   4   5
ATOM      5  O   UNL     1      -0.723   2.236   1.992  1.00  0.00    -0.463 OA
BRANCH   5   6
ATOM      6  C   UNL     1      -0.998   2.316   0.665  1.00  0.00     0.311 C 
ATOM      7  O   UNL     1      -1.509   3.283   0.107  1.00  0.00    -0.252 OA
BRANCH   6   8
ATOM      8  C   UNL     1      -0.698   1.047  -0.092  1.00  0.00     0.123 C 
ATOM      9  C   UNL     1       1.634   0.371  -0.667  1.00  0.00     0.032 C 
ATOM     10  C   UNL     1       0.505   0.167   0.351  1.00  0.00     0.098 C 
ATOM     11  N   UNL     1      -0.021  -1.213   0.334  1.00  0.00    -0.321 N 
ATOM     12  C   UNL     1      -1.918   0.143  -0.018  1.00  0.00     0.039 C 
ATOM     13  C   UNL     1      -1.344  -1.225  -0.277  1.00  0.00     0.122 C 
BRANCH  11  14
ATOM     14  C   UNL     1       0.454  -2.409   0.768  1.00  0.00     0.322 C 
ATOM     15  O   UNL     1      -0.253  -3.425   0.696  1.00  0.00    -0.248 OA
ATOM     16  N   UNL     1       1.703  -2.661   1.190  1.00  0.00    -0.308 N 
ATOM     17  H   UNL     1       1.800  -3.598   1.474  1.00  0.00     0.171 HD
BRANCH  16  18
ATOM     18  C   UNL     1       2.898  -1.966   1.336  1.00  0.00     0.044 A 
ATOM     19  C   UNL     1       3.984  -2.430   0.576  1.00  0.00     0.029 A 
ATOM     20  C   UNL     1       3.113  -1.050   2.364  1.00  0.00     0.049 A 
ATOM     21  C   UNL     1       5.265  -1.924   0.779  1.00  0.00     0.043 A 
ATOM     22  C   UNL     1       4.420  -0.606   2.616  1.00  0.00     0.078 A 
ATOM     23  C   UNL     1       5.477  -1.017   1.804  1.00  0.00     0.141 A 
ATOM     24  Cl  UNL     1       4.772   0.373   3.986  1.00  0.00    -0.081 Cl
ATOM     25  F   UNL     1       6.723  -0.570   2.017  1.00  0.00    -0.205 F 
ENDBRANCH  16  18
ENDBRANCH  11  14
ENDBRANCH   6   8
ENDBRANCH   5   6
ENDBRANCH   4   5
ENDBRANCH   3   4
ENDBRANCH   2   3
ENDBRANCH   1   2
BRANCH   1  26
ATOM     26  C   UNL     1       2.784   2.931   2.607  1.00  0.00     0.261 C 
BRANCH  26  27
ATOM     27  O   UNL     1       2.122   2.180   3.644  1.00  0.00    -0.460 OA
BRANCH  27  28
ATOM     28  C   UNL     1       2.401   2.626   4.898  1.00  0.00     0.338 C 
ATOM     29  O   UNL     1       3.068   3.618   5.172  1.00  0.00    -0.246 OA
BRANCH  28  30
ATOM     30  C   UNL     1       1.700   1.864   5.953  1.00  0.00     0.060 A 
ATOM     31  C   UNL     1       1.178   2.606   7.018  1.00  0.00     0.016 A 
ATOM     32  C   UNL     1       1.674   0.466   5.998  1.00  0.00     0.016 A 
ATOM     33  C   UNL     1       0.706   1.960   8.156  1.00  0.00     0.010 A 
ATOM     34  C   UNL     1       1.194  -0.184   7.144  1.00  0.00     0.010 A 
ATOM     35  C   UNL     1       0.751   0.562   8.246  1.00  0.00    -0.014 A 
BRANCH  35  36
ATOM     36  C   UNL     1       0.417  -0.074   9.544  1.00  0.00     0.031 A 
ATOM     37  C   UNL     1       1.520  -0.494  10.478  1.00  0.00     0.074 A 
ATOM     38  C   UNL     1      -0.871  -0.186   9.916  1.00  0.00     0.049 A 
ATOM     39  N   UNL     1       1.442  -0.919  11.713  1.00  0.00    -0.248 NA
ATOM     40  C   UNL     1       2.890  -0.430   9.948  1.00  0.00     0.031 C 
ATOM     41  C   UNL     1      -2.018   0.186   9.088  1.00  0.00     0.029 A 
ATOM     42  N   UNL     1      -1.429  -0.623  11.089  1.00  0.00    -0.354 N 
ATOM     43  C   UNL     1       2.752  -1.157  12.117  1.00  0.00     0.074 A 
ATOM     44  C   UNL     1       3.598  -0.880  10.975  1.00  0.00     0.031 C 
ATOM     45  C   UNL     1      -3.146  -0.021   9.787  1.00  0.00     0.029 A 
ATOM     46  C   UNL     1      -2.801  -0.551  11.104  1.00  0.00     0.049 A 
ATOM     47  H   UNL     1      -0.898  -0.957  11.847  1.00  0.00     0.167 HD
ATOM     48  C   UNL     1       3.206  -1.555  13.333  1.00  0.00     0.034 A 
ATOM     49  C   UNL     1      -3.680  -0.865  12.076  1.00  0.00     0.034 A 
ATOM     50  C   UNL     1       2.344  -1.844  14.456  1.00  0.00     0.049 A 
ATOM     51  C   UNL     1      -3.155  -1.324  13.412  1.00  0.00     0.074 A 
ATOM     52  C   UNL     1       2.694  -2.232  15.738  1.00  0.00     0.029 A 
ATOM     53  N   UNL     1       0.956  -1.790  14.426  1.00  0.00    -0.354 N 
ATOM     54  N   UNL     1      -1.911  -1.496  13.796  1.00  0.00    -0.248 NA
ATOM     55  C   UNL     1      -4.153  -1.605  14.450  1.00  0.00     0.031 C 
ATOM     56  C   UNL     1       1.519  -2.472  16.462  1.00  0.00     0.029 A 
ATOM     57  C   UNL     1       0.434  -2.166  15.656  1.00  0.00     0.049 A 
ATOM     58  H   UNL     1       0.419  -1.523  13.645  1.00  0.00     0.167 HD
ATOM     59  C   UNL     1      -1.978  -1.884  15.131  1.00  0.00     0.074 A 
ATOM     60  C   UNL     1      -3.383  -1.897  15.488  1.00  0.00     0.031 C 
ATOM     61  C   UNL     1      -0.971  -2.198  15.988  1.00  0.00     0.034 A 
BRANCH  48  62
ATOM     62  C   UNL     1       4.698  -1.736  13.492  1.00  0.00     0.023 A 
ATOM     63  C   UNL     1       5.591  -0.654  13.385  1.00  0.00     0.031 A 
ATOM     64  C   UNL     1       5.238  -3.012  13.731  1.00  0.00     0.131 A 
ATOM     65  C   UNL     1       6.976  -0.878  13.452  1.00  0.00     0.055 A 
ATOM     66  C   UNL     1       6.613  -3.217  13.868  1.00  0.00     0.041 A 
ATOM     67  F   UNL     1       4.439  -4.086  13.823  1.00  0.00    -0.206 F 
ATOM     68  C   UNL     1       7.492  -2.149  13.715  1.00  0.00     0.022 A 
BRANCH  65  69
ATOM     69  S   UNL     1       8.100   0.492  13.061  1.00  0.00     0.124 S 
ATOM     70  O   UNL     1       7.690   0.831  11.701  1.00  0.00    -0.237 OA
ATOM     71  O   UNL     1       7.773   1.471  14.091  1.00  0.00    -0.237 OA
ATOM     72  O   UNL     1       9.427  -0.111  13.172  1.00  0.00    -0.744 OA
ENDBRANCH  65  69
ENDBRANCH  48  62
BRANCH  49  73
ATOM     73  C   UNL     1      -5.144  -0.754  11.824  1.00  0.00     0.023 A 
ATOM     74  C   UNL     1      -5.934   0.184  12.506  1.00  0.00     0.031 A 
ATOM     75  C   UNL     1      -5.777  -1.612  10.907  1.00  0.00     0.131 A 
ATOM     76  C   UNL     1      -7.320   0.217  12.290  1.00  0.00     0.055 A 
ATOM     77  C   UNL     1      -7.149  -1.545  10.662  1.00  0.00     0.041 A 
ATOM     78  F   UNL     1      -5.064  -2.520  10.223  1.00  0.00    -0.206 F 
ATOM     79  C   UNL     1      -7.931  -0.633  11.364  1.00  0.00     0.022 A 
BRANCH  76  80
ATOM     80  S   UNL     1      -8.329   1.349  13.285  1.00  0.00     0.124 S 
ATOM     81  O   UNL     1      -8.012   0.917  14.642  1.00  0.00    -0.237 OA
ATOM     82  O   UNL     1      -7.804   2.651  12.886  1.00  0.00    -0.237 OA
ATOM     83  O   UNL     1      -9.693   1.067  12.843  1.00  0.00    -0.744 OA
ENDBRANCH  76  80
ENDBRANCH  49  73
BRANCH  61  84
ATOM     84  C   UNL     1      -1.370  -2.554  17.399  1.00  0.00     0.023 A 
ATOM     85  C   UNL     1      -2.105  -3.719  17.685  1.00  0.00     0.031 A 
ATOM     86  C   UNL     1      -1.048  -1.697  18.465  1.00  0.00     0.131 A 
ATOM     87  C   UNL     1      -2.553  -3.959  18.992  1.00  0.00     0.055 A 
ATOM     88  C   UNL     1      -1.445  -1.973  19.775  1.00  0.00     0.041 A 
ATOM     89  F   UNL     1      -0.349  -0.571  18.250  1.00  0.00    -0.206 F 
ATOM     90  C   UNL     1      -2.216  -3.100  20.041  1.00  0.00     0.022 A 
BRANCH  87  91
ATOM     91  S   UNL     1      -3.680  -5.351  19.283  1.00  0.00     0.124 S 
ATOM     92  O   UNL     1      -4.770  -5.059  18.358  1.00  0.00    -0.237 OA
ATOM     93  O   UNL     1      -2.848  -6.501  18.944  1.00  0.00    -0.237 OA
ATOM     94  O   UNL     1      -4.019  -5.228  20.700  1.00  0.00    -0.744 OA
ENDBRANCH  87  91
ENDBRANCH  61  84
ENDBRANCH  35  36
ENDBRANCH  28  30
ENDBRANCH  27  28
ENDBRANCH  26  27
ENDBRANCH   1  26
TORSDOF 19
