REMARK SMILES Cc1ccc(F)c(C(=O)N[C@@H]2C=C[C@@H](C(=O)OCCOCCOC(=O)c3ccc(-c4c5nc(c(-c6cc(S(=O)(=O)[O-])ccc6F)c6ccc([nH]6)c(-c6cc(S(=O)(=O)[O-])ccc6F)c6nc(c(-c7cc(S(=O)(=O)[O-])ccc7F)c7ccc4[nH]7)C=C6)C=C5)cc3)C2)c1
REMARK SMILES IDX 21 1 20 2 19 3 18 4 17 5 15 6 16 7 14 8 11 9 12 10 89 11
REMARK SMILES IDX 13 12 10 13 8 14 9 15 7 17 1 18 2 19 3 20 90 21 4 22 5 23
REMARK SMILES IDX 6 24 22 25 23 26 24 27 25 28 26 29 27 30 88 31 28 32 87 33
REMARK SMILES IDX 29 34 30 35 31 36 81 37 32 38 86 39 80 40 82 41 33 42 85 43
REMARK SMILES IDX 79 44 78 45 34 47 66 48 46 49 65 50 47 51 50 52 64 53 83 54
REMARK SMILES IDX 48 55 49 56 63 58 84 59 51 60 35 61 36 62 44 63 37 64 43 65
REMARK SMILES IDX 45 66 42 67 38 68 39 69 40 70 41 71 67 72 68 73 76 74 69 75
REMARK SMILES IDX 75 76 77 77 74 78 70 79 71 80 72 81 73 82 52 83 53 84 61 85
REMARK SMILES IDX 54 86 60 87 62 88 59 89 55 90 56 91 57 92 58 93
REMARK H PARENT 10 16 82 46 50 57
REMARK Flexibility Score: inf
ROOT
ATOM      1  C   UNL     1       3.181  -7.602   3.346  1.00  0.00     0.202 C 
ENDROOT
BRANCH   1   2
ATOM      2  O   UNL     1       3.469  -7.433   4.737  1.00  0.00    -0.374 OA
BRANCH   2   3
ATOM      3  C   UNL     1       2.481  -6.783   5.538  1.00  0.00     0.202 C 
BRANCH   3   4
ATOM      4  C   UNL     1       2.349  -5.270   5.330  1.00  0.00     0.261 C 
BRANCH   4   5
ATOM      5  O   UNL     1       2.121  -4.938   3.950  1.00  0.00    -0.463 OA
BRANCH   5   6
ATOM      6  C   UNL     1       2.850  -3.900   3.463  1.00  0.00     0.312 C 
ATOM      7  O   UNL     1       3.551  -3.163   4.151  1.00  0.00    -0.252 OA
BRANCH   6   8
ATOM      8  C   UNL     1       2.762  -3.752   1.944  1.00  0.00     0.124 C 
ATOM      9  C   UNL     1       1.015  -3.813   0.192  1.00  0.00     0.106 C 
ATOM     10  C   UNL     1       1.273  -2.428   0.693  1.00  0.00    -0.006 C 
ATOM     11  C   UNL     1       1.817  -4.687   1.170  1.00  0.00     0.048 C 
ATOM     12  C   UNL     1       2.236  -2.389   1.617  1.00  0.00    -0.014 C 
BRANCH   9  13
ATOM     13  N   UNL     1       1.445  -3.838  -1.195  1.00  0.00    -0.346 N 
ATOM     14  C   UNL     1       1.493  -4.824  -2.146  1.00  0.00     0.254 C 
ATOM     15  O   UNL     1       1.756  -4.499  -3.303  1.00  0.00    -0.269 OA
ATOM     16  H   UNL     1       1.770  -2.967  -1.519  1.00  0.00     0.164 HD
BRANCH  14  17
ATOM     17  C   UNL     1       1.282  -6.250  -1.824  1.00  0.00     0.075 A 
ATOM     18  C   UNL     1      -0.946  -8.524   0.251  1.00  0.00     0.044 C 
ATOM     19  C   UNL     1       0.130  -8.059  -0.682  1.00  0.00    -0.050 A 
ATOM     20  C   UNL     1       0.994  -8.986  -1.276  1.00  0.00     0.006 A 
ATOM     21  C   UNL     1       0.251  -6.695  -0.994  1.00  0.00     0.020 A 
ATOM     22  C   UNL     1       1.990  -8.551  -2.146  1.00  0.00     0.040 A 
ATOM     23  C   UNL     1       2.135  -7.191  -2.409  1.00  0.00     0.135 A 
ATOM     24  F   UNL     1       3.136  -6.816  -3.219  1.00  0.00    -0.206 F 
ENDBRANCH  14  17
ENDBRANCH   9  13
ENDBRANCH   6   8
ENDBRANCH   5   6
ENDBRANCH   4   5
ENDBRANCH   3   4
ENDBRANCH   2   3
ENDBRANCH   1   2
BRANCH   1  25
ATOM     25  C   UNL     1       1.998  -8.517   3.009  1.00  0.00     0.261 C 
BRANCH  25  26
ATOM     26  O   UNL     1       0.740  -7.971   3.449  1.00  0.00    -0.460 OA
BRANCH  26  27
ATOM     27  C   UNL     1      -0.148  -8.915   3.854  1.00  0.00     0.338 C 
ATOM     28  O   UNL     1      -0.034 -10.122   3.735  1.00  0.00    -0.246 OA
BRANCH  27  29
ATOM     29  C   UNL     1      -1.295  -8.293   4.540  1.00  0.00     0.060 A 
ATOM     30  C   UNL     1      -1.331  -8.287   5.938  1.00  0.00     0.016 A 
ATOM     31  C   UNL     1      -2.407  -7.879   3.805  1.00  0.00     0.016 A 
ATOM     32  C   UNL     1      -2.500  -7.899   6.601  1.00  0.00     0.010 A 
ATOM     33  C   UNL     1      -3.569  -7.476   4.469  1.00  0.00     0.010 A 
ATOM     34  C   UNL     1      -3.637  -7.520   5.871  1.00  0.00    -0.014 A 
BRANCH  34  35
ATOM     35  C   UNL     1      -4.931  -7.267   6.556  1.00  0.00     0.031 A 
ATOM     36  C   UNL     1      -6.014  -8.313   6.513  1.00  0.00     0.074 A 
ATOM     37  C   UNL     1      -5.148  -6.098   7.185  1.00  0.00     0.049 A 
ATOM     38  N   UNL     1      -7.220  -8.280   7.021  1.00  0.00    -0.248 NA
ATOM     39  C   UNL     1      -5.701  -9.556   5.790  1.00  0.00     0.031 C 
ATOM     40  C   UNL     1      -4.186  -5.000   7.279  1.00  0.00     0.029 A 
ATOM     41  N   UNL     1      -6.255  -5.633   7.850  1.00  0.00    -0.354 N 
ATOM     42  C   UNL     1      -7.813  -9.490   6.677  1.00  0.00     0.074 A 
ATOM     43  C   UNL     1      -6.845 -10.219   5.884  1.00  0.00     0.031 C 
ATOM     44  C   UNL     1      -4.751  -3.983   7.951  1.00  0.00     0.029 A 
ATOM     45  C   UNL     1      -6.119  -4.347   8.315  1.00  0.00     0.049 A 
ATOM     46  H   UNL     1      -7.070  -6.170   7.981  1.00  0.00     0.167 HD
ATOM     47  C   UNL     1      -9.045  -9.957   7.003  1.00  0.00     0.034 A 
ATOM     48  C   UNL     1      -7.001  -3.547   8.946  1.00  0.00     0.034 A 
ATOM     49  C   UNL     1     -10.001  -9.226   7.798  1.00  0.00     0.049 A 
ATOM     50  C   UNL     1      -8.374  -4.077   9.275  1.00  0.00     0.074 A 
ATOM     51  C   UNL     1     -11.245  -9.638   8.246  1.00  0.00     0.029 A 
ATOM     52  N   UNL     1      -9.829  -7.926   8.252  1.00  0.00    -0.354 N 
ATOM     53  N   UNL     1      -8.894  -5.251   9.002  1.00  0.00    -0.248 NA
ATOM     54  C   UNL     1      -9.273  -3.177  10.011  1.00  0.00     0.031 C 
ATOM     55  C   UNL     1     -11.850  -8.567   8.915  1.00  0.00     0.029 A 
ATOM     56  C   UNL     1     -10.957  -7.508   8.942  1.00  0.00     0.049 A 
ATOM     57  H   UNL     1      -9.024  -7.379   8.106  1.00  0.00     0.167 HD
ATOM     58  C   UNL     1     -10.171  -5.238   9.558  1.00  0.00     0.074 A 
ATOM     59  C   UNL     1     -10.338  -3.946  10.189  1.00  0.00     0.031 C 
ATOM     60  C   UNL     1     -11.118  -6.211   9.554  1.00  0.00     0.034 A 
BRANCH  47  61
ATOM     61  C   UNL     1      -9.440 -11.310   6.467  1.00  0.00     0.023 A 
ATOM     62  C   UNL     1      -8.797 -12.488   6.885  1.00  0.00     0.031 A 
ATOM     63  C   UNL     1     -10.472 -11.422   5.518  1.00  0.00     0.131 A 
ATOM     64  C   UNL     1      -9.151 -13.719   6.312  1.00  0.00     0.055 A 
ATOM     65  C   UNL     1     -10.865 -12.658   5.001  1.00  0.00     0.041 A 
ATOM     66  F   UNL     1     -11.108 -10.329   5.069  1.00  0.00    -0.206 F 
ATOM     67  C   UNL     1     -10.195 -13.815   5.389  1.00  0.00     0.022 A 
BRANCH  64  68
ATOM     68  S   UNL     1      -8.148 -15.179   6.704  1.00  0.00     0.124 S 
ATOM     69  O   UNL     1      -6.826 -14.762   6.242  1.00  0.00    -0.237 OA
ATOM     70  O   UNL     1      -8.313 -15.297   8.148  1.00  0.00    -0.237 OA
ATOM     71  O   UNL     1      -8.768 -16.242   5.915  1.00  0.00    -0.744 OA
ENDBRANCH  64  68
ENDBRANCH  47  61
BRANCH  48  72
ATOM     72  C   UNL     1      -6.631  -2.146   9.289  1.00  0.00     0.023 A 
ATOM     73  C   UNL     1      -6.503  -1.734  10.624  1.00  0.00     0.031 A 
ATOM     74  C   UNL     1      -6.448  -1.186   8.278  1.00  0.00     0.131 A 
ATOM     75  C   UNL     1      -6.243  -0.387  10.915  1.00  0.00     0.055 A 
ATOM     76  C   UNL     1      -6.145   0.144   8.572  1.00  0.00     0.041 A 
ATOM     77  F   UNL     1      -6.554  -1.533   6.985  1.00  0.00    -0.206 F 
ATOM     78  C   UNL     1      -6.054   0.553   9.899  1.00  0.00     0.022 A 
BRANCH  75  79
ATOM     79  S   UNL     1      -6.231   0.138  12.652  1.00  0.00     0.124 S 
ATOM     80  O   UNL     1      -7.557  -0.274  13.097  1.00  0.00    -0.237 OA
ATOM     81  O   UNL     1      -5.108  -0.624  13.188  1.00  0.00    -0.237 OA
ATOM     82  O   UNL     1      -6.019   1.582  12.569  1.00  0.00    -0.744 OA
ENDBRANCH  75  79
ENDBRANCH  48  72
BRANCH  60  83
ATOM     83  C   UNL     1     -12.401  -5.918  10.290  1.00  0.00     0.023 A 
ATOM     84  C   UNL     1     -13.321  -4.965   9.821  1.00  0.00     0.031 A 
ATOM     85  C   UNL     1     -12.696  -6.592  11.489  1.00  0.00     0.131 A 
ATOM     86  C   UNL     1     -14.469  -4.673  10.574  1.00  0.00     0.055 A 
ATOM     87  C   UNL     1     -13.864  -6.334  12.207  1.00  0.00     0.041 A 
ATOM     88  F   UNL     1     -11.851  -7.511  11.982  1.00  0.00    -0.206 F 
ATOM     89  C   UNL     1     -14.753  -5.362  11.757  1.00  0.00     0.022 A 
BRANCH  86  90
ATOM     90  S   UNL     1     -15.550  -3.323  10.027  1.00  0.00     0.124 S 
ATOM     91  O   UNL     1     -14.639  -2.184  10.030  1.00  0.00    -0.237 OA
ATOM     92  O   UNL     1     -15.988  -3.786   8.714  1.00  0.00    -0.237 OA
ATOM     93  O   UNL     1     -16.594  -3.284  11.050  1.00  0.00    -0.744 OA
ENDBRANCH  86  90
ENDBRANCH  60  83
ENDBRANCH  34  35
ENDBRANCH  27  29
ENDBRANCH  26  27
ENDBRANCH  25  26
ENDBRANCH   1  25
TORSDOF 19
