REMARK SMILES C[NH+]1CCC([NH+]2CCC(Oc3ccc4ccccc4c3)(C(=O)OCCOCCOC(=O)c3ccc(-c4c5nc(c(-c6cc(S(=O)(=O)[O-])ccc6F)c6ccc([nH]6)c(-c6cc(S(=O)(=O)[O-])ccc6F)c6nc(c(-c7cc(S(=O)(=O)[O-])ccc7F)c7ccc4[nH]7)C=C6)C=C5)cc3)CC2)CC1
REMARK SMILES IDX 27 1 26 2 25 3 24 4 23 5 21 6 22 7 9 8 6 9 7 10 96 11 8 13
REMARK SMILES IDX 95 14 5 15 1 16 2 17 3 18 98 19 4 21 97 22 10 23 11 24 12 25
REMARK SMILES IDX 20 26 13 27 19 28 14 29 18 30 15 31 17 32 16 33 28 34 29 35
REMARK SMILES IDX 30 36 31 37 32 38 33 39 94 40 34 41 93 42 35 43 36 44 37 45
REMARK SMILES IDX 87 46 38 47 92 48 86 49 88 50 39 51 91 52 85 53 84 54 40 56
REMARK SMILES IDX 72 57 52 58 71 59 53 60 56 61 70 62 89 63 54 64 55 65 69 67
REMARK SMILES IDX 90 68 57 69 41 70 42 71 50 72 43 73 49 74 51 75 48 76 44 77
REMARK SMILES IDX 45 78 46 79 47 80 73 81 74 82 82 83 75 84 81 85 83 86 80 87
REMARK SMILES IDX 76 88 77 89 78 90 79 91 58 92 59 93 67 94 60 95 66 96 68 97
REMARK SMILES IDX 65 98 61 99 62 100 63 101 64 102
REMARK H PARENT 6 12 2 20 88 55 56 66
REMARK Flexibility Score: inf
ROOT
ATOM      1  C   UNL     1       2.657  -4.121   2.086  1.00  0.00     0.202 C 
ENDROOT
BRANCH   1   2
ATOM      2  O   UNL     1       3.125  -5.155   2.930  1.00  0.00    -0.374 OA
BRANCH   2   3
ATOM      3  C   UNL     1       4.068  -4.807   3.943  1.00  0.00     0.202 C 
BRANCH   3   4
ATOM      4  C   UNL     1       5.339  -4.056   3.524  1.00  0.00     0.261 C 
BRANCH   4   5
ATOM      5  O   UNL     1       5.117  -2.692   3.095  1.00  0.00    -0.460 OA
BRANCH   5   6
ATOM      6  C   UNL     1       5.587  -2.366   1.855  1.00  0.00     0.351 C 
ATOM      7  O   UNL     1       5.992  -3.205   1.051  1.00  0.00    -0.247 OA
BRANCH   6   8
ATOM      8  C   UNL     1       5.641  -0.842   1.571  1.00  0.00     0.216 C 
ATOM      9  N   UNL     1       3.237   0.191   0.112  1.00  0.00    -0.332 N 
ATOM     10  C   UNL     1       3.305   0.376   1.562  1.00  0.00     0.267 C 
ATOM     11  C   UNL     1       4.084  -0.877  -0.406  1.00  0.00     0.267 C 
ATOM     12  H   UNL     1       3.660   1.046  -0.249  1.00  0.00     0.348 HD
ATOM     13  C   UNL     1       4.589  -0.007   2.317  1.00  0.00     0.122 C 
ATOM     14  C   UNL     1       5.526  -0.654   0.048  1.00  0.00     0.122 C 
BRANCH   9  15
ATOM     15  C   UNL     1       1.857   0.198  -0.459  1.00  0.00     0.195 C 
ATOM     16  C   UNL     1      -2.482   0.237  -0.402  1.00  0.00     0.332 C 
ATOM     17  N   UNL     1      -1.053   0.219  -0.114  1.00  0.00    -0.337 N 
ATOM     18  C   UNL     1      -0.379   1.436  -0.574  1.00  0.00     0.268 C 
ATOM     19  C   UNL     1      -0.408  -0.968  -0.677  1.00  0.00     0.268 C 
ATOM     20  H   UNL     1      -0.963   0.182   0.901  1.00  0.00     0.347 HD
ATOM     21  C   UNL     1       1.067   1.465  -0.065  1.00  0.00     0.126 C 
ATOM     22  C   UNL     1       1.018  -1.054  -0.142  1.00  0.00     0.126 C 
ENDBRANCH   9  15
BRANCH   8  23
ATOM     23  O   UNL     1       6.970  -0.597   2.133  1.00  0.00    -0.475 OA
BRANCH  23  24
ATOM     24  C   UNL     1       7.707   0.425   1.613  1.00  0.00     0.121 A 
ATOM     25  C   UNL     1       7.519   1.736   2.035  1.00  0.00     0.047 A 
ATOM     26  C   UNL     1       8.773   0.113   0.767  1.00  0.00     0.055 A 
ATOM     27  C   UNL     1       8.338   2.755   1.548  1.00  0.00     0.012 A 
ATOM     28  C   UNL     1       9.627   1.125   0.290  1.00  0.00    -0.015 A 
ATOM     29  C   UNL     1       9.393   2.466   0.675  1.00  0.00    -0.018 A 
ATOM     30  C   UNL     1      10.720   0.839  -0.546  1.00  0.00     0.009 A 
ATOM     31  C   UNL     1      10.238   3.481   0.201  1.00  0.00     0.009 A 
ATOM     32  C   UNL     1      11.559   1.859  -1.000  1.00  0.00     0.001 A 
ATOM     33  C   UNL     1      11.315   3.179  -0.631  1.00  0.00     0.001 A 
ENDBRANCH  23  24
ENDBRANCH   8  23
ENDBRANCH   6   8
ENDBRANCH   5   6
ENDBRANCH   4   5
ENDBRANCH   3   4
ENDBRANCH   2   3
ENDBRANCH   1   2
BRANCH   1  34
ATOM     34  C   UNL     1       1.849  -2.982   2.710  1.00  0.00     0.261 C 
BRANCH  34  35
ATOM     35  O   UNL     1       2.137  -2.675   4.070  1.00  0.00    -0.460 OA
BRANCH  35  36
ATOM     36  C   UNL     1       1.110  -2.891   4.924  1.00  0.00     0.338 C 
ATOM     37  O   UNL     1      -0.024  -3.241   4.657  1.00  0.00    -0.246 OA
BRANCH  36  38
ATOM     38  C   UNL     1       1.617  -2.746   6.293  1.00  0.00     0.060 A 
ATOM     39  C   UNL     1       1.809  -3.910   7.041  1.00  0.00     0.016 A 
ATOM     40  C   UNL     1       1.834  -1.483   6.849  1.00  0.00     0.016 A 
ATOM     41  C   UNL     1       2.183  -3.812   8.376  1.00  0.00     0.010 A 
ATOM     42  C   UNL     1       2.210  -1.387   8.191  1.00  0.00     0.010 A 
ATOM     43  C   UNL     1       2.352  -2.551   8.967  1.00  0.00    -0.014 A 
BRANCH  43  44
ATOM     44  C   UNL     1       2.535  -2.469  10.435  1.00  0.00     0.031 A 
ATOM     45  C   UNL     1       1.341  -2.173  11.299  1.00  0.00     0.074 A 
ATOM     46  C   UNL     1       3.738  -2.719  10.982  1.00  0.00     0.049 A 
ATOM     47  N   UNL     1       1.257  -2.103  12.602  1.00  0.00    -0.248 NA
ATOM     48  C   UNL     1       0.073  -1.923  10.598  1.00  0.00     0.031 C 
ATOM     49  C   UNL     1       4.951  -3.046  10.233  1.00  0.00     0.029 A 
ATOM     50  N   UNL     1       4.135  -2.747  12.294  1.00  0.00    -0.354 N 
ATOM     51  C   UNL     1      -0.075  -1.810  12.879  1.00  0.00     0.074 A 
ATOM     52  C   UNL     1      -0.748  -1.669  11.605  1.00  0.00     0.031 C 
ATOM     53  C   UNL     1       5.958  -3.246  11.100  1.00  0.00     0.029 A 
ATOM     54  C   UNL     1       5.469  -3.034  12.460  1.00  0.00     0.049 A 
ATOM     55  H   UNL     1       3.522  -2.578  13.046  1.00  0.00     0.167 HD
ATOM     56  C   UNL     1      -0.680  -1.684  14.086  1.00  0.00     0.034 A 
ATOM     57  C   UNL     1       6.210  -3.103  13.584  1.00  0.00     0.034 A 
ATOM     58  C   UNL     1       0.017  -1.809  15.343  1.00  0.00     0.049 A 
ATOM     59  C   UNL     1       5.530  -2.885  14.913  1.00  0.00     0.074 A 
ATOM     60  C   UNL     1      -0.490  -1.707  16.626  1.00  0.00     0.029 A 
ATOM     61  N   UNL     1       1.380  -2.050  15.474  1.00  0.00    -0.354 N 
ATOM     62  N   UNL     1       4.266  -2.629  15.163  1.00  0.00    -0.248 NA
ATOM     63  C   UNL     1       6.374  -2.979  16.111  1.00  0.00     0.031 C 
ATOM     64  C   UNL     1       0.575  -1.818  17.528  1.00  0.00     0.029 A 
ATOM     65  C   UNL     1       1.736  -2.066  16.813  1.00  0.00     0.049 A 
ATOM     66  H   UNL     1       2.002  -2.190  14.723  1.00  0.00     0.167 HD
ATOM     67  C   UNL     1       4.160  -2.557  16.550  1.00  0.00     0.074 A 
ATOM     68  C   UNL     1       5.484  -2.814  17.079  1.00  0.00     0.031 C 
ATOM     69  C   UNL     1       3.068  -2.308  17.318  1.00  0.00     0.034 A 
BRANCH  56  70
ATOM     70  C   UNL     1      -2.151  -1.344  14.089  1.00  0.00     0.023 A 
ATOM     71  C   UNL     1      -3.117  -2.223  13.566  1.00  0.00     0.031 A 
ATOM     72  C   UNL     1      -2.591  -0.104  14.586  1.00  0.00     0.131 A 
ATOM     73  C   UNL     1      -4.460  -1.822  13.488  1.00  0.00     0.055 A 
ATOM     74  C   UNL     1      -3.939   0.258  14.575  1.00  0.00     0.041 A 
ATOM     75  F   UNL     1      -1.713   0.785  15.076  1.00  0.00    -0.206 F 
ATOM     76  C   UNL     1      -4.881  -0.597  14.010  1.00  0.00     0.022 A 
BRANCH  73  77
ATOM     77  S   UNL     1      -5.627  -2.864  12.569  1.00  0.00     0.124 S 
ATOM     78  O   UNL     1      -5.013  -2.897  11.243  1.00  0.00    -0.237 OA
ATOM     79  O   UNL     1      -5.594  -4.113  13.320  1.00  0.00    -0.237 OA
ATOM     80  O   UNL     1      -6.884  -2.122  12.646  1.00  0.00    -0.744 OA
ENDBRANCH  73  77
ENDBRANCH  56  70
BRANCH  57  81
ATOM     81  C   UNL     1       7.677  -3.359  13.506  1.00  0.00     0.023 A 
ATOM     82  C   UNL     1       8.248  -4.516  14.058  1.00  0.00     0.031 A 
ATOM     83  C   UNL     1       8.537  -2.419  12.908  1.00  0.00     0.131 A 
ATOM     84  C   UNL     1       9.643  -4.685  14.039  1.00  0.00     0.055 A 
ATOM     85  C   UNL     1       9.918  -2.615  12.847  1.00  0.00     0.041 A 
ATOM     86  F   UNL     1       8.043  -1.296  12.364  1.00  0.00    -0.206 F 
ATOM     87  C   UNL     1      10.479  -3.749  13.426  1.00  0.00     0.022 A 
BRANCH  84  88
ATOM     88  S   UNL     1      10.358  -6.114  14.897  1.00  0.00     0.124 S 
ATOM     89  O   UNL     1       9.862  -5.925  16.255  1.00  0.00    -0.237 OA
ATOM     90  O   UNL     1       9.786  -7.231  14.153  1.00  0.00    -0.237 OA
ATOM     91  O   UNL     1      11.798  -5.927  14.727  1.00  0.00    -0.744 OA
ENDBRANCH  84  88
ENDBRANCH  57  81
BRANCH  69  92
ATOM     92  C   UNL     1       3.266  -2.340  18.814  1.00  0.00     0.023 A 
ATOM     93  C   UNL     1       4.040  -1.372  19.477  1.00  0.00     0.031 A 
ATOM     94  C   UNL     1       2.681  -3.362  19.582  1.00  0.00     0.131 A 
ATOM     95  C   UNL     1       4.256  -1.479  20.860  1.00  0.00     0.055 A 
ATOM     96  C   UNL     1       2.850  -3.429  20.965  1.00  0.00     0.041 A 
ATOM     97  F   UNL     1       1.932  -4.312  18.999  1.00  0.00    -0.206 F 
ATOM     98  C   UNL     1       3.652  -2.492  21.610  1.00  0.00     0.022 A 
BRANCH  95  99
ATOM     99  S   UNL     1       5.411  -0.327  21.652  1.00  0.00     0.124 S 
ATOM    100  O   UNL     1       6.646  -0.581  20.916  1.00  0.00    -0.237 OA
ATOM    101  O   UNL     1       4.779   0.966  21.410  1.00  0.00    -0.237 OA
ATOM    102  O   UNL     1       5.422  -0.759  23.049  1.00  0.00    -0.744 OA
ENDBRANCH  95  99
ENDBRANCH  69  92
ENDBRANCH  43  44
ENDBRANCH  36  38
ENDBRANCH  35  36
ENDBRANCH  34  35
ENDBRANCH   1  34
TORSDOF 20
