REMARK SMILES CC1(C)CC[NH+](CC[C@H]2CCC[C@]2([NH3+])C(=O)OCCOCCOC(=O)c2ccc(-c3c4nc(c(-c5cc(S(=O)(=O)[O-])ccc5F)c5ccc([nH]5)c(-c5cc(S(=O)(=O)[O-])ccc5F)c5nc(c(-c6cc(S(=O)(=O)[O-])ccc6F)c6ccc3[nH]6)C=C5)C=C4)cc2)CC1
REMARK SMILES IDX 20 1 19 2 18 3 17 4 15 5 16 6 13 7 9 8 10 9 11 10 12 11 8 12
REMARK SMILES IDX 7 13 6 14 1 15 2 16 3 17 4 18 90 19 5 20 89 21 14 23 21 27
REMARK SMILES IDX 22 28 23 29 24 30 25 31 26 32 27 33 88 34 28 35 87 36 29 37
REMARK SMILES IDX 30 38 31 39 81 40 32 41 86 42 80 43 82 44 33 45 85 46 79 47
REMARK SMILES IDX 78 48 34 50 66 51 46 52 65 53 47 54 50 55 64 56 83 57 48 58
REMARK SMILES IDX 49 59 63 61 84 62 51 63 35 64 36 65 44 66 37 67 43 68 45 69
REMARK SMILES IDX 42 70 38 71 39 72 40 73 41 74 67 75 68 76 76 77 69 78 75 79
REMARK SMILES IDX 77 80 74 81 70 82 71 83 72 84 73 85 52 86 53 87 61 88 54 89
REMARK SMILES IDX 60 90 62 91 59 92 55 93 56 94 57 95 58 96
REMARK H PARENT 6 22 14 24 14 25 14 26 82 49 50 60
REMARK Flexibility Score: inf
ROOT
ATOM      1  O   UNL     1      -0.977   2.131   7.577  1.00  0.00    -0.374 OA
ENDROOT
BRANCH   1   2
ATOM      2  C   UNL     1      -1.631   3.290   7.055  1.00  0.00     0.202 C 
BRANCH   2   3
ATOM      3  C   UNL     1      -0.709   4.350   6.449  1.00  0.00     0.261 C 
BRANCH   3   4
ATOM      4  O   UNL     1      -0.049   3.850   5.267  1.00  0.00    -0.459 OA
BRANCH   4   5
ATOM      5  C   UNL     1       1.300   3.971   5.216  1.00  0.00     0.368 C 
ATOM      6  O   UNL     1       1.962   4.568   6.061  1.00  0.00    -0.245 OA
BRANCH   5   7
ATOM      7  C   UNL     1       1.934   3.405   3.887  1.00  0.00     0.195 C 
ATOM      8  C   UNL     1       1.170   2.222   3.173  1.00  0.00     0.068 C 
ATOM      9  C   UNL     1       1.975   0.941   3.510  1.00  0.00     0.011 C 
ATOM     10  C   UNL     1       2.935   1.339   4.617  1.00  0.00     0.008 C 
ATOM     11  C   UNL     1       3.289   2.772   4.261  1.00  0.00     0.081 C 
BRANCH   8  12
ATOM     12  C   UNL     1       1.000   2.375   1.635  1.00  0.00     0.072 C 
BRANCH  12  13
ATOM     13  C   UNL     1      -0.102   1.532   0.961  1.00  0.00     0.262 C 
BRANCH  13  14
ATOM     14  N   UNL     1      -1.483   2.016   0.910  1.00  0.00    -0.335 N 
ATOM     15  C   UNL     1      -3.893   4.829   2.001  1.00  0.00     0.011 C 
ATOM     16  C   UNL     1      -2.386   4.590   2.163  1.00  0.00    -0.025 C 
ATOM     17  C   UNL     1      -1.803   5.766   2.977  1.00  0.00     0.011 C 
ATOM     18  C   UNL     1      -2.156   3.289   2.945  1.00  0.00     0.068 C 
ATOM     19  C   UNL     1      -1.667   4.534   0.799  1.00  0.00     0.068 C 
ATOM     20  C   UNL     1      -2.260   2.000   2.137  1.00  0.00     0.262 C 
ATOM     21  C   UNL     1      -1.774   3.184   0.082  1.00  0.00     0.262 C 
ATOM     22  H   UNL     1      -1.843   1.229   0.370  1.00  0.00     0.348 HD
ENDBRANCH  13  14
ENDBRANCH  12  13
ENDBRANCH   8  12
BRANCH   7  23
ATOM     23  N   UNL     1       2.187   4.582   3.024  1.00  0.00    -0.343 N 
ATOM     24  H   UNL     1       2.600   4.275   2.143  1.00  0.00     0.345 HD
ATOM     25  H   UNL     1       2.829   5.218   3.497  1.00  0.00     0.345 HD
ATOM     26  H   UNL     1       1.307   5.062   2.837  1.00  0.00     0.345 HD
ENDBRANCH   7  23
ENDBRANCH   5   7
ENDBRANCH   4   5
ENDBRANCH   3   4
ENDBRANCH   2   3
ENDBRANCH   1   2
BRANCH   1  27
ATOM     27  C   UNL     1      -0.482   1.189   6.631  1.00  0.00     0.202 C 
BRANCH  27  28
ATOM     28  C   UNL     1      -1.484   0.203   6.016  1.00  0.00     0.261 C 
BRANCH  28  29
ATOM     29  O   UNL     1      -2.644   0.824   5.447  1.00  0.00    -0.460 OA
BRANCH  29  30
ATOM     30  C   UNL     1      -3.721   0.833   6.269  1.00  0.00     0.338 C 
ATOM     31  O   UNL     1      -3.779   0.369   7.403  1.00  0.00    -0.246 OA
BRANCH  30  32
ATOM     32  C   UNL     1      -4.818   1.618   5.675  1.00  0.00     0.060 A 
ATOM     33  C   UNL     1      -5.467   2.549   6.495  1.00  0.00     0.016 A 
ATOM     34  C   UNL     1      -5.261   1.398   4.368  1.00  0.00     0.016 A 
ATOM     35  C   UNL     1      -6.598   3.218   6.031  1.00  0.00     0.010 A 
ATOM     36  C   UNL     1      -6.390   2.080   3.900  1.00  0.00     0.010 A 
ATOM     37  C   UNL     1      -7.091   2.960   4.745  1.00  0.00    -0.014 A 
BRANCH  37  38
ATOM     38  C   UNL     1      -8.421   3.494   4.350  1.00  0.00     0.031 A 
ATOM     39  C   UNL     1      -9.607   2.564   4.333  1.00  0.00     0.074 A 
ATOM     40  C   UNL     1      -8.582   4.797   4.054  1.00  0.00     0.049 A 
ATOM     41  N   UNL     1     -10.851   2.807   4.009  1.00  0.00    -0.248 NA
ATOM     42  C   UNL     1      -9.351   1.171   4.732  1.00  0.00     0.031 C 
ATOM     43  C   UNL     1      -7.520   5.802   4.077  1.00  0.00     0.029 A 
ATOM     44  N   UNL     1      -9.700   5.498   3.678  1.00  0.00    -0.354 N 
ATOM     45  C   UNL     1     -11.526   1.599   4.158  1.00  0.00     0.074 A 
ATOM     46  C   UNL     1     -10.541   0.617   4.558  1.00  0.00     0.031 C 
ATOM     47  C   UNL     1      -8.039   6.991   3.728  1.00  0.00     0.029 A 
ATOM     48  C   UNL     1      -9.458   6.827   3.418  1.00  0.00     0.049 A 
ATOM     49  H   UNL     1     -10.592   5.089   3.601  1.00  0.00     0.167 HD
ATOM     50  C   UNL     1     -12.846   1.337   3.990  1.00  0.00     0.034 A 
ATOM     51  C   UNL     1     -10.280   7.794   2.959  1.00  0.00     0.034 A 
ATOM     52  C   UNL     1     -13.815   2.328   3.586  1.00  0.00     0.049 A 
ATOM     53  C   UNL     1     -11.729   7.459   2.695  1.00  0.00     0.074 A 
ATOM     54  C   UNL     1     -15.180   2.176   3.409  1.00  0.00     0.029 A 
ATOM     55  N   UNL     1     -13.523   3.651   3.279  1.00  0.00    -0.354 N 
ATOM     56  N   UNL     1     -12.358   6.316   2.858  1.00  0.00    -0.248 NA
ATOM     57  C   UNL     1     -12.581   8.546   2.194  1.00  0.00     0.031 C 
ATOM     58  C   UNL     1     -15.696   3.379   2.916  1.00  0.00     0.029 A 
ATOM     59  C   UNL     1     -14.673   4.313   2.874  1.00  0.00     0.049 A 
ATOM     60  H   UNL     1     -12.629   4.060   3.341  1.00  0.00     0.167 HD
ATOM     61  C   UNL     1     -13.685   6.560   2.510  1.00  0.00     0.074 A 
ATOM     62  C   UNL     1     -13.767   7.959   2.144  1.00  0.00     0.031 C 
ATOM     63  C   UNL     1     -14.742   5.706   2.499  1.00  0.00     0.034 A 
BRANCH  50  64
ATOM     64  C   UNL     1     -13.305  -0.089   4.189  1.00  0.00     0.023 A 
ATOM     65  C   UNL     1     -13.204  -0.737   5.433  1.00  0.00     0.031 A 
ATOM     66  C   UNL     1     -13.832  -0.821   3.110  1.00  0.00     0.131 A 
ATOM     67  C   UNL     1     -13.553  -2.091   5.549  1.00  0.00     0.055 A 
ATOM     68  C   UNL     1     -14.257  -2.143   3.252  1.00  0.00     0.041 A 
ATOM     69  F   UNL     1     -13.931  -0.266   1.892  1.00  0.00    -0.206 F 
ATOM     70  C   UNL     1     -14.105  -2.791   4.473  1.00  0.00     0.022 A 
BRANCH  67  71
ATOM     71  S   UNL     1     -13.136  -2.967   7.082  1.00  0.00     0.124 S 
ATOM     72  O   UNL     1     -11.691  -2.766   7.153  1.00  0.00    -0.237 OA
ATOM     73  O   UNL     1     -13.931  -2.257   8.077  1.00  0.00    -0.237 OA
ATOM     74  O   UNL     1     -13.553  -4.342   6.815  1.00  0.00    -0.744 OA
ENDBRANCH  67  71
ENDBRANCH  50  64
BRANCH  51  75
ATOM     75  C   UNL     1      -9.754   9.162   2.678  1.00  0.00     0.023 A 
ATOM     76  C   UNL     1     -10.236  10.286   3.367  1.00  0.00     0.031 A 
ATOM     77  C   UNL     1      -8.796   9.370   1.668  1.00  0.00     0.131 A 
ATOM     78  C   UNL     1      -9.796  11.570   3.006  1.00  0.00     0.055 A 
ATOM     79  C   UNL     1      -8.318  10.643   1.354  1.00  0.00     0.041 A 
ATOM     80  F   UNL     1      -8.303   8.332   0.974  1.00  0.00    -0.206 F 
ATOM     81  C   UNL     1      -8.829  11.755   2.016  1.00  0.00     0.022 A 
BRANCH  78  82
ATOM     82  S   UNL     1     -10.578  13.008   3.788  1.00  0.00     0.124 S 
ATOM     83  O   UNL     1     -11.980  12.810   3.437  1.00  0.00    -0.237 OA
ATOM     84  O   UNL     1     -10.233  12.814   5.192  1.00  0.00    -0.237 OA
ATOM     85  O   UNL     1      -9.926  14.144   3.139  1.00  0.00    -0.744 OA
ENDBRANCH  78  82
ENDBRANCH  51  75
BRANCH  63  86
ATOM     86  C   UNL     1     -16.090   6.278   2.122  1.00  0.00     0.023 A 
ATOM     87  C   UNL     1     -16.355   6.771   0.833  1.00  0.00     0.031 A 
ATOM     88  C   UNL     1     -17.124   6.334   3.075  1.00  0.00     0.131 A 
ATOM     89  C   UNL     1     -17.602   7.350   0.547  1.00  0.00     0.055 A 
ATOM     90  C   UNL     1     -18.384   6.849   2.765  1.00  0.00     0.041 A 
ATOM     91  F   UNL     1     -16.928   5.883   4.324  1.00  0.00    -0.206 F 
ATOM     92  C   UNL     1     -18.624   7.374   1.500  1.00  0.00     0.022 A 
BRANCH  89  93
ATOM     93  S   UNL     1     -17.838   8.164  -1.056  1.00  0.00     0.124 S 
ATOM     94  O   UNL     1     -16.779   9.168  -1.046  1.00  0.00    -0.237 OA
ATOM     95  O   UNL     1     -17.663   7.062  -1.996  1.00  0.00    -0.237 OA
ATOM     96  O   UNL     1     -19.198   8.697  -0.974  1.00  0.00    -0.744 OA
ENDBRANCH  89  93
ENDBRANCH  63  86
ENDBRANCH  37  38
ENDBRANCH  30  32
ENDBRANCH  29  30
ENDBRANCH  28  29
ENDBRANCH  27  28
ENDBRANCH   1  27
TORSDOF 21
