REMARK SMILES O=C(OCCOCCOC(=O)c1cccc(N2NC(=O)[C@H]3CC=CC[C@H]3C2=O)c1)c1ccc(-c2c3nc(c(-c4cc(S(=O)(=O)[O-])ccc4F)c4ccc([nH]4)c(-c4cc(S(=O)(=O)[O-])ccc4F)c4nc(c(-c5cc(S(=O)(=O)[O-])ccc5F)c5ccc2[nH]5)C=C4)C=C3)cc1
REMARK SMILES IDX 5 1 4 2 3 3 2 4 1 5 30 6 31 7 92 8 32 9 91 10 33 11 34 12
REMARK SMILES IDX 35 13 85 14 36 15 90 16 84 17 86 18 37 19 89 20 83 21 82 22
REMARK SMILES IDX 38 24 70 25 50 26 69 27 51 28 54 29 68 30 87 31 52 32 53 33
REMARK SMILES IDX 67 35 88 36 55 37 39 38 40 39 48 40 41 41 47 42 49 43 46 44
REMARK SMILES IDX 42 45 43 46 44 47 45 48 71 49 72 50 80 51 73 52 79 53 81 54
REMARK SMILES IDX 78 55 74 56 75 57 76 58 77 59 56 60 57 61 65 62 58 63 64 64
REMARK SMILES IDX 66 65 63 66 59 67 60 68 61 69 62 70 6 71 7 72 8 73 9 74
REMARK SMILES IDX 10 75 11 76 12 77 13 78 29 79 14 80 16 81 15 82 17 83 18 84
REMARK SMILES IDX 27 85 19 86 26 88 28 89 20 90 21 91 25 92 22 93 24 94 23 95
REMARK H PARENT 86 23 54 34 18 87
REMARK Flexibility Score: inf
ROOT
ATOM      1  C   UNL     1       4.337  -1.478   0.402  1.00  0.00     0.202 C 
ENDROOT
BRANCH   1   2
ATOM      2  C   UNL     1       4.079  -0.232   1.249  1.00  0.00     0.261 C 
BRANCH   2   3
ATOM      3  O   UNL     1       2.687   0.108   1.212  1.00  0.00    -0.460 OA
BRANCH   3   4
ATOM      4  C   UNL     1       2.075   1.033   0.438  1.00  0.00     0.338 C 
ATOM      5  O   UNL     1       0.852   1.141   0.523  1.00  0.00    -0.246 OA
BRANCH   4   6
ATOM      6  C   UNL     1       2.789   1.931  -0.524  1.00  0.00     0.060 A 
ATOM      7  C   UNL     1       3.981   1.629  -1.190  1.00  0.00     0.016 A 
ATOM      8  C   UNL     1       2.138   3.131  -0.854  1.00  0.00     0.016 A 
ATOM      9  C   UNL     1       4.527   2.481  -2.137  1.00  0.00     0.010 A 
ATOM     10  C   UNL     1       2.673   3.995  -1.809  1.00  0.00     0.010 A 
ATOM     11  C   UNL     1       3.877   3.668  -2.444  1.00  0.00    -0.014 A 
BRANCH  11  12
ATOM     12  C   UNL     1       4.568   4.631  -3.309  1.00  0.00     0.031 A 
ATOM     13  C   UNL     1       5.283   5.760  -2.643  1.00  0.00     0.074 A 
ATOM     14  C   UNL     1       4.613   4.431  -4.635  1.00  0.00     0.049 A 
ATOM     15  N   UNL     1       5.833   6.818  -3.164  1.00  0.00    -0.248 NA
ATOM     16  C   UNL     1       5.388   5.675  -1.177  1.00  0.00     0.031 C 
ATOM     17  C   UNL     1       4.066   3.262  -5.328  1.00  0.00     0.029 A 
ATOM     18  N   UNL     1       5.143   5.198  -5.634  1.00  0.00    -0.354 N 
ATOM     19  C   UNL     1       6.317   7.551  -2.087  1.00  0.00     0.074 A 
ATOM     20  C   UNL     1       5.987   6.816  -0.886  1.00  0.00     0.031 C 
ATOM     21  C   UNL     1       4.272   3.403  -6.647  1.00  0.00     0.029 A 
ATOM     22  C   UNL     1       4.890   4.702  -6.891  1.00  0.00     0.049 A 
ATOM     23  H   UNL     1       5.654   6.024  -5.470  1.00  0.00     0.167 HD
ATOM     24  C   UNL     1       6.960   8.742  -2.118  1.00  0.00     0.034 A 
ATOM     25  C   UNL     1       5.081   5.277  -8.093  1.00  0.00     0.034 A 
ATOM     26  C   UNL     1       7.223   9.437  -3.354  1.00  0.00     0.049 A 
ATOM     27  C   UNL     1       5.687   6.659  -8.111  1.00  0.00     0.074 A 
ATOM     28  C   UNL     1       7.789  10.681  -3.551  1.00  0.00     0.029 A 
ATOM     29  N   UNL     1       6.911   8.933  -4.616  1.00  0.00    -0.354 N 
ATOM     30  N   UNL     1       6.065   7.403  -7.093  1.00  0.00    -0.248 NA
ATOM     31  C   UNL     1       5.885   7.283  -9.421  1.00  0.00     0.031 C 
ATOM     32  C   UNL     1       7.751  10.958  -4.923  1.00  0.00     0.029 A 
ATOM     33  C   UNL     1       7.247   9.851  -5.594  1.00  0.00     0.049 A 
ATOM     34  H   UNL     1       6.509   8.051  -4.787  1.00  0.00     0.167 HD
ATOM     35  C   UNL     1       6.575   8.574  -7.642  1.00  0.00     0.074 A 
ATOM     36  C   UNL     1       6.452   8.434  -9.083  1.00  0.00     0.031 C 
ATOM     37  C   UNL     1       7.106   9.660  -7.022  1.00  0.00     0.034 A 
BRANCH  24  38
ATOM     38  C   UNL     1       7.275   9.376  -0.784  1.00  0.00     0.023 A 
ATOM     39  C   UNL     1       8.102   8.745   0.165  1.00  0.00     0.031 A 
ATOM     40  C   UNL     1       6.615  10.555  -0.394  1.00  0.00     0.131 A 
ATOM     41  C   UNL     1       8.146   9.223   1.484  1.00  0.00     0.055 A 
ATOM     42  C   UNL     1       6.746  11.084   0.892  1.00  0.00     0.041 A 
ATOM     43  F   UNL     1       5.787  11.188  -1.239  1.00  0.00    -0.206 F 
ATOM     44  C   UNL     1       7.494  10.403   1.848  1.00  0.00     0.022 A 
BRANCH  41  45
ATOM     45  S   UNL     1       8.876   8.162   2.765  1.00  0.00     0.124 S 
ATOM     46  O   UNL     1       8.071   6.948   2.637  1.00  0.00    -0.237 OA
ATOM     47  O   UNL     1      10.264   8.055   2.334  1.00  0.00    -0.237 OA
ATOM     48  O   UNL     1       8.660   8.914   3.999  1.00  0.00    -0.744 OA
ENDBRANCH  41  45
ENDBRANCH  24  38
BRANCH  25  49
ATOM     49  C   UNL     1       4.619   4.590  -9.334  1.00  0.00     0.023 A 
ATOM     50  C   UNL     1       5.518   4.178 -10.328  1.00  0.00     0.031 A 
ATOM     51  C   UNL     1       3.250   4.322  -9.534  1.00  0.00     0.131 A 
ATOM     52  C   UNL     1       5.038   3.534 -11.482  1.00  0.00     0.055 A 
ATOM     53  C   UNL     1       2.784   3.640 -10.659  1.00  0.00     0.041 A 
ATOM     54  F   UNL     1       2.343   4.695  -8.617  1.00  0.00    -0.206 F 
ATOM     55  C   UNL     1       3.680   3.248 -11.646  1.00  0.00     0.022 A 
BRANCH  52  56
ATOM     56  S   UNL     1       6.210   3.116 -12.803  1.00  0.00     0.124 S 
ATOM     57  O   UNL     1       6.752   4.426 -13.145  1.00  0.00    -0.237 OA
ATOM     58  O   UNL     1       7.122   2.202 -12.122  1.00  0.00    -0.237 OA
ATOM     59  O   UNL     1       5.367   2.503 -13.826  1.00  0.00    -0.744 OA
ENDBRANCH  52  56
ENDBRANCH  25  49
BRANCH  37  60
ATOM     60  C   UNL     1       7.657  10.747  -7.907  1.00  0.00     0.023 A 
ATOM     61  C   UNL     1       6.824  11.586  -8.662  1.00  0.00     0.031 A 
ATOM     62  C   UNL     1       9.045  10.971  -7.943  1.00  0.00     0.131 A 
ATOM     63  C   UNL     1       7.392  12.598  -9.448  1.00  0.00     0.055 A 
ATOM     64  C   UNL     1       9.599  12.014  -8.681  1.00  0.00     0.041 A 
ATOM     65  F   UNL     1       9.881  10.192  -7.237  1.00  0.00    -0.206 F 
ATOM     66  C   UNL     1       8.771  12.831  -9.445  1.00  0.00     0.022 A 
BRANCH  63  67
ATOM     67  S   UNL     1       6.310  13.579 -10.523  1.00  0.00     0.124 S 
ATOM     68  O   UNL     1       5.756  12.557 -11.406  1.00  0.00    -0.237 OA
ATOM     69  O   UNL     1       5.378  14.174  -9.571  1.00  0.00    -0.237 OA
ATOM     70  O   UNL     1       7.226  14.521 -11.163  1.00  0.00    -0.744 OA
ENDBRANCH  63  67
ENDBRANCH  37  60
ENDBRANCH  11  12
ENDBRANCH   4   6
ENDBRANCH   3   4
ENDBRANCH   2   3
ENDBRANCH   1   2
BRANCH   1  71
ATOM     71  O   UNL     1       4.030  -1.333  -0.984  1.00  0.00    -0.374 OA
BRANCH  71  72
ATOM     72  C   UNL     1       2.689  -1.629  -1.382  1.00  0.00     0.202 C 
BRANCH  72  73
ATOM     73  C   UNL     1       2.726  -2.543  -2.611  1.00  0.00     0.261 C 
BRANCH  73  74
ATOM     74  O   UNL     1       3.355  -3.776  -2.236  1.00  0.00    -0.460 OA
BRANCH  74  75
ATOM     75  C   UNL     1       4.716  -3.759  -2.262  1.00  0.00     0.338 C 
ATOM     76  O   UNL     1       5.445  -3.052  -2.933  1.00  0.00    -0.246 OA
BRANCH  75  77
ATOM     77  C   UNL     1       5.169  -4.610  -1.145  1.00  0.00     0.062 A 
ATOM     78  C   UNL     1       6.255  -4.209  -0.361  1.00  0.00     0.016 A 
ATOM     79  C   UNL     1       4.454  -5.757  -0.816  1.00  0.00     0.044 A 
ATOM     80  C   UNL     1       6.557  -4.902   0.813  1.00  0.00     0.003 A 
ATOM     81  C   UNL     1       4.779  -6.472   0.334  1.00  0.00     0.067 A 
ATOM     82  C   UNL     1       5.801  -6.019   1.177  1.00  0.00     0.028 A 
BRANCH  81  83
ATOM     83  N   UNL     1       4.184  -7.738   0.526  1.00  0.00    -0.221 N 
ATOM     84  N   UNL     1       4.283  -8.600  -0.571  1.00  0.00    -0.260 N 
ATOM     85  C   UNL     1       3.750  -8.175   1.771  1.00  0.00     0.249 C 
ATOM     86  C   UNL     1       3.908  -9.907  -0.567  1.00  0.00     0.243 C 
ATOM     87  H   UNL     1       4.650  -8.234  -1.407  1.00  0.00     0.192 HD
ATOM     88  C   UNL     1       3.673  -9.676   1.927  1.00  0.00     0.097 C 
ATOM     89  O   UNL     1       3.544  -7.441   2.739  1.00  0.00    -0.272 OA
ATOM     90  O   UNL     1       4.094 -10.598  -1.565  1.00  0.00    -0.273 OA
ATOM     91  C   UNL     1       3.178 -10.383   0.666  1.00  0.00     0.097 C 
ATOM     92  C   UNL     1       5.072 -10.120   2.380  1.00  0.00     0.041 C 
ATOM     93  C   UNL     1       3.275 -11.910   0.800  1.00  0.00     0.041 C 
ATOM     94  C   UNL     1       5.344 -11.573   2.170  1.00  0.00    -0.030 C 
ATOM     95  C   UNL     1       4.535 -12.380   1.471  1.00  0.00    -0.030 C 
ENDBRANCH  81  83
ENDBRANCH  75  77
ENDBRANCH  74  75
ENDBRANCH  73  74
ENDBRANCH  72  73
ENDBRANCH  71  72
ENDBRANCH   1  71
TORSDOF 18
