REMARK SMILES Cc1ccc(C)c(S(=O)(=O)N[C@H](CC2=c3ccccc3=NC2)C(=O)OCCOCCOC(=O)c2ccc(-c3c4nc(c(-c5cc(S(=O)(=O)[O-])ccc5F)c5ccc([nH]5)c(-c5cc(S(=O)(=O)[O-])ccc5F)c5nc(c(-c6cc(S(=O)(=O)[O-])ccc6F)c6ccc3[nH]6)C=C5)C=C4)cc2)c1
REMARK SMILES IDX 28 1 27 2 26 3 25 4 23 5 24 6 12 7 11 8 8 10 9 11 10 12 7 13
REMARK SMILES IDX 1 14 2 15 3 16 97 17 4 18 5 19 6 20 13 21 14 22 15 23 22 24
REMARK SMILES IDX 16 25 20 26 21 27 17 28 19 29 18 30 29 31 30 32 31 33 32 34
REMARK SMILES IDX 33 35 34 36 35 37 96 38 36 39 95 40 37 41 38 42 39 43 89 44
REMARK SMILES IDX 40 45 94 46 88 47 90 48 41 49 93 50 87 51 86 52 42 54 74 55
REMARK SMILES IDX 54 56 73 57 55 58 58 59 72 60 91 61 56 62 57 63 71 65 92 66
REMARK SMILES IDX 59 67 43 68 44 69 52 70 45 71 51 72 53 73 50 74 46 75 47 76
REMARK SMILES IDX 48 77 49 78 75 79 76 80 84 81 77 82 83 83 85 84 82 85 78 86
REMARK SMILES IDX 79 87 80 88 81 89 60 90 61 91 69 92 62 93 68 94 70 95 67 96
REMARK SMILES IDX 63 97 64 98 65 99 66 100
REMARK H PARENT 11 9 90 53 58 64
REMARK Flexibility Score: inf
ROOT
ATOM      1  O   UNL     1       1.889   6.330   0.189  1.00  0.00    -0.374 OA
ENDROOT
BRANCH   1   2
ATOM      2  C   UNL     1       0.879   7.314   0.127  1.00  0.00     0.202 C 
BRANCH   2   3
ATOM      3  C   UNL     1       0.018   7.039  -1.122  1.00  0.00     0.261 C 
BRANCH   3   4
ATOM      4  O   UNL     1      -0.892   5.934  -0.894  1.00  0.00    -0.462 OA
BRANCH   4   5
ATOM      5  C   UNL     1      -0.308   4.712  -0.781  1.00  0.00     0.324 C 
ATOM      6  O   UNL     1       0.833   4.456  -1.132  1.00  0.00    -0.250 OA
BRANCH   5   7
ATOM      7  C   UNL     1      -1.230   3.673  -0.154  1.00  0.00     0.183 C 
BRANCH   7   8
ATOM      8  N   UNL     1      -2.200   3.088  -1.133  1.00  0.00    -0.197 NA
ATOM      9  H   UNL     1      -2.960   2.659  -0.605  1.00  0.00     0.142 HD
BRANCH   8  10
ATOM     10  S   UNL     1      -1.559   1.917  -2.175  1.00  0.00     0.241 S 
ATOM     11  O   UNL     1      -0.165   2.257  -2.279  1.00  0.00    -0.207 OA
ATOM     12  O   UNL     1      -2.466   1.850  -3.287  1.00  0.00    -0.207 OA
BRANCH  10  13
ATOM     13  C   UNL     1      -1.583   0.374  -1.323  1.00  0.00     0.085 A 
ATOM     14  C   UNL     1      -2.508  -0.825   2.135  1.00  0.00     0.044 C 
ATOM     15  C   UNL     1      -2.006  -0.821   0.728  1.00  0.00    -0.050 A 
ATOM     16  C   UNL     1      -1.291  -1.914   0.229  1.00  0.00     0.004 A 
ATOM     17  C   UNL     1      -2.213   0.296  -0.083  1.00  0.00     0.025 A 
ATOM     18  C   UNL     1      -0.686  -1.849  -1.022  1.00  0.00     0.005 A 
ATOM     19  C   UNL     1      -0.784  -0.687  -1.793  1.00  0.00    -0.031 A 
ATOM     20  C   UNL     1       0.053  -0.608  -3.036  1.00  0.00     0.046 C 
ENDBRANCH  10  13
ENDBRANCH   8  10
ENDBRANCH   7   8
BRANCH   7  21
ATOM     21  C   UNL     1      -2.033   4.062   1.113  1.00  0.00     0.065 C 
BRANCH  21  22
ATOM     22  C   UNL     1      -1.712   5.285   1.914  1.00  0.00    -0.037 C 
ATOM     23  C   UNL     1      -0.945   5.390   2.997  1.00  0.00     0.001 A 
ATOM     24  C   UNL     1      -2.399   6.595   1.637  1.00  0.00     0.174 C 
ATOM     25  C   UNL     1      -0.138   4.498   3.769  1.00  0.00     0.010 A 
ATOM     26  C   UNL     1      -1.032   6.825   3.322  1.00  0.00     0.065 A 
ATOM     27  N   UNL     1      -1.838   7.557   2.617  1.00  0.00    -0.280 NA
ATOM     28  C   UNL     1       0.601   5.003   4.772  1.00  0.00     0.001 A 
ATOM     29  C   UNL     1      -0.156   7.312   4.408  1.00  0.00     0.028 A 
ATOM     30  C   UNL     1       0.607   6.427   5.071  1.00  0.00     0.002 A 
ENDBRANCH  21  22
ENDBRANCH   7  21
ENDBRANCH   5   7
ENDBRANCH   4   5
ENDBRANCH   3   4
ENDBRANCH   2   3
ENDBRANCH   1   2
BRANCH   1  31
ATOM     31  C   UNL     1       2.306   5.800   1.427  1.00  0.00     0.202 C 
BRANCH  31  32
ATOM     32  C   UNL     1       3.156   6.761   2.256  1.00  0.00     0.261 C 
BRANCH  32  33
ATOM     33  O   UNL     1       4.418   7.095   1.637  1.00  0.00    -0.460 OA
BRANCH  33  34
ATOM     34  C   UNL     1       4.318   7.909   0.546  1.00  0.00     0.338 C 
ATOM     35  O   UNL     1       4.106   9.108   0.612  1.00  0.00    -0.246 OA
BRANCH  34  36
ATOM     36  C   UNL     1       4.327   7.092  -0.703  1.00  0.00     0.060 A 
ATOM     37  C   UNL     1       3.667   7.578  -1.844  1.00  0.00     0.016 A 
ATOM     38  C   UNL     1       4.676   5.741  -0.613  1.00  0.00     0.016 A 
ATOM     39  C   UNL     1       3.260   6.681  -2.841  1.00  0.00     0.010 A 
ATOM     40  C   UNL     1       4.162   4.848  -1.537  1.00  0.00     0.010 A 
ATOM     41  C   UNL     1       3.461   5.303  -2.665  1.00  0.00    -0.014 A 
BRANCH  41  42
ATOM     42  C   UNL     1       3.537   4.357  -3.787  1.00  0.00     0.031 A 
ATOM     43  C   UNL     1       4.794   4.590  -4.483  1.00  0.00     0.074 A 
ATOM     44  C   UNL     1       2.706   3.460  -4.344  1.00  0.00     0.049 A 
ATOM     45  N   UNL     1       4.870   5.461  -5.438  1.00  0.00    -0.248 NA
ATOM     46  C   UNL     1       6.069   4.132  -3.939  1.00  0.00     0.031 C 
ATOM     47  C   UNL     1       1.270   3.427  -4.204  1.00  0.00     0.029 A 
ATOM     48  N   UNL     1       2.978   2.393  -5.187  1.00  0.00    -0.354 N 
ATOM     49  C   UNL     1       6.181   5.404  -5.821  1.00  0.00     0.074 A 
ATOM     50  C   UNL     1       6.898   4.864  -4.687  1.00  0.00     0.031 C 
ATOM     51  C   UNL     1       0.783   2.358  -4.871  1.00  0.00     0.029 A 
ATOM     52  C   UNL     1       1.885   1.557  -5.392  1.00  0.00     0.049 A 
ATOM     53  H   UNL     1       3.859   2.243  -5.600  1.00  0.00     0.167 HD
ATOM     54  C   UNL     1       6.469   5.383  -7.147  1.00  0.00     0.034 A 
ATOM     55  C   UNL     1       1.644   0.654  -6.373  1.00  0.00     0.034 A 
ATOM     56  C   UNL     1       5.345   5.780  -7.969  1.00  0.00     0.049 A 
ATOM     57  C   UNL     1       1.958   1.319  -7.655  1.00  0.00     0.074 A 
ATOM     58  C   UNL     1       4.725   6.968  -8.302  1.00  0.00     0.029 A 
ATOM     59  N   UNL     1       4.447   4.780  -8.255  1.00  0.00    -0.354 N 
ATOM     60  N   UNL     1       1.247   2.279  -8.180  1.00  0.00    -0.248 NA
ATOM     61  C   UNL     1       3.276   1.110  -8.254  1.00  0.00     0.031 C 
ATOM     62  C   UNL     1       3.425   6.649  -8.796  1.00  0.00     0.029 A 
ATOM     63  C   UNL     1       3.259   5.271  -8.748  1.00  0.00     0.049 A 
ATOM     64  H   UNL     1       4.631   3.822  -8.122  1.00  0.00     0.167 HD
ATOM     65  C   UNL     1       2.188   3.060  -8.819  1.00  0.00     0.074 A 
ATOM     66  C   UNL     1       3.361   2.218  -8.990  1.00  0.00     0.031 C 
ATOM     67  C   UNL     1       2.092   4.417  -8.845  1.00  0.00     0.034 A 
BRANCH  54  68
ATOM     68  C   UNL     1       7.629   4.587  -7.663  1.00  0.00     0.023 A 
ATOM     69  C   UNL     1       8.206   3.535  -6.924  1.00  0.00     0.031 A 
ATOM     70  C   UNL     1       8.106   4.757  -8.966  1.00  0.00     0.131 A 
ATOM     71  C   UNL     1       9.294   2.805  -7.392  1.00  0.00     0.055 A 
ATOM     72  C   UNL     1       9.128   3.952  -9.486  1.00  0.00     0.041 A 
ATOM     73  F   UNL     1       7.580   5.691  -9.774  1.00  0.00    -0.206 F 
ATOM     74  C   UNL     1       9.748   2.989  -8.689  1.00  0.00     0.022 A 
BRANCH  71  75
ATOM     75  S   UNL     1      10.148   1.658  -6.277  1.00  0.00     0.124 S 
ATOM     76  O   UNL     1      10.006   0.390  -6.981  1.00  0.00    -0.237 OA
ATOM     77  O   UNL     1      11.495   2.224  -6.245  1.00  0.00    -0.237 OA
ATOM     78  O   UNL     1       9.405   1.777  -5.024  1.00  0.00    -0.744 OA
ENDBRANCH  71  75
ENDBRANCH  54  68
BRANCH  55  79
ATOM     79  C   UNL     1       1.754  -0.817  -6.194  1.00  0.00     0.023 A 
ATOM     80  C   UNL     1       2.438  -1.425  -5.123  1.00  0.00     0.031 A 
ATOM     81  C   UNL     1       1.100  -1.667  -7.106  1.00  0.00     0.131 A 
ATOM     82  C   UNL     1       2.416  -2.827  -4.970  1.00  0.00     0.055 A 
ATOM     83  C   UNL     1       1.103  -3.058  -6.967  1.00  0.00     0.041 A 
ATOM     84  F   UNL     1       0.411  -1.153  -8.136  1.00  0.00    -0.206 F 
ATOM     85  C   UNL     1       1.755  -3.644  -5.889  1.00  0.00     0.022 A 
BRANCH  82  86
ATOM     86  S   UNL     1       3.094  -3.615  -3.473  1.00  0.00     0.124 S 
ATOM     87  O   UNL     1       2.116  -4.668  -3.198  1.00  0.00    -0.237 OA
ATOM     88  O   UNL     1       4.396  -4.077  -3.936  1.00  0.00    -0.237 OA
ATOM     89  O   UNL     1       3.103  -2.533  -2.494  1.00  0.00    -0.744 OA
ENDBRANCH  82  86
ENDBRANCH  55  79
BRANCH  67  90
ATOM     90  C   UNL     1       0.723   5.026  -8.810  1.00  0.00     0.023 A 
ATOM     91  C   UNL     1       0.258   5.671  -9.966  1.00  0.00     0.031 A 
ATOM     92  C   UNL     1      -0.083   5.082  -7.665  1.00  0.00     0.131 A 
ATOM     93  C   UNL     1      -0.966   6.352  -9.946  1.00  0.00     0.055 A 
ATOM     94  C   UNL     1      -1.341   5.692  -7.669  1.00  0.00     0.041 A 
ATOM     95  F   UNL     1       0.360   4.621  -6.494  1.00  0.00    -0.206 F 
ATOM     96  C   UNL     1      -1.787   6.338  -8.815  1.00  0.00     0.022 A 
BRANCH  93  97
ATOM     97  S   UNL     1      -1.432   7.436 -11.321  1.00  0.00     0.124 S 
ATOM     98  O   UNL     1      -2.586   6.745 -11.890  1.00  0.00    -0.237 OA
ATOM     99  O   UNL     1      -1.732   8.692 -10.636  1.00  0.00    -0.237 OA
ATOM    100  O   UNL     1      -0.240   7.466 -12.164  1.00  0.00    -0.744 OA
ENDBRANCH  93  97
ENDBRANCH  67  90
ENDBRANCH  41  42
ENDBRANCH  34  36
ENDBRANCH  33  34
ENDBRANCH  32  33
ENDBRANCH  31  32
ENDBRANCH   1  31
TORSDOF 22
