REMARK SMILES Nn1c(S[C@@H](C(=O)OCCOCCOC(=O)c2ccc(-c3c4nc(c(-c5cc(S(=O)(=O)[O-])ccc5F)c5ccc([nH]5)c(-c5cc(S(=O)(=O)[O-])ccc5F)c5nc(c(-c6cc(S(=O)(=O)[O-])ccc6F)c6ccc3[nH]6)C=C5)C=C4)cc2)c2ccccc2)nc2ccc(Br)cc2c1=O
REMARK SMILES IDX 11 1 10 2 9 3 8 4 6 5 7 6 5 7 4 8 3 9 2 10 94 11 86 12 93 13
REMARK SMILES IDX 95 14 87 15 92 16 88 17 90 18 89 19 91 20 1 21 80 24 81 25
REMARK SMILES IDX 85 26 82 27 84 28 83 29 12 30 13 31 14 32 15 33 16 34 17 35
REMARK SMILES IDX 18 36 79 37 19 38 78 39 20 40 21 41 22 42 72 43 23 44 77 45
REMARK SMILES IDX 71 46 73 47 24 48 76 49 70 50 69 51 25 53 57 54 37 55 56 56
REMARK SMILES IDX 38 57 41 58 55 59 74 60 39 61 40 62 54 64 75 65 42 66 26 67
REMARK SMILES IDX 27 68 35 69 28 70 34 71 36 72 33 73 29 74 30 75 31 76 32 77
REMARK SMILES IDX 58 78 59 79 67 80 60 81 66 82 68 83 65 84 61 85 62 86 63 87
REMARK SMILES IDX 64 88 43 89 44 90 52 91 45 92 51 93 53 94 50 95 46 96 47 97
REMARK SMILES IDX 48 98 49 99
REMARK H PARENT 1 22 1 23 73 52 41 63
REMARK Flexibility Score: inf
ROOT
ATOM      1  O   UNL     1       2.937  -2.066   2.021  1.00  0.00    -0.374 OA
ENDROOT
BRANCH   1   2
ATOM      2  C   UNL     1       4.221  -1.447   1.961  1.00  0.00     0.202 C 
BRANCH   2   3
ATOM      3  C   UNL     1       4.633  -0.738   0.660  1.00  0.00     0.261 C 
BRANCH   3   4
ATOM      4  O   UNL     1       3.675   0.230   0.165  1.00  0.00    -0.462 OA
BRANCH   4   5
ATOM      5  C   UNL     1       3.490   0.214  -1.189  1.00  0.00     0.324 C 
ATOM      6  O   UNL     1       4.136  -0.527  -1.930  1.00  0.00    -0.251 OA
BRANCH   5   7
ATOM      7  C   UNL     1       2.432   1.185  -1.750  1.00  0.00     0.194 C 
BRANCH   7   8
ATOM      8  S   UNL     1       1.812   2.449  -0.621  1.00  0.00    -0.066 SA
BRANCH   8   9
ATOM      9  C   UNL     1       0.331   2.150   0.263  1.00  0.00     0.191 A 
ATOM     10  N   UNL     1      -0.452   0.993   0.232  1.00  0.00    -0.202 N 
ATOM     11  C   UNL     1      -1.473   0.759   1.163  1.00  0.00     0.280 A 
ATOM     12  N   UNL     1       0.027   3.137   1.056  1.00  0.00    -0.222 NA
ATOM     13  C   UNL     1      -1.775   1.848   2.090  1.00  0.00     0.069 A 
ATOM     14  O   UNL     1      -2.083  -0.309   1.237  1.00  0.00    -0.267 OA
ATOM     15  C   UNL     1      -1.055   3.028   1.940  1.00  0.00     0.079 A 
ATOM     16  C   UNL     1      -2.760   1.696   3.073  1.00  0.00     0.031 A 
ATOM     17  C   UNL     1      -1.389   4.110   2.759  1.00  0.00     0.030 A 
ATOM     18  C   UNL     1      -3.062   2.776   3.892  1.00  0.00     0.018 A 
ATOM     19  C   UNL     1      -2.395   3.990   3.728  1.00  0.00     0.018 A 
ATOM     20  Br  UNL     1      -4.386   2.594   5.227  1.00  0.00    -0.051 Br
BRANCH  10  21
ATOM     21  N   UNL     1      -0.322  -0.017  -0.721  1.00  0.00    -0.334 N 
ATOM     22  H   UNL     1       0.367   0.053  -1.420  1.00  0.00     0.178 HD
ATOM     23  H   UNL     1      -0.918  -0.799  -0.693  1.00  0.00     0.178 HD
ENDBRANCH  10  21
ENDBRANCH   8   9
ENDBRANCH   7   8
BRANCH   7  24
ATOM     24  C   UNL     1       1.451   0.602  -2.769  1.00  0.00    -0.023 A 
ATOM     25  C   UNL     1       1.347  -0.783  -3.016  1.00  0.00     0.005 A 
ATOM     26  C   UNL     1       0.555   1.454  -3.443  1.00  0.00     0.005 A 
ATOM     27  C   UNL     1       0.309  -1.299  -3.796  1.00  0.00     0.000 A 
ATOM     28  C   UNL     1      -0.483   0.936  -4.218  1.00  0.00     0.000 A 
ATOM     29  C   UNL     1      -0.621  -0.441  -4.374  1.00  0.00     0.000 A 
ENDBRANCH   7  24
ENDBRANCH   5   7
ENDBRANCH   4   5
ENDBRANCH   3   4
ENDBRANCH   2   3
ENDBRANCH   1   2
BRANCH   1  30
ATOM     30  C   UNL     1       1.808  -1.236   1.798  1.00  0.00     0.202 C 
BRANCH  30  31
ATOM     31  C   UNL     1       1.494  -0.121   2.800  1.00  0.00     0.261 C 
BRANCH  31  32
ATOM     32  O   UNL     1       2.612   0.658   3.201  1.00  0.00    -0.460 OA
BRANCH  32  33
ATOM     33  C   UNL     1       2.921   0.533   4.512  1.00  0.00     0.338 C 
ATOM     34  O   UNL     1       2.339  -0.126   5.358  1.00  0.00    -0.246 OA
BRANCH  33  35
ATOM     35  C   UNL     1       4.212   1.188   4.720  1.00  0.00     0.060 A 
ATOM     36  C   UNL     1       4.363   2.557   4.491  1.00  0.00     0.016 A 
ATOM     37  C   UNL     1       5.282   0.392   5.137  1.00  0.00     0.016 A 
ATOM     38  C   UNL     1       5.607   3.140   4.713  1.00  0.00     0.010 A 
ATOM     39  C   UNL     1       6.521   0.977   5.358  1.00  0.00     0.010 A 
ATOM     40  C   UNL     1       6.682   2.356   5.171  1.00  0.00    -0.014 A 
BRANCH  40  41
ATOM     41  C   UNL     1       7.940   2.995   5.608  1.00  0.00     0.031 A 
ATOM     42  C   UNL     1       9.196   2.854   4.810  1.00  0.00     0.074 A 
ATOM     43  C   UNL     1       7.926   3.650   6.785  1.00  0.00     0.049 A 
ATOM     44  N   UNL     1      10.381   3.340   5.062  1.00  0.00    -0.248 NA
ATOM     45  C   UNL     1       9.120   2.056   3.575  1.00  0.00     0.031 C 
ATOM     46  C   UNL     1       6.748   3.790   7.644  1.00  0.00     0.029 A 
ATOM     47  N   UNL     1       8.915   4.308   7.466  1.00  0.00    -0.354 N 
ATOM     48  C   UNL     1      11.193   2.922   4.017  1.00  0.00     0.074 A 
ATOM     49  C   UNL     1      10.378   2.099   3.151  1.00  0.00     0.031 C 
ATOM     50  C   UNL     1       7.075   4.514   8.722  1.00  0.00     0.029 A 
ATOM     51  C   UNL     1       8.494   4.848   8.659  1.00  0.00     0.049 A 
ATOM     52  H   UNL     1       9.839   4.387   7.134  1.00  0.00     0.167 HD
ATOM     53  C   UNL     1      12.495   3.224   3.803  1.00  0.00     0.034 A 
ATOM     54  C   UNL     1       9.177   5.533   9.598  1.00  0.00     0.034 A 
ATOM     55  C   UNL     1      13.276   4.043   4.697  1.00  0.00     0.049 A 
ATOM     56  C   UNL     1      10.632   5.830   9.342  1.00  0.00     0.074 A 
ATOM     57  C   UNL     1      14.592   4.442   4.556  1.00  0.00     0.029 A 
ATOM     58  N   UNL     1      12.821   4.584   5.893  1.00  0.00    -0.354 N 
ATOM     59  N   UNL     1      11.365   5.513   8.299  1.00  0.00    -0.248 NA
ATOM     60  C   UNL     1      11.353   6.587  10.372  1.00  0.00     0.031 C 
ATOM     61  C   UNL     1      14.956   5.153   5.698  1.00  0.00     0.029 A 
ATOM     62  C   UNL     1      13.842   5.287   6.512  1.00  0.00     0.049 A 
ATOM     63  H   UNL     1      11.908   4.483   6.248  1.00  0.00     0.167 HD
ATOM     64  C   UNL     1      12.621   6.064   8.531  1.00  0.00     0.074 A 
ATOM     65  C   UNL     1      12.539   6.754   9.802  1.00  0.00     0.031 C 
ATOM     66  C   UNL     1      13.739   5.998   7.766  1.00  0.00     0.034 A 
BRANCH  53  67
ATOM     67  C   UNL     1      13.174   2.711   2.557  1.00  0.00     0.023 A 
ATOM     68  C   UNL     1      14.311   1.888   2.662  1.00  0.00     0.031 A 
ATOM     69  C   UNL     1      12.811   3.182   1.283  1.00  0.00     0.131 A 
ATOM     70  C   UNL     1      15.079   1.611   1.524  1.00  0.00     0.055 A 
ATOM     71  C   UNL     1      13.551   2.861   0.144  1.00  0.00     0.041 A 
ATOM     72  F   UNL     1      11.736   3.973   1.128  1.00  0.00    -0.206 F 
ATOM     73  C   UNL     1      14.701   2.087   0.265  1.00  0.00     0.022 A 
BRANCH  70  74
ATOM     74  S   UNL     1      16.642   0.699   1.647  1.00  0.00     0.124 S 
ATOM     75  O   UNL     1      16.418  -0.409   0.721  1.00  0.00    -0.237 OA
ATOM     76  O   UNL     1      17.611   1.696   1.204  1.00  0.00    -0.237 OA
ATOM     77  O   UNL     1      16.718   0.322   3.055  1.00  0.00    -0.744 OA
ENDBRANCH  70  74
ENDBRANCH  53  67
BRANCH  54  78
ATOM     78  C   UNL     1       8.460   6.033  10.808  1.00  0.00     0.023 A 
ATOM     79  C   UNL     1       7.817   5.146  11.692  1.00  0.00     0.031 A 
ATOM     80  C   UNL     1       8.319   7.411  11.042  1.00  0.00     0.131 A 
ATOM     81  C   UNL     1       7.013   5.649  12.723  1.00  0.00     0.055 A 
ATOM     82  C   UNL     1       7.582   7.907  12.118  1.00  0.00     0.041 A 
ATOM     83  F   UNL     1       8.893   8.299  10.215  1.00  0.00    -0.206 F 
ATOM     84  C   UNL     1       6.909   7.023  12.956  1.00  0.00     0.022 A 
BRANCH  81  85
ATOM     85  S   UNL     1       5.964   4.542  13.708  1.00  0.00     0.124 S 
ATOM     86  O   UNL     1       6.480   4.755  15.057  1.00  0.00    -0.237 OA
ATOM     87  O   UNL     1       4.632   5.085  13.449  1.00  0.00    -0.237 OA
ATOM     88  O   UNL     1       6.218   3.225  13.134  1.00  0.00    -0.744 OA
ENDBRANCH  81  85
ENDBRANCH  54  78
BRANCH  66  89
ATOM     89  C   UNL     1      14.986   6.706   8.242  1.00  0.00     0.023 A 
ATOM     90  C   UNL     1      15.562   7.714   7.444  1.00  0.00     0.031 A 
ATOM     91  C   UNL     1      15.693   6.271   9.376  1.00  0.00     0.131 A 
ATOM     92  C   UNL     1      16.832   8.210   7.757  1.00  0.00     0.055 A 
ATOM     93  C   UNL     1      16.930   6.816   9.720  1.00  0.00     0.041 A 
ATOM     94  F   UNL     1      15.194   5.303  10.162  1.00  0.00    -0.206 F 
ATOM     95  C   UNL     1      17.514   7.776   8.898  1.00  0.00     0.022 A 
BRANCH  92  96
ATOM     96  S   UNL     1      17.694   9.346   6.635  1.00  0.00     0.124 S 
ATOM     97  O   UNL     1      17.901  10.514   7.488  1.00  0.00    -0.237 OA
ATOM     98  O   UNL     1      18.901   8.593   6.305  1.00  0.00    -0.237 OA
ATOM     99  O   UNL     1      16.753   9.538   5.536  1.00  0.00    -0.744 OA
ENDBRANCH  92  96
ENDBRANCH  66  89
ENDBRANCH  40  41
ENDBRANCH  33  35
ENDBRANCH  32  33
ENDBRANCH  31  32
ENDBRANCH  30  31
ENDBRANCH   1  30
TORSDOF 21
