REMARK SMILES CC(C)(CC(=O)OCCOCCOC(=O)c1ccc(-c2c3nc(c(-c4cc(S(=O)(=O)[O-])ccc4F)c4ccc([nH]4)c(-c4cc(S(=O)(=O)[O-])ccc4F)c4nc(c(-c5cc(S(=O)(=O)[O-])ccc5F)c5ccc2[nH]5)C=C4)C=C3)cc1)CC(=O)N1CCN(c2nc3ccc(Cl)cc3s2)CC1
REMARK SMILES IDX 9 1 8 2 7 3 5 4 6 5 4 6 2 7 1 8 3 9 79 10 80 11 81 12 82 13
REMARK SMILES IDX 83 14 97 15 84 16 96 17 85 18 86 19 87 20 95 21 88 22 94 23
REMARK SMILES IDX 89 24 93 25 90 26 91 27 92 28 10 29 11 30 12 31 13 32 14 33
REMARK SMILES IDX 15 34 16 35 17 36 78 37 18 38 77 39 19 40 20 41 21 42 71 43
REMARK SMILES IDX 22 44 76 45 70 46 72 47 23 48 75 49 69 50 68 51 24 53 56 54
REMARK SMILES IDX 36 55 55 56 37 57 40 58 54 59 73 60 38 61 39 62 53 64 74 65
REMARK SMILES IDX 41 66 25 67 26 68 34 69 27 70 33 71 35 72 32 73 28 74 29 75
REMARK SMILES IDX 30 76 31 77 57 78 58 79 66 80 59 81 65 82 67 83 64 84 60 85
REMARK SMILES IDX 61 86 62 87 63 88 42 89 43 90 51 91 44 92 50 93 52 94 49 95
REMARK SMILES IDX 45 96 46 97 47 98 48 99
REMARK H PARENT 72 52 40 63
REMARK Flexibility Score: inf
ROOT
ATOM      1  C   UNL     1      -3.166   0.751  -2.347  1.00  0.00     0.202 C 
ENDROOT
BRANCH   1   2
ATOM      2  C   UNL     1      -2.988   1.105  -0.829  1.00  0.00     0.261 C 
BRANCH   2   3
ATOM      3  O   UNL     1      -1.728   0.844  -0.191  1.00  0.00    -0.463 OA
BRANCH   3   4
ATOM      4  C   UNL     1      -1.757   0.115   0.938  1.00  0.00     0.306 C 
ATOM      5  O   UNL     1      -2.787  -0.158   1.553  1.00  0.00    -0.252 OA
BRANCH   4   6
ATOM      6  C   UNL     1      -0.426  -0.459   1.394  1.00  0.00     0.129 C 
BRANCH   6   7
ATOM      7  C   UNL     1       0.900  -0.593   0.584  1.00  0.00    -0.016 C 
ATOM      8  C   UNL     1       1.849   0.570   0.919  1.00  0.00     0.012 C 
ATOM      9  C   UNL     1       1.581  -1.901   1.103  1.00  0.00     0.012 C 
BRANCH   7  10
ATOM     10  C   UNL     1       0.855  -0.756  -0.942  1.00  0.00     0.107 C 
BRANCH  10  11
ATOM     11  C   UNL     1       0.137   0.298  -1.756  1.00  0.00     0.223 C 
ATOM     12  O   UNL     1       0.514   1.462  -1.811  1.00  0.00    -0.275 OA
ATOM     13  N   UNL     1      -0.919  -0.201  -2.496  1.00  0.00    -0.339 N 
ATOM     14  C   UNL     1      -1.542   0.676  -4.064  1.00  0.00     0.141 C 
ATOM     15  C   UNL     1      -1.866  -1.657  -1.808  1.00  0.00     0.141 C 
ATOM     16  C   UNL     1      -3.086  -0.081  -4.979  1.00  0.00     0.140 C 
ATOM     17  C   UNL     1      -3.296  -2.404  -2.843  1.00  0.00     0.140 C 
ATOM     18  N   UNL     1      -3.889  -1.606  -4.356  1.00  0.00    -0.345 N 
BRANCH  18  19
ATOM     19  C   UNL     1      -5.246  -1.427  -4.213  1.00  0.00     0.186 A 
ATOM     20  N   UNL     1      -5.761  -0.747  -3.216  1.00  0.00    -0.220 NA
ATOM     21  S   UNL     1      -6.416  -2.211  -5.203  1.00  0.00    -0.097 S 
ATOM     22  C   UNL     1      -7.125  -0.844  -3.178  1.00  0.00     0.084 A 
ATOM     23  C   UNL     1      -7.688  -1.627  -4.181  1.00  0.00     0.058 A 
ATOM     24  C   UNL     1      -7.952  -0.243  -2.209  1.00  0.00     0.031 A 
ATOM     25  C   UNL     1      -9.076  -1.843  -4.242  1.00  0.00     0.042 A 
ATOM     26  C   UNL     1      -9.331  -0.449  -2.257  1.00  0.00     0.023 A 
ATOM     27  C   UNL     1      -9.877  -1.242  -3.260  1.00  0.00     0.042 A 
ATOM     28  Cl  UNL     1     -11.581  -1.499  -3.289  1.00  0.00    -0.084 Cl
ENDBRANCH  18  19
ENDBRANCH  10  11
ENDBRANCH   7  10
ENDBRANCH   6   7
ENDBRANCH   4   6
ENDBRANCH   3   4
ENDBRANCH   2   3
ENDBRANCH   1   2
BRANCH   1  29
ATOM     29  O   UNL     1      -2.727  -0.538  -3.107  1.00  0.00    -0.374 OA
BRANCH  29  30
ATOM     30  C   UNL     1      -1.387  -1.497  -4.086  1.00  0.00     0.202 C 
BRANCH  30  31
ATOM     31  C   UNL     1       0.261  -1.172  -4.589  1.00  0.00     0.261 C 
BRANCH  31  32
ATOM     32  O   UNL     1       1.082  -0.028  -4.140  1.00  0.00    -0.460 OA
BRANCH  32  33
ATOM     33  C   UNL     1       1.392   0.987  -5.012  1.00  0.00     0.338 C 
ATOM     34  O   UNL     1       1.226   0.907  -6.225  1.00  0.00    -0.246 OA
BRANCH  33  35
ATOM     35  C   UNL     1       1.659   2.320  -4.346  1.00  0.00     0.060 A 
ATOM     36  C   UNL     1       0.829   3.412  -4.668  1.00  0.00     0.016 A 
ATOM     37  C   UNL     1       2.720   2.556  -3.467  1.00  0.00     0.016 A 
ATOM     38  C   UNL     1       1.061   4.709  -4.146  1.00  0.00     0.010 A 
ATOM     39  C   UNL     1       2.953   3.861  -2.946  1.00  0.00     0.010 A 
ATOM     40  C   UNL     1       2.148   4.969  -3.299  1.00  0.00    -0.014 A 
BRANCH  40  41
ATOM     41  C   UNL     1       2.559   6.393  -2.975  1.00  0.00     0.031 A 
ATOM     42  C   UNL     1       3.732   7.001  -3.724  1.00  0.00     0.074 A 
ATOM     43  C   UNL     1       1.927   7.198  -2.087  1.00  0.00     0.049 A 
ATOM     44  N   UNL     1       4.273   8.193  -3.621  1.00  0.00    -0.248 NA
ATOM     45  C   UNL     1       4.378   6.137  -4.722  1.00  0.00     0.031 C 
ATOM     46  C   UNL     1       0.761   6.840  -1.285  1.00  0.00     0.029 A 
ATOM     47  N   UNL     1       2.194   8.505  -1.706  1.00  0.00    -0.354 N 
ATOM     48  C   UNL     1       5.321   8.223  -4.538  1.00  0.00     0.074 A 
ATOM     49  C   UNL     1       5.365   6.908  -5.149  1.00  0.00     0.031 C 
ATOM     50  C   UNL     1       0.419   7.889  -0.510  1.00  0.00     0.029 A 
ATOM     51  C   UNL     1       1.351   9.000  -0.732  1.00  0.00     0.049 A 
ATOM     52  H   UNL     1       2.924   9.036  -2.099  1.00  0.00     0.167 HD
ATOM     53  C   UNL     1       6.161   9.237  -4.872  1.00  0.00     0.034 A 
ATOM     54  C   UNL     1       1.328  10.188  -0.077  1.00  0.00     0.034 A 
ATOM     55  C   UNL     1       6.154  10.559  -4.292  1.00  0.00     0.049 A 
ATOM     56  C   UNL     1       2.348  11.273  -0.384  1.00  0.00     0.074 A 
ATOM     57  C   UNL     1       6.959  11.641  -4.617  1.00  0.00     0.029 A 
ATOM     58  N   UNL     1       5.327  10.984  -3.265  1.00  0.00    -0.354 N 
ATOM     59  N   UNL     1       3.310  11.284  -1.275  1.00  0.00    -0.248 NA
ATOM     60  C   UNL     1       2.270  12.515   0.410  1.00  0.00     0.031 C 
ATOM     61  C   UNL     1       6.672  12.692  -3.739  1.00  0.00     0.029 A 
ATOM     62  C   UNL     1       5.630  12.295  -2.919  1.00  0.00     0.049 A 
ATOM     63  H   UNL     1       4.626  10.436  -2.843  1.00  0.00     0.167 HD
ATOM     64  C   UNL     1       3.913  12.541  -1.175  1.00  0.00     0.074 A 
ATOM     65  C   UNL     1       3.212  13.265  -0.142  1.00  0.00     0.031 C 
ATOM     66  C   UNL     1       4.950  13.046  -1.891  1.00  0.00     0.034 A 
BRANCH  53  67
ATOM     67  C   UNL     1       7.209   8.937  -5.916  1.00  0.00     0.023 A 
ATOM     68  C   UNL     1       6.859   8.657  -7.248  1.00  0.00     0.031 A 
ATOM     69  C   UNL     1       8.572   8.920  -5.571  1.00  0.00     0.131 A 
ATOM     70  C   UNL     1       7.853   8.298  -8.168  1.00  0.00     0.055 A 
ATOM     71  C   UNL     1       9.563   8.640  -6.511  1.00  0.00     0.041 A 
ATOM     72  F   UNL     1       8.960   9.167  -4.310  1.00  0.00    -0.206 F 
ATOM     73  C   UNL     1       9.205   8.311  -7.816  1.00  0.00     0.022 A 
BRANCH  70  74
ATOM     74  S   UNL     1       7.343   7.674  -9.793  1.00  0.00     0.124 S 
ATOM     75  O   UNL     1       6.504   6.537  -9.423  1.00  0.00    -0.237 OA
ATOM     76  O   UNL     1       6.649   8.820 -10.367  1.00  0.00    -0.237 OA
ATOM     77  O   UNL     1       8.607   7.322 -10.436  1.00  0.00    -0.744 OA
ENDBRANCH  70  74
ENDBRANCH  53  67
BRANCH  54  78
ATOM     78  C   UNL     1       0.330  10.447   1.011  1.00  0.00     0.023 A 
ATOM     79  C   UNL     1      -0.620  11.480   0.906  1.00  0.00     0.031 A 
ATOM     80  C   UNL     1       0.411   9.754   2.232  1.00  0.00     0.131 A 
ATOM     81  C   UNL     1      -1.409  11.825   2.018  1.00  0.00     0.055 A 
ATOM     82  C   UNL     1      -0.414  10.064   3.315  1.00  0.00     0.041 A 
ATOM     83  F   UNL     1       1.314   8.775   2.397  1.00  0.00    -0.206 F 
ATOM     84  C   UNL     1      -1.321  11.115   3.217  1.00  0.00     0.022 A 
BRANCH  81  85
ATOM     85  S   UNL     1      -2.481  13.288   1.914  1.00  0.00     0.124 S 
ATOM     86  O   UNL     1      -1.511  14.351   1.679  1.00  0.00    -0.237 OA
ATOM     87  O   UNL     1      -3.349  12.951   0.791  1.00  0.00    -0.237 OA
ATOM     88  O   UNL     1      -3.140  13.321   3.219  1.00  0.00    -0.744 OA
ENDBRANCH  81  85
ENDBRANCH  54  78
BRANCH  66  89
ATOM     89  C   UNL     1       5.362  14.483  -1.643  1.00  0.00     0.023 A 
ATOM     90  C   UNL     1       5.939  14.906  -0.430  1.00  0.00     0.031 A 
ATOM     91  C   UNL     1       5.184  15.450  -2.651  1.00  0.00     0.131 A 
ATOM     92  C   UNL     1       6.277  16.259  -0.244  1.00  0.00     0.055 A 
ATOM     93  C   UNL     1       5.567  16.783  -2.479  1.00  0.00     0.041 A 
ATOM     94  F   UNL     1       4.639  15.113  -3.831  1.00  0.00    -0.206 F 
ATOM     95  C   UNL     1       6.108  17.196  -1.266  1.00  0.00     0.022 A 
BRANCH  92  96
ATOM     96  S   UNL     1       6.884  16.803   1.380  1.00  0.00     0.124 S 
ATOM     97  O   UNL     1       5.787  16.416   2.262  1.00  0.00    -0.237 OA
ATOM     98  O   UNL     1       8.119  16.039   1.525  1.00  0.00    -0.237 OA
ATOM     99  O   UNL     1       7.066  18.245   1.216  1.00  0.00    -0.744 OA
ENDBRANCH  92  96
ENDBRANCH  66  89
ENDBRANCH  40  41
ENDBRANCH  33  35
ENDBRANCH  32  33
ENDBRANCH  31  32
ENDBRANCH  30  31
ENDBRANCH  29  30
ENDBRANCH   1  29
TORSDOF 21
