REMARK SMILES O=C(CCCC(=O)OCCOCCOC(=O)c1ccc(-c2c3nc(c(-c4cc(S(=O)(=O)[O-])ccc4F)c4ccc([nH]4)c(-c4cc(S(=O)(=O)[O-])ccc4F)c4nc(c(-c5cc(S(=O)(=O)[O-])ccc5F)c5ccc2[nH]5)C=C4)C=C3)cc1)NCc1ccco1
REMARK SMILES IDX 10 1 9 2 8 3 6 4 7 5 5 6 4 7 3 8 2 9 1 10 80 11 81 13 82 14
REMARK SMILES IDX 83 15 86 16 84 17 85 18 11 19 12 20 13 21 14 22 15 23 16 24
REMARK SMILES IDX 17 25 18 26 79 27 19 28 78 29 20 30 21 31 22 32 72 33 23 34
REMARK SMILES IDX 77 35 71 36 73 37 24 38 76 39 70 40 69 41 25 43 57 44 37 45
REMARK SMILES IDX 56 46 38 47 41 48 55 49 74 50 39 51 40 52 54 54 75 55 42 56
REMARK SMILES IDX 26 57 27 58 35 59 28 60 34 61 36 62 33 63 29 64 30 65 31 66
REMARK SMILES IDX 32 67 58 68 59 69 67 70 60 71 66 72 68 73 65 74 61 75 62 76
REMARK SMILES IDX 63 77 64 78 43 79 44 80 52 81 45 82 51 83 53 84 50 85 46 86
REMARK SMILES IDX 47 87 48 88 49 89
REMARK H PARENT 80 12 73 42 41 53
REMARK Flexibility Score: inf
ROOT
ATOM      1  C   UNL     1       6.917   2.291  -0.360  1.00  0.00     0.202 C 
ENDROOT
BRANCH   1   2
ATOM      2  C   UNL     1       6.460   1.137  -1.260  1.00  0.00     0.261 C 
BRANCH   2   3
ATOM      3  O   UNL     1       5.442   0.342  -0.616  1.00  0.00    -0.463 OA
BRANCH   3   4
ATOM      4  C   UNL     1       5.811  -0.899  -0.209  1.00  0.00     0.305 C 
ATOM      5  O   UNL     1       6.877  -1.438  -0.480  1.00  0.00    -0.252 OA
BRANCH   4   6
ATOM      6  C   UNL     1       4.734  -1.592   0.604  1.00  0.00     0.123 C 
BRANCH   6   7
ATOM      7  C   UNL     1       3.850  -0.756   1.544  1.00  0.00     0.022 C 
BRANCH   7   8
ATOM      8  C   UNL     1       2.897   0.262   0.914  1.00  0.00     0.100 C 
BRANCH   8   9
ATOM      9  C   UNL     1       1.987  -0.400  -0.092  1.00  0.00     0.220 C 
ATOM     10  O   UNL     1       0.900  -0.874   0.216  1.00  0.00    -0.275 OA
ATOM     11  N   UNL     1       2.543  -0.489  -1.340  1.00  0.00    -0.349 N 
ATOM     12  H   UNL     1       3.408  -0.049  -1.506  1.00  0.00     0.163 HD
BRANCH  11  13
ATOM     13  C   UNL     1       1.909  -1.205  -2.422  1.00  0.00     0.191 C 
BRANCH  13  14
ATOM     14  C   UNL     1       2.268  -0.520  -3.683  1.00  0.00     0.122 A 
ATOM     15  C   UNL     1       2.194   0.796  -4.092  1.00  0.00     0.047 A 
ATOM     16  O   UNL     1       2.803  -1.289  -4.674  1.00  0.00    -0.467 OA
ATOM     17  C   UNL     1       2.707   0.833  -5.408  1.00  0.00     0.042 A 
ATOM     18  C   UNL     1       3.055  -0.460  -5.721  1.00  0.00     0.195 A 
ENDBRANCH  13  14
ENDBRANCH  11  13
ENDBRANCH   8   9
ENDBRANCH   7   8
ENDBRANCH   6   7
ENDBRANCH   4   6
ENDBRANCH   3   4
ENDBRANCH   2   3
ENDBRANCH   1   2
BRANCH   1  19
ATOM     19  O   UNL     1       7.664   1.925   0.802  1.00  0.00    -0.374 OA
BRANCH  19  20
ATOM     20  C   UNL     1       6.921   1.452   1.923  1.00  0.00     0.202 C 
BRANCH  20  21
ATOM     21  C   UNL     1       6.263   2.510   2.817  1.00  0.00     0.261 C 
BRANCH  21  22
ATOM     22  O   UNL     1       5.269   3.279   2.118  1.00  0.00    -0.460 OA
BRANCH  22  23
ATOM     23  C   UNL     1       5.646   4.549   1.829  1.00  0.00     0.338 C 
ATOM     24  O   UNL     1       6.688   5.097   2.165  1.00  0.00    -0.246 OA
BRANCH  23  25
ATOM     25  C   UNL     1       4.706   5.154   0.867  1.00  0.00     0.060 A 
ATOM     26  C   UNL     1       5.249   5.704  -0.301  1.00  0.00     0.016 A 
ATOM     27  C   UNL     1       3.334   5.232   1.116  1.00  0.00     0.016 A 
ATOM     28  C   UNL     1       4.426   6.365  -1.210  1.00  0.00     0.010 A 
ATOM     29  C   UNL     1       2.510   5.903   0.204  1.00  0.00     0.010 A 
ATOM     30  C   UNL     1       3.055   6.493  -0.952  1.00  0.00    -0.014 A 
BRANCH  30  31
ATOM     31  C   UNL     1       2.212   7.326  -1.847  1.00  0.00     0.031 A 
ATOM     32  C   UNL     1       1.823   8.713  -1.418  1.00  0.00     0.074 A 
ATOM     33  C   UNL     1       1.819   6.854  -3.044  1.00  0.00     0.049 A 
ATOM     34  N   UNL     1       1.049   9.582  -2.016  1.00  0.00    -0.248 NA
ATOM     35  C   UNL     1       2.383   9.180  -0.141  1.00  0.00     0.031 C 
ATOM     36  C   UNL     1       2.174   5.544  -3.589  1.00  0.00     0.029 A 
ATOM     37  N   UNL     1       1.027   7.418  -4.012  1.00  0.00    -0.354 N 
ATOM     38  C   UNL     1       1.029  10.702  -1.192  1.00  0.00     0.074 A 
ATOM     39  C   UNL     1       1.834  10.381  -0.031  1.00  0.00     0.031 C 
ATOM     40  C   UNL     1       1.585   5.398  -4.788  1.00  0.00     0.029 A 
ATOM     41  C   UNL     1       0.776   6.582  -5.074  1.00  0.00     0.049 A 
ATOM     42  H   UNL     1       0.672   8.335  -3.952  1.00  0.00     0.167 HD
ATOM     43  C   UNL     1       0.406  11.891  -1.392  1.00  0.00     0.034 A 
ATOM     44  C   UNL     1      -0.042   6.735  -6.135  1.00  0.00     0.034 A 
ATOM     45  C   UNL     1      -0.412  12.185  -2.545  1.00  0.00     0.049 A 
ATOM     46  C   UNL     1      -0.820   8.020  -6.282  1.00  0.00     0.074 A 
ATOM     47  C   UNL     1      -1.080  13.358  -2.853  1.00  0.00     0.029 A 
ATOM     48  N   UNL     1      -0.694  11.291  -3.571  1.00  0.00    -0.354 N 
ATOM     49  N   UNL     1      -0.824   9.078  -5.502  1.00  0.00    -0.248 NA
ATOM     50  C   UNL     1      -1.701   8.134  -7.451  1.00  0.00     0.031 C 
ATOM     51  C   UNL     1      -1.826  13.147  -4.018  1.00  0.00     0.029 A 
ATOM     52  C   UNL     1      -1.559  11.871  -4.488  1.00  0.00     0.049 A 
ATOM     53  H   UNL     1      -0.331  10.379  -3.639  1.00  0.00     0.167 HD
ATOM     54  C   UNL     1      -1.694   9.988  -6.099  1.00  0.00     0.074 A 
ATOM     55  C   UNL     1      -2.177   9.363  -7.313  1.00  0.00     0.031 C 
ATOM     56  C   UNL     1      -2.057  11.229  -5.683  1.00  0.00     0.034 A 
BRANCH  43  57
ATOM     57  C   UNL     1       0.548  12.938  -0.311  1.00  0.00     0.023 A 
ATOM     58  C   UNL     1       1.797  13.488   0.025  1.00  0.00     0.031 A 
ATOM     59  C   UNL     1      -0.576  13.367   0.417  1.00  0.00     0.131 A 
ATOM     60  C   UNL     1       1.905  14.373   1.109  1.00  0.00     0.055 A 
ATOM     61  C   UNL     1      -0.474  14.312   1.440  1.00  0.00     0.041 A 
ATOM     62  F   UNL     1      -1.792  12.862   0.159  1.00  0.00    -0.206 F 
ATOM     63  C   UNL     1       0.774  14.809   1.803  1.00  0.00     0.022 A 
BRANCH  60  64
ATOM     64  S   UNL     1       3.561  14.820   1.700  1.00  0.00     0.124 S 
ATOM     65  O   UNL     1       4.137  13.507   1.984  1.00  0.00    -0.237 OA
ATOM     66  O   UNL     1       4.122  15.530   0.557  1.00  0.00    -0.237 OA
ATOM     67  O   UNL     1       3.294  15.643   2.878  1.00  0.00    -0.744 OA
ENDBRANCH  60  64
ENDBRANCH  43  57
BRANCH  44  68
ATOM     68  C   UNL     1      -0.221   5.619  -7.107  1.00  0.00     0.023 A 
ATOM     69  C   UNL     1       0.153   5.753  -8.453  1.00  0.00     0.031 A 
ATOM     70  C   UNL     1      -0.807   4.404  -6.704  1.00  0.00     0.131 A 
ATOM     71  C   UNL     1      -0.096   4.706  -9.354  1.00  0.00     0.055 A 
ATOM     72  C   UNL     1      -1.003   3.346  -7.592  1.00  0.00     0.041 A 
ATOM     73  F   UNL     1      -1.183   4.223  -5.427  1.00  0.00    -0.206 F 
ATOM     74  C   UNL     1      -0.658   3.499  -8.930  1.00  0.00     0.022 A 
BRANCH  71  75
ATOM     75  S   UNL     1       0.259   4.971 -11.113  1.00  0.00     0.124 S 
ATOM     76  O   UNL     1      -0.581   6.125 -11.415  1.00  0.00    -0.237 OA
ATOM     77  O   UNL     1       1.698   5.210 -11.096  1.00  0.00    -0.237 OA
ATOM     78  O   UNL     1      -0.155   3.716 -11.736  1.00  0.00    -0.744 OA
ENDBRANCH  71  75
ENDBRANCH  44  68
BRANCH  56  79
ATOM     79  C   UNL     1      -3.009  12.001  -6.566  1.00  0.00     0.023 A 
ATOM     80  C   UNL     1      -4.340  11.589  -6.755  1.00  0.00     0.031 A 
ATOM     81  C   UNL     1      -2.579  13.165  -7.229  1.00  0.00     0.131 A 
ATOM     82  C   UNL     1      -5.178  12.306  -7.624  1.00  0.00     0.055 A 
ATOM     83  C   UNL     1      -3.435  13.909  -8.042  1.00  0.00     0.041 A 
ATOM     84  F   UNL     1      -1.317  13.604  -7.089  1.00  0.00    -0.206 F 
ATOM     85  C   UNL     1      -4.740  13.473  -8.254  1.00  0.00     0.022 A 
BRANCH  82  86
ATOM     86  S   UNL     1      -6.827  11.643  -7.990  1.00  0.00     0.124 S 
ATOM     87  O   UNL     1      -6.508  10.342  -8.568  1.00  0.00    -0.237 OA
ATOM     88  O   UNL     1      -7.455  11.620  -6.673  1.00  0.00    -0.237 OA
ATOM     89  O   UNL     1      -7.388  12.616  -8.926  1.00  0.00    -0.744 OA
ENDBRANCH  82  86
ENDBRANCH  56  79
ENDBRANCH  30  31
ENDBRANCH  23  25
ENDBRANCH  22  23
ENDBRANCH  21  22
ENDBRANCH  20  21
ENDBRANCH  19  20
ENDBRANCH   1  19
TORSDOF 22
