REMARK SMILES CC[C@@H](C)C[C@@H](C)[NH2+]Cc1cc(C(=O)OCCOCCOC(=O)c2ccc(-c3c4nc(c(-c5cc(S(=O)(=O)[O-])ccc5F)c5ccc([nH]5)c(-c5cc(S(=O)(=O)[O-])ccc5F)c5nc(c(-c6cc(S(=O)(=O)[O-])ccc6F)c6ccc3[nH]6)C=C5)C=C4)cc2)cs1
REMARK SMILES IDX 16 1 15 2 13 3 14 4 12 5 10 6 11 7 88 8 87 9 9 10 8 11 6 14
REMARK SMILES IDX 7 15 5 16 3 17 4 18 2 19 1 20 17 21 18 22 19 23 20 24 21 25
REMARK SMILES IDX 22 26 23 27 24 28 25 29 86 30 26 31 85 32 27 33 28 34 29 35
REMARK SMILES IDX 79 36 30 37 84 38 78 39 80 40 31 41 83 42 77 43 76 44 32 46
REMARK SMILES IDX 64 47 44 48 63 49 45 50 48 51 62 52 81 53 46 54 47 55 61 57
REMARK SMILES IDX 82 58 49 59 33 60 34 61 42 62 35 63 41 64 43 65 40 66 36 67
REMARK SMILES IDX 37 68 38 69 39 70 65 71 66 72 74 73 67 74 73 75 75 76 72 77
REMARK SMILES IDX 68 78 69 79 70 80 71 81 50 82 51 83 59 84 52 85 58 86 60 87
REMARK SMILES IDX 57 88 53 89 54 90 55 91 56 92
REMARK H PARENT 8 12 8 13 80 45 48 56
REMARK Flexibility Score: inf
ROOT
ATOM      1  C   UNL     1       6.914   2.417   5.744  1.00  0.00     0.261 C 
ENDROOT
BRANCH   1   2
ATOM      2  O   UNL     1       5.745   1.599   5.909  1.00  0.00    -0.460 OA
BRANCH   2   3
ATOM      3  C   UNL     1       5.907   0.271   5.656  1.00  0.00     0.339 C 
ATOM      4  O   UNL     1       6.883  -0.231   5.112  1.00  0.00    -0.246 OA
BRANCH   3   5
ATOM      5  C   UNL     1       4.803  -0.522   6.189  1.00  0.00     0.071 A 
ATOM      6  C   UNL     1       2.596  -1.046   6.692  1.00  0.00     0.060 A 
ATOM      7  C   UNL     1       3.535  -0.029   6.650  1.00  0.00     0.037 A 
ATOM      8  S   UNL     1       3.366  -2.575   6.795  1.00  0.00    -0.142 S 
ATOM      9  C   UNL     1       4.860  -1.898   6.311  1.00  0.00     0.081 A 
BRANCH   6  10
ATOM     10  C   UNL     1       1.105  -0.950   6.553  1.00  0.00     0.308 C 
BRANCH  10  11
ATOM     11  N   UNL     1       0.687   0.116   5.634  1.00  0.00    -0.340 N 
ATOM     12  H   UNL     1      -0.313   0.264   5.775  1.00  0.00     0.346 HD
ATOM     13  H   UNL     1       1.288   0.905   5.868  1.00  0.00     0.346 HD
BRANCH  11  14
ATOM     14  C   UNL     1       0.899  -0.094   4.186  1.00  0.00     0.179 C 
ATOM     15  C   UNL     1       2.347  -0.348   3.748  1.00  0.00     0.075 C 
BRANCH  14  16
ATOM     16  C   UNL     1       0.332   1.165   3.474  1.00  0.00     0.068 C 
BRANCH  16  17
ATOM     17  C   UNL     1       0.674   1.322   1.973  1.00  0.00    -0.009 C 
ATOM     18  C   UNL     1       0.082   2.634   1.448  1.00  0.00     0.008 C 
BRANCH  17  19
ATOM     19  C   UNL     1       0.206   0.118   1.133  1.00  0.00    -0.000 C 
ATOM     20  C   UNL     1       0.851   0.081  -0.247  1.00  0.00     0.004 C 
ENDBRANCH  17  19
ENDBRANCH  16  17
ENDBRANCH  14  16
ENDBRANCH  11  14
ENDBRANCH  10  11
ENDBRANCH   6  10
ENDBRANCH   3   5
ENDBRANCH   2   3
ENDBRANCH   1   2
BRANCH   1  21
ATOM     21  C   UNL     1       7.489   2.807   7.109  1.00  0.00     0.202 C 
BRANCH  21  22
ATOM     22  O   UNL     1       8.106   1.753   7.853  1.00  0.00    -0.374 OA
BRANCH  22  23
ATOM     23  C   UNL     1       7.256   0.859   8.569  1.00  0.00     0.202 C 
BRANCH  23  24
ATOM     24  C   UNL     1       6.702   1.328   9.918  1.00  0.00     0.261 C 
BRANCH  24  25
ATOM     25  O   UNL     1       5.880   2.498   9.798  1.00  0.00    -0.460 OA
BRANCH  25  26
ATOM     26  C   UNL     1       6.488   3.639  10.210  1.00  0.00     0.338 C 
ATOM     27  O   UNL     1       7.599   3.738  10.702  1.00  0.00    -0.246 OA
BRANCH  26  28
ATOM     28  C   UNL     1       5.682   4.813   9.822  1.00  0.00     0.060 A 
ATOM     29  C   UNL     1       6.354   5.866   9.188  1.00  0.00     0.016 A 
ATOM     30  C   UNL     1       4.324   4.920  10.133  1.00  0.00     0.016 A 
ATOM     31  C   UNL     1       5.685   7.055   8.915  1.00  0.00     0.010 A 
ATOM     32  C   UNL     1       3.655   6.120   9.863  1.00  0.00     0.010 A 
ATOM     33  C   UNL     1       4.343   7.204   9.289  1.00  0.00    -0.014 A 
BRANCH  33  34
ATOM     34  C   UNL     1       3.716   8.546   9.219  1.00  0.00     0.031 A 
ATOM     35  C   UNL     1       3.631   9.375  10.472  1.00  0.00     0.074 A 
ATOM     36  C   UNL     1       3.265   9.034   8.050  1.00  0.00     0.049 A 
ATOM     37  N   UNL     1       3.109  10.560  10.652  1.00  0.00    -0.248 NA
ATOM     38  C   UNL     1       4.214   8.781  11.685  1.00  0.00     0.031 C 
ATOM     39  C   UNL     1       3.335   8.340   6.764  1.00  0.00     0.029 A 
ATOM     40  N   UNL     1       2.656  10.227   7.756  1.00  0.00    -0.354 N 
ATOM     41  C   UNL     1       3.297  10.856  11.998  1.00  0.00     0.074 A 
ATOM     42  C   UNL     1       3.945   9.706  12.593  1.00  0.00     0.031 C 
ATOM     43  C   UNL     1       2.779   9.118   5.819  1.00  0.00     0.029 A 
ATOM     44  C   UNL     1       2.284  10.347   6.438  1.00  0.00     0.049 A 
ATOM     45  H   UNL     1       2.499  10.932   8.425  1.00  0.00     0.167 HD
ATOM     46  C   UNL     1       2.969  11.987  12.672  1.00  0.00     0.034 A 
ATOM     47  C   UNL     1       1.601  11.325   5.809  1.00  0.00     0.034 A 
ATOM     48  C   UNL     1       2.310  13.118  12.065  1.00  0.00     0.049 A 
ATOM     49  C   UNL     1       1.168  12.537   6.596  1.00  0.00     0.074 A 
ATOM     50  C   UNL     1       1.941  14.318  12.649  1.00  0.00     0.029 A 
ATOM     51  N   UNL     1       1.906  13.184  10.737  1.00  0.00    -0.354 N 
ATOM     52  N   UNL     1       1.359  12.810   7.867  1.00  0.00    -0.248 NA
ATOM     53  C   UNL     1       0.435  13.577   5.862  1.00  0.00     0.031 C 
ATOM     54  C   UNL     1       1.254  15.078  11.695  1.00  0.00     0.029 A 
ATOM     55  C   UNL     1       1.262  14.388  10.493  1.00  0.00     0.049 A 
ATOM     56  H   UNL     1       2.055  12.479  10.067  1.00  0.00     0.167 HD
ATOM     57  C   UNL     1       0.795  14.067   8.075  1.00  0.00     0.074 A 
ATOM     58  C   UNL     1       0.268  14.501   6.797  1.00  0.00     0.031 C 
ATOM     59  C   UNL     1       0.728  14.801   9.216  1.00  0.00     0.034 A 
BRANCH  46  60
ATOM     60  C   UNL     1       3.271  12.021  14.151  1.00  0.00     0.023 A 
ATOM     61  C   UNL     1       4.588  11.964  14.640  1.00  0.00     0.031 A 
ATOM     62  C   UNL     1       2.223  12.068  15.087  1.00  0.00     0.131 A 
ATOM     63  C   UNL     1       4.818  11.880  16.022  1.00  0.00     0.055 A 
ATOM     64  C   UNL     1       2.463  12.064  16.463  1.00  0.00     0.041 A 
ATOM     65  F   UNL     1       0.944  12.099  14.681  1.00  0.00    -0.206 F 
ATOM     66  C   UNL     1       3.766  11.954  16.938  1.00  0.00     0.022 A 
BRANCH  63  67
ATOM     67  S   UNL     1       6.500  11.520  16.601  1.00  0.00     0.124 S 
ATOM     68  O   UNL     1       6.780  10.255  15.925  1.00  0.00    -0.237 OA
ATOM     69  O   UNL     1       7.250  12.678  16.128  1.00  0.00    -0.237 OA
ATOM     70  O   UNL     1       6.350  11.422  18.051  1.00  0.00    -0.744 OA
ENDBRANCH  63  67
ENDBRANCH  46  60
BRANCH  47  71
ATOM     71  C   UNL     1       1.246  11.186   4.369  1.00  0.00     0.023 A 
ATOM     72  C   UNL     1       1.765  12.061   3.402  1.00  0.00     0.031 A 
ATOM     73  C   UNL     1       0.340  10.196   3.945  1.00  0.00     0.131 A 
ATOM     74  C   UNL     1       1.345  11.955   2.067  1.00  0.00     0.055 A 
ATOM     75  C   UNL     1      -0.037  10.064   2.608  1.00  0.00     0.041 A 
ATOM     76  F   UNL     1      -0.184   9.333   4.830  1.00  0.00    -0.206 F 
ATOM     77  C   UNL     1       0.457  10.955   1.661  1.00  0.00     0.022 A 
BRANCH  74  78
ATOM     78  S   UNL     1       1.921  13.193   0.873  1.00  0.00     0.124 S 
ATOM     79  O   UNL     1       1.425  14.430   1.465  1.00  0.00    -0.237 OA
ATOM     80  O   UNL     1       3.367  12.998   0.910  1.00  0.00    -0.237 OA
ATOM     81  O   UNL     1       1.272  12.792  -0.373  1.00  0.00    -0.744 OA
ENDBRANCH  74  78
ENDBRANCH  47  71
BRANCH  59  82
ATOM     82  C   UNL     1       0.100  16.170   9.115  1.00  0.00     0.023 A 
ATOM     83  C   UNL     1      -1.270  16.342   8.854  1.00  0.00     0.031 A 
ATOM     84  C   UNL     1       0.891  17.322   9.279  1.00  0.00     0.131 A 
ATOM     85  C   UNL     1      -1.798  17.634   8.712  1.00  0.00     0.055 A 
ATOM     86  C   UNL     1       0.350  18.605   9.194  1.00  0.00     0.041 A 
ATOM     87  F   UNL     1       2.207  17.217   9.529  1.00  0.00    -0.206 F 
ATOM     88  C   UNL     1      -1.000  18.767   8.897  1.00  0.00     0.022 A 
BRANCH  85  89
ATOM     89  S   UNL     1      -3.528  17.819   8.197  1.00  0.00     0.124 S 
ATOM     90  O   UNL     1      -3.541  17.115   6.919  1.00  0.00    -0.237 OA
ATOM     91  O   UNL     1      -4.249  17.173   9.289  1.00  0.00    -0.237 OA
ATOM     92  O   UNL     1      -3.707  19.267   8.109  1.00  0.00    -0.744 OA
ENDBRANCH  85  89
ENDBRANCH  59  82
ENDBRANCH  33  34
ENDBRANCH  26  28
ENDBRANCH  25  26
ENDBRANCH  24  25
ENDBRANCH  23  24
ENDBRANCH  22  23
ENDBRANCH  21  22
ENDBRANCH   1  21
TORSDOF 23
