REMARK SMILES CN(Cc1ccc(Cl)cc1Cl)S(=O)(=O)CCCC(=O)OCCOCCOC(=O)c1ccc(-c2c3nc(c(-c4cc(S(=O)(=O)[O-])ccc4F)c4ccc([nH]4)c(-c4cc(S(=O)(=O)[O-])ccc4F)c4nc(c(-c5cc(S(=O)(=O)[O-])ccc5F)c5ccc2[nH]5)C=C4)C=C3)cc1
REMARK SMILES IDX 21 1 20 2 18 3 19 4 17 5 16 6 15 7 12 8 13 9 14 10 2 11 1 12
REMARK SMILES IDX 3 13 4 14 5 15 10 16 6 17 9 18 11 19 7 20 8 21 22 22 23 23
REMARK SMILES IDX 24 24 25 25 26 26 27 27 28 28 29 29 30 30 91 31 31 32 90 33
REMARK SMILES IDX 32 34 33 35 34 36 84 37 35 38 89 39 83 40 85 41 36 42 88 43
REMARK SMILES IDX 82 44 81 45 37 47 69 48 49 49 68 50 50 51 53 52 67 53 86 54
REMARK SMILES IDX 51 55 52 56 66 58 87 59 54 60 38 61 39 62 47 63 40 64 46 65
REMARK SMILES IDX 48 66 45 67 41 68 42 69 43 70 44 71 70 72 71 73 79 74 72 75
REMARK SMILES IDX 78 76 80 77 77 78 73 79 74 80 75 81 76 82 55 83 56 84 64 85
REMARK SMILES IDX 57 86 63 87 65 88 62 89 58 90 59 91 60 92 61 93
REMARK H PARENT 85 46 53 57
REMARK Flexibility Score: inf
ROOT
ATOM      1  C   UNL     1      -2.850  -1.343  -3.470  1.00  0.00     0.261 C 
ENDROOT
BRANCH   1   2
ATOM      2  O   UNL     1      -1.450  -1.083  -3.693  1.00  0.00    -0.463 OA
BRANCH   2   3
ATOM      3  C   UNL     1      -0.596  -2.056  -3.288  1.00  0.00     0.305 C 
ATOM      4  O   UNL     1      -0.934  -3.081  -2.707  1.00  0.00    -0.252 OA
BRANCH   3   5
ATOM      5  C   UNL     1       0.854  -1.776  -3.623  1.00  0.00     0.124 C 
BRANCH   5   6
ATOM      6  C   UNL     1       1.241  -0.521  -4.407  1.00  0.00     0.029 C 
BRANCH   6   7
ATOM      7  C   UNL     1       1.028   0.842  -3.756  1.00  0.00     0.155 C 
BRANCH   7   8
ATOM      8  S   UNL     1       1.732   1.026  -2.116  1.00  0.00     0.214 S 
ATOM      9  O   UNL     1       1.735   2.424  -1.744  1.00  0.00    -0.212 OA
ATOM     10  O   UNL     1       2.974   0.284  -2.092  1.00  0.00    -0.212 OA
BRANCH   8  11
ATOM     11  N   UNL     1       0.642   0.222  -1.103  1.00  0.00    -0.201 NA
ATOM     12  C   UNL     1       1.156  -0.006   0.268  1.00  0.00     0.124 C 
BRANCH  11  13
ATOM     13  C   UNL     1      -0.813   0.543  -1.154  1.00  0.00     0.138 C 
BRANCH  13  14
ATOM     14  C   UNL     1      -1.324   1.702  -0.344  1.00  0.00    -0.014 A 
ATOM     15  C   UNL     1      -1.801   1.451   0.954  1.00  0.00     0.008 A 
ATOM     16  C   UNL     1      -1.334   3.024  -0.820  1.00  0.00     0.047 A 
ATOM     17  C   UNL     1      -2.121   2.506   1.801  1.00  0.00     0.021 A 
ATOM     18  C   UNL     1      -1.611   4.081   0.041  1.00  0.00     0.041 A 
ATOM     19  Cl  UNL     1      -1.070   3.419  -2.478  1.00  0.00    -0.084 Cl
ATOM     20  C   UNL     1      -1.943   3.812   1.361  1.00  0.00     0.042 A 
ATOM     21  Cl  UNL     1      -2.045   5.093   2.489  1.00  0.00    -0.084 Cl
ENDBRANCH  13  14
ENDBRANCH  11  13
ENDBRANCH   8  11
ENDBRANCH   7   8
ENDBRANCH   6   7
ENDBRANCH   5   6
ENDBRANCH   3   5
ENDBRANCH   2   3
ENDBRANCH   1   2
BRANCH   1  22
ATOM     22  C   UNL     1      -3.701  -1.057  -4.707  1.00  0.00     0.202 C 
BRANCH  22  23
ATOM     23  O   UNL     1      -3.319  -1.695  -5.921  1.00  0.00    -0.374 OA
BRANCH  23  24
ATOM     24  C   UNL     1      -2.078  -1.324  -6.511  1.00  0.00     0.202 C 
BRANCH  24  25
ATOM     25  C   UNL     1      -1.918   0.097  -7.080  1.00  0.00     0.261 C 
BRANCH  25  26
ATOM     26  O   UNL     1      -2.256   1.170  -6.183  1.00  0.00    -0.460 OA
BRANCH  26  27
ATOM     27  C   UNL     1      -3.419   1.802  -6.503  1.00  0.00     0.338 C 
ATOM     28  O   UNL     1      -4.171   1.515  -7.420  1.00  0.00    -0.246 OA
BRANCH  27  29
ATOM     29  C   UNL     1      -3.777   2.825  -5.502  1.00  0.00     0.060 A 
ATOM     30  C   UNL     1      -4.986   2.663  -4.816  1.00  0.00     0.016 A 
ATOM     31  C   UNL     1      -3.038   4.000  -5.357  1.00  0.00     0.016 A 
ATOM     32  C   UNL     1      -5.481   3.694  -4.018  1.00  0.00     0.010 A 
ATOM     33  C   UNL     1      -3.535   5.032  -4.545  1.00  0.00     0.010 A 
ATOM     34  C   UNL     1      -4.778   4.903  -3.898  1.00  0.00    -0.014 A 
BRANCH  34  35
ATOM     35  C   UNL     1      -5.426   6.051  -3.201  1.00  0.00     0.031 A 
ATOM     36  C   UNL     1      -5.951   7.215  -4.007  1.00  0.00     0.074 A 
ATOM     37  C   UNL     1      -5.626   6.020  -1.869  1.00  0.00     0.049 A 
ATOM     38  N   UNL     1      -6.564   8.299  -3.600  1.00  0.00    -0.248 NA
ATOM     39  C   UNL     1      -5.759   7.150  -5.464  1.00  0.00     0.031 C 
ATOM     40  C   UNL     1      -5.196   4.945  -0.973  1.00  0.00     0.029 A 
ATOM     41  N   UNL     1      -6.254   6.914  -1.035  1.00  0.00    -0.354 N 
ATOM     42  C   UNL     1      -6.836   9.040  -4.746  1.00  0.00     0.074 A 
ATOM     43  C   UNL     1      -6.274   8.305  -5.860  1.00  0.00     0.031 C 
ATOM     44  C   UNL     1      -5.578   5.239   0.282  1.00  0.00     0.029 A 
ATOM     45  C   UNL     1      -6.251   6.537   0.289  1.00  0.00     0.049 A 
ATOM     46  H   UNL     1      -6.667   7.748  -1.355  1.00  0.00     0.167 HD
ATOM     47  C   UNL     1      -7.508  10.213  -4.864  1.00  0.00     0.034 A 
ATOM     48  C   UNL     1      -6.714   7.174   1.384  1.00  0.00     0.034 A 
ATOM     49  C   UNL     1      -8.062  10.946  -3.749  1.00  0.00     0.049 A 
ATOM     50  C   UNL     1      -7.372   8.519   1.234  1.00  0.00     0.074 A 
ATOM     51  C   UNL     1      -8.764  12.140  -3.766  1.00  0.00     0.029 A 
ATOM     52  N   UNL     1      -7.974  10.562  -2.418  1.00  0.00    -0.354 N 
ATOM     53  N   UNL     1      -7.611   9.207   0.142  1.00  0.00    -0.248 NA
ATOM     54  C   UNL     1      -7.825   9.168   2.470  1.00  0.00     0.031 C 
ATOM     55  C   UNL     1      -9.034  12.514  -2.446  1.00  0.00     0.029 A 
ATOM     56  C   UNL     1      -8.581  11.511  -1.606  1.00  0.00     0.049 A 
ATOM     57  H   UNL     1      -7.545   9.736  -2.096  1.00  0.00     0.167 HD
ATOM     58  C   UNL     1      -8.263  10.362   0.564  1.00  0.00     0.074 A 
ATOM     59  C   UNL     1      -8.407  10.259   2.001  1.00  0.00     0.031 C 
ATOM     60  C   UNL     1      -8.701  11.416  -0.171  1.00  0.00     0.034 A 
BRANCH  47  61
ATOM     61  C   UNL     1      -7.656  10.800  -6.249  1.00  0.00     0.023 A 
ATOM     62  C   UNL     1      -8.405  10.157  -7.250  1.00  0.00     0.031 A 
ATOM     63  C   UNL     1      -7.053  12.030  -6.569  1.00  0.00     0.131 A 
ATOM     64  C   UNL     1      -8.488  10.718  -8.534  1.00  0.00     0.055 A 
ATOM     65  C   UNL     1      -7.202  12.621  -7.825  1.00  0.00     0.041 A 
ATOM     66  F   UNL     1      -6.307  12.681  -5.662  1.00  0.00    -0.206 F 
ATOM     67  C   UNL     1      -7.915  11.960  -8.820  1.00  0.00     0.022 A 
BRANCH  64  68
ATOM     68  S   UNL     1      -9.257   9.747  -9.859  1.00  0.00     0.124 S 
ATOM     69  O   UNL     1      -8.412   8.556  -9.879  1.00  0.00    -0.237 OA
ATOM     70  O   UNL     1     -10.616   9.559  -9.366  1.00  0.00    -0.237 OA
ATOM     71  O   UNL     1      -9.132  10.610 -11.032  1.00  0.00    -0.744 OA
ENDBRANCH  64  68
ENDBRANCH  47  61
BRANCH  48  72
ATOM     72  C   UNL     1      -6.485   6.615   2.746  1.00  0.00     0.023 A 
ATOM     73  C   UNL     1      -7.536   6.243   3.597  1.00  0.00     0.031 A 
ATOM     74  C   UNL     1      -5.179   6.575   3.255  1.00  0.00     0.131 A 
ATOM     75  C   UNL     1      -7.255   5.871   4.923  1.00  0.00     0.055 A 
ATOM     76  C   UNL     1      -4.896   6.115   4.541  1.00  0.00     0.041 A 
ATOM     77  F   UNL     1      -4.164   7.029   2.505  1.00  0.00    -0.206 F 
ATOM     78  C   UNL     1      -5.941   5.767   5.388  1.00  0.00     0.022 A 
BRANCH  75  79
ATOM     79  S   UNL     1      -8.636   5.678   6.084  1.00  0.00     0.124 S 
ATOM     80  O   UNL     1      -9.259   6.995   6.022  1.00  0.00    -0.237 OA
ATOM     81  O   UNL     1      -9.389   4.583   5.481  1.00  0.00    -0.237 OA
ATOM     82  O   UNL     1      -7.977   5.356   7.347  1.00  0.00    -0.744 OA
ENDBRANCH  75  79
ENDBRANCH  48  72
BRANCH  60  83
ATOM     83  C   UNL     1      -9.417  12.514   0.578  1.00  0.00     0.023 A 
ATOM     84  C   UNL     1      -8.767  13.283   1.560  1.00  0.00     0.031 A 
ATOM     85  C   UNL     1     -10.785  12.751   0.354  1.00  0.00     0.131 A 
ATOM     86  C   UNL     1      -9.503  14.184   2.343  1.00  0.00     0.055 A 
ATOM     87  C   UNL     1     -11.494  13.709   1.081  1.00  0.00     0.041 A 
ATOM     88  F   UNL     1     -11.461  12.044  -0.565  1.00  0.00    -0.206 F 
ATOM     89  C   UNL     1     -10.858  14.416   2.097  1.00  0.00     0.022 A 
BRANCH  86  90
ATOM     90  S   UNL     1      -8.699  14.938   3.784  1.00  0.00     0.124 S 
ATOM     91  O   UNL     1      -8.265  13.764   4.535  1.00  0.00    -0.237 OA
ATOM     92  O   UNL     1      -7.638  15.730   3.171  1.00  0.00    -0.237 OA
ATOM     93  O   UNL     1      -9.770  15.713   4.408  1.00  0.00    -0.744 OA
ENDBRANCH  86  90
ENDBRANCH  60  83
ENDBRANCH  34  35
ENDBRANCH  27  29
ENDBRANCH  26  27
ENDBRANCH  25  26
ENDBRANCH  24  25
ENDBRANCH  23  24
ENDBRANCH  22  23
ENDBRANCH   1  22
TORSDOF 23
