REMARK SMILES CC(=C/C(=O)OCCOCCOC(=O)c1ccc(-c2c3nc(c(-c4cc(S(=O)(=O)[O-])ccc4F)c4ccc([nH]4)c(-c4cc(S(=O)(=O)[O-])ccc4F)c4nc(c(-c5cc(S(=O)(=O)[O-])ccc5F)c5ccc2[nH]5)C=C4)C=C3)cc1)/C=C/c1ccc2ccccc2c1
REMARK SMILES IDX 10 1 9 2 8 3 7 4 6 5 4 6 5 7 3 8 1 9 2 10 78 11 79 12 80 13
REMARK SMILES IDX 81 14 89 15 82 16 88 17 83 18 87 19 84 20 86 21 85 22 11 23
REMARK SMILES IDX 12 24 13 25 14 26 15 27 16 28 77 29 17 30 76 31 18 32 19 33
REMARK SMILES IDX 20 34 70 35 21 36 75 37 69 38 71 39 22 40 74 41 68 42 67 43
REMARK SMILES IDX 23 45 55 46 35 47 54 48 36 49 39 50 53 51 72 52 37 53 38 54
REMARK SMILES IDX 52 56 73 57 40 58 24 59 25 60 33 61 26 62 32 63 34 64 31 65
REMARK SMILES IDX 27 66 28 67 29 68 30 69 56 70 57 71 65 72 58 73 64 74 66 75
REMARK SMILES IDX 63 76 59 77 60 78 61 79 62 80 41 81 42 82 50 83 43 84 49 85
REMARK SMILES IDX 51 86 48 87 44 88 45 89 46 90 47 91
REMARK H PARENT 71 44 39 55
REMARK Flexibility Score: inf
ROOT
ATOM      1  C   UNL     1      -0.011   3.353  -4.080  1.00  0.00     0.202 C 
ENDROOT
BRANCH   1   2
ATOM      2  O   UNL     1      -0.983   4.386  -4.245  1.00  0.00    -0.374 OA
BRANCH   2   3
ATOM      3  C   UNL     1      -1.165   5.278  -3.141  1.00  0.00     0.202 C 
BRANCH   3   4
ATOM      4  C   UNL     1      -2.078   4.742  -2.036  1.00  0.00     0.261 C 
BRANCH   4   5
ATOM      5  O   UNL     1      -1.389   3.714  -1.302  1.00  0.00    -0.460 OA
BRANCH   5   6
ATOM      6  C   UNL     1      -1.952   2.490  -1.302  1.00  0.00     0.331 C 
ATOM      7  O   UNL     1      -3.063   2.200  -1.723  1.00  0.00    -0.247 OA
BRANCH   6   8
ATOM      8  C   UNL     1      -0.994   1.435  -0.898  1.00  0.00     0.096 C 
ATOM      9  C   UNL     1       0.883   0.142   0.009  1.00  0.00     0.044 C 
ATOM     10  C   UNL     1       0.115   1.441  -0.131  1.00  0.00    -0.044 C 
BRANCH  10  11
ATOM     11  C   UNL     1       0.653   2.603   0.570  1.00  0.00     0.004 C 
ATOM     12  C   UNL     1       1.569   2.543   1.551  1.00  0.00     0.008 C 
BRANCH  12  13
ATOM     13  C   UNL     1       2.114   3.721   2.231  1.00  0.00    -0.025 A 
ATOM     14  C   UNL     1       3.497   3.919   2.219  1.00  0.00     0.009 A 
ATOM     15  C   UNL     1       1.298   4.598   2.955  1.00  0.00     0.016 A 
ATOM     16  C   UNL     1       4.064   4.984   2.920  1.00  0.00     0.009 A 
ATOM     17  C   UNL     1       1.857   5.662   3.686  1.00  0.00    -0.018 A 
ATOM     18  C   UNL     1       3.258   5.854   3.665  1.00  0.00    -0.018 A 
ATOM     19  C   UNL     1       1.059   6.529   4.450  1.00  0.00     0.009 A 
ATOM     20  C   UNL     1       3.822   6.905   4.401  1.00  0.00     0.009 A 
ATOM     21  C   UNL     1       1.637   7.561   5.189  1.00  0.00     0.001 A 
ATOM     22  C   UNL     1       3.016   7.747   5.164  1.00  0.00     0.001 A 
ENDBRANCH  12  13
ENDBRANCH  10  11
ENDBRANCH   6   8
ENDBRANCH   5   6
ENDBRANCH   4   5
ENDBRANCH   3   4
ENDBRANCH   2   3
ENDBRANCH   1   2
BRANCH   1  23
ATOM     23  C   UNL     1       1.442   3.750  -4.364  1.00  0.00     0.261 C 
BRANCH  23  24
ATOM     24  O   UNL     1       1.952   4.668  -3.381  1.00  0.00    -0.460 OA
BRANCH  24  25
ATOM     25  C   UNL     1       2.030   5.952  -3.812  1.00  0.00     0.338 C 
ATOM     26  O   UNL     1       1.775   6.359  -4.932  1.00  0.00    -0.246 OA
BRANCH  25  27
ATOM     27  C   UNL     1       2.316   6.863  -2.684  1.00  0.00     0.060 A 
ATOM     28  C   UNL     1       1.577   8.051  -2.630  1.00  0.00     0.016 A 
ATOM     29  C   UNL     1       3.340   6.625  -1.762  1.00  0.00     0.016 A 
ATOM     30  C   UNL     1       1.915   9.043  -1.714  1.00  0.00     0.010 A 
ATOM     31  C   UNL     1       3.680   7.625  -0.842  1.00  0.00     0.010 A 
ATOM     32  C   UNL     1       3.006   8.860  -0.854  1.00  0.00    -0.014 A 
BRANCH  32  33
ATOM     33  C   UNL     1       3.554  10.044  -0.143  1.00  0.00     0.031 A 
ATOM     34  C   UNL     1       4.744  10.754  -0.739  1.00  0.00     0.074 A 
ATOM     35  C   UNL     1       2.951  10.535   0.955  1.00  0.00     0.049 A 
ATOM     36  N   UNL     1       5.367  11.828  -0.326  1.00  0.00    -0.248 NA
ATOM     37  C   UNL     1       5.307  10.167  -1.965  1.00  0.00     0.031 C 
ATOM     38  C   UNL     1       1.771   9.960   1.598  1.00  0.00     0.029 A 
ATOM     39  N   UNL     1       3.244  11.640   1.715  1.00  0.00    -0.354 N 
ATOM     40  C   UNL     1       6.396  12.044  -1.239  1.00  0.00     0.074 A 
ATOM     41  C   UNL     1       6.338  10.963  -2.200  1.00  0.00     0.031 C 
ATOM     42  C   UNL     1       1.434  10.724   2.651  1.00  0.00     0.029 A 
ATOM     43  C   UNL     1       2.389  11.823   2.776  1.00  0.00     0.049 A 
ATOM     44  H   UNL     1       3.996  12.245   1.518  1.00  0.00     0.167 HD
ATOM     45  C   UNL     1       7.298  13.057  -1.281  1.00  0.00     0.034 A 
ATOM     46  C   UNL     1       2.388  12.765   3.743  1.00  0.00     0.034 A 
ATOM     47  C   UNL     1       7.348  14.124  -0.311  1.00  0.00     0.049 A 
ATOM     48  C   UNL     1       3.441  13.846   3.713  1.00  0.00     0.074 A 
ATOM     49  C   UNL     1       8.220  15.198  -0.252  1.00  0.00     0.029 A 
ATOM     50  N   UNL     1       6.491  14.252   0.776  1.00  0.00    -0.354 N 
ATOM     51  N   UNL     1       4.413  14.035   2.849  1.00  0.00    -0.248 NA
ATOM     52  C   UNL     1       3.388  14.848   4.785  1.00  0.00     0.031 C 
ATOM     53  C   UNL     1       7.935  15.934   0.904  1.00  0.00     0.029 A 
ATOM     54  C   UNL     1       6.831  15.370   1.523  1.00  0.00     0.049 A 
ATOM     55  H   UNL     1       5.751  13.638   0.985  1.00  0.00     0.167 HD
ATOM     56  C   UNL     1       5.060  15.200   3.254  1.00  0.00     0.074 A 
ATOM     57  C   UNL     1       4.362  15.673   4.432  1.00  0.00     0.031 C 
ATOM     58  C   UNL     1       6.129  15.828   2.700  1.00  0.00     0.034 A 
BRANCH  45  59
ATOM     59  C   UNL     1       8.333  13.018  -2.381  1.00  0.00     0.023 A 
ATOM     60  C   UNL     1       7.979  13.114  -3.739  1.00  0.00     0.031 A 
ATOM     61  C   UNL     1       9.693  12.843  -2.068  1.00  0.00     0.131 A 
ATOM     62  C   UNL     1       8.960  12.960  -4.732  1.00  0.00     0.055 A 
ATOM     63  C   UNL     1      10.675  12.773  -3.058  1.00  0.00     0.041 A 
ATOM     64  F   UNL     1      10.090  12.720  -0.792  1.00  0.00    -0.206 F 
ATOM     65  C   UNL     1      10.309  12.816  -4.400  1.00  0.00     0.022 A 
BRANCH  62  66
ATOM     66  S   UNL     1       8.431  12.803  -6.460  1.00  0.00     0.124 S 
ATOM     67  O   UNL     1       7.559  11.632  -6.396  1.00  0.00    -0.237 OA
ATOM     68  O   UNL     1       7.771  14.079  -6.706  1.00  0.00    -0.237 OA
ATOM     69  O   UNL     1       9.684  12.597  -7.185  1.00  0.00    -0.744 OA
ENDBRANCH  62  66
ENDBRANCH  45  59
BRANCH  46  70
ATOM     70  C   UNL     1       1.385  12.718   4.846  1.00  0.00     0.023 A 
ATOM     71  C   UNL     1       0.439  13.738   5.027  1.00  0.00     0.031 A 
ATOM     72  C   UNL     1       1.411  11.673   5.785  1.00  0.00     0.131 A 
ATOM     73  C   UNL     1      -0.414  13.709   6.142  1.00  0.00     0.055 A 
ATOM     74  C   UNL     1       0.519  11.614   6.856  1.00  0.00     0.041 A 
ATOM     75  F   UNL     1       2.320  10.694   5.678  1.00  0.00    -0.206 F 
ATOM     76  C   UNL     1      -0.394  12.644   7.047  1.00  0.00     0.022 A 
BRANCH  73  77
ATOM     77  S   UNL     1      -1.489  15.137   6.455  1.00  0.00     0.124 S 
ATOM     78  O   UNL     1      -0.517  16.218   6.569  1.00  0.00    -0.237 OA
ATOM     79  O   UNL     1      -2.328  15.151   5.262  1.00  0.00    -0.237 OA
ATOM     80  O   UNL     1      -2.176  14.780   7.694  1.00  0.00    -0.744 OA
ENDBRANCH  73  77
ENDBRANCH  46  70
BRANCH  58  81
ATOM     81  C   UNL     1       6.564  17.130   3.329  1.00  0.00     0.023 A 
ATOM     82  C   UNL     1       7.090  17.190   4.632  1.00  0.00     0.031 A 
ATOM     83  C   UNL     1       6.426  18.336   2.617  1.00  0.00     0.131 A 
ATOM     84  C   UNL     1       7.395  18.434   5.206  1.00  0.00     0.055 A 
ATOM     85  C   UNL     1       6.793  19.563   3.170  1.00  0.00     0.041 A 
ATOM     86  F   UNL     1       5.929  18.340   1.370  1.00  0.00    -0.206 F 
ATOM     87  C   UNL     1       7.265  19.619   4.477  1.00  0.00     0.022 A 
BRANCH  84  88
ATOM     88  S   UNL     1       7.859  18.495   6.959  1.00  0.00     0.124 S 
ATOM     89  O   UNL     1       6.724  17.836   7.597  1.00  0.00    -0.237 OA
ATOM     90  O   UNL     1       9.116  17.753   6.973  1.00  0.00    -0.237 OA
ATOM     91  O   UNL     1       7.981  19.925   7.233  1.00  0.00    -0.744 OA
ENDBRANCH  84  88
ENDBRANCH  58  81
ENDBRANCH  32  33
ENDBRANCH  25  27
ENDBRANCH  24  25
ENDBRANCH  23  24
ENDBRANCH   1  23
TORSDOF 19
