REMARK SMILES CC(C)[NH2+][C@]1(C(=O)OCCOCCOC(=O)c2ccc(-c3c4nc(c(-c5cc(S(=O)(=O)[O-])ccc5F)c5ccc([nH]5)c(-c5cc(S(=O)(=O)[O-])ccc5F)c5nc(c(-c6cc(S(=O)(=O)[O-])ccc6F)c6ccc3[nH]6)C=C5)C=C4)cc2)CCC[C@@H](Sc2ccc(Cl)cc2)C1
REMARK SMILES IDX 12 1 11 2 10 3 9 4 8 5 6 6 7 7 5 8 80 9 92 10 81 11 83 12
REMARK SMILES IDX 82 13 4 14 2 17 1 18 3 19 84 20 85 21 86 22 91 23 87 24
REMARK SMILES IDX 90 25 88 26 89 27 13 28 14 29 15 30 16 31 17 32 18 33 79 34
REMARK SMILES IDX 19 35 78 36 20 37 21 38 22 39 72 40 23 41 77 42 71 43 73 44
REMARK SMILES IDX 24 45 76 46 70 47 69 48 25 50 57 51 37 52 56 53 38 54 41 55
REMARK SMILES IDX 55 56 74 57 39 58 40 59 54 61 75 62 42 63 26 64 27 65 35 66
REMARK SMILES IDX 28 67 34 68 36 69 33 70 29 71 30 72 31 73 32 74 58 75 59 76
REMARK SMILES IDX 67 77 60 78 66 79 68 80 65 81 61 82 62 83 63 84 64 85 43 86
REMARK SMILES IDX 44 87 52 88 45 89 51 90 53 91 50 92 46 93 47 94 48 95 49 96
REMARK H PARENT 4 15 4 16 73 49 41 60
REMARK Flexibility Score: inf
ROOT
ATOM      1  C   UNL     1      -1.422   1.199  -0.252  1.00  0.00     0.202 C 
ENDROOT
BRANCH   1   2
ATOM      2  O   UNL     1      -0.143   1.389   0.354  1.00  0.00    -0.374 OA
BRANCH   2   3
ATOM      3  C   UNL     1       0.991   0.986  -0.414  1.00  0.00     0.202 C 
BRANCH   3   4
ATOM      4  C   UNL     1       1.468  -0.449  -0.194  1.00  0.00     0.261 C 
BRANCH   4   5
ATOM      5  O   UNL     1       0.647  -1.393  -0.909  1.00  0.00    -0.459 OA
BRANCH   5   6
ATOM      6  C   UNL     1      -0.370  -1.930  -0.191  1.00  0.00     0.368 C 
ATOM      7  O   UNL     1      -0.578  -1.662   0.991  1.00  0.00    -0.245 OA
BRANCH   6   8
ATOM      8  C   UNL     1      -1.207  -2.983  -0.964  1.00  0.00     0.195 C 
ATOM      9  C   UNL     1      -0.426  -4.310  -0.742  1.00  0.00     0.081 C 
ATOM     10  C   UNL     1      -2.583  -3.089  -0.260  1.00  0.00     0.096 C 
ATOM     11  C   UNL     1      -1.228  -5.577  -1.037  1.00  0.00     0.008 C 
ATOM     12  C   UNL     1      -3.371  -4.353  -0.588  1.00  0.00     0.058 C 
ATOM     13  C   UNL     1      -2.550  -5.603  -0.269  1.00  0.00     0.015 C 
BRANCH   8  14
ATOM     14  N   UNL     1      -1.320  -2.795  -2.433  1.00  0.00    -0.330 N 
ATOM     15  H   UNL     1      -0.433  -3.107  -2.828  1.00  0.00     0.347 HD
ATOM     16  H   UNL     1      -2.174  -3.311  -2.645  1.00  0.00     0.347 HD
BRANCH  14  17
ATOM     17  C   UNL     1      -1.599  -1.492  -3.040  1.00  0.00     0.176 C 
ATOM     18  C   UNL     1      -1.383  -1.648  -4.555  1.00  0.00     0.075 C 
ATOM     19  C   UNL     1      -3.017  -0.961  -2.828  1.00  0.00     0.075 C 
ENDBRANCH  14  17
ENDBRANCH   8  14
BRANCH  12  20
ATOM     20  S   UNL     1      -5.046  -4.381   0.200  1.00  0.00    -0.122 SA
BRANCH  20  21
ATOM     21  C   UNL     1      -4.708  -4.287   1.950  1.00  0.00     0.008 A 
ATOM     22  C   UNL     1      -4.946  -5.408   2.753  1.00  0.00     0.016 A 
ATOM     23  C   UNL     1      -4.322  -3.087   2.560  1.00  0.00     0.016 A 
ATOM     24  C   UNL     1      -4.763  -5.340   4.139  1.00  0.00     0.021 A 
ATOM     25  C   UNL     1      -4.113  -3.023   3.942  1.00  0.00     0.021 A 
ATOM     26  C   UNL     1      -4.338  -4.150   4.726  1.00  0.00     0.041 A 
ATOM     27  Cl  UNL     1      -4.116  -4.067   6.430  1.00  0.00    -0.084 Cl
ENDBRANCH  20  21
ENDBRANCH  12  20
ENDBRANCH   6   8
ENDBRANCH   5   6
ENDBRANCH   4   5
ENDBRANCH   3   4
ENDBRANCH   2   3
ENDBRANCH   1   2
BRANCH   1  28
ATOM     28  C   UNL     1      -1.829   2.248  -1.297  1.00  0.00     0.261 C 
BRANCH  28  29
ATOM     29  O   UNL     1      -1.121   2.055  -2.539  1.00  0.00    -0.460 OA
BRANCH  29  30
ATOM     30  C   UNL     1      -0.131   2.952  -2.774  1.00  0.00     0.338 C 
ATOM     31  O   UNL     1       0.125   3.942  -2.105  1.00  0.00    -0.246 OA
BRANCH  30  32
ATOM     32  C   UNL     1       0.772   2.452  -3.833  1.00  0.00     0.060 A 
ATOM     33  C   UNL     1       2.150   2.515  -3.582  1.00  0.00     0.016 A 
ATOM     34  C   UNL     1       0.304   1.981  -5.061  1.00  0.00     0.016 A 
ATOM     35  C   UNL     1       3.064   2.181  -4.578  1.00  0.00     0.010 A 
ATOM     36  C   UNL     1       1.225   1.647  -6.064  1.00  0.00     0.010 A 
ATOM     37  C   UNL     1       2.609   1.793  -5.844  1.00  0.00    -0.014 A 
BRANCH  37  38
ATOM     38  C   UNL     1       3.567   1.748  -6.981  1.00  0.00     0.031 A 
ATOM     39  C   UNL     1       3.572   2.893  -7.962  1.00  0.00     0.074 A 
ATOM     40  C   UNL     1       4.455   0.746  -7.117  1.00  0.00     0.049 A 
ATOM     41  N   UNL     1       4.270   3.051  -9.057  1.00  0.00    -0.248 NA
ATOM     42  C   UNL     1       2.661   4.009  -7.663  1.00  0.00     0.031 C 
ATOM     43  C   UNL     1       4.602  -0.383  -6.200  1.00  0.00     0.029 A 
ATOM     44  N   UNL     1       5.403   0.518  -8.085  1.00  0.00    -0.354 N 
ATOM     45  C   UNL     1       3.874   4.276  -9.585  1.00  0.00     0.074 A 
ATOM     46  C   UNL     1       2.845   4.797  -8.711  1.00  0.00     0.031 C 
ATOM     47  C   UNL     1       5.580  -1.187  -6.653  1.00  0.00     0.029 A 
ATOM     48  C   UNL     1       6.095  -0.659  -7.915  1.00  0.00     0.049 A 
ATOM     49  H   UNL     1       5.572   1.139  -8.829  1.00  0.00     0.167 HD
ATOM     50  C   UNL     1       4.332   4.913 -10.691  1.00  0.00     0.034 A 
ATOM     51  C   UNL     1       7.014  -1.256  -8.704  1.00  0.00     0.034 A 
ATOM     52  C   UNL     1       5.359   4.383 -11.555  1.00  0.00     0.049 A 
ATOM     53  C   UNL     1       7.435  -0.579  -9.989  1.00  0.00     0.074 A 
ATOM     54  C   UNL     1       5.900   4.950 -12.696  1.00  0.00     0.029 A 
ATOM     55  N   UNL     1       5.993   3.159 -11.383  1.00  0.00    -0.354 N 
ATOM     56  N   UNL     1       7.043   0.572 -10.486  1.00  0.00    -0.248 NA
ATOM     57  C   UNL     1       8.429  -1.279 -10.815  1.00  0.00     0.031 C 
ATOM     58  C   UNL     1       6.797   4.036 -13.257  1.00  0.00     0.029 A 
ATOM     59  C   UNL     1       6.892   2.939 -12.416  1.00  0.00     0.049 A 
ATOM     60  H   UNL     1       5.829   2.539 -10.636  1.00  0.00     0.167 HD
ATOM     61  C   UNL     1       7.775   0.749 -11.659  1.00  0.00     0.074 A 
ATOM     62  C   UNL     1       8.634  -0.408 -11.791  1.00  0.00     0.031 C 
ATOM     63  C   UNL     1       7.747   1.781 -12.541  1.00  0.00     0.034 A 
BRANCH  50  64
ATOM     64  C   UNL     1       3.681   6.226 -11.058  1.00  0.00     0.023 A 
ATOM     65  C   UNL     1       3.757   7.354 -10.222  1.00  0.00     0.031 A 
ATOM     66  C   UNL     1       2.949   6.343 -12.253  1.00  0.00     0.131 A 
ATOM     67  C   UNL     1       3.053   8.521 -10.556  1.00  0.00     0.055 A 
ATOM     68  C   UNL     1       2.323   7.535 -12.622  1.00  0.00     0.041 A 
ATOM     69  F   UNL     1       2.817   5.293 -13.079  1.00  0.00    -0.206 F 
ATOM     70  C   UNL     1       2.360   8.629 -11.763  1.00  0.00     0.022 A 
BRANCH  67  71
ATOM     71  S   UNL     1       2.928   9.841  -9.318  1.00  0.00     0.124 S 
ATOM     72  O   UNL     1       2.313   9.136  -8.196  1.00  0.00    -0.237 OA
ATOM     73  O   UNL     1       4.319  10.239  -9.138  1.00  0.00    -0.237 OA
ATOM     74  O   UNL     1       2.072  10.835  -9.963  1.00  0.00    -0.744 OA
ENDBRANCH  67  71
ENDBRANCH  50  64
BRANCH  51  75
ATOM     75  C   UNL     1       7.571  -2.593  -8.338  1.00  0.00     0.023 A 
ATOM     76  C   UNL     1       8.944  -2.772  -8.104  1.00  0.00     0.031 A 
ATOM     77  C   UNL     1       6.742  -3.729  -8.288  1.00  0.00     0.131 A 
ATOM     78  C   UNL     1       9.454  -4.061  -7.882  1.00  0.00     0.055 A 
ATOM     79  C   UNL     1       7.245  -5.000  -8.004  1.00  0.00     0.041 A 
ATOM     80  F   UNL     1       5.423  -3.619  -8.512  1.00  0.00    -0.206 F 
ATOM     81  C   UNL     1       8.612  -5.174  -7.814  1.00  0.00     0.022 A 
BRANCH  78  82
ATOM     82  S   UNL     1      11.252  -4.280  -7.785  1.00  0.00     0.124 S 
ATOM     83  O   UNL     1      11.683  -3.758  -9.077  1.00  0.00    -0.237 OA
ATOM     84  O   UNL     1      11.593  -3.472  -6.619  1.00  0.00    -0.237 OA
ATOM     85  O   UNL     1      11.410  -5.722  -7.610  1.00  0.00    -0.744 OA
ENDBRANCH  78  82
ENDBRANCH  51  75
BRANCH  63  86
ATOM     86  C   UNL     1       8.723   1.743 -13.695  1.00  0.00     0.023 A 
ATOM     87  C   UNL     1       8.646   0.776 -14.712  1.00  0.00     0.031 A 
ATOM     88  C   UNL     1       9.749   2.703 -13.776  1.00  0.00     0.131 A 
ATOM     89  C   UNL     1       9.605   0.760 -15.737  1.00  0.00     0.055 A 
ATOM     90  C   UNL     1      10.661   2.722 -14.833  1.00  0.00     0.041 A 
ATOM     91  F   UNL     1       9.876   3.649 -12.832  1.00  0.00    -0.206 F 
ATOM     92  C   UNL     1      10.600   1.738 -15.815  1.00  0.00     0.022 A 
BRANCH  89  93
ATOM     93  S   UNL     1       9.595  -0.614 -16.922  1.00  0.00     0.124 S 
ATOM     94  O   UNL     1       9.741  -1.772 -16.046  1.00  0.00    -0.237 OA
ATOM     95  O   UNL     1       8.295  -0.461 -17.567  1.00  0.00    -0.237 OA
ATOM     96  O   UNL     1      10.747  -0.336 -17.779  1.00  0.00    -0.744 OA
ENDBRANCH  89  93
ENDBRANCH  63  86
ENDBRANCH  37  38
ENDBRANCH  30  32
ENDBRANCH  29  30
ENDBRANCH  28  29
ENDBRANCH   1  28
TORSDOF 21
