REMARK SMILES CN(C)c1cccc2c(S(=O)(=O)N[C@H](CO)C(=O)OCCOCCOC(=O)c3ccc(-c4c5nc(c(-c6cc(S(=O)(=O)[O-])ccc6F)c6ccc([nH]6)c(-c6cc(S(=O)(=O)[O-])ccc6F)c6nc(c(-c7cc(S(=O)(=O)[O-])ccc7F)c7ccc4[nH]7)C=C6)C=C5)cc3)cccc12
REMARK SMILES IDX 21 1 20 2 19 3 17 4 18 5 14 6 13 7 10 9 11 10 12 11 9 12
REMARK SMILES IDX 4 13 5 14 94 15 6 16 8 17 93 18 7 19 92 20 91 21 2 22 1 23
REMARK SMILES IDX 3 24 15 25 16 26 22 28 23 29 24 30 25 31 26 32 27 33 28 34
REMARK SMILES IDX 29 35 90 36 30 37 89 38 31 39 32 40 33 41 83 42 34 43 88 44
REMARK SMILES IDX 82 45 84 46 35 47 87 48 81 49 80 50 36 52 68 53 48 54 67 55
REMARK SMILES IDX 49 56 52 57 66 58 85 59 50 60 51 61 65 63 86 64 53 65 37 66
REMARK SMILES IDX 38 67 46 68 39 69 45 70 47 71 44 72 40 73 41 74 42 75 43 76
REMARK SMILES IDX 69 77 70 78 78 79 71 80 77 81 79 82 76 83 72 84 73 85 74 86
REMARK SMILES IDX 75 87 54 88 55 89 63 90 56 91 62 92 64 93 61 94 57 95 58 96
REMARK SMILES IDX 59 97 60 98
REMARK H PARENT 13 8 16 27 84 51 52 62
REMARK Flexibility Score: inf
ROOT
ATOM      1  C   UNL     1       6.476   0.556  -7.228  1.00  0.00     0.202 C 
ENDROOT
BRANCH   1   2
ATOM      2  C   UNL     1       6.111  -0.692  -8.044  1.00  0.00     0.261 C 
BRANCH   2   3
ATOM      3  O   UNL     1       4.702  -0.865  -8.245  1.00  0.00    -0.462 OA
BRANCH   3   4
ATOM      4  C   UNL     1       4.117  -1.688  -7.333  1.00  0.00     0.326 C 
ATOM      5  O   UNL     1       4.720  -2.231  -6.412  1.00  0.00    -0.250 OA
BRANCH   4   6
ATOM      6  C   UNL     1       2.611  -1.789  -7.481  1.00  0.00     0.205 C 
BRANCH   6   7
ATOM      7  N   UNL     1       2.008  -3.112  -7.792  1.00  0.00    -0.194 NA
ATOM      8  H   UNL     1       1.173  -3.192  -7.212  1.00  0.00     0.142 HD
BRANCH   7   9
ATOM      9  S   UNL     1       2.870  -4.540  -7.583  1.00  0.00     0.242 S 
ATOM     10  O   UNL     1       4.067  -4.385  -8.380  1.00  0.00    -0.207 OA
ATOM     11  O   UNL     1       1.934  -5.609  -7.863  1.00  0.00    -0.207 OA
BRANCH   9  12
ATOM     12  C   UNL     1       3.325  -4.698  -5.865  1.00  0.00     0.090 A 
ATOM     13  C   UNL     1       2.403  -3.657  -2.363  1.00  0.00     0.044 A 
ATOM     14  C   UNL     1       1.167  -3.033  -2.603  1.00  0.00     0.026 A 
ATOM     15  C   UNL     1       3.105  -4.237  -3.468  1.00  0.00     0.006 A 
ATOM     16  C   UNL     1       0.588  -3.038  -3.862  1.00  0.00     0.003 A 
ATOM     17  C   UNL     1       2.551  -4.185  -4.784  1.00  0.00     0.004 A 
ATOM     18  C   UNL     1       4.341  -4.902  -3.295  1.00  0.00     0.011 A 
ATOM     19  C   UNL     1       1.256  -3.636  -4.923  1.00  0.00     0.010 A 
ATOM     20  C   UNL     1       5.070  -5.424  -4.360  1.00  0.00     0.002 A 
ATOM     21  C   UNL     1       4.572  -5.306  -5.645  1.00  0.00     0.022 A 
BRANCH  13  22
ATOM     22  N   UNL     1       2.907  -3.691  -1.050  1.00  0.00    -0.377 N 
ATOM     23  C   UNL     1       1.968  -3.964   0.030  1.00  0.00     0.143 C 
ATOM     24  C   UNL     1       4.032  -2.808  -0.756  1.00  0.00     0.143 C 
ENDBRANCH  13  22
ENDBRANCH   9  12
ENDBRANCH   7   9
ENDBRANCH   6   7
BRANCH   6  25
ATOM     25  C   UNL     1       1.986  -0.752  -8.434  1.00  0.00     0.188 C 
BRANCH  25  26
ATOM     26  O   UNL     1       1.947  -1.242  -9.776  1.00  0.00    -0.394 OA
ATOM     27  H   UNL     1       2.851  -1.423 -10.080  1.00  0.00     0.210 HD
ENDBRANCH  25  26
ENDBRANCH   6  25
ENDBRANCH   4   6
ENDBRANCH   3   4
ENDBRANCH   2   3
ENDBRANCH   1   2
BRANCH   1  28
ATOM     28  O   UNL     1       5.787   0.773  -6.000  1.00  0.00    -0.374 OA
BRANCH  28  29
ATOM     29  C   UNL     1       4.460   1.301  -6.036  1.00  0.00     0.202 C 
BRANCH  29  30
ATOM     30  C   UNL     1       4.247   2.643  -6.740  1.00  0.00     0.261 C 
BRANCH  30  31
ATOM     31  O   UNL     1       4.333   2.499  -8.172  1.00  0.00    -0.460 OA
BRANCH  31  32
ATOM     32  C   UNL     1       5.162   3.392  -8.770  1.00  0.00     0.338 C 
ATOM     33  O   UNL     1       5.746   4.319  -8.236  1.00  0.00    -0.246 OA
BRANCH  32  34
ATOM     34  C   UNL     1       5.435   2.978 -10.157  1.00  0.00     0.060 A 
ATOM     35  C   UNL     1       6.760   2.681 -10.498  1.00  0.00     0.016 A 
ATOM     36  C   UNL     1       4.436   3.007 -11.131  1.00  0.00     0.016 A 
ATOM     37  C   UNL     1       7.104   2.463 -11.831  1.00  0.00     0.010 A 
ATOM     38  C   UNL     1       4.786   2.802 -12.470  1.00  0.00     0.010 A 
ATOM     39  C   UNL     1       6.127   2.570 -12.829  1.00  0.00    -0.014 A 
BRANCH  39  40
ATOM     40  C   UNL     1       6.545   2.622 -14.251  1.00  0.00     0.031 A 
ATOM     41  C   UNL     1       6.731   3.967 -14.901  1.00  0.00     0.074 A 
ATOM     42  C   UNL     1       6.793   1.494 -14.939  1.00  0.00     0.049 A 
ATOM     43  N   UNL     1       7.061   4.257 -16.132  1.00  0.00    -0.248 NA
ATOM     44  C   UNL     1       6.513   5.141 -14.042  1.00  0.00     0.031 C 
ATOM     45  C   UNL     1       6.697   0.139 -14.399  1.00  0.00     0.029 A 
ATOM     46  N   UNL     1       7.171   1.312 -16.245  1.00  0.00    -0.354 N 
ATOM     47  C   UNL     1       7.094   5.647 -16.198  1.00  0.00     0.074 A 
ATOM     48  C   UNL     1       6.713   6.138 -14.891  1.00  0.00     0.031 C 
ATOM     49  C   UNL     1       6.993  -0.739 -15.374  1.00  0.00     0.029 A 
ATOM     50  C   UNL     1       7.267  -0.010 -16.611  1.00  0.00     0.049 A 
ATOM     51  H   UNL     1       7.356   2.057 -16.862  1.00  0.00     0.167 HD
ATOM     52  C   UNL     1       7.418   6.439 -17.250  1.00  0.00     0.034 A 
ATOM     53  C   UNL     1       7.520  -0.565 -17.814  1.00  0.00     0.034 A 
ATOM     54  C   UNL     1       7.777   5.935 -18.553  1.00  0.00     0.049 A 
ATOM     55  C   UNL     1       7.787   0.336 -18.995  1.00  0.00     0.074 A 
ATOM     56  C   UNL     1       8.129   6.645 -19.688  1.00  0.00     0.029 A 
ATOM     57  N   UNL     1       7.816   4.590 -18.900  1.00  0.00    -0.354 N 
ATOM     58  N   UNL     1       7.818   1.649 -19.044  1.00  0.00    -0.248 NA
ATOM     59  C   UNL     1       8.060  -0.320 -20.281  1.00  0.00     0.031 C 
ATOM     60  C   UNL     1       8.317   5.735 -20.735  1.00  0.00     0.029 A 
ATOM     61  C   UNL     1       8.152   4.452 -20.238  1.00  0.00     0.049 A 
ATOM     62  H   UNL     1       7.631   3.844 -18.285  1.00  0.00     0.167 HD
ATOM     63  C   UNL     1       8.140   1.972 -20.360  1.00  0.00     0.074 A 
ATOM     64  C   UNL     1       8.303   0.719 -21.067  1.00  0.00     0.031 C 
ATOM     65  C   UNL     1       8.295   3.194 -20.931  1.00  0.00     0.034 A 
BRANCH  52  66
ATOM     66  C   UNL     1       7.341   7.931 -17.038  1.00  0.00     0.023 A 
ATOM     67  C   UNL     1       8.198   8.597 -16.144  1.00  0.00     0.031 A 
ATOM     68  C   UNL     1       6.368   8.692 -17.710  1.00  0.00     0.131 A 
ATOM     69  C   UNL     1       8.021   9.966 -15.895  1.00  0.00     0.055 A 
ATOM     70  C   UNL     1       6.245  10.069 -17.512  1.00  0.00     0.041 A 
ATOM     71  F   UNL     1       5.507   8.106 -18.557  1.00  0.00    -0.206 F 
ATOM     72  C   UNL     1       7.065  10.711 -16.590  1.00  0.00     0.022 A 
BRANCH  69  73
ATOM     73  S   UNL     1       8.964  10.733 -14.548  1.00  0.00     0.124 S 
ATOM     74  O   UNL     1       8.547   9.930 -13.401  1.00  0.00    -0.237 OA
ATOM     75  O   UNL     1      10.343  10.553 -14.987  1.00  0.00    -0.237 OA
ATOM     76  O   UNL     1       8.488  12.114 -14.538  1.00  0.00    -0.744 OA
ENDBRANCH  69  73
ENDBRANCH  52  66
BRANCH  53  77
ATOM     77  C   UNL     1       7.486  -2.045 -17.981  1.00  0.00     0.023 A 
ATOM     78  C   UNL     1       8.638  -2.767 -18.326  1.00  0.00     0.031 A 
ATOM     79  C   UNL     1       6.278  -2.753 -17.846  1.00  0.00     0.131 A 
ATOM     80  C   UNL     1       8.552  -4.148 -18.564  1.00  0.00     0.055 A 
ATOM     81  C   UNL     1       6.206  -4.133 -18.037  1.00  0.00     0.041 A 
ATOM     82  F   UNL     1       5.146  -2.108 -17.517  1.00  0.00    -0.206 F 
ATOM     83  C   UNL     1       7.346  -4.837 -18.410  1.00  0.00     0.022 A 
BRANCH  80  84
ATOM     84  S   UNL     1      10.028  -5.022 -19.153  1.00  0.00     0.124 S 
ATOM     85  O   UNL     1      10.329  -4.301 -20.384  1.00  0.00    -0.237 OA
ATOM     86  O   UNL     1      10.959  -4.822 -18.047  1.00  0.00    -0.237 OA
ATOM     87  O   UNL     1       9.562  -6.396 -19.331  1.00  0.00    -0.744 OA
ENDBRANCH  80  84
ENDBRANCH  53  77
BRANCH  65  88
ATOM     88  C   UNL     1       8.702   3.224 -22.383  1.00  0.00     0.023 A 
ATOM     89  C   UNL     1       7.827   2.816 -23.405  1.00  0.00     0.031 A 
ATOM     90  C   UNL     1       9.987   3.663 -22.746  1.00  0.00     0.131 A 
ATOM     91  C   UNL     1       8.266   2.811 -24.738  1.00  0.00     0.055 A 
ATOM     92  C   UNL     1      10.400   3.705 -24.078  1.00  0.00     0.041 A 
ATOM     93  F   UNL     1      10.862   4.063 -21.809  1.00  0.00    -0.206 F 
ATOM     94  C   UNL     1       9.541   3.266 -25.082  1.00  0.00     0.022 A 
BRANCH  91  95
ATOM     95  S   UNL     1       7.171   2.130 -26.014  1.00  0.00     0.124 S 
ATOM     96  O   UNL     1       6.979   0.760 -25.550  1.00  0.00    -0.237 OA
ATOM     97  O   UNL     1       6.005   3.003 -25.925  1.00  0.00    -0.237 OA
ATOM     98  O   UNL     1       7.952   2.264 -27.243  1.00  0.00    -0.744 OA
ENDBRANCH  91  95
ENDBRANCH  65  88
ENDBRANCH  39  40
ENDBRANCH  32  34
ENDBRANCH  31  32
ENDBRANCH  30  31
ENDBRANCH  29  30
ENDBRANCH  28  29
ENDBRANCH   1  28
TORSDOF 23
