REMARK SMILES CC(C)(O)CC[C@@H](C(=O)OCCOCCOC(=O)c1ccc(-c2c3nc(c(-c4cc(S(=O)(=O)[O-])ccc4F)c4ccc([nH]4)c(-c4cc(S(=O)(=O)[O-])ccc4F)c4nc(c(-c5cc(S(=O)(=O)[O-])ccc5F)c5ccc2[nH]5)C=C4)C=C3)cc1)[C@@H]1CCS(=O)(=O)C1
REMARK SMILES IDX 12 1 11 2 10 3 8 4 9 5 7 6 6 7 5 8 2 9 1 10 3 11 4 12 82 14
REMARK SMILES IDX 83 15 88 16 84 17 85 18 86 19 87 20 13 21 14 22 15 23 16 24
REMARK SMILES IDX 17 25 18 26 19 27 20 28 81 29 21 30 80 31 22 32 23 33 24 34
REMARK SMILES IDX 74 35 25 36 79 37 73 38 75 39 26 40 78 41 72 42 71 43 27 45
REMARK SMILES IDX 59 46 39 47 58 48 40 49 43 50 57 51 76 52 41 53 42 54 56 56
REMARK SMILES IDX 77 57 44 58 28 59 29 60 37 61 30 62 36 63 38 64 35 65 31 66
REMARK SMILES IDX 32 67 33 68 34 69 60 70 61 71 69 72 62 73 68 74 70 75 67 76
REMARK SMILES IDX 63 77 64 78 65 79 66 80 45 81 46 82 54 83 47 84 53 85 55 86
REMARK SMILES IDX 52 87 48 88 49 89 50 90 51 91
REMARK H PARENT 4 13 75 44 43 55
REMARK Flexibility Score: inf
ROOT
ATOM      1  C   UNL     1       5.377  -0.301   2.704  1.00  0.00     0.202 C 
ENDROOT
BRANCH   1   2
ATOM      2  C   UNL     1       4.601  -0.903   1.532  1.00  0.00     0.261 C 
BRANCH   2   3
ATOM      3  O   UNL     1       3.217  -0.522   1.599  1.00  0.00    -0.463 OA
BRANCH   3   4
ATOM      4  C   UNL     1       2.320  -1.513   1.799  1.00  0.00     0.309 C 
ATOM      5  O   UNL     1       2.608  -2.704   1.795  1.00  0.00    -0.252 OA
BRANCH   4   6
ATOM      6  C   UNL     1       0.892  -0.999   2.070  1.00  0.00     0.103 C 
BRANCH   6   7
ATOM      7  C   UNL     1       0.761   0.508   2.385  1.00  0.00     0.018 C 
BRANCH   7   8
ATOM      8  C   UNL     1       1.260   1.556   1.368  1.00  0.00     0.035 C 
BRANCH   8   9
ATOM      9  C   UNL     1       0.662   1.540  -0.055  1.00  0.00     0.059 C 
ATOM     10  C   UNL     1       1.093   0.352  -0.918  1.00  0.00     0.042 C 
ATOM     11  C   UNL     1       1.068   2.835  -0.772  1.00  0.00     0.042 C 
BRANCH   9  12
ATOM     12  O   UNL     1      -0.757   1.510   0.069  1.00  0.00    -0.390 OA
ATOM     13  H   UNL     1      -1.159   1.500  -0.814  1.00  0.00     0.211 HD
ENDBRANCH   9  12
ENDBRANCH   8   9
ENDBRANCH   7   8
ENDBRANCH   6   7
BRANCH   6  14
ATOM     14  C   UNL     1       0.294  -1.922   3.197  1.00  0.00     0.019 C 
ATOM     15  C   UNL     1      -0.226  -3.258   2.604  1.00  0.00     0.021 C 
ATOM     16  C   UNL     1      -0.921  -1.395   3.978  1.00  0.00     0.141 C 
ATOM     17  C   UNL     1      -1.561  -2.960   1.926  1.00  0.00     0.137 C 
ATOM     18  S   UNL     1      -2.356  -1.762   2.979  1.00  0.00     0.150 S 
ATOM     19  O   UNL     1      -2.696  -0.598   2.188  1.00  0.00    -0.229 OA
ATOM     20  O   UNL     1      -3.332  -2.442   3.803  1.00  0.00    -0.229 OA
ENDBRANCH   6  14
ENDBRANCH   4   6
ENDBRANCH   3   4
ENDBRANCH   2   3
ENDBRANCH   1   2
BRANCH   1  21
ATOM     21  O   UNL     1       5.024  -0.761   4.008  1.00  0.00    -0.374 OA
BRANCH  21  22
ATOM     22  C   UNL     1       3.826  -0.255   4.593  1.00  0.00     0.202 C 
BRANCH  22  23
ATOM     23  C   UNL     1       3.827   1.192   5.106  1.00  0.00     0.261 C 
BRANCH  23  24
ATOM     24  O   UNL     1       3.952   2.164   4.055  1.00  0.00    -0.460 OA
BRANCH  24  25
ATOM     25  C   UNL     1       5.169   2.763   3.990  1.00  0.00     0.338 C 
ATOM     26  O   UNL     1       6.121   2.564   4.725  1.00  0.00    -0.246 OA
BRANCH  25  27
ATOM     27  C   UNL     1       5.271   3.564   2.755  1.00  0.00     0.060 A 
ATOM     28  C   UNL     1       6.362   3.320   1.909  1.00  0.00     0.016 A 
ATOM     29  C   UNL     1       4.368   4.589   2.473  1.00  0.00     0.016 A 
ATOM     30  C   UNL     1       6.586   4.135   0.801  1.00  0.00     0.010 A 
ATOM     31  C   UNL     1       4.599   5.411   1.367  1.00  0.00     0.010 A 
ATOM     32  C   UNL     1       5.729   5.212   0.548  1.00  0.00    -0.014 A 
BRANCH  32  33
ATOM     33  C   UNL     1       6.088   6.235  -0.464  1.00  0.00     0.031 A 
ATOM     34  C   UNL     1       6.624   7.558   0.007  1.00  0.00     0.074 A 
ATOM     35  C   UNL     1       5.916   6.003  -1.776  1.00  0.00     0.049 A 
ATOM     36  N   UNL     1       6.847   8.655  -0.666  1.00  0.00    -0.248 NA
ATOM     37  C   UNL     1       6.932   7.652   1.441  1.00  0.00     0.031 C 
ATOM     38  C   UNL     1       5.460   4.741  -2.355  1.00  0.00     0.029 A 
ATOM     39  N   UNL     1       6.079   6.834  -2.856  1.00  0.00    -0.354 N 
ATOM     40  C   UNL     1       7.295   9.585   0.266  1.00  0.00     0.074 A 
ATOM     41  C   UNL     1       7.280   8.924   1.555  1.00  0.00     0.031 C 
ATOM     42  C   UNL     1       5.346   4.892  -3.685  1.00  0.00     0.029 A 
ATOM     43  C   UNL     1       5.665   6.275  -4.041  1.00  0.00     0.049 A 
ATOM     44  H   UNL     1       6.454   7.742  -2.788  1.00  0.00     0.167 HD
ATOM     45  C   UNL     1       7.682  10.870   0.062  1.00  0.00     0.034 A 
ATOM     46  C   UNL     1       5.508   6.827  -5.261  1.00  0.00     0.034 A 
ATOM     47  C   UNL     1       7.672  11.507  -1.234  1.00  0.00     0.049 A 
ATOM     48  C   UNL     1       5.851   8.283  -5.460  1.00  0.00     0.074 A 
ATOM     49  C   UNL     1       8.065  12.792  -1.565  1.00  0.00     0.029 A 
ATOM     50  N   UNL     1       7.223  10.916  -2.409  1.00  0.00    -0.354 N 
ATOM     51  N   UNL     1       6.273   9.160  -4.577  1.00  0.00    -0.248 NA
ATOM     52  C   UNL     1       5.702   8.823  -6.817  1.00  0.00     0.031 C 
ATOM     53  C   UNL     1       7.766  13.007  -2.915  1.00  0.00     0.029 A 
ATOM     54  C   UNL     1       7.287  11.823  -3.456  1.00  0.00     0.049 A 
ATOM     55  H   UNL     1       6.906   9.987  -2.488  1.00  0.00     0.167 HD
ATOM     56  C   UNL     1       6.474  10.346  -5.281  1.00  0.00     0.074 A 
ATOM     57  C   UNL     1       6.123  10.071  -6.660  1.00  0.00     0.031 C 
ATOM     58  C   UNL     1       6.925  11.545  -4.829  1.00  0.00     0.034 A 
BRANCH  45  59
ATOM     59  C   UNL     1       8.065  11.679   1.281  1.00  0.00     0.023 A 
ATOM     60  C   UNL     1       9.126  11.301   2.123  1.00  0.00     0.031 A 
ATOM     61  C   UNL     1       7.312  12.809   1.647  1.00  0.00     0.131 A 
ATOM     62  C   UNL     1       9.331  11.975   3.337  1.00  0.00     0.055 A 
ATOM     63  C   UNL     1       7.588  13.539   2.804  1.00  0.00     0.041 A 
ATOM     64  F   UNL     1       6.271  13.209   0.899  1.00  0.00    -0.206 F 
ATOM     65  C   UNL     1       8.588  13.109   3.670  1.00  0.00     0.022 A 
BRANCH  62  66
ATOM     66  S   UNL     1      10.439  11.224   4.563  1.00  0.00     0.124 S 
ATOM     67  O   UNL     1       9.863   9.889   4.703  1.00  0.00    -0.237 OA
ATOM     68  O   UNL     1      11.736  11.294   3.900  1.00  0.00    -0.237 OA
ATOM     69  O   UNL     1      10.287  12.085   5.735  1.00  0.00    -0.744 OA
ENDBRANCH  62  66
ENDBRANCH  45  59
BRANCH  46  70
ATOM     70  C   UNL     1       4.941   6.009  -6.370  1.00  0.00     0.023 A 
ATOM     71  C   UNL     1       5.707   5.667  -7.494  1.00  0.00     0.031 A 
ATOM     72  C   UNL     1       3.611   5.550  -6.310  1.00  0.00     0.131 A 
ATOM     73  C   UNL     1       5.132   4.903  -8.522  1.00  0.00     0.055 A 
ATOM     74  C   UNL     1       3.060   4.750  -7.312  1.00  0.00     0.041 A 
ATOM     75  F   UNL     1       2.837   5.848  -5.255  1.00  0.00    -0.206 F 
ATOM     76  C   UNL     1       3.821   4.428  -8.431  1.00  0.00     0.022 A 
BRANCH  73  77
ATOM     77  S   UNL     1       6.109   4.575 -10.014  1.00  0.00     0.124 S 
ATOM     78  O   UNL     1       6.354   5.925 -10.510  1.00  0.00    -0.237 OA
ATOM     79  O   UNL     1       7.266   3.871  -9.470  1.00  0.00    -0.237 OA
ATOM     80  O   UNL     1       5.216   3.760 -10.834  1.00  0.00    -0.744 OA
ENDBRANCH  73  77
ENDBRANCH  46  70
BRANCH  58  81
ATOM     81  C   UNL     1       7.135  12.643  -5.847  1.00  0.00     0.023 A 
ATOM     82  C   UNL     1       6.068  13.251  -6.532  1.00  0.00     0.031 A 
ATOM     83  C   UNL     1       8.438  13.109  -6.109  1.00  0.00     0.131 A 
ATOM     84  C   UNL     1       6.327  14.263  -7.471  1.00  0.00     0.055 A 
ATOM     85  C   UNL     1       8.683  14.157  -6.997  1.00  0.00     0.041 A 
ATOM     86  F   UNL     1       9.496  12.561  -5.491  1.00  0.00    -0.206 F 
ATOM     87  C   UNL     1       7.625  14.735  -7.691  1.00  0.00     0.022 A 
BRANCH  84  88
ATOM     88  S   UNL     1       4.955  14.907  -8.468  1.00  0.00     0.124 S 
ATOM     89  O   UNL     1       4.474  13.701  -9.135  1.00  0.00    -0.237 OA
ATOM     90  O   UNL     1       4.070  15.472  -7.455  1.00  0.00    -0.237 OA
ATOM     91  O   UNL     1       5.596  15.885  -9.345  1.00  0.00    -0.744 OA
ENDBRANCH  84  88
ENDBRANCH  58  81
ENDBRANCH  32  33
ENDBRANCH  25  27
ENDBRANCH  24  25
ENDBRANCH  23  24
ENDBRANCH  22  23
ENDBRANCH  21  22
ENDBRANCH   1  21
TORSDOF 22
