REMARK SMILES CC(C)[NH2+][C@]1(C(=O)OCCOCCOC(=O)c2ccc(-c3c4nc(c(-c5cc(S(=O)(=O)[O-])ccc5F)c5ccc([nH]5)c(-c5cc(S(=O)(=O)[O-])ccc5F)c5nc(c(-c6cc(S(=O)(=O)[O-])ccc6F)c6ccc3[nH]6)C=C5)C=C4)cc2)CC[C@@H]([N@@H+](C)[C@@H](C)C(C)C)C1
REMARK SMILES IDX 11 1 10 2 9 3 8 4 6 5 7 6 5 7 80 8 90 9 81 10 82 11 4 12
REMARK SMILES IDX 2 15 1 16 3 17 83 18 84 19 85 21 86 22 87 23 88 24 89 25
REMARK SMILES IDX 12 26 13 27 14 28 15 29 16 30 17 31 18 32 79 33 19 34 78 35
REMARK SMILES IDX 20 36 21 37 22 38 72 39 23 40 77 41 71 42 73 43 24 44 76 45
REMARK SMILES IDX 70 46 69 47 25 49 57 50 37 51 56 52 38 53 41 54 55 55 74 56
REMARK SMILES IDX 39 57 40 58 54 60 75 61 42 62 26 63 27 64 35 65 28 66 34 67
REMARK SMILES IDX 36 68 33 69 29 70 30 71 31 72 32 73 58 74 59 75 67 76 60 77
REMARK SMILES IDX 66 78 68 79 65 80 61 81 62 82 63 83 64 84 43 85 44 86 52 87
REMARK SMILES IDX 45 88 51 89 53 90 50 91 46 92 47 93 48 94 49 95
REMARK H PARENT 4 13 4 14 83 20 73 48 41 59
REMARK Flexibility Score: inf
ROOT
ATOM      1  O   UNL     1      -0.362   1.079   1.444  1.00  0.00    -0.374 OA
ENDROOT
BRANCH   1   2
ATOM      2  C   UNL     1       0.271  -0.153   1.093  1.00  0.00     0.202 C 
BRANCH   2   3
ATOM      3  C   UNL     1      -0.482  -1.077   0.128  1.00  0.00     0.261 C 
BRANCH   3   4
ATOM      4  O   UNL     1      -0.649  -0.497  -1.183  1.00  0.00    -0.459 OA
BRANCH   4   5
ATOM      5  C   UNL     1      -1.927  -0.165  -1.531  1.00  0.00     0.368 C 
ATOM      6  O   UNL     1      -2.890  -0.321  -0.785  1.00  0.00    -0.245 OA
BRANCH   5   7
ATOM      7  C   UNL     1      -2.014   0.505  -2.944  1.00  0.00     0.200 C 
ATOM      8  C   UNL     1      -1.491   1.957  -2.891  1.00  0.00     0.087 C 
ATOM      9  C   UNL     1      -1.058  -0.078  -4.001  1.00  0.00     0.146 C 
ATOM     10  C   UNL     1      -1.311   2.351  -4.350  1.00  0.00     0.072 C 
ATOM     11  C   UNL     1      -0.790   1.068  -5.015  1.00  0.00     0.191 C 
BRANCH   7  12
ATOM     12  N   UNL     1      -3.438   0.574  -3.347  1.00  0.00    -0.330 N 
ATOM     13  H   UNL     1      -3.974   0.839  -2.521  1.00  0.00     0.347 HD
ATOM     14  H   UNL     1      -3.449   1.242  -4.118  1.00  0.00     0.347 HD
BRANCH  12  15
ATOM     15  C   UNL     1      -4.056  -0.623  -3.898  1.00  0.00     0.176 C 
ATOM     16  C   UNL     1      -5.504  -0.638  -3.406  1.00  0.00     0.075 C 
ATOM     17  C   UNL     1      -4.043  -0.588  -5.429  1.00  0.00     0.075 C 
ENDBRANCH  12  15
ENDBRANCH   7  12
BRANCH  11  18
ATOM     18  N   UNL     1       0.528   1.117  -5.673  1.00  0.00    -0.332 N 
ATOM     19  C   UNL     1       0.438   1.831  -6.954  1.00  0.00     0.333 C 
ATOM     20  H   UNL     1       0.703   0.117  -5.767  1.00  0.00     0.348 HD
BRANCH  18  21
ATOM     21  C   UNL     1       1.769   1.492  -4.940  1.00  0.00     0.183 C 
ATOM     22  C   UNL     1       1.857   2.963  -4.489  1.00  0.00     0.075 C 
BRANCH  21  23
ATOM     23  C   UNL     1       2.159   0.521  -3.791  1.00  0.00     0.041 C 
ATOM     24  C   UNL     1       2.289  -0.930  -4.279  1.00  0.00     0.013 C 
ATOM     25  C   UNL     1       3.474   0.893  -3.111  1.00  0.00     0.013 C 
ENDBRANCH  21  23
ENDBRANCH  18  21
ENDBRANCH  11  18
ENDBRANCH   5   7
ENDBRANCH   4   5
ENDBRANCH   3   4
ENDBRANCH   2   3
ENDBRANCH   1   2
BRANCH   1  26
ATOM     26  C   UNL     1      -0.268   2.119   0.476  1.00  0.00     0.202 C 
BRANCH  26  27
ATOM     27  C   UNL     1       1.030   2.937   0.444  1.00  0.00     0.261 C 
BRANCH  27  28
ATOM     28  O   UNL     1       2.189   2.137   0.151  1.00  0.00    -0.460 OA
BRANCH  28  29
ATOM     29  C   UNL     1       2.967   1.843   1.225  1.00  0.00     0.338 C 
ATOM     30  O   UNL     1       2.819   2.241   2.370  1.00  0.00    -0.246 OA
BRANCH  29  31
ATOM     31  C   UNL     1       3.939   0.798   0.853  1.00  0.00     0.060 A 
ATOM     32  C   UNL     1       3.898  -0.422   1.538  1.00  0.00     0.016 A 
ATOM     33  C   UNL     1       4.890   1.012  -0.143  1.00  0.00     0.016 A 
ATOM     34  C   UNL     1       4.809  -1.434   1.226  1.00  0.00     0.010 A 
ATOM     35  C   UNL     1       5.784  -0.013  -0.473  1.00  0.00     0.010 A 
ATOM     36  C   UNL     1       5.769  -1.236   0.226  1.00  0.00    -0.014 A 
BRANCH  36  37
ATOM     37  C   UNL     1       6.858  -2.228   0.007  1.00  0.00     0.031 A 
ATOM     38  C   UNL     1       8.261  -1.851   0.408  1.00  0.00     0.074 A 
ATOM     39  C   UNL     1       6.615  -3.438  -0.536  1.00  0.00     0.049 A 
ATOM     40  N   UNL     1       9.383  -2.495   0.217  1.00  0.00    -0.248 NA
ATOM     41  C   UNL     1       8.420  -0.562   1.102  1.00  0.00     0.031 C 
ATOM     42  C   UNL     1       5.299  -3.941  -0.930  1.00  0.00     0.029 A 
ATOM     43  N   UNL     1       7.472  -4.463  -0.862  1.00  0.00    -0.354 N 
ATOM     44  C   UNL     1      10.382  -1.676   0.736  1.00  0.00     0.074 A 
ATOM     45  C   UNL     1       9.736  -0.476   1.220  1.00  0.00     0.031 C 
ATOM     46  C   UNL     1       5.438  -5.176  -1.445  1.00  0.00     0.029 A 
ATOM     47  C   UNL     1       6.855  -5.533  -1.473  1.00  0.00     0.049 A 
ATOM     48  H   UNL     1       8.438  -4.435  -0.676  1.00  0.00     0.167 HD
ATOM     49  C   UNL     1      11.714  -1.908   0.807  1.00  0.00     0.034 A 
ATOM     50  C   UNL     1       7.376  -6.651  -2.025  1.00  0.00     0.034 A 
ATOM     51  C   UNL     1      12.341  -3.122   0.350  1.00  0.00     0.049 A 
ATOM     52  C   UNL     1       8.878  -6.849  -2.000  1.00  0.00     0.074 A 
ATOM     53  C   UNL     1      13.674  -3.484   0.440  1.00  0.00     0.029 A 
ATOM     54  N   UNL     1      11.688  -4.161  -0.297  1.00  0.00    -0.354 N 
ATOM     55  N   UNL     1       9.805  -6.082  -1.471  1.00  0.00    -0.248 NA
ATOM     56  C   UNL     1       9.404  -8.059  -2.648  1.00  0.00     0.031 C 
ATOM     57  C   UNL     1      13.843  -4.696  -0.234  1.00  0.00     0.029 A 
ATOM     58  C   UNL     1      12.601  -5.138  -0.662  1.00  0.00     0.049 A 
ATOM     59  H   UNL     1      10.720  -4.199  -0.470  1.00  0.00     0.167 HD
ATOM     60  C   UNL     1      11.015  -6.737  -1.695  1.00  0.00     0.074 A 
ATOM     61  C   UNL     1      10.700  -7.966  -2.391  1.00  0.00     0.031 C 
ATOM     62  C   UNL     1      12.273  -6.359  -1.357  1.00  0.00     0.034 A 
BRANCH  49  63
ATOM     63  C   UNL     1      12.594  -0.809   1.350  1.00  0.00     0.023 A 
ATOM     64  C   UNL     1      12.514  -0.371   2.682  1.00  0.00     0.031 A 
ATOM     65  C   UNL     1      13.540  -0.194   0.509  1.00  0.00     0.131 A 
ATOM     66  C   UNL     1      13.326   0.686   3.120  1.00  0.00     0.055 A 
ATOM     67  C   UNL     1      14.400   0.803   0.972  1.00  0.00     0.041 A 
ATOM     68  F   UNL     1      13.643  -0.553  -0.780  1.00  0.00    -0.206 F 
ATOM     69  C   UNL     1      14.288   1.256   2.282  1.00  0.00     0.022 A 
BRANCH  66  70
ATOM     70  S   UNL     1      13.024   1.391   4.763  1.00  0.00     0.124 S 
ATOM     71  O   UNL     1      11.630   1.816   4.650  1.00  0.00    -0.237 OA
ATOM     72  O   UNL     1      13.277   0.257   5.644  1.00  0.00    -0.237 OA
ATOM     73  O   UNL     1      13.994   2.481   4.852  1.00  0.00    -0.744 OA
ENDBRANCH  66  70
ENDBRANCH  49  63
BRANCH  50  74
ATOM     74  C   UNL     1       6.503  -7.652  -2.712  1.00  0.00     0.023 A 
ATOM     75  C   UNL     1       6.465  -8.993  -2.293  1.00  0.00     0.031 A 
ATOM     76  C   UNL     1       5.769  -7.306  -3.862  1.00  0.00     0.131 A 
ATOM     77  C   UNL     1       5.770  -9.947  -3.054  1.00  0.00     0.055 A 
ATOM     78  C   UNL     1       5.021  -8.246  -4.575  1.00  0.00     0.041 A 
ATOM     79  F   UNL     1       5.776  -6.044  -4.320  1.00  0.00    -0.206 F 
ATOM     80  C   UNL     1       5.034  -9.580  -4.183  1.00  0.00     0.022 A 
BRANCH  77  81
ATOM     81  S   UNL     1       5.955 -11.701  -2.627  1.00  0.00     0.124 S 
ATOM     82  O   UNL     1       7.403 -11.868  -2.688  1.00  0.00    -0.237 OA
ATOM     83  O   UNL     1       5.359 -11.753  -1.296  1.00  0.00    -0.237 OA
ATOM     84  O   UNL     1       5.202 -12.388  -3.673  1.00  0.00    -0.744 OA
ENDBRANCH  77  81
ENDBRANCH  50  74
BRANCH  62  85
ATOM     85  C   UNL     1      13.402  -7.306  -1.690  1.00  0.00     0.023 A 
ATOM     86  C   UNL     1      13.778  -7.573  -3.017  1.00  0.00     0.031 A 
ATOM     87  C   UNL     1      14.129  -7.927  -0.658  1.00  0.00     0.131 A 
ATOM     88  C   UNL     1      14.826  -8.469  -3.278  1.00  0.00     0.055 A 
ATOM     89  C   UNL     1      15.211  -8.767  -0.922  1.00  0.00     0.041 A 
ATOM     90  F   UNL     1      13.812  -7.710   0.629  1.00  0.00    -0.206 F 
ATOM     91  C   UNL     1      15.559  -9.051  -2.239  1.00  0.00     0.022 A 
BRANCH  88  92
ATOM     92  S   UNL     1      15.179  -8.923  -4.999  1.00  0.00     0.124 S 
ATOM     93  O   UNL     1      13.916  -9.522  -5.419  1.00  0.00    -0.237 OA
ATOM     94  O   UNL     1      15.505  -7.635  -5.602  1.00  0.00    -0.237 OA
ATOM     95  O   UNL     1      16.300  -9.854  -4.885  1.00  0.00    -0.744 OA
ENDBRANCH  88  92
ENDBRANCH  62  85
ENDBRANCH  36  37
ENDBRANCH  29  31
ENDBRANCH  28  29
ENDBRANCH  27  28
ENDBRANCH  26  27
ENDBRANCH   1  26
TORSDOF 22
