REMARK SMILES NS(=O)(=O)c1ccc(-n2nc(C(F)F)cc2-c2ccc(C(=O)OCCOCCOC(=O)c3ccc(-c4c5nc(c(-c6cc(S(=O)(=O)[O-])ccc6F)c6ccc([nH]6)c(-c6cc(S(=O)(=O)[O-])ccc6F)c6nc(c(-c7cc(S(=O)(=O)[O-])ccc7F)c7ccc4[nH]7)C=C6)C=C5)cc3)cc2)cc1
REMARK SMILES IDX 25 1 24 2 23 3 21 4 22 5 20 6 17 7 18 8 96 9 19 10 95 11
REMARK SMILES IDX 16 12 9 13 10 14 11 15 15 16 8 17 5 18 6 19 98 20 7 21 97 22
REMARK SMILES IDX 2 23 3 24 4 25 1 26 12 29 13 30 14 31 26 32 27 33 28 34
REMARK SMILES IDX 29 35 30 36 31 37 32 38 33 39 94 40 34 41 93 42 35 43 36 44
REMARK SMILES IDX 37 45 87 46 38 47 92 48 86 49 88 50 39 51 91 52 85 53 84 54
REMARK SMILES IDX 40 56 72 57 52 58 71 59 53 60 56 61 70 62 89 63 54 64 55 65
REMARK SMILES IDX 69 67 90 68 57 69 41 70 42 71 50 72 43 73 49 74 51 75 48 76
REMARK SMILES IDX 44 77 45 78 46 79 47 80 73 81 74 82 82 83 75 84 81 85 83 86
REMARK SMILES IDX 80 87 76 88 77 89 78 90 79 91 58 92 59 93 67 94 60 95 66 96
REMARK SMILES IDX 68 97 65 98 61 99 62 100 63 101 64 102
REMARK H PARENT 1 27 1 28 88 55 56 66
REMARK Flexibility Score: inf
ROOT
ATOM      1  C   UNL     1       7.411  -5.683   0.536  1.00  0.00     0.202 C 
ENDROOT
BRANCH   1   2
ATOM      2  C   UNL     1       7.521  -6.197   1.972  1.00  0.00     0.261 C 
BRANCH   2   3
ATOM      3  O   UNL     1       6.422  -5.785   2.798  1.00  0.00    -0.460 OA
BRANCH   3   4
ATOM      4  C   UNL     1       6.742  -4.826   3.696  1.00  0.00     0.338 C 
ATOM      5  O   UNL     1       7.844  -4.339   3.895  1.00  0.00    -0.246 OA
BRANCH   4   6
ATOM      6  C   UNL     1       5.526  -4.295   4.343  1.00  0.00     0.060 A 
ATOM      7  C   UNL     1       3.445  -3.204   5.848  1.00  0.00     0.000 A 
ATOM      8  C   UNL     1       4.447  -2.373   5.329  1.00  0.00     0.011 A 
ATOM      9  C   UNL     1       3.451  -4.572   5.542  1.00  0.00     0.011 A 
ATOM     10  C   UNL     1       5.488  -2.918   4.586  1.00  0.00     0.016 A 
ATOM     11  C   UNL     1       4.484  -5.120   4.775  1.00  0.00     0.016 A 
BRANCH   7  12
ATOM     12  C   UNL     1       2.495  -2.657   6.812  1.00  0.00     0.075 A 
ATOM     13  N   UNL     1       1.696  -1.536   6.625  1.00  0.00    -0.233 N 
ATOM     14  N   UNL     1       1.259  -1.032   7.809  1.00  0.00    -0.166 NA
ATOM     15  C   UNL     1       1.571  -1.972   8.719  1.00  0.00     0.129 A 
ATOM     16  C   UNL     1       2.366  -2.988   8.145  1.00  0.00     0.060 A 
BRANCH  13  17
ATOM     17  C   UNL     1       1.343  -0.922   5.396  1.00  0.00     0.065 A 
ATOM     18  C   UNL     1       0.741   0.276   2.956  1.00  0.00     0.082 A 
ATOM     19  C   UNL     1       0.783  -1.117   3.045  1.00  0.00     0.024 A 
ATOM     20  C   UNL     1       0.977   1.073   4.083  1.00  0.00     0.024 A 
ATOM     21  C   UNL     1       1.101  -1.717   4.264  1.00  0.00     0.030 A 
ATOM     22  C   UNL     1       1.246   0.472   5.316  1.00  0.00     0.030 A 
BRANCH  18  23
ATOM     23  S   UNL     1       0.417   1.051   1.398  1.00  0.00     0.238 S 
ATOM     24  O   UNL     1       1.217   2.263   1.325  1.00  0.00    -0.207 OA
ATOM     25  O   UNL     1      -0.998   1.037   1.169  1.00  0.00    -0.207 OA
BRANCH  23  26
ATOM     26  N   UNL     1       1.111   0.005   0.280  1.00  0.00    -0.225 NA
ATOM     27  H   UNL     1       0.973   0.373  -0.661  1.00  0.00     0.137 HD
ATOM     28  H   UNL     1       0.671  -0.912   0.354  1.00  0.00     0.137 HD
ENDBRANCH  23  26
ENDBRANCH  18  23
ENDBRANCH  13  17
BRANCH  15  29
ATOM     29  C   UNL     1       1.155  -1.890  10.158  1.00  0.00     0.393 C 
ATOM     30  F   UNL     1       1.414  -0.675  10.713  1.00  0.00    -0.203 F 
ATOM     31  F   UNL     1      -0.178  -2.117  10.312  1.00  0.00    -0.203 F 
ENDBRANCH  15  29
ENDBRANCH   7  12
ENDBRANCH   4   6
ENDBRANCH   3   4
ENDBRANCH   2   3
ENDBRANCH   1   2
BRANCH   1  32
ATOM     32  O   UNL     1       7.398  -4.275   0.308  1.00  0.00    -0.374 OA
BRANCH  32  33
ATOM     33  C   UNL     1       6.282  -3.484   0.702  1.00  0.00     0.202 C 
BRANCH  33  34
ATOM     34  C   UNL     1       4.952  -3.655  -0.019  1.00  0.00     0.261 C 
BRANCH  34  35
ATOM     35  O   UNL     1       4.461  -4.979   0.088  1.00  0.00    -0.460 OA
BRANCH  35  36
ATOM     36  C   UNL     1       4.684  -5.728  -1.017  1.00  0.00     0.338 C 
ATOM     37  O   UNL     1       5.430  -5.466  -1.945  1.00  0.00    -0.246 OA
BRANCH  36  38
ATOM     38  C   UNL     1       3.781  -6.880  -0.983  1.00  0.00     0.060 A 
ATOM     39  C   UNL     1       3.748  -7.647  -2.147  1.00  0.00     0.016 A 
ATOM     40  C   UNL     1       2.759  -6.918  -0.024  1.00  0.00     0.016 A 
ATOM     41  C   UNL     1       2.541  -8.191  -2.510  1.00  0.00     0.010 A 
ATOM     42  C   UNL     1       1.555  -7.451  -0.395  1.00  0.00     0.010 A 
ATOM     43  C   UNL     1       1.437  -7.965  -1.682  1.00  0.00    -0.014 A 
BRANCH  43  44
ATOM     44  C   UNL     1       0.137  -8.388  -2.145  1.00  0.00     0.031 A 
ATOM     45  C   UNL     1      -0.005  -9.851  -2.021  1.00  0.00     0.074 A 
ATOM     46  C   UNL     1      -0.822  -7.518  -2.515  1.00  0.00     0.049 A 
ATOM     47  N   UNL     1       0.104 -10.731  -2.959  1.00  0.00    -0.248 NA
ATOM     48  C   UNL     1       0.042 -10.419  -0.661  1.00  0.00     0.031 C 
ATOM     49  C   UNL     1      -0.831  -6.056  -2.414  1.00  0.00     0.029 A 
ATOM     50  N   UNL     1      -2.059  -7.787  -3.003  1.00  0.00    -0.354 N 
ATOM     51  C   UNL     1      -0.070 -11.950  -2.318  1.00  0.00     0.074 A 
ATOM     52  C   UNL     1       0.219 -11.710  -0.934  1.00  0.00     0.031 C 
ATOM     53  C   UNL     1      -2.094  -5.599  -2.607  1.00  0.00     0.029 A 
ATOM     54  C   UNL     1      -2.949  -6.714  -2.982  1.00  0.00     0.049 A 
ATOM     55  H   UNL     1      -2.310  -8.675  -3.346  1.00  0.00     0.167 HD
ATOM     56  C   UNL     1      -0.785 -12.944  -2.908  1.00  0.00     0.034 A 
ATOM     57  C   UNL     1      -4.297  -6.788  -3.189  1.00  0.00     0.034 A 
ATOM     58  C   UNL     1      -0.886 -12.721  -4.336  1.00  0.00     0.049 A 
ATOM     59  C   UNL     1      -4.527  -8.065  -3.924  1.00  0.00     0.074 A 
ATOM     60  C   UNL     1       0.033 -12.583  -5.359  1.00  0.00     0.029 A 
ATOM     61  N   UNL     1      -2.059 -12.181  -4.818  1.00  0.00    -0.354 N 
ATOM     62  N   UNL     1      -4.063  -8.287  -5.127  1.00  0.00    -0.248 NA
ATOM     63  C   UNL     1      -4.786  -9.260  -3.132  1.00  0.00     0.031 C 
ATOM     64  C   UNL     1      -0.487 -11.541  -6.184  1.00  0.00     0.029 A 
ATOM     65  C   UNL     1      -1.736 -11.165  -5.685  1.00  0.00     0.049 A 
ATOM     66  H   UNL     1      -2.970 -12.473  -4.583  1.00  0.00     0.167 HD
ATOM     67  C   UNL     1      -3.582  -9.590  -5.098  1.00  0.00     0.074 A 
ATOM     68  C   UNL     1      -4.107 -10.157  -3.855  1.00  0.00     0.031 C 
ATOM     69  C   UNL     1      -2.565  -9.993  -5.918  1.00  0.00     0.034 A 
BRANCH  56  70
ATOM     70  C   UNL     1      -1.736 -13.850  -2.152  1.00  0.00     0.023 A 
ATOM     71  C   UNL     1      -2.423 -14.814  -2.909  1.00  0.00     0.031 A 
ATOM     72  C   UNL     1      -2.214 -13.658  -0.831  1.00  0.00     0.131 A 
ATOM     73  C   UNL     1      -3.571 -15.444  -2.402  1.00  0.00     0.055 A 
ATOM     74  C   UNL     1      -3.318 -14.335  -0.311  1.00  0.00     0.041 A 
ATOM     75  F   UNL     1      -1.713 -12.752   0.013  1.00  0.00    -0.206 F 
ATOM     76  C   UNL     1      -4.026 -15.210  -1.108  1.00  0.00     0.022 A 
BRANCH  73  77
ATOM     77  S   UNL     1      -4.562 -16.449  -3.532  1.00  0.00     0.124 S 
ATOM     78  O   UNL     1      -4.806 -15.509  -4.621  1.00  0.00    -0.237 OA
ATOM     79  O   UNL     1      -3.653 -17.552  -3.822  1.00  0.00    -0.237 OA
ATOM     80  O   UNL     1      -5.734 -16.798  -2.733  1.00  0.00    -0.744 OA
ENDBRANCH  73  77
ENDBRANCH  56  70
BRANCH  57  81
ATOM     81  C   UNL     1      -5.362  -6.104  -2.385  1.00  0.00     0.023 A 
ATOM     82  C   UNL     1      -6.704  -5.964  -2.817  1.00  0.00     0.031 A 
ATOM     83  C   UNL     1      -5.109  -5.789  -1.029  1.00  0.00     0.131 A 
ATOM     84  C   UNL     1      -7.709  -5.524  -1.914  1.00  0.00     0.055 A 
ATOM     85  C   UNL     1      -6.103  -5.364  -0.144  1.00  0.00     0.041 A 
ATOM     86  F   UNL     1      -3.892  -5.966  -0.491  1.00  0.00    -0.206 F 
ATOM     87  C   UNL     1      -7.410  -5.236  -0.581  1.00  0.00     0.022 A 
BRANCH  84  88
ATOM     88  S   UNL     1      -9.454  -5.372  -2.439  1.00  0.00     0.124 S 
ATOM     89  O   UNL     1      -9.389  -4.301  -3.426  1.00  0.00    -0.237 OA
ATOM     90  O   UNL     1      -9.746  -6.707  -2.946  1.00  0.00    -0.237 OA
ATOM     91  O   UNL     1     -10.155  -5.022  -1.202  1.00  0.00    -0.744 OA
ENDBRANCH  84  88
ENDBRANCH  57  81
BRANCH  69  92
ATOM     92  C   UNL     1      -2.154  -9.090  -7.069  1.00  0.00     0.023 A 
ATOM     93  C   UNL     1      -1.607  -7.789  -6.949  1.00  0.00     0.031 A 
ATOM     94  C   UNL     1      -2.196  -9.663  -8.352  1.00  0.00     0.131 A 
ATOM     95  C   UNL     1      -1.125  -7.122  -8.099  1.00  0.00     0.055 A 
ATOM     96  C   UNL     1      -1.698  -9.011  -9.477  1.00  0.00     0.041 A 
ATOM     97  F   UNL     1      -2.686 -10.902  -8.525  1.00  0.00    -0.206 F 
ATOM     98  C   UNL     1      -1.161  -7.736  -9.356  1.00  0.00     0.022 A 
BRANCH  95  99
ATOM     99  S   UNL     1      -0.441  -5.432  -7.992  1.00  0.00     0.124 S 
ATOM    100  O   UNL     1      -1.474  -4.694  -7.276  1.00  0.00    -0.237 OA
ATOM    101  O   UNL     1       0.812  -5.640  -7.271  1.00  0.00    -0.237 OA
ATOM    102  O   UNL     1      -0.275  -5.040  -9.394  1.00  0.00    -0.744 OA
ENDBRANCH  95  99
ENDBRANCH  69  92
ENDBRANCH  43  44
ENDBRANCH  36  38
ENDBRANCH  35  36
ENDBRANCH  34  35
ENDBRANCH  33  34
ENDBRANCH  32  33
ENDBRANCH   1  32
TORSDOF 22
