REMARK SMILES CCc1cn(C[C@H](NC(=O)c2ccco2)C(=O)OCCOCCOC(=O)c2ccc(-c3c4nc(c(-c5cc(S(=O)(=O)[O-])ccc5F)c5ccc([nH]5)c(-c5cc(S(=O)(=O)[O-])ccc5F)c5nc(c(-c6cc(S(=O)(=O)[O-])ccc6F)c6ccc3[nH]6)C=C5)C=C4)cc2)c(=O)[nH]c1=O
REMARK SMILES IDX 21 1 20 2 19 3 18 4 16 5 17 6 7 7 6 8 5 9 3 10 4 11 93 12
REMARK SMILES IDX 92 13 94 14 90 15 91 17 2 18 1 19 8 20 9 21 10 23 11 24
REMARK SMILES IDX 12 25 15 26 13 27 14 28 22 29 23 30 24 31 25 32 26 33 27 34
REMARK SMILES IDX 28 35 89 36 29 37 88 38 30 39 31 40 32 41 82 42 33 43 87 44
REMARK SMILES IDX 81 45 83 46 34 47 86 48 80 49 79 50 35 52 67 53 47 54 66 55
REMARK SMILES IDX 48 56 51 57 65 58 84 59 49 60 50 61 64 63 85 64 52 65 36 66
REMARK SMILES IDX 37 67 45 68 38 69 44 70 46 71 43 72 39 73 40 74 41 75 42 76
REMARK SMILES IDX 68 77 69 78 77 79 70 80 76 81 78 82 75 83 71 84 72 85 73 86
REMARK SMILES IDX 74 87 53 88 54 89 62 90 55 91 61 92 63 93 60 94 56 95 57 96
REMARK SMILES IDX 58 97 59 98
REMARK H PARENT 92 16 8 22 83 51 51 62
REMARK Flexibility Score: inf
ROOT
ATOM      1  O   UNL     1       7.613  -3.849   3.774  1.00  0.00    -0.374 OA
ENDROOT
BRANCH   1   2
ATOM      2  C   UNL     1       8.230  -4.976   3.157  1.00  0.00     0.202 C 
BRANCH   2   3
ATOM      3  C   UNL     1       7.344  -6.186   2.842  1.00  0.00     0.261 C 
BRANCH   3   4
ATOM      4  O   UNL     1       6.137  -5.810   2.165  1.00  0.00    -0.462 OA
BRANCH   4   5
ATOM      5  C   UNL     1       4.990  -6.098   2.833  1.00  0.00     0.330 C 
ATOM      6  O   UNL     1       4.911  -6.790   3.845  1.00  0.00    -0.250 OA
BRANCH   5   7
ATOM      7  C   UNL     1       3.754  -5.456   2.206  1.00  0.00     0.212 C 
BRANCH   7   8
ATOM      8  C   UNL     1       2.795  -6.581   1.784  1.00  0.00     0.164 C 
BRANCH   8   9
ATOM      9  N   UNL     1       3.371  -7.693   1.011  1.00  0.00    -0.298 N 
ATOM     10  C   UNL     1       3.455 -10.070   0.775  1.00  0.00     0.033 A 
ATOM     11  C   UNL     1       3.171  -8.973   1.486  1.00  0.00     0.100 A 
ATOM     12  C   UNL     1       4.009  -9.870  -0.587  1.00  0.00     0.256 A 
ATOM     13  N   UNL     1       4.315  -8.585  -0.927  1.00  0.00    -0.274 N 
ATOM     14  O   UNL     1       4.154 -10.800  -1.370  1.00  0.00    -0.269 OA
ATOM     15  C   UNL     1       3.986  -7.466  -0.215  1.00  0.00     0.328 A 
ATOM     16  H   UNL     1       4.819  -8.451  -1.762  1.00  0.00     0.175 HD
ATOM     17  O   UNL     1       4.232  -6.352  -0.668  1.00  0.00    -0.248 OA
BRANCH  10  18
ATOM     18  C   UNL     1       3.217 -11.485   1.229  1.00  0.00     0.039 C 
ATOM     19  C   UNL     1       3.357 -11.717   2.730  1.00  0.00     0.009 C 
ENDBRANCH  10  18
ENDBRANCH   8   9
ENDBRANCH   7   8
BRANCH   7  20
ATOM     20  N   UNL     1       3.930  -4.450   1.153  1.00  0.00    -0.334 N 
ATOM     21  C   UNL     1       2.983  -3.542   0.717  1.00  0.00     0.287 C 
ATOM     22  H   UNL     1       4.810  -4.418   0.714  1.00  0.00     0.164 HD
ATOM     23  O   UNL     1       3.201  -2.886  -0.298  1.00  0.00    -0.266 OA
BRANCH  21  24
ATOM     24  C   UNL     1       1.756  -3.434   1.482  1.00  0.00     0.191 A 
ATOM     25  C   UNL     1       1.500  -3.116   2.805  1.00  0.00     0.056 A 
ATOM     26  O   UNL     1       0.576  -3.756   0.864  1.00  0.00    -0.459 OA
ATOM     27  C   UNL     1       0.113  -3.307   3.013  1.00  0.00     0.043 A 
ATOM     28  C   UNL     1      -0.406  -3.686   1.798  1.00  0.00     0.196 A 
ENDBRANCH  21  24
ENDBRANCH   7  20
ENDBRANCH   5   7
ENDBRANCH   4   5
ENDBRANCH   3   4
ENDBRANCH   2   3
ENDBRANCH   1   2
BRANCH   1  29
ATOM     29  C   UNL     1       6.705  -3.062   3.003  1.00  0.00     0.202 C 
BRANCH  29  30
ATOM     30  C   UNL     1       7.204  -2.363   1.729  1.00  0.00     0.261 C 
BRANCH  30  31
ATOM     31  O   UNL     1       7.623  -3.276   0.700  1.00  0.00    -0.460 OA
BRANCH  31  32
ATOM     32  C   UNL     1       8.941  -3.214   0.378  1.00  0.00     0.338 C 
ATOM     33  O   UNL     1       9.785  -2.479   0.869  1.00  0.00    -0.246 OA
BRANCH  32  34
ATOM     34  C   UNL     1       9.270  -4.337  -0.515  1.00  0.00     0.060 A 
ATOM     35  C   UNL     1       8.723  -4.417  -1.796  1.00  0.00     0.016 A 
ATOM     36  C   UNL     1      10.183  -5.299  -0.067  1.00  0.00     0.016 A 
ATOM     37  C   UNL     1       9.105  -5.465  -2.637  1.00  0.00     0.010 A 
ATOM     38  C   UNL     1      10.553  -6.351  -0.903  1.00  0.00     0.010 A 
ATOM     39  C   UNL     1      10.029  -6.433  -2.201  1.00  0.00    -0.014 A 
BRANCH  39  40
ATOM     40  C   UNL     1      10.565  -7.448  -3.141  1.00  0.00     0.031 A 
ATOM     41  C   UNL     1      10.155  -8.886  -3.057  1.00  0.00     0.074 A 
ATOM     42  C   UNL     1      11.491  -7.058  -4.038  1.00  0.00     0.049 A 
ATOM     43  N   UNL     1      10.537  -9.888  -3.804  1.00  0.00    -0.248 NA
ATOM     44  C   UNL     1       9.204  -9.250  -1.997  1.00  0.00     0.031 C 
ATOM     45  C   UNL     1      11.991  -5.691  -4.169  1.00  0.00     0.029 A 
ATOM     46  N   UNL     1      12.183  -7.764  -4.990  1.00  0.00    -0.354 N 
ATOM     47  C   UNL     1       9.872 -11.004  -3.314  1.00  0.00     0.074 A 
ATOM     48  C   UNL     1       9.090 -10.560  -2.179  1.00  0.00     0.031 C 
ATOM     49  C   UNL     1      12.904  -5.653  -5.150  1.00  0.00     0.029 A 
ATOM     50  C   UNL     1      13.089  -7.000  -5.688  1.00  0.00     0.049 A 
ATOM     51  H   UNL     1      12.044  -8.724  -5.158  1.00  0.00     0.167 HD
ATOM     52  C   UNL     1       9.908 -12.274  -3.784  1.00  0.00     0.034 A 
ATOM     53  C   UNL     1      13.982  -7.340  -6.642  1.00  0.00     0.034 A 
ATOM     54  C   UNL     1      10.694 -12.687  -4.921  1.00  0.00     0.049 A 
ATOM     55  C   UNL     1      14.021  -8.763  -7.132  1.00  0.00     0.074 A 
ATOM     56  C   UNL     1      10.721 -13.931  -5.527  1.00  0.00     0.029 A 
ATOM     57  N   UNL     1      11.600 -11.891  -5.608  1.00  0.00    -0.354 N 
ATOM     58  N   UNL     1      13.287  -9.782  -6.750  1.00  0.00    -0.248 NA
ATOM     59  C   UNL     1      14.994  -9.091  -8.184  1.00  0.00     0.031 C 
ATOM     60  C   UNL     1      11.709 -13.916  -6.510  1.00  0.00     0.029 A 
ATOM     61  C   UNL     1      12.233 -12.636  -6.591  1.00  0.00     0.049 A 
ATOM     62  H   UNL     1      11.769 -10.939  -5.424  1.00  0.00     0.167 HD
ATOM     63  C   UNL     1      13.697 -10.864  -7.522  1.00  0.00     0.074 A 
ATOM     64  C   UNL     1      14.727 -10.371  -8.412  1.00  0.00     0.031 C 
ATOM     65  C   UNL     1      13.257 -12.147  -7.487  1.00  0.00     0.034 A 
BRANCH  52  66
ATOM     66  C   UNL     1       9.071 -13.333  -3.107  1.00  0.00     0.023 A 
ATOM     67  C   UNL     1       9.692 -14.471  -2.555  1.00  0.00     0.031 A 
ATOM     68  C   UNL     1       7.667 -13.304  -3.161  1.00  0.00     0.131 A 
ATOM     69  C   UNL     1       8.913 -15.551  -2.124  1.00  0.00     0.055 A 
ATOM     70  C   UNL     1       6.893 -14.362  -2.683  1.00  0.00     0.041 A 
ATOM     71  F   UNL     1       7.028 -12.249  -3.693  1.00  0.00    -0.206 F 
ATOM     72  C   UNL     1       7.516 -15.500  -2.178  1.00  0.00     0.022 A 
BRANCH  69  73
ATOM     73  S   UNL     1       9.681 -17.096  -1.562  1.00  0.00     0.124 S 
ATOM     74  O   UNL     1       9.170 -17.205  -0.197  1.00  0.00    -0.237 OA
ATOM     75  O   UNL     1       9.141 -18.069  -2.509  1.00  0.00    -0.237 OA
ATOM     76  O   UNL     1      11.112 -16.838  -1.669  1.00  0.00    -0.744 OA
ENDBRANCH  69  73
ENDBRANCH  52  66
BRANCH  53  77
ATOM     77  C   UNL     1      14.860  -6.274  -7.205  1.00  0.00     0.023 A 
ATOM     78  C   UNL     1      15.752  -5.569  -6.373  1.00  0.00     0.031 A 
ATOM     79  C   UNL     1      14.709  -5.839  -8.531  1.00  0.00     0.131 A 
ATOM     80  C   UNL     1      16.381  -4.412  -6.849  1.00  0.00     0.055 A 
ATOM     81  C   UNL     1      15.401  -4.731  -9.024  1.00  0.00     0.041 A 
ATOM     82  F   UNL     1      13.862  -6.471  -9.358  1.00  0.00    -0.206 F 
ATOM     83  C   UNL     1      16.225  -3.998  -8.175  1.00  0.00     0.022 A 
BRANCH  80  84
ATOM     84  S   UNL     1      17.288  -3.320  -5.718  1.00  0.00     0.124 S 
ATOM     85  O   UNL     1      18.608  -3.265  -6.339  1.00  0.00    -0.237 OA
ATOM     86  O   UNL     1      16.501  -2.092  -5.799  1.00  0.00    -0.237 OA
ATOM     87  O   UNL     1      17.222  -4.017  -4.438  1.00  0.00    -0.744 OA
ENDBRANCH  80  84
ENDBRANCH  53  77
BRANCH  65  88
ATOM     88  C   UNL     1      13.875 -13.164  -8.420  1.00  0.00     0.023 A 
ATOM     89  C   UNL     1      13.069 -13.838  -9.359  1.00  0.00     0.031 A 
ATOM     90  C   UNL     1      15.194 -13.612  -8.235  1.00  0.00     0.131 A 
ATOM     91  C   UNL     1      13.563 -14.971 -10.018  1.00  0.00     0.055 A 
ATOM     92  C   UNL     1      15.701 -14.706  -8.939  1.00  0.00     0.041 A 
ATOM     93  F   UNL     1      16.001 -13.009  -7.348  1.00  0.00    -0.206 F 
ATOM     94  C   UNL     1      14.878 -15.404  -9.818  1.00  0.00     0.022 A 
BRANCH  91  95
ATOM     95  S   UNL     1      12.486 -15.988 -11.067  1.00  0.00     0.124 S 
ATOM     96  O   UNL     1      13.213 -15.992 -12.335  1.00  0.00    -0.237 OA
ATOM     97  O   UNL     1      12.475 -17.260 -10.351  1.00  0.00    -0.237 OA
ATOM     98  O   UNL     1      11.221 -15.262 -11.082  1.00  0.00    -0.744 OA
ENDBRANCH  91  95
ENDBRANCH  65  88
ENDBRANCH  39  40
ENDBRANCH  32  34
ENDBRANCH  31  32
ENDBRANCH  30  31
ENDBRANCH  29  30
ENDBRANCH   1  29
TORSDOF 22
