REMARK SMILES O=C(CNC(=O)N1CC(OCCOCCOC(=O)c2ccc(-c3c4nc(c(-c5cc(S(=O)(=O)[O-])ccc5F)c5ccc([nH]5)c(-c5cc(S(=O)(=O)[O-])ccc5F)c5nc(c(-c6cc(S(=O)(=O)[O-])ccc6F)c6ccc3[nH]6)C=C5)C=C4)cc2)=Nc2ccccc21)N[C@H](C(=O)[O-])c1ccccc1
REMARK SMILES IDX 12 1 11 2 10 3 9 4 7 5 8 6 88 7 83 8 87 9 82 10 84 11 86 12
REMARK SMILES IDX 85 13 5 14 4 15 6 17 3 18 2 19 1 20 89 21 90 23 94 24 95 25
REMARK SMILES IDX 99 26 96 27 98 28 97 29 91 30 92 31 93 32 13 33 14 34 15 35
REMARK SMILES IDX 16 36 17 37 18 38 19 39 20 40 81 41 21 42 80 43 22 44 23 45
REMARK SMILES IDX 24 46 74 47 25 48 79 49 73 50 75 51 26 52 78 53 72 54 71 55
REMARK SMILES IDX 27 57 59 58 39 59 58 60 40 61 43 62 57 63 76 64 41 65 42 66
REMARK SMILES IDX 56 68 77 69 44 70 28 71 29 72 37 73 30 74 36 75 38 76 35 77
REMARK SMILES IDX 31 78 32 79 33 80 34 81 60 82 61 83 69 84 62 85 68 86 70 87
REMARK SMILES IDX 67 88 63 89 64 90 65 91 66 92 45 93 46 94 54 95 47 96 53 97
REMARK SMILES IDX 55 98 52 99 48 100 49 101 50 102 51 103
REMARK H PARENT 4 16 89 22 75 56 43 67
REMARK Flexibility Score: inf
ROOT
ATOM      1  C   UNL     1      -1.215  -6.580  -3.133  1.00  0.00     0.202 C 
ENDROOT
BRANCH   1   2
ATOM      2  C   UNL     1      -0.768  -7.648  -4.148  1.00  0.00     0.259 C 
BRANCH   2   3
ATOM      3  O   UNL     1       0.662  -7.691  -4.368  1.00  0.00    -0.477 OA
BRANCH   3   4
ATOM      4  C   UNL     1       1.146  -6.878  -5.337  1.00  0.00     0.209 C 
ATOM      5  N   UNL     1       3.008  -5.302  -5.626  1.00  0.00    -0.283 N 
ATOM      6  C   UNL     1       2.644  -6.682  -5.278  1.00  0.00     0.224 C 
ATOM      7  C   UNL     1       2.198  -4.687  -6.638  1.00  0.00     0.072 A 
ATOM      8  C   UNL     1       0.904  -5.204  -6.881  1.00  0.00     0.091 A 
ATOM      9  C   UNL     1       2.615  -3.567  -7.365  1.00  0.00     0.029 A 
ATOM     10  N   UNL     1       0.361  -6.281  -6.170  1.00  0.00    -0.214 NA
ATOM     11  C   UNL     1       0.018  -4.513  -7.713  1.00  0.00     0.030 A 
ATOM     12  C   UNL     1       1.718  -2.885  -8.195  1.00  0.00     0.002 A 
ATOM     13  C   UNL     1       0.412  -3.342  -8.348  1.00  0.00     0.002 A 
BRANCH   5  14
ATOM     14  C   UNL     1       4.159  -4.815  -5.051  1.00  0.00     0.322 C 
ATOM     15  N   UNL     1       4.275  -3.511  -4.695  1.00  0.00    -0.329 N 
ATOM     16  H   UNL     1       5.197  -3.215  -4.513  1.00  0.00     0.165 HD
ATOM     17  O   UNL     1       5.098  -5.561  -4.759  1.00  0.00    -0.248 OA
BRANCH  15  18
ATOM     18  C   UNL     1       3.261  -2.473  -4.538  1.00  0.00     0.218 C 
BRANCH  18  19
ATOM     19  C   UNL     1       3.005  -1.900  -3.140  1.00  0.00     0.240 C 
ATOM     20  O   UNL     1       2.202  -0.977  -3.010  1.00  0.00    -0.273 OA
ATOM     21  N   UNL     1       3.575  -2.576  -2.091  1.00  0.00    -0.342 N 
ATOM     22  H   UNL     1       4.161  -3.346  -2.271  1.00  0.00     0.164 HD
BRANCH  21  23
ATOM     23  C   UNL     1       3.323  -2.162  -0.690  1.00  0.00     0.158 C 
BRANCH  23  24
ATOM     24  C   UNL     1       3.520  -3.299   0.322  1.00  0.00    -0.020 A 
ATOM     25  C   UNL     1       3.944  -4.592  -0.029  1.00  0.00     0.006 A 
ATOM     26  C   UNL     1       3.240  -3.056   1.682  1.00  0.00     0.006 A 
ATOM     27  C   UNL     1       4.145  -5.578   0.946  1.00  0.00     0.000 A 
ATOM     28  C   UNL     1       3.435  -4.040   2.656  1.00  0.00     0.000 A 
ATOM     29  C   UNL     1       3.904  -5.298   2.290  1.00  0.00     0.000 A 
ENDBRANCH  23  24
BRANCH  23  30
ATOM     30  C   UNL     1       4.210  -0.922  -0.283  1.00  0.00     0.068 C 
ATOM     31  O   UNL     1       3.659  -0.065   0.469  1.00  0.00    -0.548 OA
ATOM     32  O   UNL     1       5.376  -0.909  -0.794  1.00  0.00    -0.548 OA
ENDBRANCH  23  30
ENDBRANCH  21  23
ENDBRANCH  18  19
ENDBRANCH  15  18
ENDBRANCH   5  14
ENDBRANCH   3   4
ENDBRANCH   2   3
ENDBRANCH   1   2
BRANCH   1  33
ATOM     33  O   UNL     1      -1.262  -5.217  -3.561  1.00  0.00    -0.374 OA
BRANCH  33  34
ATOM     34  C   UNL     1      -0.052  -4.472  -3.545  1.00  0.00     0.202 C 
BRANCH  34  35
ATOM     35  C   UNL     1       0.565  -4.034  -2.221  1.00  0.00     0.261 C 
BRANCH  35  36
ATOM     36  O   UNL     1       0.452  -4.972  -1.170  1.00  0.00    -0.460 OA
BRANCH  36  37
ATOM     37  C   UNL     1      -0.641  -4.802  -0.398  1.00  0.00     0.338 C 
ATOM     38  O   UNL     1      -1.550  -3.997  -0.538  1.00  0.00    -0.246 OA
BRANCH  37  39
ATOM     39  C   UNL     1      -0.635  -5.904   0.565  1.00  0.00     0.060 A 
ATOM     40  C   UNL     1      -1.780  -6.683   0.707  1.00  0.00     0.016 A 
ATOM     41  C   UNL     1       0.521  -6.179   1.296  1.00  0.00     0.016 A 
ATOM     42  C   UNL     1      -1.779  -7.721   1.632  1.00  0.00     0.010 A 
ATOM     43  C   UNL     1       0.536  -7.238   2.192  1.00  0.00     0.010 A 
ATOM     44  C   UNL     1      -0.630  -7.987   2.396  1.00  0.00    -0.014 A 
BRANCH  44  45
ATOM     45  C   UNL     1      -0.676  -8.991   3.480  1.00  0.00     0.031 A 
ATOM     46  C   UNL     1      -0.625  -8.530   4.910  1.00  0.00     0.074 A 
ATOM     47  C   UNL     1      -0.765 -10.296   3.170  1.00  0.00     0.049 A 
ATOM     48  N   UNL     1      -0.683  -9.238   6.009  1.00  0.00    -0.248 NA
ATOM     49  C   UNL     1      -0.466  -7.084   5.136  1.00  0.00     0.031 C 
ATOM     50  C   UNL     1      -0.780 -10.838   1.810  1.00  0.00     0.029 A 
ATOM     51  N   UNL     1      -0.862 -11.402   3.972  1.00  0.00    -0.354 N 
ATOM     52  C   UNL     1      -0.563  -8.324   7.052  1.00  0.00     0.074 A 
ATOM     53  C   UNL     1      -0.363  -7.023   6.454  1.00  0.00     0.031 C 
ATOM     54  C   UNL     1      -0.909 -12.173   1.873  1.00  0.00     0.029 A 
ATOM     55  C   UNL     1      -0.949 -12.583   3.274  1.00  0.00     0.049 A 
ATOM     56  H   UNL     1      -0.869 -11.356   4.955  1.00  0.00     0.167 HD
ATOM     57  C   UNL     1      -0.638  -8.554   8.385  1.00  0.00     0.034 A 
ATOM     58  C   UNL     1      -1.045 -13.850   3.720  1.00  0.00     0.034 A 
ATOM     59  C   UNL     1      -0.839  -9.866   8.951  1.00  0.00     0.049 A 
ATOM     60  C   UNL     1      -1.102 -14.082   5.209  1.00  0.00     0.074 A 
ATOM     61  C   UNL     1      -0.988 -10.218  10.280  1.00  0.00     0.029 A 
ATOM     62  N   UNL     1      -0.906 -11.044   8.216  1.00  0.00    -0.354 N 
ATOM     63  N   UNL     1      -1.057 -13.204   6.186  1.00  0.00    -0.248 NA
ATOM     64  C   UNL     1      -1.240 -15.473   5.655  1.00  0.00     0.031 C 
ATOM     65  C   UNL     1      -1.068 -11.613  10.355  1.00  0.00     0.029 A 
ATOM     66  C   UNL     1      -1.057 -12.129   9.067  1.00  0.00     0.049 A 
ATOM     67  H   UNL     1      -0.854 -11.101   7.235  1.00  0.00     0.167 HD
ATOM     68  C   UNL     1      -1.187 -13.937   7.362  1.00  0.00     0.074 A 
ATOM     69  C   UNL     1      -1.337 -15.324   6.968  1.00  0.00     0.031 C 
ATOM     70  C   UNL     1      -1.186 -13.507   8.651  1.00  0.00     0.034 A 
BRANCH  57  71
ATOM     71  C   UNL     1      -0.472  -7.370   9.310  1.00  0.00     0.023 A 
ATOM     72  C   UNL     1      -1.371  -6.287   9.299  1.00  0.00     0.031 A 
ATOM     73  C   UNL     1       0.608  -7.314  10.208  1.00  0.00     0.131 A 
ATOM     74  C   UNL     1      -1.138  -5.170  10.117  1.00  0.00     0.055 A 
ATOM     75  C   UNL     1       0.794  -6.233  11.072  1.00  0.00     0.041 A 
ATOM     76  F   UNL     1       1.509  -8.308  10.257  1.00  0.00    -0.206 F 
ATOM     77  C   UNL     1      -0.073  -5.146  11.020  1.00  0.00     0.022 A 
BRANCH  74  78
ATOM     78  S   UNL     1      -2.178  -3.699   9.901  1.00  0.00     0.124 S 
ATOM     79  O   UNL     1      -1.940  -3.371   8.498  1.00  0.00    -0.237 OA
ATOM     80  O   UNL     1      -3.507  -4.205  10.223  1.00  0.00    -0.237 OA
ATOM     81  O   UNL     1      -1.626  -2.746  10.862  1.00  0.00    -0.744 OA
ENDBRANCH  74  78
ENDBRANCH  57  71
BRANCH  58  82
ATOM     82  C   UNL     1      -1.093 -14.988   2.758  1.00  0.00     0.023 A 
ATOM     83  C   UNL     1      -2.221 -15.819   2.671  1.00  0.00     0.031 A 
ATOM     84  C   UNL     1       0.006 -15.280   1.929  1.00  0.00     0.131 A 
ATOM     85  C   UNL     1      -2.208 -16.929   1.811  1.00  0.00     0.055 A 
ATOM     86  C   UNL     1      -0.009 -16.350   1.033  1.00  0.00     0.041 A 
ATOM     87  F   UNL     1       1.110 -14.518   1.971  1.00  0.00    -0.206 F 
ATOM     88  C   UNL     1      -1.117 -17.190   0.980  1.00  0.00     0.022 A 
BRANCH  85  89
ATOM     89  S   UNL     1      -3.606 -18.084   1.861  1.00  0.00     0.124 S 
ATOM     90  O   UNL     1      -3.619 -18.478   3.266  1.00  0.00    -0.237 OA
ATOM     91  O   UNL     1      -4.714 -17.243   1.421  1.00  0.00    -0.237 OA
ATOM     92  O   UNL     1      -3.214 -19.135   0.924  1.00  0.00    -0.744 OA
ENDBRANCH  85  89
ENDBRANCH  58  82
BRANCH  70  93
ATOM     93  C   UNL     1      -1.390 -14.554   9.719  1.00  0.00     0.023 A 
ATOM     94  C   UNL     1      -0.446 -15.571   9.948  1.00  0.00     0.031 A 
ATOM     95  C   UNL     1      -2.553 -14.541  10.509  1.00  0.00     0.131 A 
ATOM     96  C   UNL     1      -0.712 -16.570  10.897  1.00  0.00     0.055 A 
ATOM     97  C   UNL     1      -2.779 -15.496  11.501  1.00  0.00     0.041 A 
ATOM     98  F   UNL     1      -3.491 -13.597  10.332  1.00  0.00    -0.206 F 
ATOM     99  C   UNL     1      -1.863 -16.526  11.689  1.00  0.00     0.022 A 
BRANCH  96 100
ATOM    100  S   UNL     1       0.412 -17.988  11.008  1.00  0.00     0.124 S 
ATOM    101  O   UNL     1       0.358 -18.526   9.652  1.00  0.00    -0.237 OA
ATOM    102  O   UNL     1       1.672 -17.362  11.396  1.00  0.00    -0.237 OA
ATOM    103  O   UNL     1      -0.200 -18.832  12.033  1.00  0.00    -0.744 OA
ENDBRANCH  96 100
ENDBRANCH  70  93
ENDBRANCH  44  45
ENDBRANCH  37  39
ENDBRANCH  36  37
ENDBRANCH  35  36
ENDBRANCH  34  35
ENDBRANCH  33  34
ENDBRANCH   1  33
TORSDOF 22
