REMARK SMILES O=C(OCCOCCOC(=O)c1c(C(F)(F)F)nn(-c2ccccc2)c1C(F)(F)Cl)c1ccc(-c2c3nc(c(-c4cc(S(=O)(=O)[O-])ccc4F)c4ccc([nH]4)c(-c4cc(S(=O)(=O)[O-])ccc4F)c4nc(c(-c5cc(S(=O)(=O)[O-])ccc5F)c5ccc2[nH]5)C=C4)C=C3)cc1
REMARK SMILES IDX 5 1 4 2 3 3 2 4 1 5 31 6 32 7 93 8 33 9 92 10 34 11 35 12
REMARK SMILES IDX 36 13 86 14 37 15 91 16 85 17 87 18 38 19 90 20 84 21 83 22
REMARK SMILES IDX 39 24 71 25 51 26 70 27 52 28 55 29 69 30 88 31 53 32 54 33
REMARK SMILES IDX 68 35 89 36 56 37 40 38 41 39 49 40 42 41 48 42 50 43 47 44
REMARK SMILES IDX 43 45 44 46 45 47 46 48 72 49 73 50 81 51 74 52 80 53 82 54
REMARK SMILES IDX 79 55 75 56 76 57 77 58 78 59 57 60 58 61 66 62 59 63 65 64
REMARK SMILES IDX 67 65 64 66 60 67 61 68 62 69 63 70 6 71 7 72 8 73 9 74
REMARK SMILES IDX 10 75 11 76 12 77 13 78 26 79 18 80 19 81 14 82 15 83 16 84
REMARK SMILES IDX 17 85 27 86 28 87 29 88 30 89 20 90 21 91 25 92 22 93 24 94
REMARK SMILES IDX 23 95
REMARK H PARENT 87 23 55 34
REMARK Flexibility Score: inf
ROOT
ATOM      1  C   UNL     1       5.026  -0.170   0.428  1.00  0.00     0.202 C 
ENDROOT
BRANCH   1   2
ATOM      2  C   UNL     1       4.503   0.959  -0.467  1.00  0.00     0.261 C 
BRANCH   2   3
ATOM      3  O   UNL     1       3.125   1.253  -0.225  1.00  0.00    -0.460 OA
BRANCH   3   4
ATOM      4  C   UNL     1       2.042   0.581  -0.675  1.00  0.00     0.338 C 
ATOM      5  O   UNL     1       0.966   0.790  -0.112  1.00  0.00    -0.246 OA
BRANCH   4   6
ATOM      6  C   UNL     1       2.062  -0.377  -1.821  1.00  0.00     0.060 A 
ATOM      7  C   UNL     1       3.189  -0.840  -2.498  1.00  0.00     0.016 A 
ATOM      8  C   UNL     1       0.798  -0.792  -2.280  1.00  0.00     0.016 A 
ATOM      9  C   UNL     1       3.062  -1.445  -3.733  1.00  0.00     0.010 A 
ATOM     10  C   UNL     1       0.662  -1.478  -3.476  1.00  0.00     0.010 A 
ATOM     11  C   UNL     1       1.794  -1.707  -4.246  1.00  0.00    -0.014 A 
BRANCH  11  12
ATOM     12  C   UNL     1       1.730  -2.301  -5.571  1.00  0.00     0.031 A 
ATOM     13  C   UNL     1       2.501  -3.566  -5.710  1.00  0.00     0.074 A 
ATOM     14  C   UNL     1       1.014  -1.766  -6.579  1.00  0.00     0.049 A 
ATOM     15  N   UNL     1       3.536  -3.789  -6.450  1.00  0.00    -0.248 NA
ATOM     16  C   UNL     1       2.180  -4.664  -4.785  1.00  0.00     0.031 C 
ATOM     17  C   UNL     1       0.051  -0.665  -6.533  1.00  0.00     0.029 A 
ATOM     18  N   UNL     1       0.942  -2.179  -7.872  1.00  0.00    -0.354 N 
ATOM     19  C   UNL     1       3.879  -5.121  -6.240  1.00  0.00     0.074 A 
ATOM     20  C   UNL     1       3.120  -5.556  -5.098  1.00  0.00     0.031 C 
ATOM     21  C   UNL     1      -0.679  -0.663  -7.672  1.00  0.00     0.029 A 
ATOM     22  C   UNL     1      -0.135  -1.660  -8.579  1.00  0.00     0.049 A 
ATOM     23  H   UNL     1       1.597  -2.794  -8.273  1.00  0.00     0.167 HD
ATOM     24  C   UNL     1       4.614  -5.819  -7.149  1.00  0.00     0.034 A 
ATOM     25  C   UNL     1      -0.585  -2.073  -9.794  1.00  0.00     0.034 A 
ATOM     26  C   UNL     1       5.363  -4.933  -8.007  1.00  0.00     0.049 A 
ATOM     27  C   UNL     1       0.555  -2.753 -10.462  1.00  0.00     0.074 A 
ATOM     28  C   UNL     1       6.342  -3.984  -7.782  1.00  0.00     0.029 A 
ATOM     29  N   UNL     1       4.869  -4.657  -9.262  1.00  0.00    -0.354 N 
ATOM     30  N   UNL     1       1.646  -2.129 -10.818  1.00  0.00    -0.248 NA
ATOM     31  C   UNL     1       0.699  -4.190 -10.277  1.00  0.00     0.031 C 
ATOM     32  C   UNL     1       6.010  -2.904  -8.653  1.00  0.00     0.029 A 
ATOM     33  C   UNL     1       4.907  -3.291  -9.417  1.00  0.00     0.049 A 
ATOM     34  H   UNL     1       4.549  -5.313  -9.923  1.00  0.00     0.167 HD
ATOM     35  C   UNL     1       2.680  -2.990 -10.483  1.00  0.00     0.074 A 
ATOM     36  C   UNL     1       2.033  -4.278 -10.235  1.00  0.00     0.031 C 
ATOM     37  C   UNL     1       3.926  -2.526 -10.166  1.00  0.00     0.034 A 
BRANCH  24  38
ATOM     38  C   UNL     1       4.399  -7.281  -7.465  1.00  0.00     0.023 A 
ATOM     39  C   UNL     1       5.243  -7.884  -8.418  1.00  0.00     0.031 A 
ATOM     40  C   UNL     1       3.251  -8.025  -7.104  1.00  0.00     0.131 A 
ATOM     41  C   UNL     1       4.896  -9.109  -9.018  1.00  0.00     0.055 A 
ATOM     42  C   UNL     1       2.944  -9.271  -7.655  1.00  0.00     0.041 A 
ATOM     43  F   UNL     1       2.312  -7.552  -6.276  1.00  0.00    -0.206 F 
ATOM     44  C   UNL     1       3.752  -9.807  -8.640  1.00  0.00     0.022 A 
BRANCH  41  45
ATOM     45  S   UNL     1       5.870  -9.691 -10.430  1.00  0.00     0.124 S 
ATOM     46  O   UNL     1       5.847  -8.527 -11.308  1.00  0.00    -0.237 OA
ATOM     47  O   UNL     1       7.151 -10.001  -9.802  1.00  0.00    -0.237 OA
ATOM     48  O   UNL     1       5.115 -10.847 -10.908  1.00  0.00    -0.744 OA
ENDBRANCH  41  45
ENDBRANCH  24  38
BRANCH  25  49
ATOM     49  C   UNL     1      -2.011  -2.259 -10.184  1.00  0.00     0.023 A 
ATOM     50  C   UNL     1      -2.442  -2.334 -11.526  1.00  0.00     0.031 A 
ATOM     51  C   UNL     1      -2.963  -2.605  -9.195  1.00  0.00     0.131 A 
ATOM     52  C   UNL     1      -3.768  -2.731 -11.828  1.00  0.00     0.055 A 
ATOM     53  C   UNL     1      -4.269  -2.994  -9.499  1.00  0.00     0.041 A 
ATOM     54  F   UNL     1      -2.628  -2.657  -7.896  1.00  0.00    -0.206 F 
ATOM     55  C   UNL     1      -4.675  -3.066 -10.820  1.00  0.00     0.022 A 
BRANCH  52  56
ATOM     56  S   UNL     1      -4.316  -2.897 -13.559  1.00  0.00     0.124 S 
ATOM     57  O   UNL     1      -4.304  -1.515 -14.022  1.00  0.00    -0.237 OA
ATOM     58  O   UNL     1      -3.303  -3.781 -14.125  1.00  0.00    -0.237 OA
ATOM     59  O   UNL     1      -5.648  -3.493 -13.441  1.00  0.00    -0.744 OA
ENDBRANCH  52  56
ENDBRANCH  25  49
BRANCH  37  60
ATOM     60  C   UNL     1       4.245  -1.063 -10.420  1.00  0.00     0.023 A 
ATOM     61  C   UNL     1       3.542   0.031  -9.861  1.00  0.00     0.031 A 
ATOM     62  C   UNL     1       5.407  -0.778 -11.159  1.00  0.00     0.131 A 
ATOM     63  C   UNL     1       4.010   1.347 -10.061  1.00  0.00     0.055 A 
ATOM     64  C   UNL     1       5.878   0.522 -11.336  1.00  0.00     0.041 A 
ATOM     65  F   UNL     1       6.135  -1.773 -11.693  1.00  0.00    -0.206 F 
ATOM     66  C   UNL     1       5.178   1.591 -10.791  1.00  0.00     0.022 A 
BRANCH  63  67
ATOM     67  S   UNL     1       3.104   2.778  -9.383  1.00  0.00     0.124 S 
ATOM     68  O   UNL     1       1.723   2.525  -9.773  1.00  0.00    -0.237 OA
ATOM     69  O   UNL     1       3.394   2.688  -7.954  1.00  0.00    -0.237 OA
ATOM     70  O   UNL     1       3.725   3.923 -10.054  1.00  0.00    -0.744 OA
ENDBRANCH  63  67
ENDBRANCH  37  60
ENDBRANCH  11  12
ENDBRANCH   4   6
ENDBRANCH   3   4
ENDBRANCH   2   3
ENDBRANCH   1   2
BRANCH   1  71
ATOM     71  O   UNL     1       4.308  -1.396   0.490  1.00  0.00    -0.374 OA
BRANCH  71  72
ATOM     72  C   UNL     1       3.212  -1.508   1.405  1.00  0.00     0.202 C 
BRANCH  72  73
ATOM     73  C   UNL     1       3.488  -1.316   2.898  1.00  0.00     0.261 C 
BRANCH  73  74
ATOM     74  O   UNL     1       3.745   0.065   3.212  1.00  0.00    -0.460 OA
BRANCH  74  75
ATOM     75  C   UNL     1       4.953   0.362   3.767  1.00  0.00     0.342 C 
ATOM     76  O   UNL     1       5.854  -0.416   3.987  1.00  0.00    -0.246 OA
BRANCH  75  77
ATOM     77  C   UNL     1       5.063   1.779   4.046  1.00  0.00     0.121 A 
ATOM     78  C   UNL     1       5.884   2.741   3.382  1.00  0.00     0.181 A 
ATOM     79  C   UNL     1       4.407   2.482   5.053  1.00  0.00     0.145 A 
ATOM     80  N   UNL     1       5.662   3.966   3.891  1.00  0.00    -0.162 NA
ATOM     81  N   UNL     1       4.951   3.748   5.015  1.00  0.00    -0.229 N 
BRANCH  78  82
ATOM     82  C   UNL     1       6.868   2.552   2.252  1.00  0.00     0.436 C 
ATOM     83  F   UNL     1       6.506   3.238   1.137  1.00  0.00    -0.164 F 
ATOM     84  F   UNL     1       8.116   2.976   2.587  1.00  0.00    -0.164 F 
ATOM     85  F   UNL     1       7.002   1.256   1.877  1.00  0.00    -0.164 F 
ENDBRANCH  78  82
BRANCH  79  86
ATOM     86  C   UNL     1       3.372   2.150   6.067  1.00  0.00     0.365 C 
ATOM     87  F   UNL     1       3.960   1.908   7.270  1.00  0.00    -0.181 F 
ATOM     88  F   UNL     1       2.540   3.209   6.261  1.00  0.00    -0.181 F 
ATOM     89  Cl  UNL     1       2.353   0.752   5.708  1.00  0.00    -0.040 Cl
ENDBRANCH  79  86
BRANCH  81  90
ATOM     90  C   UNL     1       4.956   4.747   6.012  1.00  0.00     0.065 A 
ATOM     91  C   UNL     1       4.718   6.076   5.651  1.00  0.00     0.028 A 
ATOM     92  C   UNL     1       5.246   4.410   7.339  1.00  0.00     0.028 A 
ATOM     93  C   UNL     1       4.673   7.053   6.645  1.00  0.00     0.002 A 
ATOM     94  C   UNL     1       5.220   5.395   8.322  1.00  0.00     0.002 A 
ATOM     95  C   UNL     1       4.913   6.710   7.977  1.00  0.00     0.000 A 
ENDBRANCH  81  90
ENDBRANCH  75  77
ENDBRANCH  74  75
ENDBRANCH  73  74
ENDBRANCH  72  73
ENDBRANCH  71  72
ENDBRANCH   1  71
TORSDOF 20
