REMARK SMILES CCCC[C@@H](C(=O)OCCOCCOC(=O)c1ccc(-c2c3nc(c(-c4cc(S(=O)(=O)[O-])ccc4F)c4ccc([nH]4)c(-c4cc(S(=O)(=O)[O-])ccc4F)c4nc(c(-c5cc(S(=O)(=O)[O-])ccc5F)c5ccc2[nH]5)C=C4)C=C3)cc1)[C@H](O)c1ccc(Br)cc1F
REMARK SMILES IDX 11 1 10 2 9 3 8 4 6 5 7 6 5 7 4 8 3 9 2 10 1 11 80 12 82 13
REMARK SMILES IDX 83 14 88 15 84 16 87 17 89 18 85 19 86 20 81 21 12 23 13 24
REMARK SMILES IDX 14 25 15 26 16 27 17 28 18 29 79 30 19 31 78 32 20 33 21 34
REMARK SMILES IDX 22 35 72 36 23 37 77 38 71 39 73 40 24 41 76 42 70 43 69 44
REMARK SMILES IDX 25 46 57 47 37 48 56 49 38 50 41 51 55 52 74 53 39 54 40 55
REMARK SMILES IDX 54 57 75 58 42 59 26 60 27 61 35 62 28 63 34 64 36 65 33 66
REMARK SMILES IDX 29 67 30 68 31 69 32 70 58 71 59 72 67 73 60 74 66 75 68 76
REMARK SMILES IDX 65 77 61 78 62 79 63 80 64 81 43 82 44 83 52 84 45 85 51 86
REMARK SMILES IDX 53 87 50 88 46 89 47 90 48 91 49 92
REMARK H PARENT 81 22 73 45 41 56
REMARK Flexibility Score: inf
ROOT
ATOM      1  O   UNL     1       3.145  -3.208  -1.417  1.00  0.00    -0.374 OA
ENDROOT
BRANCH   1   2
ATOM      2  C   UNL     1       3.180  -3.203   0.012  1.00  0.00     0.202 C 
BRANCH   2   3
ATOM      3  C   UNL     1       2.023  -2.489   0.711  1.00  0.00     0.261 C 
BRANCH   3   4
ATOM      4  O   UNL     1       0.787  -3.184   0.469  1.00  0.00    -0.463 OA
BRANCH   4   5
ATOM      5  C   UNL     1      -0.163  -2.500  -0.201  1.00  0.00     0.312 C 
ATOM      6  O   UNL     1      -0.087  -1.305  -0.477  1.00  0.00    -0.252 OA
BRANCH   5   7
ATOM      7  C   UNL     1      -1.362  -3.339  -0.610  1.00  0.00     0.132 C 
BRANCH   7   8
ATOM      8  C   UNL     1      -1.202  -4.884  -0.509  1.00  0.00     0.018 C 
BRANCH   8   9
ATOM      9  C   UNL     1      -0.940  -5.524   0.859  1.00  0.00     0.001 C 
BRANCH   9  10
ATOM     10  C   UNL     1      -1.916  -5.139   1.966  1.00  0.00    -0.003 C 
ATOM     11  C   UNL     1      -3.360  -5.491   1.643  1.00  0.00     0.004 C 
ENDBRANCH   9  10
ENDBRANCH   8   9
ENDBRANCH   7   8
BRANCH   7  12
ATOM     12  C   UNL     1      -1.799  -2.991  -2.082  1.00  0.00     0.161 C 
BRANCH  12  13
ATOM     13  C   UNL     1      -3.313  -2.978  -2.184  1.00  0.00     0.017 A 
ATOM     14  C   UNL     1      -4.043  -1.821  -1.863  1.00  0.00     0.010 A 
ATOM     15  C   UNL     1      -4.021  -4.134  -2.525  1.00  0.00     0.130 A 
ATOM     16  C   UNL     1      -5.438  -1.838  -1.856  1.00  0.00     0.016 A 
ATOM     17  C   UNL     1      -5.411  -4.168  -2.501  1.00  0.00     0.055 A 
ATOM     18  F   UNL     1      -3.359  -5.251  -2.860  1.00  0.00    -0.207 F 
ATOM     19  C   UNL     1      -6.114  -3.018  -2.159  1.00  0.00     0.020 A 
ATOM     20  Br  UNL     1      -8.002  -3.057  -2.092  1.00  0.00    -0.051 Br
ENDBRANCH  12  13
BRANCH  12  21
ATOM     21  O   UNL     1      -1.366  -1.745  -2.637  1.00  0.00    -0.387 OA
ATOM     22  H   UNL     1      -1.786  -1.014  -2.157  1.00  0.00     0.211 HD
ENDBRANCH  12  21
ENDBRANCH   7  12
ENDBRANCH   5   7
ENDBRANCH   4   5
ENDBRANCH   3   4
ENDBRANCH   2   3
ENDBRANCH   1   2
BRANCH   1  23
ATOM     23  C   UNL     1       2.249  -4.115  -2.056  1.00  0.00     0.202 C 
BRANCH  23  24
ATOM     24  C   UNL     1       2.632  -5.602  -2.061  1.00  0.00     0.261 C 
BRANCH  24  25
ATOM     25  O   UNL     1       2.661  -6.177  -0.741  1.00  0.00    -0.460 OA
BRANCH  25  26
ATOM     26  C   UNL     1       3.902  -6.502  -0.301  1.00  0.00     0.338 C 
ATOM     27  O   UNL     1       4.946  -6.415  -0.934  1.00  0.00    -0.246 OA
BRANCH  26  28
ATOM     28  C   UNL     1       3.882  -6.798   1.144  1.00  0.00     0.060 A 
ATOM     29  C   UNL     1       4.793  -6.103   1.951  1.00  0.00     0.016 A 
ATOM     30  C   UNL     1       3.063  -7.787   1.693  1.00  0.00     0.016 A 
ATOM     31  C   UNL     1       4.928  -6.430   3.298  1.00  0.00     0.010 A 
ATOM     32  C   UNL     1       3.208  -8.122   3.046  1.00  0.00     0.010 A 
ATOM     33  C   UNL     1       4.168  -7.472   3.845  1.00  0.00    -0.014 A 
BRANCH  33  34
ATOM     34  C   UNL     1       4.509  -7.982   5.199  1.00  0.00     0.031 A 
ATOM     35  C   UNL     1       5.359  -9.220   5.315  1.00  0.00     0.074 A 
ATOM     36  C   UNL     1       4.122  -7.322   6.306  1.00  0.00     0.049 A 
ATOM     37  N   UNL     1       5.764  -9.854   6.385  1.00  0.00    -0.248 NA
ATOM     38  C   UNL     1       5.812  -9.821   4.051  1.00  0.00     0.031 C 
ATOM     39  C   UNL     1       3.350  -6.080   6.321  1.00  0.00     0.029 A 
ATOM     40  N   UNL     1       4.330  -7.605   7.633  1.00  0.00    -0.354 N 
ATOM     41  C   UNL     1       6.521 -10.928   5.926  1.00  0.00     0.074 A 
ATOM     42  C   UNL     1       6.482 -10.880   4.480  1.00  0.00     0.031 C 
ATOM     43  C   UNL     1       3.144  -5.711   7.597  1.00  0.00     0.029 A 
ATOM     44  C   UNL     1       3.734  -6.708   8.489  1.00  0.00     0.049 A 
ATOM     45  H   UNL     1       4.856  -8.377   7.943  1.00  0.00     0.167 HD
ATOM     46  C   UNL     1       7.195 -11.860   6.644  1.00  0.00     0.034 A 
ATOM     47  C   UNL     1       3.653  -6.707   9.836  1.00  0.00     0.034 A 
ATOM     48  C   UNL     1       7.217 -11.903   8.086  1.00  0.00     0.049 A 
ATOM     49  C   UNL     1       4.327  -7.815  10.613  1.00  0.00     0.074 A 
ATOM     50  C   UNL     1       7.867 -12.805   8.912  1.00  0.00     0.029 A 
ATOM     51  N   UNL     1       6.552 -11.013   8.918  1.00  0.00    -0.354 N 
ATOM     52  N   UNL     1       5.035  -8.827  10.165  1.00  0.00    -0.248 NA
ATOM     53  C   UNL     1       4.196  -7.774  12.075  1.00  0.00     0.031 C 
ATOM     54  C   UNL     1       7.538 -12.502  10.238  1.00  0.00     0.029 A 
ATOM     55  C   UNL     1       6.749 -11.363  10.246  1.00  0.00     0.049 A 
ATOM     56  H   UNL     1       6.018 -10.245   8.611  1.00  0.00     0.167 HD
ATOM     57  C   UNL     1       5.462  -9.521  11.296  1.00  0.00     0.074 A 
ATOM     58  C   UNL     1       4.943  -8.805  12.443  1.00  0.00     0.031 C 
ATOM     59  C   UNL     1       6.220 -10.644  11.381  1.00  0.00     0.034 A 
BRANCH  46  60
ATOM     60  C   UNL     1       7.918 -12.939   5.873  1.00  0.00     0.023 A 
ATOM     61  C   UNL     1       9.009 -12.647   5.037  1.00  0.00     0.031 A 
ATOM     62  C   UNL     1       7.493 -14.277   5.960  1.00  0.00     0.131 A 
ATOM     63  C   UNL     1       9.597 -13.667   4.273  1.00  0.00     0.055 A 
ATOM     64  C   UNL     1       8.131 -15.299   5.256  1.00  0.00     0.041 A 
ATOM     65  F   UNL     1       6.441 -14.611   6.724  1.00  0.00    -0.206 F 
ATOM     66  C   UNL     1       9.182 -14.995   4.396  1.00  0.00     0.022 A 
BRANCH  63  67
ATOM     67  S   UNL     1      10.824 -13.213   3.016  1.00  0.00     0.124 S 
ATOM     68  O   UNL     1      10.054 -12.309   2.166  1.00  0.00    -0.237 OA
ATOM     69  O   UNL     1      11.880 -12.599   3.813  1.00  0.00    -0.237 OA
ATOM     70  O   UNL     1      11.171 -14.492   2.399  1.00  0.00    -0.744 OA
ENDBRANCH  63  67
ENDBRANCH  46  60
BRANCH  47  71
ATOM     71  C   UNL     1       2.870  -5.655  10.549  1.00  0.00     0.023 A 
ATOM     72  C   UNL     1       3.486  -4.778  11.457  1.00  0.00     0.031 A 
ATOM     73  C   UNL     1       1.476  -5.563  10.388  1.00  0.00     0.131 A 
ATOM     74  C   UNL     1       2.703  -3.885  12.206  1.00  0.00     0.055 A 
ATOM     75  C   UNL     1       0.710  -4.634  11.094  1.00  0.00     0.041 A 
ATOM     76  F   UNL     1       0.835  -6.380   9.536  1.00  0.00    -0.206 F 
ATOM     77  C   UNL     1       1.322  -3.798  12.021  1.00  0.00     0.022 A 
BRANCH  74  78
ATOM     78  S   UNL     1       3.507  -2.905  13.504  1.00  0.00     0.124 S 
ATOM     79  O   UNL     1       4.095  -3.945  14.340  1.00  0.00    -0.237 OA
ATOM     80  O   UNL     1       4.444  -2.094  12.733  1.00  0.00    -0.237 OA
ATOM     81  O   UNL     1       2.400  -2.168  14.109  1.00  0.00    -0.744 OA
ENDBRANCH  74  78
ENDBRANCH  47  71
BRANCH  59  82
ATOM     82  C   UNL     1       6.575 -11.134  12.764  1.00  0.00     0.023 A 
ATOM     83  C   UNL     1       5.603 -11.639  13.646  1.00  0.00     0.031 A 
ATOM     84  C   UNL     1       7.909 -11.087  13.208  1.00  0.00     0.131 A 
ATOM     85  C   UNL     1       5.970 -12.024  14.945  1.00  0.00     0.055 A 
ATOM     86  C   UNL     1       8.277 -11.528  14.480  1.00  0.00     0.041 A 
ATOM     87  F   UNL     1       8.878 -10.613  12.409  1.00  0.00    -0.206 F 
ATOM     88  C   UNL     1       7.304 -11.987  15.361  1.00  0.00     0.022 A 
BRANCH  85  89
ATOM     89  S   UNL     1       4.667 -12.492  16.117  1.00  0.00     0.124 S 
ATOM     90  O   UNL     1       3.840 -11.290  16.147  1.00  0.00    -0.237 OA
ATOM     91  O   UNL     1       4.073 -13.659  15.475  1.00  0.00    -0.237 OA
ATOM     92  O   UNL     1       5.399 -12.771  17.352  1.00  0.00    -0.744 OA
ENDBRANCH  85  89
ENDBRANCH  59  82
ENDBRANCH  33  34
ENDBRANCH  26  28
ENDBRANCH  25  26
ENDBRANCH  24  25
ENDBRANCH  23  24
ENDBRANCH   1  23
TORSDOF 23
