REMARK SMILES CCN(CC(C)(C)O)C(=O)[C@H]1CC=CC[C@H]1C(=O)OCCOCCOC(=O)c1ccc(-c2c3nc(c(-c4cc(S(=O)(=O)[O-])ccc4F)c4ccc([nH]4)c(-c4cc(S(=O)(=O)[O-])ccc4F)c4nc(c(-c5cc(S(=O)(=O)[O-])ccc5F)c5ccc2[nH]5)C=C4)C=C3)cc1
REMARK SMILES IDX 21 1 20 2 19 3 17 4 18 5 16 6 11 7 12 8 13 9 15 10 14 11
REMARK SMILES IDX 9 12 10 13 3 14 2 15 1 16 4 17 5 18 6 19 7 20 8 21 22 23
REMARK SMILES IDX 23 24 24 25 25 26 26 27 27 28 28 29 29 30 90 31 30 32 89 33
REMARK SMILES IDX 31 34 32 35 33 36 83 37 34 38 88 39 82 40 84 41 35 42 87 43
REMARK SMILES IDX 81 44 80 45 36 47 68 48 48 49 67 50 49 51 52 52 66 53 85 54
REMARK SMILES IDX 50 55 51 56 65 58 86 59 53 60 37 61 38 62 46 63 39 64 45 65
REMARK SMILES IDX 47 66 44 67 40 68 41 69 42 70 43 71 69 72 70 73 78 74 71 75
REMARK SMILES IDX 77 76 79 77 76 78 72 79 73 80 74 81 75 82 54 83 55 84 63 85
REMARK SMILES IDX 56 86 62 87 64 88 61 89 57 90 58 91 59 92 60 93
REMARK H PARENT 8 22 84 46 52 57
REMARK Flexibility Score: inf
ROOT
ATOM      1  C   UNL     1      -1.416   5.156  -3.027  1.00  0.00     0.202 C 
ENDROOT
BRANCH   1   2
ATOM      2  C   UNL     1      -0.702   3.796  -3.080  1.00  0.00     0.261 C 
BRANCH   2   3
ATOM      3  O   UNL     1       0.518   3.672  -2.319  1.00  0.00    -0.463 OA
BRANCH   3   4
ATOM      4  C   UNL     1       1.637   3.843  -3.063  1.00  0.00     0.310 C 
ATOM      5  O   UNL     1       1.632   4.245  -4.226  1.00  0.00    -0.252 OA
BRANCH   4   6
ATOM      6  C   UNL     1       2.937   3.427  -2.412  1.00  0.00     0.115 C 
ATOM      7  C   UNL     1       3.201   3.548  -0.900  1.00  0.00     0.097 C 
ATOM      8  C   UNL     1       4.748   3.487  -0.714  1.00  0.00     0.041 C 
ATOM      9  C   UNL     1       5.423   2.425  -1.553  1.00  0.00    -0.030 C 
ATOM     10  C   UNL     1       3.388   2.072  -2.967  1.00  0.00     0.043 C 
ATOM     11  C   UNL     1       4.797   1.761  -2.540  1.00  0.00    -0.030 C 
BRANCH   7  12
ATOM     12  C   UNL     1       2.606   2.415  -0.041  1.00  0.00     0.226 C 
ATOM     13  O   UNL     1       3.207   1.342   0.067  1.00  0.00    -0.275 OA
BRANCH  12  14
ATOM     14  N   UNL     1       1.401   2.601   0.613  1.00  0.00    -0.340 N 
BRANCH  14  15
ATOM     15  C   UNL     1       0.792   1.429   1.273  1.00  0.00     0.116 C 
ATOM     16  C   UNL     1       0.565   0.233   0.348  1.00  0.00     0.027 C 
ENDBRANCH  14  15
BRANCH  14  17
ATOM     17  C   UNL     1       0.837   3.913   0.970  1.00  0.00     0.154 C 
BRANCH  17  18
ATOM     18  C   UNL     1       1.280   4.494   2.354  1.00  0.00     0.077 C 
ATOM     19  C   UNL     1       2.768   4.848   2.357  1.00  0.00     0.043 C 
ATOM     20  C   UNL     1       0.499   5.765   2.724  1.00  0.00     0.043 C 
BRANCH  18  21
ATOM     21  O   UNL     1       1.022   3.535   3.384  1.00  0.00    -0.389 OA
ATOM     22  H   UNL     1       1.499   2.714   3.188  1.00  0.00     0.211 HD
ENDBRANCH  18  21
ENDBRANCH  17  18
ENDBRANCH  14  17
ENDBRANCH  12  14
ENDBRANCH   7  12
ENDBRANCH   4   6
ENDBRANCH   3   4
ENDBRANCH   2   3
ENDBRANCH   1   2
BRANCH   1  23
ATOM     23  O   UNL     1      -0.607   6.323  -3.088  1.00  0.00    -0.374 OA
BRANCH  23  24
ATOM     24  C   UNL     1       0.073   6.699  -1.892  1.00  0.00     0.202 C 
BRANCH  24  25
ATOM     25  C   UNL     1      -0.820   7.005  -0.683  1.00  0.00     0.261 C 
BRANCH  25  26
ATOM     26  O   UNL     1      -1.366   5.800  -0.094  1.00  0.00    -0.460 OA
BRANCH  26  27
ATOM     27  C   UNL     1      -2.631   5.924   0.386  1.00  0.00     0.338 C 
ATOM     28  O   UNL     1      -3.285   6.959   0.417  1.00  0.00    -0.246 OA
BRANCH  27  29
ATOM     29  C   UNL     1      -3.202   4.617   0.782  1.00  0.00     0.060 A 
ATOM     30  C   UNL     1      -4.404   4.209   0.201  1.00  0.00     0.016 A 
ATOM     31  C   UNL     1      -2.648   3.851   1.810  1.00  0.00     0.016 A 
ATOM     32  C   UNL     1      -5.068   3.078   0.691  1.00  0.00     0.010 A 
ATOM     33  C   UNL     1      -3.276   2.689   2.258  1.00  0.00     0.010 A 
ATOM     34  C   UNL     1      -4.525   2.329   1.749  1.00  0.00    -0.014 A 
BRANCH  34  35
ATOM     35  C   UNL     1      -5.301   1.236   2.387  1.00  0.00     0.031 A 
ATOM     36  C   UNL     1      -5.854   1.410   3.780  1.00  0.00     0.074 A 
ATOM     37  C   UNL     1      -5.497   0.081   1.725  1.00  0.00     0.049 A 
ATOM     38  N   UNL     1      -6.656   0.629   4.459  1.00  0.00    -0.248 NA
ATOM     39  C   UNL     1      -5.424   2.608   4.517  1.00  0.00     0.031 C 
ATOM     40  C   UNL     1      -4.941  -0.239   0.411  1.00  0.00     0.029 A 
ATOM     41  N   UNL     1      -6.222  -1.032   2.065  1.00  0.00    -0.354 N 
ATOM     42  C   UNL     1      -6.828   1.240   5.698  1.00  0.00     0.074 A 
ATOM     43  C   UNL     1      -5.984   2.416   5.701  1.00  0.00     0.031 C 
ATOM     44  C   UNL     1      -5.380  -1.452   0.036  1.00  0.00     0.029 A 
ATOM     45  C   UNL     1      -6.237  -1.996   1.086  1.00  0.00     0.049 A 
ATOM     46  H   UNL     1      -6.687  -1.131   2.927  1.00  0.00     0.167 HD
ATOM     47  C   UNL     1      -7.637   0.874   6.725  1.00  0.00     0.034 A 
ATOM     48  C   UNL     1      -6.892  -3.172   1.031  1.00  0.00     0.034 A 
ATOM     49  C   UNL     1      -8.469  -0.306   6.700  1.00  0.00     0.049 A 
ATOM     50  C   UNL     1      -7.803  -3.556   2.168  1.00  0.00     0.074 A 
ATOM     51  C   UNL     1      -9.390  -0.737   7.639  1.00  0.00     0.029 A 
ATOM     52  N   UNL     1      -8.464  -1.259   5.688  1.00  0.00    -0.354 N 
ATOM     53  N   UNL     1      -8.053  -2.909   3.283  1.00  0.00    -0.248 NA
ATOM     54  C   UNL     1      -8.542  -4.816   2.022  1.00  0.00     0.031 C 
ATOM     55  C   UNL     1      -9.889  -1.979   7.229  1.00  0.00     0.029 A 
ATOM     56  C   UNL     1      -9.338  -2.290   5.996  1.00  0.00     0.049 A 
ATOM     57  H   UNL     1      -7.918  -1.208   4.870  1.00  0.00     0.167 HD
ATOM     58  C   UNL     1      -9.007  -3.669   3.956  1.00  0.00     0.074 A 
ATOM     59  C   UNL     1      -9.292  -4.814   3.115  1.00  0.00     0.031 C 
ATOM     60  C   UNL     1      -9.601  -3.435   5.155  1.00  0.00     0.034 A 
BRANCH  47  61
ATOM     61  C   UNL     1      -7.638   1.749   7.960  1.00  0.00     0.023 A 
ATOM     62  C   UNL     1      -8.013   3.105   7.905  1.00  0.00     0.031 A 
ATOM     63  C   UNL     1      -7.227   1.237   9.204  1.00  0.00     0.131 A 
ATOM     64  C   UNL     1      -7.881   3.919   9.041  1.00  0.00     0.055 A 
ATOM     65  C   UNL     1      -7.184   2.032  10.352  1.00  0.00     0.041 A 
ATOM     66  F   UNL     1      -6.840  -0.043   9.323  1.00  0.00    -0.206 F 
ATOM     67  C   UNL     1      -7.494   3.386  10.271  1.00  0.00     0.022 A 
BRANCH  64  68
ATOM     68  S   UNL     1      -8.061   5.714   8.845  1.00  0.00     0.124 S 
ATOM     69  O   UNL     1      -7.060   6.001   7.819  1.00  0.00    -0.237 OA
ATOM     70  O   UNL     1      -9.453   5.849   8.434  1.00  0.00    -0.237 OA
ATOM     71  O   UNL     1      -7.747   6.238  10.172  1.00  0.00    -0.744 OA
ENDBRANCH  64  68
ENDBRANCH  47  61
BRANCH  48  72
ATOM     72  C   UNL     1      -6.755  -4.043  -0.169  1.00  0.00     0.023 A 
ATOM     73  C   UNL     1      -7.837  -4.240  -1.041  1.00  0.00     0.031 A 
ATOM     74  C   UNL     1      -5.542  -4.691  -0.460  1.00  0.00     0.131 A 
ATOM     75  C   UNL     1      -7.697  -5.092  -2.147  1.00  0.00     0.055 A 
ATOM     76  C   UNL     1      -5.395  -5.505  -1.584  1.00  0.00     0.041 A 
ATOM     77  F   UNL     1      -4.475  -4.523   0.337  1.00  0.00    -0.206 F 
ATOM     78  C   UNL     1      -6.480  -5.717  -2.430  1.00  0.00     0.022 A 
BRANCH  75  79
ATOM     79  S   UNL     1      -9.149  -5.412  -3.184  1.00  0.00     0.124 S 
ATOM     80  O   UNL     1     -10.082  -5.989  -2.222  1.00  0.00    -0.237 OA
ATOM     81  O   UNL     1      -9.474  -4.075  -3.671  1.00  0.00    -0.237 OA
ATOM     82  O   UNL     1      -8.646  -6.336  -4.198  1.00  0.00    -0.744 OA
ENDBRANCH  75  79
ENDBRANCH  48  72
BRANCH  60  83
ATOM     83  C   UNL     1     -10.651  -4.423   5.601  1.00  0.00     0.023 A 
ATOM     84  C   UNL     1     -10.329  -5.753   5.925  1.00  0.00     0.031 A 
ATOM     85  C   UNL     1     -12.000  -4.031   5.682  1.00  0.00     0.131 A 
ATOM     86  C   UNL     1     -11.349  -6.659   6.254  1.00  0.00     0.055 A 
ATOM     87  C   UNL     1     -13.002  -4.921   6.069  1.00  0.00     0.041 A 
ATOM     88  F   UNL     1     -12.365  -2.774   5.383  1.00  0.00    -0.206 F 
ATOM     89  C   UNL     1     -12.681  -6.247   6.344  1.00  0.00     0.022 A 
BRANCH  86  90
ATOM     90  S   UNL     1     -10.924  -8.409   6.466  1.00  0.00     0.124 S 
ATOM     91  O   UNL     1     -10.315  -8.732   5.179  1.00  0.00    -0.237 OA
ATOM     92  O   UNL     1     -10.018  -8.374   7.609  1.00  0.00    -0.237 OA
ATOM     93  O   UNL     1     -12.214  -9.048   6.718  1.00  0.00    -0.744 OA
ENDBRANCH  86  90
ENDBRANCH  60  83
ENDBRANCH  34  35
ENDBRANCH  27  29
ENDBRANCH  26  27
ENDBRANCH  25  26
ENDBRANCH  24  25
ENDBRANCH  23  24
ENDBRANCH   1  23
TORSDOF 23
