REMARK SMILES Cc1ccc(-c2nc(NC(=O)[C@H]3[C@@H](C(=O)OCCOCCOC(=O)c4ccc(-c5c6nc(c(-c7cc(S(=O)(=O)[O-])ccc7F)c7ccc([nH]7)c(-c7cc(S(=O)(=O)[O-])ccc7F)c7nc(c(-c8cc(S(=O)(=O)[O-])ccc8F)c8ccc5[nH]8)C=C7)C=C6)cc4)[C@@H]4CC[C@H]3O4)sc2C)cc1
REMARK SMILES IDX 19 1 18 2 17 3 16 4 14 5 15 6 13 7 12 8 91 9 88 10 90 11
REMARK SMILES IDX 92 12 89 13 10 14 9 15 11 17 8 18 6 19 7 20 94 21 93 22
REMARK SMILES IDX 95 23 5 24 1 25 2 26 3 27 97 28 4 29 96 30 20 31 21 32 22 33
REMARK SMILES IDX 23 34 24 35 25 36 26 37 87 38 27 39 86 40 28 41 29 42 30 43
REMARK SMILES IDX 80 44 31 45 85 46 79 47 81 48 32 49 84 50 78 51 77 52 33 54
REMARK SMILES IDX 65 55 45 56 64 57 46 58 49 59 63 60 82 61 47 62 48 63 62 65
REMARK SMILES IDX 83 66 50 67 34 68 35 69 43 70 36 71 42 72 44 73 41 74 37 75
REMARK SMILES IDX 38 76 39 77 40 78 66 79 67 80 75 81 68 82 74 83 76 84 73 85
REMARK SMILES IDX 69 86 70 87 71 88 72 89 51 90 52 91 60 92 53 93 59 94 61 95
REMARK SMILES IDX 58 96 54 97 55 98 56 99 57 100
REMARK H PARENT 9 16 81 53 49 64
REMARK Flexibility Score: inf
ROOT
ATOM      1  O   UNL     1      -7.721   2.353  -2.594  1.00  0.00    -0.374 OA
ENDROOT
BRANCH   1   2
ATOM      2  C   UNL     1      -7.032   1.267  -1.957  1.00  0.00     0.202 C 
BRANCH   2   3
ATOM      3  C   UNL     1      -7.169   1.302  -0.402  1.00  0.00     0.261 C 
BRANCH   3   4
ATOM      4  O   UNL     1      -8.452   1.384   0.352  1.00  0.00    -0.463 OA
BRANCH   4   5
ATOM      5  C   UNL     1      -9.320   0.621   1.062  1.00  0.00     0.312 C 
ATOM      6  O   UNL     1      -9.857   1.001   2.106  1.00  0.00    -0.252 OA
BRANCH   5   7
ATOM      7  C   UNL     1      -9.793  -0.652   0.498  1.00  0.00     0.143 C 
ATOM      8  C   UNL     1      -9.464  -0.789  -0.936  1.00  0.00     0.124 C 
ATOM      9  C   UNL     1     -10.397  -1.946  -1.296  1.00  0.00     0.132 C 
ATOM     10  C   UNL     1     -11.318  -1.002   0.432  1.00  0.00     0.133 C 
ATOM     11  C   UNL     1     -10.550  -3.097  -0.264  1.00  0.00     0.035 C 
ATOM     12  O   UNL     1     -11.611  -1.201  -1.002  1.00  0.00    -0.373 OA
ATOM     13  C   UNL     1     -11.516  -2.472   0.766  1.00  0.00     0.036 C 
BRANCH   8  14
ATOM     14  C   UNL     1      -9.867   0.378  -1.906  1.00  0.00     0.232 C 
ATOM     15  N   UNL     1     -10.111   1.710  -1.726  1.00  0.00    -0.302 N 
ATOM     16  H   UNL     1     -10.026   2.133  -2.610  1.00  0.00     0.172 HD
ATOM     17  O   UNL     1      -9.764   0.058  -3.114  1.00  0.00    -0.274 OA
BRANCH  15  18
ATOM     18  C   UNL     1     -10.427   2.718  -0.835  1.00  0.00     0.190 A 
ATOM     19  C   UNL     1     -10.233   4.769   0.070  1.00  0.00     0.086 A 
ATOM     20  N   UNL     1      -9.848   3.901  -0.953  1.00  0.00    -0.220 NA
ATOM     21  C   UNL     1     -11.364   4.344   0.738  1.00  0.00     0.031 A 
ATOM     22  S   UNL     1     -11.761   2.718   0.220  1.00  0.00    -0.101 S 
ATOM     23  C   UNL     1     -12.129   5.029   1.811  1.00  0.00     0.059 C 
BRANCH  19  24
ATOM     24  C   UNL     1      -9.324   5.869   0.498  1.00  0.00     0.001 A 
ATOM     25  C   UNL     1      -5.444   8.833   1.712  1.00  0.00     0.044 C 
ATOM     26  C   UNL     1      -6.158   7.565   1.260  1.00  0.00    -0.051 A 
ATOM     27  C   UNL     1      -6.855   7.628  -0.398  1.00  0.00     0.004 A 
ATOM     28  C   UNL     1      -6.987   6.617   2.555  1.00  0.00     0.004 A 
ATOM     29  C   UNL     1      -8.397   6.728  -0.789  1.00  0.00     0.010 A 
ATOM     30  C   UNL     1      -8.659   5.910   2.203  1.00  0.00     0.010 A 
ENDBRANCH  19  24
ENDBRANCH  15  18
ENDBRANCH   8  14
ENDBRANCH   5   7
ENDBRANCH   4   5
ENDBRANCH   3   4
ENDBRANCH   2   3
ENDBRANCH   1   2
BRANCH   1  31
ATOM     31  C   UNL     1      -7.898   2.347  -4.013  1.00  0.00     0.202 C 
BRANCH  31  32
ATOM     32  C   UNL     1      -6.677   2.086  -4.897  1.00  0.00     0.261 C 
BRANCH  32  33
ATOM     33  O   UNL     1      -5.799   3.229  -5.001  1.00  0.00    -0.460 OA
BRANCH  33  34
ATOM     34  C   UNL     1      -4.751   3.272  -4.124  1.00  0.00     0.338 C 
ATOM     35  O   UNL     1      -3.770   2.554  -4.192  1.00  0.00    -0.246 OA
BRANCH  34  36
ATOM     36  C   UNL     1      -5.019   4.273  -3.046  1.00  0.00     0.060 A 
ATOM     37  C   UNL     1      -4.257   4.399  -1.872  1.00  0.00     0.016 A 
ATOM     38  C   UNL     1      -6.252   4.865  -3.084  1.00  0.00     0.016 A 
ATOM     39  C   UNL     1      -4.813   5.025  -0.716  1.00  0.00     0.010 A 
ATOM     40  C   UNL     1      -6.864   5.035  -1.873  1.00  0.00     0.010 A 
ATOM     41  C   UNL     1      -6.194   5.299  -0.670  1.00  0.00    -0.014 A 
BRANCH  41  42
ATOM     42  C   UNL     1      -7.166   5.703   0.665  1.00  0.00     0.031 A 
ATOM     43  C   UNL     1      -8.235   7.526   1.114  1.00  0.00     0.074 A 
ATOM     44  C   UNL     1      -7.157   4.341   1.256  1.00  0.00     0.049 A 
ATOM     45  N   UNL     1      -8.406   8.175   2.331  1.00  0.00    -0.248 NA
ATOM     46  C   UNL     1      -9.195   8.606   0.270  1.00  0.00     0.031 C 
ATOM     47  C   UNL     1      -8.215   3.601   2.045  1.00  0.00     0.029 A 
ATOM     48  N   UNL     1      -6.075   3.462   1.503  1.00  0.00    -0.354 N 
ATOM     49  C   UNL     1      -9.608   8.778   2.482  1.00  0.00     0.074 A 
ATOM     50  C   UNL     1      -9.995   9.177   1.169  1.00  0.00     0.031 C 
ATOM     51  C   UNL     1      -7.721   2.701   2.874  1.00  0.00     0.029 A 
ATOM     52  C   UNL     1      -6.334   2.635   2.599  1.00  0.00     0.049 A 
ATOM     53  H   UNL     1      -5.248   3.436   0.971  1.00  0.00     0.167 HD
ATOM     54  C   UNL     1     -10.251   8.759   3.685  1.00  0.00     0.034 A 
ATOM     55  C   UNL     1      -5.519   2.139   3.538  1.00  0.00     0.034 A 
ATOM     56  C   UNL     1      -9.873   7.630   4.595  1.00  0.00     0.049 A 
ATOM     57  C   UNL     1      -5.808   2.915   4.810  1.00  0.00     0.074 A 
ATOM     58  C   UNL     1     -10.577   6.499   4.998  1.00  0.00     0.029 A 
ATOM     59  N   UNL     1      -8.572   7.423   5.085  1.00  0.00    -0.354 N 
ATOM     60  N   UNL     1      -6.525   4.029   4.822  1.00  0.00    -0.248 NA
ATOM     61  C   UNL     1      -5.422   2.493   6.148  1.00  0.00     0.031 C 
ATOM     62  C   UNL     1      -9.678   5.587   5.632  1.00  0.00     0.029 A 
ATOM     63  C   UNL     1      -8.418   6.166   5.702  1.00  0.00     0.049 A 
ATOM     64  H   UNL     1      -7.847   8.085   5.006  1.00  0.00     0.167 HD
ATOM     65  C   UNL     1      -6.644   4.500   6.101  1.00  0.00     0.074 A 
ATOM     66  C   UNL     1      -5.956   3.479   6.892  1.00  0.00     0.031 C 
ATOM     67  C   UNL     1      -7.196   5.722   6.423  1.00  0.00     0.034 A 
BRANCH  54  68
ATOM     68  C   UNL     1     -11.454   9.649   3.889  1.00  0.00     0.023 A 
ATOM     69  C   UNL     1     -12.376   9.398   4.915  1.00  0.00     0.031 A 
ATOM     70  C   UNL     1     -11.655  10.855   3.170  1.00  0.00     0.131 A 
ATOM     71  C   UNL     1     -13.450  10.279   5.146  1.00  0.00     0.055 A 
ATOM     72  C   UNL     1     -12.779  11.666   3.325  1.00  0.00     0.041 A 
ATOM     73  F   UNL     1     -10.727  11.342   2.331  1.00  0.00    -0.206 F 
ATOM     74  C   UNL     1     -13.687  11.381   4.326  1.00  0.00     0.022 A 
BRANCH  71  75
ATOM     75  S   UNL     1     -14.464  10.045   6.628  1.00  0.00     0.124 S 
ATOM     76  O   UNL     1     -15.008   8.707   6.422  1.00  0.00    -0.237 OA
ATOM     77  O   UNL     1     -13.478  10.188   7.693  1.00  0.00    -0.237 OA
ATOM     78  O   UNL     1     -15.440  11.130   6.543  1.00  0.00    -0.744 OA
ENDBRANCH  71  75
ENDBRANCH  54  68
BRANCH  55  79
ATOM     79  C   UNL     1      -4.479   1.270   2.943  1.00  0.00     0.023 A 
ATOM     80  C   UNL     1      -4.899  -0.021   2.498  1.00  0.00     0.031 A 
ATOM     81  C   UNL     1      -3.431   1.878   2.236  1.00  0.00     0.131 A 
ATOM     82  C   UNL     1      -4.372  -0.583   1.315  1.00  0.00     0.055 A 
ATOM     83  C   UNL     1      -2.927   1.324   1.051  1.00  0.00     0.041 A 
ATOM     84  F   UNL     1      -3.052   3.126   2.550  1.00  0.00    -0.206 F 
ATOM     85  C   UNL     1      -3.417   0.111   0.569  1.00  0.00     0.022 A 
BRANCH  82  86
ATOM     86  S   UNL     1      -5.130  -2.065   0.548  1.00  0.00     0.124 S 
ATOM     87  O   UNL     1      -4.190  -3.116   0.920  1.00  0.00    -0.237 OA
ATOM     88  O   UNL     1      -6.453  -2.138   1.164  1.00  0.00    -0.237 OA
ATOM     89  O   UNL     1      -5.161  -1.716  -0.872  1.00  0.00    -0.744 OA
ENDBRANCH  82  86
ENDBRANCH  55  79
BRANCH  67  90
ATOM     90  C   UNL     1      -6.665   6.516   7.607  1.00  0.00     0.023 A 
ATOM     91  C   UNL     1      -5.496   6.147   8.297  1.00  0.00     0.031 A 
ATOM     92  C   UNL     1      -7.239   7.737   8.023  1.00  0.00     0.131 A 
ATOM     93  C   UNL     1      -5.021   6.872   9.398  1.00  0.00     0.055 A 
ATOM     94  C   UNL     1      -6.705   8.518   9.054  1.00  0.00     0.041 A 
ATOM     95  F   UNL     1      -8.324   8.253   7.434  1.00  0.00    -0.206 F 
ATOM     96  C   UNL     1      -5.604   8.075   9.769  1.00  0.00     0.022 A 
BRANCH  93  97
ATOM     97  S   UNL     1      -3.676   6.146  10.369  1.00  0.00     0.124 S 
ATOM     98  O   UNL     1      -4.279   4.896  10.825  1.00  0.00    -0.237 OA
ATOM     99  O   UNL     1      -2.612   6.009   9.380  1.00  0.00    -0.237 OA
ATOM    100  O   UNL     1      -3.433   7.137  11.414  1.00  0.00    -0.744 OA
ENDBRANCH  93  97
ENDBRANCH  67  90
ENDBRANCH  41  42
ENDBRANCH  34  36
ENDBRANCH  33  34
ENDBRANCH  32  33
ENDBRANCH  31  32
ENDBRANCH   1  31
TORSDOF 20
