REMARK SMILES CC[C@H](C)[C@H](NC(=O)CN1C(=O)/C(=C/c2ccc(C)cc2)SC1=S)C(=O)OCCOCCOC(=O)c1ccc(-c2c3nc(c(-c4cc(S(=O)(=O)[O-])ccc4F)c4ccc([nH]4)c(-c4cc(S(=O)(=O)[O-])ccc4F)c4nc(c(-c5cc(S(=O)(=O)[O-])ccc5F)c5ccc2[nH]5)C=C4)C=C3)cc1
REMARK SMILES IDX 29 1 28 2 27 3 25 4 26 5 5 6 3 7 4 8 2 9 1 10 6 11 7 12 8 14
REMARK SMILES IDX 9 15 10 16 11 17 23 18 12 19 13 20 22 21 24 22 14 23 15 24
REMARK SMILES IDX 16 25 21 26 17 27 20 28 18 29 19 30 30 31 31 32 32 33 33 34
REMARK SMILES IDX 34 35 35 36 36 37 37 38 98 39 38 40 97 41 39 42 40 43 41 44
REMARK SMILES IDX 91 45 42 46 96 47 90 48 92 49 43 50 95 51 89 52 88 53 44 55
REMARK SMILES IDX 76 56 56 57 75 58 57 59 60 60 74 61 93 62 58 63 59 64 73 66
REMARK SMILES IDX 94 67 61 68 45 69 46 70 54 71 47 72 53 73 55 74 52 75 48 76
REMARK SMILES IDX 49 77 50 78 51 79 77 80 78 81 86 82 79 83 85 84 87 85 84 86
REMARK SMILES IDX 80 87 81 88 82 89 83 90 62 91 63 92 71 93 64 94 70 95 72 96
REMARK SMILES IDX 69 97 65 98 66 99 67 100 68 101
REMARK H PARENT 6 13 92 54 60 65
REMARK Flexibility Score: inf
ROOT
ATOM      1  C   UNL     1      -0.538  -4.455  -4.263  1.00  0.00     0.202 C 
ENDROOT
BRANCH   1   2
ATOM      2  C   UNL     1       0.770  -3.735  -4.712  1.00  0.00     0.261 C 
BRANCH   2   3
ATOM      3  O   UNL     1       1.091  -2.459  -4.168  1.00  0.00    -0.462 OA
BRANCH   3   4
ATOM      4  C   UNL     1       0.371  -1.397  -4.542  1.00  0.00     0.328 C 
ATOM      5  O   UNL     1      -0.394  -1.465  -5.488  1.00  0.00    -0.250 OA
BRANCH   4   6
ATOM      6  C   UNL     1       0.439  -0.288  -3.461  1.00  0.00     0.195 C 
BRANCH   6   7
ATOM      7  C   UNL     1       0.498   1.203  -3.883  1.00  0.00     0.019 C 
ATOM      8  C   UNL     1       1.896   1.692  -4.256  1.00  0.00     0.010 C 
BRANCH   7   9
ATOM      9  C   UNL     1      -0.641   1.764  -4.779  1.00  0.00     0.002 C 
ATOM     10  C   UNL     1      -1.134   1.018  -6.003  1.00  0.00     0.004 C 
ENDBRANCH   7   9
ENDBRANCH   6   7
BRANCH   6  11
ATOM     11  N   UNL     1       1.351  -0.543  -2.295  1.00  0.00    -0.341 N 
ATOM     12  C   UNL     1       1.288  -1.596  -1.421  1.00  0.00     0.240 C 
ATOM     13  H   UNL     1       2.067   0.116  -2.143  1.00  0.00     0.164 HD
ATOM     14  O   UNL     1       0.896  -1.391  -0.264  1.00  0.00    -0.273 OA
BRANCH  12  15
ATOM     15  C   UNL     1       1.637  -3.026  -1.845  1.00  0.00     0.227 C 
BRANCH  15  16
ATOM     16  N   UNL     1       0.462  -3.926  -2.169  1.00  0.00    -0.283 N 
ATOM     17  C   UNL     1       0.501  -5.740  -2.646  1.00  0.00     0.266 C 
ATOM     18  C   UNL     1      -1.163  -3.305  -1.685  1.00  0.00     0.148 C 
ATOM     19  O   UNL     1       1.284  -6.622  -2.939  1.00  0.00    -0.268 OA
ATOM     20  C   UNL     1      -1.254  -6.544  -2.261  1.00  0.00     0.081 C 
ATOM     21  S   UNL     1      -2.659  -5.024  -1.527  1.00  0.00    -0.054 SA
ATOM     22  S   UNL     1      -1.979  -1.841  -1.623  1.00  0.00    -0.052 S 
ATOM     23  C   UNL     1      -1.549  -7.718  -2.821  1.00  0.00     0.029 C 
BRANCH  23  24
ATOM     24  C   UNL     1      -2.548  -7.946  -3.872  1.00  0.00    -0.024 A 
ATOM     25  C   UNL     1      -2.075  -8.752  -4.924  1.00  0.00     0.008 A 
ATOM     26  C   UNL     1      -3.836  -7.423  -3.967  1.00  0.00     0.008 A 
ATOM     27  C   UNL     1      -2.884  -9.106  -5.993  1.00  0.00     0.004 A 
ATOM     28  C   UNL     1      -4.656  -7.775  -5.052  1.00  0.00     0.004 A 
ATOM     29  C   UNL     1      -4.200  -8.658  -6.042  1.00  0.00    -0.051 A 
ATOM     30  C   UNL     1      -5.109  -9.160  -7.120  1.00  0.00     0.044 C 
ENDBRANCH  23  24
ENDBRANCH  15  16
ENDBRANCH  12  15
ENDBRANCH   6  11
ENDBRANCH   4   6
ENDBRANCH   3   4
ENDBRANCH   2   3
ENDBRANCH   1   2
BRANCH   1  31
ATOM     31  O   UNL     1      -0.989  -4.779  -2.755  1.00  0.00    -0.374 OA
BRANCH  31  32
ATOM     32  C   UNL     1      -0.215  -5.197  -0.915  1.00  0.00     0.202 C 
BRANCH  32  33
ATOM     33  C   UNL     1       1.561  -5.754  -0.609  1.00  0.00     0.261 C 
BRANCH  33  34
ATOM     34  O   UNL     1       2.715  -5.409  -1.684  1.00  0.00    -0.460 OA
BRANCH  34  35
ATOM     35  C   UNL     1       3.640  -6.186  -2.418  1.00  0.00     0.338 C 
ATOM     36  O   UNL     1       4.590  -6.762  -1.897  1.00  0.00    -0.246 OA
BRANCH  35  37
ATOM     37  C   UNL     1       3.587  -6.071  -4.004  1.00  0.00     0.060 A 
ATOM     38  C   UNL     1       4.481  -5.272  -4.697  1.00  0.00     0.016 A 
ATOM     39  C   UNL     1       2.723  -6.793  -4.869  1.00  0.00     0.016 A 
ATOM     40  C   UNL     1       4.261  -4.958  -6.071  1.00  0.00     0.010 A 
ATOM     41  C   UNL     1       2.386  -6.334  -6.176  1.00  0.00     0.010 A 
ATOM     42  C   UNL     1       3.034  -5.230  -6.709  1.00  0.00    -0.014 A 
BRANCH  42  43
ATOM     43  C   UNL     1       2.349  -4.177  -7.583  1.00  0.00     0.031 A 
ATOM     44  C   UNL     1       1.145  -4.300  -8.524  1.00  0.00     0.074 A 
ATOM     45  C   UNL     1       2.510  -2.870  -7.205  1.00  0.00     0.049 A 
ATOM     46  N   UNL     1       0.945  -3.538  -9.576  1.00  0.00    -0.248 NA
ATOM     47  C   UNL     1      -0.031  -5.122  -8.219  1.00  0.00     0.031 C 
ATOM     48  C   UNL     1       1.657  -1.740  -7.590  1.00  0.00     0.029 A 
ATOM     49  N   UNL     1       3.407  -2.253  -6.338  1.00  0.00    -0.354 N 
ATOM     50  C   UNL     1      -0.420  -3.557  -9.868  1.00  0.00     0.074 A 
ATOM     51  C   UNL     1      -0.949  -4.646  -9.072  1.00  0.00     0.031 C 
ATOM     52  C   UNL     1       2.207  -0.592  -7.188  1.00  0.00     0.029 A 
ATOM     53  C   UNL     1       3.495  -0.905  -6.631  1.00  0.00     0.049 A 
ATOM     54  H   UNL     1       3.905  -2.708  -5.621  1.00  0.00     0.167 HD
ATOM     55  C   UNL     1      -1.112  -2.549 -10.506  1.00  0.00     0.034 A 
ATOM     56  C   UNL     1       4.649  -0.230  -6.865  1.00  0.00     0.034 A 
ATOM     57  C   UNL     1      -0.409  -1.258 -10.493  1.00  0.00     0.049 A 
ATOM     58  C   UNL     1       4.583   0.354  -8.249  1.00  0.00     0.074 A 
ATOM     59  C   UNL     1      -0.752  -0.032  -9.936  1.00  0.00     0.029 A 
ATOM     60  N   UNL     1       0.913  -1.125 -10.920  1.00  0.00    -0.354 N 
ATOM     61  N   UNL     1       3.734  -0.105  -9.132  1.00  0.00    -0.248 NA
ATOM     62  C   UNL     1       5.317   1.511  -8.745  1.00  0.00     0.031 C 
ATOM     63  C   UNL     1       0.364   0.834 -10.033  1.00  0.00     0.029 A 
ATOM     64  C   UNL     1       1.391   0.149 -10.661  1.00  0.00     0.049 A 
ATOM     65  H   UNL     1       1.436  -1.841 -11.349  1.00  0.00     0.167 HD
ATOM     66  C   UNL     1       3.665   0.742 -10.190  1.00  0.00     0.074 A 
ATOM     67  C   UNL     1       4.737   1.695  -9.950  1.00  0.00     0.031 C 
ATOM     68  C   UNL     1       2.689   0.622 -11.135  1.00  0.00     0.034 A 
BRANCH  55  69
ATOM     69  C   UNL     1      -2.607  -2.646 -10.917  1.00  0.00     0.023 A 
ATOM     70  C   UNL     1      -3.421  -1.507 -11.175  1.00  0.00     0.031 A 
ATOM     71  C   UNL     1      -3.243  -3.879 -11.183  1.00  0.00     0.131 A 
ATOM     72  C   UNL     1      -4.784  -1.623 -11.556  1.00  0.00     0.055 A 
ATOM     73  C   UNL     1      -4.604  -3.997 -11.519  1.00  0.00     0.041 A 
ATOM     74  F   UNL     1      -2.554  -5.030 -11.182  1.00  0.00    -0.206 F 
ATOM     75  C   UNL     1      -5.386  -2.868 -11.693  1.00  0.00     0.022 A 
BRANCH  72  76
ATOM     76  S   UNL     1      -5.771  -0.135 -11.944  1.00  0.00     0.124 S 
ATOM     77  O   UNL     1      -5.802   0.563 -10.664  1.00  0.00    -0.237 OA
ATOM     78  O   UNL     1      -4.992   0.492 -13.006  1.00  0.00    -0.237 OA
ATOM     79  O   UNL     1      -7.059  -0.681 -12.376  1.00  0.00    -0.744 OA
ENDBRANCH  72  76
ENDBRANCH  55  69
BRANCH  56  80
ATOM     80  C   UNL     1       5.776  -0.678  -6.013  1.00  0.00     0.023 A 
ATOM     81  C   UNL     1       5.624  -0.362  -4.642  1.00  0.00     0.031 A 
ATOM     82  C   UNL     1       6.588  -1.774  -6.343  1.00  0.00     0.131 A 
ATOM     83  C   UNL     1       6.112  -1.225  -3.653  1.00  0.00     0.055 A 
ATOM     84  C   UNL     1       7.122  -2.607  -5.345  1.00  0.00     0.041 A 
ATOM     85  F   UNL     1       6.709  -2.173  -7.617  1.00  0.00    -0.206 F 
ATOM     86  C   UNL     1       6.848  -2.359  -3.998  1.00  0.00     0.022 A 
BRANCH  83  87
ATOM     87  S   UNL     1       5.566  -1.025  -1.927  1.00  0.00     0.124 S 
ATOM     88  O   UNL     1       6.802  -0.621  -1.267  1.00  0.00    -0.237 OA
ATOM     89  O   UNL     1       4.530   0.000  -2.008  1.00  0.00    -0.237 OA
ATOM     90  O   UNL     1       5.074  -2.363  -1.603  1.00  0.00    -0.744 OA
ENDBRANCH  83  87
ENDBRANCH  56  80
BRANCH  68  91
ATOM     91  C   UNL     1       2.828   1.093 -12.554  1.00  0.00     0.023 A 
ATOM     92  C   UNL     1       4.065   1.477 -13.083  1.00  0.00     0.031 A 
ATOM     93  C   UNL     1       1.758   1.000 -13.476  1.00  0.00     0.131 A 
ATOM     94  C   UNL     1       4.206   1.799 -14.439  1.00  0.00     0.055 A 
ATOM     95  C   UNL     1       1.914   1.258 -14.839  1.00  0.00     0.041 A 
ATOM     96  F   UNL     1       0.529   0.613 -13.104  1.00  0.00    -0.206 F 
ATOM     97  C   UNL     1       3.145   1.667 -15.330  1.00  0.00     0.022 A 
BRANCH  94  98
ATOM     98  S   UNL     1       5.813   2.415 -14.987  1.00  0.00     0.124 S 
ATOM     99  O   UNL     1       5.938   3.650 -14.217  1.00  0.00    -0.237 OA
ATOM    100  O   UNL     1       6.714   1.335 -14.597  1.00  0.00    -0.237 OA
ATOM    101  O   UNL     1       5.641   2.593 -16.427  1.00  0.00    -0.744 OA
ENDBRANCH  94  98
ENDBRANCH  68  91
ENDBRANCH  42  43
ENDBRANCH  35  37
ENDBRANCH  34  35
ENDBRANCH  33  34
ENDBRANCH  32  33
ENDBRANCH  31  32
ENDBRANCH   1  31
TORSDOF 23
