REMARK SMILES Cc1c(CC(=O)OCCOCCOC(=O)c2ccc(-c3c4nc(c(-c5cc(S(=O)(=O)[O-])ccc5F)c5ccc([nH]5)c(-c5cc(S(=O)(=O)[O-])ccc5F)c5nc(c(-c6cc(S(=O)(=O)[O-])ccc6F)c6ccc3[nH]6)C=C5)C=C4)cc2)c2ccccc2n1C(=O)c1ccc(Cl)cc1
REMARK SMILES IDX 10 1 9 2 8 3 7 4 5 5 6 6 4 7 3 8 1 9 2 10 85 11 79 12 84 13
REMARK SMILES IDX 80 14 83 15 81 16 82 17 86 18 87 19 88 20 89 21 94 22 90 23
REMARK SMILES IDX 93 24 91 25 92 26 11 27 12 28 13 29 14 30 15 31 16 32 17 33
REMARK SMILES IDX 78 34 18 35 77 36 19 37 20 38 21 39 71 40 22 41 76 42 70 43
REMARK SMILES IDX 72 44 23 45 75 46 69 47 68 48 24 50 56 51 36 52 55 53 37 54
REMARK SMILES IDX 40 55 54 56 73 57 38 58 39 59 53 61 74 62 41 63 25 64 26 65
REMARK SMILES IDX 34 66 27 67 33 68 35 69 32 70 28 71 29 72 30 73 31 74 57 75
REMARK SMILES IDX 58 76 66 77 59 78 65 79 67 80 64 81 60 82 61 83 62 84 63 85
REMARK SMILES IDX 42 86 43 87 51 88 44 89 50 90 52 91 49 92 45 93 46 94 47 95
REMARK SMILES IDX 48 96
REMARK H PARENT 72 49 40 60
REMARK Flexibility Score: inf
ROOT
ATOM      1  O   UNL     1      -0.104  -6.441   1.344  1.00  0.00    -0.374 OA
ENDROOT
BRANCH   1   2
ATOM      2  C   UNL     1      -0.728  -5.696   2.382  1.00  0.00     0.202 C 
BRANCH   2   3
ATOM      3  C   UNL     1      -0.171  -4.326   2.808  1.00  0.00     0.261 C 
BRANCH   3   4
ATOM      4  O   UNL     1       0.275  -3.481   1.731  1.00  0.00    -0.463 OA
BRANCH   4   5
ATOM      5  C   UNL     1       1.625  -3.379   1.620  1.00  0.00     0.310 C 
ATOM      6  O   UNL     1       2.425  -3.924   2.379  1.00  0.00    -0.252 OA
BRANCH   5   7
ATOM      7  C   UNL     1       2.132  -2.515   0.487  1.00  0.00     0.160 C 
BRANCH   7   8
ATOM      8  C   UNL     1       1.208  -2.120  -0.639  1.00  0.00    -0.008 A 
ATOM      9  C   UNL     1       0.741   0.278   0.136  1.00  0.00     0.065 C 
ATOM     10  C   UNL     1       0.602  -0.879  -0.808  1.00  0.00     0.028 A 
ATOM     11  N   UNL     1      -0.113  -0.869  -2.020  1.00  0.00    -0.280 N 
ATOM     12  C   UNL     1       0.933  -2.879  -1.812  1.00  0.00     0.004 A 
ATOM     13  C   UNL     1       0.063  -2.135  -2.619  1.00  0.00     0.056 A 
ATOM     14  C   UNL     1       1.367  -4.151  -2.260  1.00  0.00     0.010 A 
ATOM     15  C   UNL     1      -0.418  -2.702  -3.823  1.00  0.00     0.027 A 
ATOM     16  C   UNL     1       0.850  -4.715  -3.427  1.00  0.00     0.001 A 
ATOM     17  C   UNL     1      -0.049  -3.998  -4.192  1.00  0.00     0.002 A 
BRANCH  11  18
ATOM     18  C   UNL     1      -0.818   0.239  -2.585  1.00  0.00     0.262 C 
ATOM     19  O   UNL     1      -0.773   1.337  -2.033  1.00  0.00    -0.268 OA
BRANCH  18  20
ATOM     20  C   UNL     1      -1.562   0.230  -3.855  1.00  0.00     0.040 A 
ATOM     21  C   UNL     1      -2.792  -0.428  -3.962  1.00  0.00     0.015 A 
ATOM     22  C   UNL     1      -1.009   0.900  -4.954  1.00  0.00     0.015 A 
ATOM     23  C   UNL     1      -3.421  -0.498  -5.208  1.00  0.00     0.021 A 
ATOM     24  C   UNL     1      -1.650   0.838  -6.192  1.00  0.00     0.021 A 
ATOM     25  C   UNL     1      -2.841   0.121  -6.318  1.00  0.00     0.041 A 
ATOM     26  Cl  UNL     1      -3.587  -0.017  -7.863  1.00  0.00    -0.084 Cl
ENDBRANCH  18  20
ENDBRANCH  11  18
ENDBRANCH   7   8
ENDBRANCH   5   7
ENDBRANCH   4   5
ENDBRANCH   3   4
ENDBRANCH   2   3
ENDBRANCH   1   2
BRANCH   1  27
ATOM     27  C   UNL     1      -0.133  -5.887   0.032  1.00  0.00     0.202 C 
BRANCH  27  28
ATOM     28  C   UNL     1      -1.479  -5.654  -0.678  1.00  0.00     0.261 C 
BRANCH  28  29
ATOM     29  O   UNL     1      -2.335  -4.773   0.048  1.00  0.00    -0.460 OA
BRANCH  29  30
ATOM     30  C   UNL     1      -3.647  -5.131   0.031  1.00  0.00     0.338 C 
ATOM     31  O   UNL     1      -4.236  -5.762  -0.832  1.00  0.00    -0.246 OA
BRANCH  30  32
ATOM     32  C   UNL     1      -4.080  -4.969   1.426  1.00  0.00     0.060 A 
ATOM     33  C   UNL     1      -3.869  -3.750   2.077  1.00  0.00     0.016 A 
ATOM     34  C   UNL     1      -4.319  -6.156   2.138  1.00  0.00     0.016 A 
ATOM     35  C   UNL     1      -3.801  -3.745   3.462  1.00  0.00     0.010 A 
ATOM     36  C   UNL     1      -4.218  -6.149   3.522  1.00  0.00     0.010 A 
ATOM     37  C   UNL     1      -3.921  -4.951   4.177  1.00  0.00    -0.014 A 
BRANCH  37  38
ATOM     38  C   UNL     1      -3.998  -4.858   5.634  1.00  0.00     0.031 A 
ATOM     39  C   UNL     1      -5.262  -4.199   6.058  1.00  0.00     0.074 A 
ATOM     40  C   UNL     1      -3.152  -5.410   6.525  1.00  0.00     0.049 A 
ATOM     41  N   UNL     1      -5.414  -3.047   6.624  1.00  0.00    -0.248 NA
ATOM     42  C   UNL     1      -6.516  -4.813   5.587  1.00  0.00     0.031 C 
ATOM     43  C   UNL     1      -2.068  -6.360   6.270  1.00  0.00     0.029 A 
ATOM     44  N   UNL     1      -3.161  -5.318   7.888  1.00  0.00    -0.354 N 
ATOM     45  C   UNL     1      -6.792  -2.884   6.758  1.00  0.00     0.074 A 
ATOM     46  C   UNL     1      -7.401  -3.875   5.913  1.00  0.00     0.031 C 
ATOM     47  C   UNL     1      -1.686  -6.927   7.438  1.00  0.00     0.029 A 
ATOM     48  C   UNL     1      -2.401  -6.288   8.531  1.00  0.00     0.049 A 
ATOM     49  H   UNL     1      -3.663  -4.624   8.374  1.00  0.00     0.167 HD
ATOM     50  C   UNL     1      -7.334  -2.117   7.743  1.00  0.00     0.034 A 
ATOM     51  C   UNL     1      -2.431  -6.605   9.851  1.00  0.00     0.034 A 
ATOM     52  C   UNL     1      -6.344  -1.267   8.342  1.00  0.00     0.049 A 
ATOM     53  C   UNL     1      -3.059  -5.485  10.585  1.00  0.00     0.074 A 
ATOM     54  C   UNL     1      -5.595  -0.186   7.933  1.00  0.00     0.029 A 
ATOM     55  N   UNL     1      -5.754  -1.750   9.483  1.00  0.00    -0.354 N 
ATOM     56  N   UNL     1      -2.513  -4.316  10.752  1.00  0.00    -0.248 NA
ATOM     57  C   UNL     1      -4.492  -5.546  10.831  1.00  0.00     0.031 C 
ATOM     58  C   UNL     1      -4.367  -0.288   8.645  1.00  0.00     0.029 A 
ATOM     59  C   UNL     1      -4.432  -1.400   9.488  1.00  0.00     0.049 A 
ATOM     60  H   UNL     1      -6.210  -2.267  10.185  1.00  0.00     0.167 HD
ATOM     61  C   UNL     1      -3.572  -3.429  10.659  1.00  0.00     0.074 A 
ATOM     62  C   UNL     1      -4.766  -4.241  10.867  1.00  0.00     0.031 C 
ATOM     63  C   UNL     1      -3.392  -2.183  10.131  1.00  0.00     0.034 A 
BRANCH  50  64
ATOM     64  C   UNL     1      -8.646  -2.442   8.426  1.00  0.00     0.023 A 
ATOM     65  C   UNL     1      -9.334  -3.656   8.236  1.00  0.00     0.031 A 
ATOM     66  C   UNL     1      -9.121  -1.633   9.478  1.00  0.00     0.131 A 
ATOM     67  C   UNL     1     -10.426  -4.024   9.029  1.00  0.00     0.055 A 
ATOM     68  C   UNL     1     -10.169  -2.032  10.320  1.00  0.00     0.041 A 
ATOM     69  F   UNL     1      -8.541  -0.457   9.762  1.00  0.00    -0.206 F 
ATOM     70  C   UNL     1     -10.829  -3.235  10.098  1.00  0.00     0.022 A 
BRANCH  67  71
ATOM     71  S   UNL     1     -11.326  -5.560   8.679  1.00  0.00     0.124 S 
ATOM     72  O   UNL     1     -11.162  -6.297   9.927  1.00  0.00    -0.237 OA
ATOM     73  O   UNL     1     -12.671  -5.058   8.411  1.00  0.00    -0.237 OA
ATOM     74  O   UNL     1     -10.631  -6.109   7.518  1.00  0.00    -0.744 OA
ENDBRANCH  67  71
ENDBRANCH  50  64
BRANCH  51  75
ATOM     75  C   UNL     1      -2.390  -7.964  10.445  1.00  0.00     0.023 A 
ATOM     76  C   UNL     1      -2.920  -9.045   9.719  1.00  0.00     0.031 A 
ATOM     77  C   UNL     1      -2.172  -8.154  11.822  1.00  0.00     0.131 A 
ATOM     78  C   UNL     1      -3.277 -10.233  10.371  1.00  0.00     0.055 A 
ATOM     79  C   UNL     1      -2.509  -9.350  12.468  1.00  0.00     0.041 A 
ATOM     80  F   UNL     1      -1.705  -7.151  12.582  1.00  0.00    -0.206 F 
ATOM     81  C   UNL     1      -3.082 -10.391  11.744  1.00  0.00     0.022 A 
BRANCH  78  82
ATOM     82  S   UNL     1      -4.112 -11.558   9.458  1.00  0.00     0.124 S 
ATOM     83  O   UNL     1      -3.335 -12.734   9.843  1.00  0.00    -0.237 OA
ATOM     84  O   UNL     1      -5.462 -11.488  10.005  1.00  0.00    -0.237 OA
ATOM     85  O   UNL     1      -3.970 -11.154   8.062  1.00  0.00    -0.744 OA
ENDBRANCH  78  82
ENDBRANCH  51  75
BRANCH  63  86
ATOM     86  C   UNL     1      -1.982  -1.655   9.997  1.00  0.00     0.023 A 
ATOM     87  C   UNL     1      -1.739  -0.374  10.521  1.00  0.00     0.031 A 
ATOM     88  C   UNL     1      -0.966  -2.246   9.223  1.00  0.00     0.131 A 
ATOM     89  C   UNL     1      -0.551   0.299  10.224  1.00  0.00     0.055 A 
ATOM     90  C   UNL     1       0.256  -1.602   8.997  1.00  0.00     0.041 A 
ATOM     91  F   UNL     1      -1.149  -3.416   8.596  1.00  0.00    -0.206 F 
ATOM     92  C   UNL     1       0.460  -0.314   9.481  1.00  0.00     0.022 A 
BRANCH  89  93
ATOM     93  S   UNL     1      -0.372   2.050  10.650  1.00  0.00     0.124 S 
ATOM     94  O   UNL     1       0.730   2.024  11.608  1.00  0.00    -0.237 OA
ATOM     95  O   UNL     1      -0.063   2.653   9.355  1.00  0.00    -0.237 OA
ATOM     96  O   UNL     1      -1.673   2.415  11.204  1.00  0.00    -0.744 OA
ENDBRANCH  89  93
ENDBRANCH  63  86
ENDBRANCH  37  38
ENDBRANCH  30  32
ENDBRANCH  29  30
ENDBRANCH  28  29
ENDBRANCH  27  28
ENDBRANCH   1  27
TORSDOF 20
