REMARK SMILES CC[NH2+][C@]1(C(=O)OCCOCCOC(=O)c2ccc(-c3c4nc(c(-c5cc(S(=O)(=O)[O-])ccc5F)c5ccc([nH]5)c(-c5cc(S(=O)(=O)[O-])ccc5F)c5nc(c(-c6cc(S(=O)(=O)[O-])ccc6F)c6ccc3[nH]6)C=C5)C=C4)cc2)CCC[C@@H]1CC[N@H+]1C[C@H](C)OC[C@@H]1C
REMARK SMILES IDX 10 1 9 2 8 3 7 4 5 5 6 6 4 7 79 8 82 9 80 10 81 11 3 12 2 15
REMARK SMILES IDX 1 16 83 17 84 18 85 19 86 20 91 21 87 23 90 24 92 25 89 26
REMARK SMILES IDX 88 27 11 28 12 29 13 30 14 31 15 32 16 33 17 34 78 35 18 36
REMARK SMILES IDX 77 37 19 38 20 39 21 40 71 41 22 42 76 43 70 44 72 45 23 46
REMARK SMILES IDX 75 47 69 48 68 49 24 51 56 52 36 53 55 54 37 55 40 56 54 57
REMARK SMILES IDX 73 58 38 59 39 60 53 62 74 63 41 64 25 65 26 66 34 67 27 68
REMARK SMILES IDX 33 69 35 70 32 71 28 72 29 73 30 74 31 75 57 76 58 77 66 78
REMARK SMILES IDX 59 79 65 80 67 81 64 82 60 83 61 84 62 85 63 86 42 87 43 88
REMARK SMILES IDX 51 89 44 90 50 91 52 92 49 93 45 94 46 95 47 96 48 97
REMARK H PARENT 3 13 3 14 85 22 72 50 40 61
REMARK Flexibility Score: inf
ROOT
ATOM      1  O   UNL     1       2.001   0.007   0.540  1.00  0.00    -0.374 OA
ENDROOT
BRANCH   1   2
ATOM      2  C   UNL     1       2.347  -1.207  -0.121  1.00  0.00     0.202 C 
BRANCH   2   3
ATOM      3  C   UNL     1       1.597  -1.617  -1.398  1.00  0.00     0.261 C 
BRANCH   3   4
ATOM      4  O   UNL     1       1.491  -0.564  -2.373  1.00  0.00    -0.459 OA
BRANCH   4   5
ATOM      5  C   UNL     1       0.227  -0.096  -2.569  1.00  0.00     0.368 C 
ATOM      6  O   UNL     1      -0.764  -0.582  -2.029  1.00  0.00    -0.245 OA
BRANCH   5   7
ATOM      7  C   UNL     1       0.146   1.126  -3.548  1.00  0.00     0.197 C 
ATOM      8  C   UNL     1       0.667   2.461  -2.960  1.00  0.00     0.081 C 
ATOM      9  C   UNL     1       1.127   1.023  -4.752  1.00  0.00     0.068 C 
ATOM     10  C   UNL     1       0.800   3.392  -4.153  1.00  0.00     0.008 C 
ATOM     11  C   UNL     1       1.163   2.464  -5.310  1.00  0.00     0.011 C 
BRANCH   7  12
ATOM     12  N   UNL     1      -1.277   1.252  -4.018  1.00  0.00    -0.332 N 
ATOM     13  H   UNL     1      -1.301   1.875  -4.825  1.00  0.00     0.347 HD
ATOM     14  H   UNL     1      -1.609   0.318  -4.256  1.00  0.00     0.347 HD
BRANCH  12  15
ATOM     15  C   UNL     1      -2.169   1.792  -2.976  1.00  0.00     0.257 C 
ATOM     16  C   UNL     1      -3.564   1.196  -3.077  1.00  0.00     0.071 C 
ENDBRANCH  12  15
ENDBRANCH   7  12
BRANCH   9  17
ATOM     17  C   UNL     1       0.903  -0.143  -5.738  1.00  0.00     0.072 C 
BRANCH  17  18
ATOM     18  C   UNL     1       0.233   0.183  -7.079  1.00  0.00     0.263 C 
BRANCH  18  19
ATOM     19  N   UNL     1       1.078   1.061  -7.902  1.00  0.00    -0.329 N 
ATOM     20  C   UNL     1       2.071   0.323  -8.711  1.00  0.00     0.294 C 
ATOM     21  C   UNL     1       0.281   1.974  -8.752  1.00  0.00     0.207 C 
ATOM     22  H   UNL     1       1.602   1.630  -7.236  1.00  0.00     0.348 HD
ATOM     23  C   UNL     1       1.498  -0.286 -10.012  1.00  0.00     0.170 C 
ATOM     24  C   UNL     1      -0.255   1.289 -10.020  1.00  0.00     0.225 C 
ATOM     25  C   UNL     1       1.120   3.214  -9.096  1.00  0.00     0.078 C 
ATOM     26  O   UNL     1       0.799   0.702 -10.789  1.00  0.00    -0.366 OA
ATOM     27  C   UNL     1       2.614  -0.844 -10.885  1.00  0.00     0.045 C 
ENDBRANCH  18  19
ENDBRANCH  17  18
ENDBRANCH   9  17
ENDBRANCH   5   7
ENDBRANCH   4   5
ENDBRANCH   3   4
ENDBRANCH   2   3
ENDBRANCH   1   2
BRANCH   1  28
ATOM     28  C   UNL     1       2.305   1.222  -0.134  1.00  0.00     0.202 C 
BRANCH  28  29
ATOM     29  C   UNL     1       3.766   1.665  -0.294  1.00  0.00     0.261 C 
BRANCH  29  30
ATOM     30  O   UNL     1       4.573   0.722  -1.017  1.00  0.00    -0.460 OA
BRANCH  30  31
ATOM     31  C   UNL     1       5.485   0.065  -0.258  1.00  0.00     0.338 C 
ATOM     32  O   UNL     1       5.711   0.236   0.933  1.00  0.00    -0.246 OA
BRANCH  31  33
ATOM     33  C   UNL     1       6.041  -1.066  -1.019  1.00  0.00     0.060 A 
ATOM     34  C   UNL     1       5.832  -2.357  -0.514  1.00  0.00     0.016 A 
ATOM     35  C   UNL     1       6.790  -0.868  -2.179  1.00  0.00     0.016 A 
ATOM     36  C   UNL     1       6.381  -3.459  -1.163  1.00  0.00     0.010 A 
ATOM     37  C   UNL     1       7.361  -1.974  -2.816  1.00  0.00     0.010 A 
ATOM     38  C   UNL     1       7.172  -3.271  -2.302  1.00  0.00    -0.014 A 
BRANCH  38  39
ATOM     39  C   UNL     1       7.892  -4.420  -2.899  1.00  0.00     0.031 A 
ATOM     40  C   UNL     1       9.347  -4.612  -2.578  1.00  0.00     0.074 A 
ATOM     41  C   UNL     1       7.248  -5.272  -3.717  1.00  0.00     0.049 A 
ATOM     42  N   UNL     1      10.195  -5.478  -3.067  1.00  0.00    -0.248 NA
ATOM     43  C   UNL     1       9.924  -3.707  -1.570  1.00  0.00     0.031 C 
ATOM     44  C   UNL     1       5.822  -5.214  -4.041  1.00  0.00     0.029 A 
ATOM     45  N   UNL     1       7.711  -6.344  -4.438  1.00  0.00    -0.354 N 
ATOM     46  C   UNL     1      11.410  -5.211  -2.446  1.00  0.00     0.074 A 
ATOM     47  C   UNL     1      11.191  -4.096  -1.550  1.00  0.00     0.031 C 
ATOM     48  C   UNL     1       5.532  -6.196  -4.911  1.00  0.00     0.029 A 
ATOM     49  C   UNL     1       6.758  -6.915  -5.250  1.00  0.00     0.049 A 
ATOM     50  H   UNL     1       8.637  -6.673  -4.379  1.00  0.00     0.167 HD
ATOM     51  C   UNL     1      12.597  -5.841  -2.617  1.00  0.00     0.034 A 
ATOM     52  C   UNL     1       6.877  -7.874  -6.190  1.00  0.00     0.034 A 
ATOM     53  C   UNL     1      12.788  -6.953  -3.514  1.00  0.00     0.049 A 
ATOM     54  C   UNL     1       8.241  -8.480  -6.439  1.00  0.00     0.074 A 
ATOM     55  C   UNL     1      13.935  -7.699  -3.725  1.00  0.00     0.029 A 
ATOM     56  N   UNL     1      11.819  -7.464  -4.366  1.00  0.00    -0.354 N 
ATOM     57  N   UNL     1       9.376  -8.243  -5.820  1.00  0.00    -0.248 NA
ATOM     58  C   UNL     1       8.341  -9.477  -7.514  1.00  0.00     0.031 C 
ATOM     59  C   UNL     1      13.685  -8.597  -4.766  1.00  0.00     0.029 A 
ATOM     60  C   UNL     1      12.358  -8.474  -5.146  1.00  0.00     0.049 A 
ATOM     61  H   UNL     1      10.885  -7.155  -4.409  1.00  0.00     0.167 HD
ATOM     62  C   UNL     1      10.314  -9.084  -6.415  1.00  0.00     0.074 A 
ATOM     63  C   UNL     1       9.610  -9.846  -7.423  1.00  0.00     0.031 C 
ATOM     64  C   UNL     1      11.640  -9.216  -6.154  1.00  0.00     0.034 A 
BRANCH  51  65
ATOM     65  C   UNL     1      13.796  -5.309  -1.874  1.00  0.00     0.023 A 
ATOM     66  C   UNL     1      13.908  -5.387  -0.476  1.00  0.00     0.031 A 
ATOM     67  C   UNL     1      14.862  -4.737  -2.592  1.00  0.00     0.131 A 
ATOM     68  C   UNL     1      15.045  -4.867   0.162  1.00  0.00     0.055 A 
ATOM     69  C   UNL     1      16.019  -4.283  -1.957  1.00  0.00     0.041 A 
ATOM     70  F   UNL     1      14.798  -4.613  -3.928  1.00  0.00    -0.206 F 
ATOM     71  C   UNL     1      16.112  -4.340  -0.570  1.00  0.00     0.022 A 
BRANCH  68  72
ATOM     72  S   UNL     1      15.072  -4.801   1.974  1.00  0.00     0.124 S 
ATOM     73  O   UNL     1      13.911  -3.962   2.257  1.00  0.00    -0.237 OA
ATOM     74  O   UNL     1      14.950  -6.207   2.344  1.00  0.00    -0.237 OA
ATOM     75  O   UNL     1      16.364  -4.187   2.276  1.00  0.00    -0.744 OA
ENDBRANCH  68  72
ENDBRANCH  51  65
BRANCH  52  76
ATOM     76  C   UNL     1       5.708  -8.285  -7.024  1.00  0.00     0.023 A 
ATOM     77  C   UNL     1       5.270  -9.618  -7.043  1.00  0.00     0.031 A 
ATOM     78  C   UNL     1       5.074  -7.374  -7.889  1.00  0.00     0.131 A 
ATOM     79  C   UNL     1       4.281 -10.018  -7.955  1.00  0.00     0.055 A 
ATOM     80  C   UNL     1       4.041  -7.762  -8.745  1.00  0.00     0.041 A 
ATOM     81  F   UNL     1       5.456  -6.087  -7.922  1.00  0.00    -0.206 F 
ATOM     82  C   UNL     1       3.652  -9.097  -8.795  1.00  0.00     0.022 A 
BRANCH  79  83
ATOM     83  S   UNL     1       3.925 -11.789  -8.121  1.00  0.00     0.124 S 
ATOM     84  O   UNL     1       5.246 -12.327  -8.428  1.00  0.00    -0.237 OA
ATOM     85  O   UNL     1       3.389 -12.114  -6.804  1.00  0.00    -0.237 OA
ATOM     86  O   UNL     1       2.960 -11.839  -9.217  1.00  0.00    -0.744 OA
ENDBRANCH  79  83
ENDBRANCH  52  76
BRANCH  64  87
ATOM     87  C   UNL     1      12.401 -10.245  -6.953  1.00  0.00     0.023 A 
ATOM     88  C   UNL     1      12.619 -10.092  -8.332  1.00  0.00     0.031 A 
ATOM     89  C   UNL     1      12.923 -11.389  -6.322  1.00  0.00     0.131 A 
ATOM     90  C   UNL     1      13.301 -11.089  -9.046  1.00  0.00     0.055 A 
ATOM     91  C   UNL     1      13.656 -12.345  -7.025  1.00  0.00     0.041 A 
ATOM     92  F   UNL     1      12.742 -11.587  -5.006  1.00  0.00    -0.206 F 
ATOM     93  C   UNL     1      13.839 -12.204  -8.397  1.00  0.00     0.022 A 
BRANCH  90  94
ATOM     94  S   UNL     1      13.414 -10.945 -10.850  1.00  0.00     0.124 S 
ATOM     95  O   UNL     1      12.009 -10.961 -11.243  1.00  0.00    -0.237 OA
ATOM     96  O   UNL     1      14.109  -9.674 -11.021  1.00  0.00    -0.237 OA
ATOM     97  O   UNL     1      14.181 -12.127 -11.241  1.00  0.00    -0.744 OA
ENDBRANCH  90  94
ENDBRANCH  64  87
ENDBRANCH  38  39
ENDBRANCH  31  33
ENDBRANCH  30  31
ENDBRANCH  29  30
ENDBRANCH  28  29
ENDBRANCH   1  28
TORSDOF 22
