REMARK SMILES Cc1cs/c(=N\S(=O)(=O)c2ccc(/C=C/C(=O)OCCOCCOC(=O)c3ccc(-c4c5nc(c(-c6cc(S(=O)(=O)[O-])ccc6F)c6ccc([nH]6)c(-c6cc(S(=O)(=O)[O-])ccc6F)c6nc(c(-c7cc(S(=O)(=O)[O-])ccc7F)c7ccc4[nH]7)C=C6)C=C5)cc3)cc2)[nH]1
REMARK SMILES IDX 21 1 20 2 19 3 18 4 16 5 17 6 15 7 14 8 13 9 10 10 11 11
REMARK SMILES IDX 91 12 12 13 90 14 7 15 8 16 9 17 6 18 1 19 2 20 3 21 92 22
REMARK SMILES IDX 4 23 5 24 22 26 23 27 24 28 25 29 26 30 27 31 28 32 89 33
REMARK SMILES IDX 29 34 88 35 30 36 31 37 32 38 82 39 33 40 87 41 81 42 83 43
REMARK SMILES IDX 34 44 86 45 80 46 79 47 35 49 67 50 47 51 66 52 48 53 51 54
REMARK SMILES IDX 65 55 84 56 49 57 50 58 64 60 85 61 52 62 36 63 37 64 45 65
REMARK SMILES IDX 38 66 44 67 46 68 43 69 39 70 40 71 41 72 42 73 68 74 69 75
REMARK SMILES IDX 77 76 70 77 76 78 78 79 75 80 71 81 72 82 73 83 74 84 53 85
REMARK SMILES IDX 54 86 62 87 55 88 61 89 63 90 60 91 56 92 57 93 58 94 59 95
REMARK H PARENT 92 25 83 48 51 59
REMARK Flexibility Score: inf
ROOT
ATOM      1  O   UNL     1     -11.718  -7.312   1.585  1.00  0.00    -0.374 OA
ENDROOT
BRANCH   1   2
ATOM      2  C   UNL     1     -11.230  -8.406   0.808  1.00  0.00     0.202 C 
BRANCH   2   3
ATOM      3  C   UNL     1     -10.712  -8.056  -0.589  1.00  0.00     0.261 C 
BRANCH   3   4
ATOM      4  O   UNL     1      -9.604  -7.141  -0.530  1.00  0.00    -0.460 OA
BRANCH   4   5
ATOM      5  C   UNL     1      -9.861  -5.904  -1.012  1.00  0.00     0.330 C 
ATOM      6  O   UNL     1     -10.892  -5.528  -1.552  1.00  0.00    -0.247 OA
BRANCH   5   7
ATOM      7  C   UNL     1      -8.757  -4.956  -0.765  1.00  0.00     0.094 C 
ATOM      8  C   UNL     1      -7.566  -5.212  -0.199  1.00  0.00     0.015 C 
BRANCH   8   9
ATOM      9  C   UNL     1      -6.560  -4.148  -0.021  1.00  0.00    -0.025 A 
ATOM     10  C   UNL     1      -4.639  -2.108   0.122  1.00  0.00     0.089 A 
ATOM     11  C   UNL     1      -5.985  -1.812   0.349  1.00  0.00     0.023 A 
ATOM     12  C   UNL     1      -4.232  -3.423  -0.109  1.00  0.00     0.023 A 
ATOM     13  C   UNL     1      -6.935  -2.831   0.289  1.00  0.00     0.009 A 
ATOM     14  C   UNL     1      -5.196  -4.440  -0.174  1.00  0.00     0.009 A 
BRANCH  10  15
ATOM     15  S   UNL     1      -3.492  -0.741   0.104  1.00  0.00     0.285 S 
ATOM     16  O   UNL     1      -3.689  -0.058   1.364  1.00  0.00    -0.199 OA
ATOM     17  O   UNL     1      -3.739  -0.071  -1.163  1.00  0.00    -0.199 OA
BRANCH  15  18
ATOM     18  N   UNL     1      -2.020  -1.403   0.081  1.00  0.00    -0.130 NA
ATOM     19  C   UNL     1       2.758  -0.575  -0.002  1.00  0.00     0.065 C 
ATOM     20  C   UNL     1       1.325  -0.169   0.001  1.00  0.00     0.024 A 
ATOM     21  C   UNL     1       0.866   1.093  -0.015  1.00  0.00     0.089 A 
ATOM     22  N   UNL     1       0.318  -1.114   0.029  1.00  0.00    -0.334 N 
ATOM     23  S   UNL     1      -0.883   1.137   0.007  1.00  0.00    -0.104 S 
ATOM     24  C   UNL     1      -0.976  -0.650   0.044  1.00  0.00     0.199 A 
ATOM     25  H   UNL     1       0.518  -2.078   0.037  1.00  0.00     0.169 HD
ENDBRANCH  15  18
ENDBRANCH  10  15
ENDBRANCH   8   9
ENDBRANCH   5   7
ENDBRANCH   4   5
ENDBRANCH   3   4
ENDBRANCH   2   3
ENDBRANCH   1   2
BRANCH   1  26
ATOM     26  C   UNL     1     -10.745  -6.531   2.280  1.00  0.00     0.202 C 
BRANCH  26  27
ATOM     27  C   UNL     1     -10.178  -7.138   3.571  1.00  0.00     0.261 C 
BRANCH  27  28
ATOM     28  O   UNL     1      -9.345  -8.283   3.313  1.00  0.00    -0.460 OA
BRANCH  28  29
ATOM     29  C   UNL     1      -9.863  -9.469   3.721  1.00  0.00     0.338 C 
ATOM     30  O   UNL     1     -10.904  -9.640   4.338  1.00  0.00    -0.246 OA
BRANCH  29  31
ATOM     31  C   UNL     1      -9.084 -10.582   3.145  1.00  0.00     0.060 A 
ATOM     32  C   UNL     1      -9.790 -11.581   2.461  1.00  0.00     0.016 A 
ATOM     33  C   UNL     1      -7.700 -10.681   3.311  1.00  0.00     0.016 A 
ATOM     34  C   UNL     1      -9.120 -12.703   1.975  1.00  0.00     0.010 A 
ATOM     35  C   UNL     1      -7.032 -11.812   2.829  1.00  0.00     0.010 A 
ATOM     36  C   UNL     1      -7.742 -12.842   2.184  1.00  0.00    -0.014 A 
BRANCH  36  37
ATOM     37  C   UNL     1      -7.074 -14.124   1.846  1.00  0.00     0.031 A 
ATOM     38  C   UNL     1      -6.785 -15.110   2.945  1.00  0.00     0.074 A 
ATOM     39  C   UNL     1      -6.751 -14.415   0.574  1.00  0.00     0.049 A 
ATOM     40  N   UNL     1      -6.177 -16.267   2.886  1.00  0.00    -0.248 NA
ATOM     41  C   UNL     1      -7.239 -14.733   4.291  1.00  0.00     0.031 C 
ATOM     42  C   UNL     1      -7.016 -13.557  -0.580  1.00  0.00     0.029 A 
ATOM     43  N   UNL     1      -6.122 -15.512   0.040  1.00  0.00    -0.354 N 
ATOM     44  C   UNL     1      -6.175 -16.760   4.187  1.00  0.00     0.074 A 
ATOM     45  C   UNL     1      -6.802 -15.751   5.016  1.00  0.00     0.031 C 
ATOM     46  C   UNL     1      -6.541 -14.156  -1.686  1.00  0.00     0.029 A 
ATOM     47  C   UNL     1      -5.906 -15.419  -1.315  1.00  0.00     0.049 A 
ATOM     48  H   UNL     1      -5.851 -16.292   0.576  1.00  0.00     0.167 HD
ATOM     49  C   UNL     1      -5.706 -17.948   4.644  1.00  0.00     0.034 A 
ATOM     50  C   UNL     1      -5.248 -16.244  -2.154  1.00  0.00     0.034 A 
ATOM     51  C   UNL     1      -5.066 -18.934   3.806  1.00  0.00     0.049 A 
ATOM     52  C   UNL     1      -4.650 -17.519  -1.610  1.00  0.00     0.074 A 
ATOM     53  C   UNL     1      -4.566 -20.175   4.160  1.00  0.00     0.029 A 
ATOM     54  N   UNL     1      -4.822 -18.784   2.446  1.00  0.00    -0.354 N 
ATOM     55  N   UNL     1      -4.664 -17.980  -0.380  1.00  0.00    -0.248 NA
ATOM     56  C   UNL     1      -3.955 -18.387  -2.570  1.00  0.00     0.031 C 
ATOM     57  C   UNL     1      -3.954 -20.741   3.035  1.00  0.00     0.029 A 
ATOM     58  C   UNL     1      -4.144 -19.892   1.956  1.00  0.00     0.049 A 
ATOM     59  H   UNL     1      -5.090 -18.005   1.908  1.00  0.00     0.167 HD
ATOM     60  C   UNL     1      -4.002 -19.205  -0.426  1.00  0.00     0.074 A 
ATOM     61  C   UNL     1      -3.616 -19.415  -1.806  1.00  0.00     0.031 C 
ATOM     62  C   UNL     1      -3.743 -20.080   0.581  1.00  0.00     0.034 A 
BRANCH  49  63
ATOM     63  C   UNL     1      -5.823 -18.210   6.128  1.00  0.00     0.023 A 
ATOM     64  C   UNL     1      -7.073 -18.293   6.768  1.00  0.00     0.031 A 
ATOM     65  C   UNL     1      -4.670 -18.332   6.922  1.00  0.00     0.131 A 
ATOM     66  C   UNL     1      -7.138 -18.406   8.166  1.00  0.00     0.055 A 
ATOM     67  C   UNL     1      -4.742 -18.531   8.303  1.00  0.00     0.041 A 
ATOM     68  F   UNL     1      -3.448 -18.239   6.373  1.00  0.00    -0.206 F 
ATOM     69  C   UNL     1      -5.982 -18.551   8.935  1.00  0.00     0.022 A 
BRANCH  66  70
ATOM     70  S   UNL     1      -8.747 -18.197   8.977  1.00  0.00     0.124 S 
ATOM     71  O   UNL     1      -9.147 -16.874   8.502  1.00  0.00    -0.237 OA
ATOM     72  O   UNL     1      -9.513 -19.322   8.454  1.00  0.00    -0.237 OA
ATOM     73  O   UNL     1      -8.425 -18.267  10.401  1.00  0.00    -0.744 OA
ENDBRANCH  66  70
ENDBRANCH  49  63
BRANCH  50  74
ATOM     74  C   UNL     1      -5.075 -15.873  -3.587  1.00  0.00     0.023 A 
ATOM     75  C   UNL     1      -5.654 -16.634  -4.614  1.00  0.00     0.031 A 
ATOM     76  C   UNL     1      -4.291 -14.763  -3.950  1.00  0.00     0.131 A 
ATOM     77  C   UNL     1      -5.410 -16.298  -5.955  1.00  0.00     0.055 A 
ATOM     78  C   UNL     1      -4.092 -14.403  -5.284  1.00  0.00     0.041 A 
ATOM     79  F   UNL     1      -3.714 -14.001  -3.007  1.00  0.00    -0.206 F 
ATOM     80  C   UNL     1      -4.646 -15.180  -6.296  1.00  0.00     0.022 A 
BRANCH  77  81
ATOM     81  S   UNL     1      -6.053 -17.386  -7.256  1.00  0.00     0.124 S 
ATOM     82  O   UNL     1      -5.402 -18.651  -6.933  1.00  0.00    -0.237 OA
ATOM     83  O   UNL     1      -7.492 -17.325  -7.018  1.00  0.00    -0.237 OA
ATOM     84  O   UNL     1      -5.600 -16.747  -8.489  1.00  0.00    -0.744 OA
ENDBRANCH  77  81
ENDBRANCH  50  74
BRANCH  62  85
ATOM     85  C   UNL     1      -3.036 -21.363   0.210  1.00  0.00     0.023 A 
ATOM     86  C   UNL     1      -1.706 -21.372  -0.245  1.00  0.00     0.031 A 
ATOM     87  C   UNL     1      -3.710 -22.595   0.305  1.00  0.00     0.131 A 
ATOM     88  C   UNL     1      -1.110 -22.580  -0.641  1.00  0.00     0.055 A 
ATOM     89  C   UNL     1      -3.091 -23.800  -0.031  1.00  0.00     0.041 A 
ATOM     90  F   UNL     1      -4.982 -22.647   0.732  1.00  0.00    -0.206 F 
ATOM     91  C   UNL     1      -1.788 -23.796  -0.520  1.00  0.00     0.022 A 
BRANCH  88  92
ATOM     92  S   UNL     1       0.535 -22.532  -1.405  1.00  0.00     0.124 S 
ATOM     93  O   UNL     1       0.310 -21.662  -2.554  1.00  0.00    -0.237 OA
ATOM     94  O   UNL     1       1.359 -21.977  -0.336  1.00  0.00    -0.237 OA
ATOM     95  O   UNL     1       0.804 -23.932  -1.730  1.00  0.00    -0.744 OA
ENDBRANCH  88  92
ENDBRANCH  62  85
ENDBRANCH  36  37
ENDBRANCH  29  31
ENDBRANCH  28  29
ENDBRANCH  27  28
ENDBRANCH  26  27
ENDBRANCH   1  26
TORSDOF 20
