REMARK SMILES Cc1nc(-c2ccccc2Cl)nc2sc(C(=O)OCCOCCOC(=O)c3ccc(-c4c5nc(c(-c6cc(S(=O)(=O)[O-])ccc6F)c6ccc([nH]6)c(-c6cc(S(=O)(=O)[O-])ccc6F)c6nc(c(-c7cc(S(=O)(=O)[O-])ccc7F)c7ccc4[nH]7)C=C6)C=C5)cc3)c(N)c12
REMARK SMILES IDX 22 1 21 2 20 3 19 4 18 5 16 6 17 7 15 8 1 9 2 10 3 11 92 12
REMARK SMILES IDX 4 13 13 14 90 15 12 16 14 17 5 18 6 19 10 20 7 21 9 22 11 23
REMARK SMILES IDX 8 24 91 25 23 28 24 29 25 30 26 31 27 32 28 33 89 34 29 35
REMARK SMILES IDX 88 36 30 37 31 38 32 39 82 40 33 41 87 42 81 43 83 44 34 45
REMARK SMILES IDX 86 46 80 47 79 48 35 50 67 51 47 52 66 53 48 54 51 55 65 56
REMARK SMILES IDX 84 57 49 58 50 59 64 61 85 62 52 63 36 64 37 65 45 66 38 67
REMARK SMILES IDX 44 68 46 69 43 70 39 71 40 72 41 73 42 74 68 75 69 76 77 77
REMARK SMILES IDX 70 78 76 79 78 80 75 81 71 82 72 83 73 84 74 85 53 86 54 87
REMARK SMILES IDX 62 88 55 89 61 90 63 91 60 92 56 93 57 94 58 95 59 96
REMARK H PARENT 91 26 91 27 83 49 51 60
REMARK Flexibility Score: inf
ROOT
ATOM      1  C   UNL     1       4.767   4.924   3.650  1.00  0.00     0.202 C 
ENDROOT
BRANCH   1   2
ATOM      2  O   UNL     1       5.878   5.783   3.413  1.00  0.00    -0.374 OA
BRANCH   2   3
ATOM      3  C   UNL     1       5.675   7.002   2.698  1.00  0.00     0.202 C 
BRANCH   3   4
ATOM      4  C   UNL     1       5.562   6.894   1.178  1.00  0.00     0.261 C 
BRANCH   4   5
ATOM      5  O   UNL     1       4.354   6.233   0.776  1.00  0.00    -0.459 OA
BRANCH   5   6
ATOM      6  C   UNL     1       4.477   4.922   0.409  1.00  0.00     0.350 C 
ATOM      7  O   UNL     1       5.537   4.316   0.348  1.00  0.00    -0.245 OA
BRANCH   6   8
ATOM      8  C   UNL     1       3.170   4.316   0.234  1.00  0.00     0.138 A 
ATOM      9  C   UNL     1       1.107   0.144   0.091  1.00  0.00     0.067 C 
ATOM     10  C   UNL     1       0.668   1.553  -0.176  1.00  0.00     0.052 A 
ATOM     11  N   UNL     1      -0.605   1.688  -0.656  1.00  0.00    -0.233 NA
ATOM     12  C   UNL     1       1.459   2.713  -0.014  1.00  0.00     0.057 A 
ATOM     13  C   UNL     1      -1.081   2.914  -0.937  1.00  0.00     0.162 A 
ATOM     14  C   UNL     1       0.839   3.901  -0.368  1.00  0.00     0.130 A 
ATOM     15  C   UNL     1       2.809   2.989   0.415  1.00  0.00     0.069 A 
ATOM     16  N   UNL     1      -0.407   4.058  -0.820  1.00  0.00    -0.217 NA
ATOM     17  S   UNL     1       1.834   5.264  -0.238  1.00  0.00    -0.106 S 
BRANCH  13  18
ATOM     18  C   UNL     1      -2.390   3.042  -1.579  1.00  0.00     0.038 A 
ATOM     19  C   UNL     1      -2.469   3.761  -2.795  1.00  0.00     0.013 A 
ATOM     20  C   UNL     1      -3.587   2.568  -1.023  1.00  0.00     0.052 A 
ATOM     21  C   UNL     1      -3.689   4.016  -3.421  1.00  0.00     0.001 A 
ATOM     22  C   UNL     1      -4.814   2.828  -1.652  1.00  0.00     0.021 A 
ATOM     23  Cl  UNL     1      -3.637   1.710   0.478  1.00  0.00    -0.084 Cl
ATOM     24  C   UNL     1      -4.864   3.554  -2.843  1.00  0.00     0.002 A 
ENDBRANCH  13  18
BRANCH  15  25
ATOM     25  N   UNL     1       3.662   2.072   0.926  1.00  0.00    -0.397 N 
ATOM     26  H   UNL     1       4.570   2.341   1.196  1.00  0.00     0.156 HD
ATOM     27  H   UNL     1       3.375   1.135   1.028  1.00  0.00     0.156 HD
ENDBRANCH  15  25
ENDBRANCH   6   8
ENDBRANCH   5   6
ENDBRANCH   4   5
ENDBRANCH   3   4
ENDBRANCH   2   3
ENDBRANCH   1   2
BRANCH   1  28
ATOM     28  C   UNL     1       3.708   5.363   4.646  1.00  0.00     0.261 C 
BRANCH  28  29
ATOM     29  O   UNL     1       3.052   6.556   4.244  1.00  0.00    -0.460 OA
BRANCH  29  30
ATOM     30  C   UNL     1       3.443   7.648   4.946  1.00  0.00     0.338 C 
ATOM     31  O   UNL     1       4.516   7.819   5.492  1.00  0.00    -0.246 OA
BRANCH  30  32
ATOM     32  C   UNL     1       2.278   8.524   5.110  1.00  0.00     0.060 A 
ATOM     33  C   UNL     1       2.442   9.624   5.950  1.00  0.00     0.016 A 
ATOM     34  C   UNL     1       1.011   8.089   4.690  1.00  0.00     0.016 A 
ATOM     35  C   UNL     1       1.319  10.158   6.544  1.00  0.00     0.010 A 
ATOM     36  C   UNL     1      -0.105   8.611   5.298  1.00  0.00     0.010 A 
ATOM     37  C   UNL     1       0.068   9.581   6.279  1.00  0.00    -0.014 A 
BRANCH  37  38
ATOM     38  C   UNL     1      -1.105  10.180   6.880  1.00  0.00     0.031 A 
ATOM     39  C   UNL     1      -1.373  11.499   6.270  1.00  0.00     0.074 A 
ATOM     40  C   UNL     1      -1.886   9.576   7.798  1.00  0.00     0.049 A 
ATOM     41  N   UNL     1      -1.079  12.648   6.779  1.00  0.00    -0.248 NA
ATOM     42  C   UNL     1      -1.735  11.555   4.842  1.00  0.00     0.031 C 
ATOM     43  C   UNL     1      -1.808   8.207   8.309  1.00  0.00     0.029 A 
ATOM     44  N   UNL     1      -2.982  10.069   8.441  1.00  0.00    -0.354 N 
ATOM     45  C   UNL     1      -1.520  13.574   5.848  1.00  0.00     0.074 A 
ATOM     46  C   UNL     1      -1.640  12.864   4.605  1.00  0.00     0.031 C 
ATOM     47  C   UNL     1      -2.934   7.920   9.008  1.00  0.00     0.029 A 
ATOM     48  C   UNL     1      -3.755   9.117   9.109  1.00  0.00     0.049 A 
ATOM     49  H   UNL     1      -3.212  11.026   8.434  1.00  0.00     0.167 HD
ATOM     50  C   UNL     1      -2.081  14.738   6.268  1.00  0.00     0.034 A 
ATOM     51  C   UNL     1      -4.980   9.313   9.683  1.00  0.00     0.034 A 
ATOM     52  C   UNL     1      -1.723  15.017   7.643  1.00  0.00     0.049 A 
ATOM     53  C   UNL     1      -5.066  10.766   9.976  1.00  0.00     0.074 A 
ATOM     54  C   UNL     1      -0.527  15.167   8.320  1.00  0.00     0.029 A 
ATOM     55  N   UNL     1      -2.667  14.757   8.611  1.00  0.00    -0.354 N 
ATOM     56  N   UNL     1      -4.294  11.362  10.844  1.00  0.00    -0.248 NA
ATOM     57  C   UNL     1      -5.632  11.627   8.949  1.00  0.00     0.031 C 
ATOM     58  C   UNL     1      -0.726  14.517   9.575  1.00  0.00     0.029 A 
ATOM     59  C   UNL     1      -2.053  14.090   9.642  1.00  0.00     0.049 A 
ATOM     60  H   UNL     1      -3.619  15.006   8.570  1.00  0.00     0.167 HD
ATOM     61  C   UNL     1      -3.918  12.545  10.227  1.00  0.00     0.074 A 
ATOM     62  C   UNL     1      -4.835  12.690   9.095  1.00  0.00     0.031 C 
ATOM     63  C   UNL     1      -2.722  13.139  10.511  1.00  0.00     0.034 A 
BRANCH  50  64
ATOM     64  C   UNL     1      -3.284  15.362   5.600  1.00  0.00     0.023 A 
ATOM     65  C   UNL     1      -3.727  16.596   6.104  1.00  0.00     0.031 A 
ATOM     66  C   UNL     1      -4.174  14.701   4.718  1.00  0.00     0.131 A 
ATOM     67  C   UNL     1      -5.012  17.076   5.801  1.00  0.00     0.055 A 
ATOM     68  C   UNL     1      -5.426  15.211   4.374  1.00  0.00     0.041 A 
ATOM     69  F   UNL     1      -3.936  13.486   4.212  1.00  0.00    -0.206 F 
ATOM     70  C   UNL     1      -5.865  16.392   4.939  1.00  0.00     0.022 A 
BRANCH  67  71
ATOM     71  S   UNL     1      -5.602  18.551   6.664  1.00  0.00     0.124 S 
ATOM     72  O   UNL     1      -5.546  18.118   8.055  1.00  0.00    -0.237 OA
ATOM     73  O   UNL     1      -4.617  19.549   6.259  1.00  0.00    -0.237 OA
ATOM     74  O   UNL     1      -6.944  18.746   6.120  1.00  0.00    -0.744 OA
ENDBRANCH  67  71
ENDBRANCH  50  64
BRANCH  51  75
ATOM     75  C   UNL     1      -6.191   8.428   9.662  1.00  0.00     0.023 A 
ATOM     76  C   UNL     1      -7.363   8.717  10.410  1.00  0.00     0.031 A 
ATOM     77  C   UNL     1      -6.318   7.427   8.676  1.00  0.00     0.131 A 
ATOM     78  C   UNL     1      -8.579   8.036  10.145  1.00  0.00     0.055 A 
ATOM     79  C   UNL     1      -7.521   6.762   8.415  1.00  0.00     0.041 A 
ATOM     80  F   UNL     1      -5.298   7.119   7.862  1.00  0.00    -0.206 F 
ATOM     81  C   UNL     1      -8.661   7.073   9.139  1.00  0.00     0.022 A 
BRANCH  78  82
ATOM     82  S   UNL     1     -10.123   8.469  11.025  1.00  0.00     0.124 S 
ATOM     83  O   UNL     1      -9.922   7.841  12.327  1.00  0.00    -0.237 OA
ATOM     84  O   UNL     1     -10.109   9.926  10.999  1.00  0.00    -0.237 OA
ATOM     85  O   UNL     1     -11.167   7.855  10.204  1.00  0.00    -0.744 OA
ENDBRANCH  78  82
ENDBRANCH  51  75
BRANCH  63  86
ATOM     86  C   UNL     1      -1.951  12.674  11.732  1.00  0.00     0.023 A 
ATOM     87  C   UNL     1      -1.395  11.385  11.920  1.00  0.00     0.031 A 
ATOM     88  C   UNL     1      -1.654  13.659  12.689  1.00  0.00     0.131 A 
ATOM     89  C   UNL     1      -0.570  11.135  13.040  1.00  0.00     0.055 A 
ATOM     90  C   UNL     1      -0.823  13.413  13.779  1.00  0.00     0.041 A 
ATOM     91  F   UNL     1      -2.135  14.906  12.550  1.00  0.00    -0.206 F 
ATOM     92  C   UNL     1      -0.277  12.149  13.959  1.00  0.00     0.022 A 
BRANCH  89  93
ATOM     93  S   UNL     1       0.167   9.487  13.315  1.00  0.00     0.124 S 
ATOM     94  O   UNL     1      -0.993   8.604  13.360  1.00  0.00    -0.237 OA
ATOM     95  O   UNL     1       1.047   9.331  12.159  1.00  0.00    -0.237 OA
ATOM     96  O   UNL     1       0.870   9.633  14.592  1.00  0.00    -0.744 OA
ENDBRANCH  89  93
ENDBRANCH  63  86
ENDBRANCH  37  38
ENDBRANCH  30  32
ENDBRANCH  29  30
ENDBRANCH  28  29
ENDBRANCH   1  28
TORSDOF 19
