REMARK SMILES Cn1ccc(S(=O)(=O)N2CCO[C@H](CC(=O)OCCOCCOC(=O)c3ccc(-c4c5nc(c(-c6cc(S(=O)(=O)[O-])ccc6F)c6ccc([nH]6)c(-c6cc(S(=O)(=O)[O-])ccc6F)c6nc(c(-c7cc(S(=O)(=O)[O-])ccc7F)c7ccc4[nH]7)C=C6)C=C5)cc3)C2)c1
REMARK SMILES IDX 20 1 19 2 18 3 17 4 15 5 16 6 14 7 13 8 9 9 10 10 89 11
REMARK SMILES IDX 11 12 12 13 6 14 7 15 8 16 5 17 1 18 2 19 3 20 90 21 4 22
REMARK SMILES IDX 21 23 22 24 23 25 24 26 25 27 26 28 27 29 88 30 28 31 87 32
REMARK SMILES IDX 29 33 30 34 31 35 81 36 32 37 86 38 80 39 82 40 33 41 85 42
REMARK SMILES IDX 79 43 78 44 34 46 66 47 46 48 65 49 47 50 50 51 64 52 83 53
REMARK SMILES IDX 48 54 49 55 63 57 84 58 51 59 35 60 36 61 44 62 37 63 43 64
REMARK SMILES IDX 45 65 42 66 38 67 39 68 40 69 41 70 67 71 68 72 76 73 69 74
REMARK SMILES IDX 75 75 77 76 74 77 70 78 71 79 72 80 73 81 52 82 53 83 61 84
REMARK SMILES IDX 54 85 60 86 62 87 59 88 55 89 56 90 57 91 58 92
REMARK H PARENT 82 45 50 56
REMARK Flexibility Score: inf
ROOT
ATOM      1  O   UNL     1      -2.316  -6.022  -4.861  1.00  0.00    -0.374 OA
ENDROOT
BRANCH   1   2
ATOM      2  C   UNL     1      -1.145  -6.841  -4.904  1.00  0.00     0.202 C 
BRANCH   2   3
ATOM      3  C   UNL     1       0.168  -6.151  -4.522  1.00  0.00     0.261 C 
BRANCH   3   4
ATOM      4  O   UNL     1       0.246  -5.921  -3.098  1.00  0.00    -0.463 OA
BRANCH   4   5
ATOM      5  C   UNL     1       0.462  -4.640  -2.706  1.00  0.00     0.308 C 
ATOM      6  O   UNL     1       0.622  -3.687  -3.458  1.00  0.00    -0.252 OA
BRANCH   5   7
ATOM      7  C   UNL     1       0.576  -4.511  -1.210  1.00  0.00     0.156 C 
BRANCH   7   8
ATOM      8  C   UNL     1      -0.544  -5.154  -0.382  1.00  0.00     0.144 C 
ATOM      9  N   UNL     1      -1.634  -3.114   0.460  1.00  0.00    -0.193 NA
ATOM     10  C   UNL     1      -1.191  -3.396   1.836  1.00  0.00     0.131 C 
ATOM     11  C   UNL     1      -1.854  -4.329  -0.339  1.00  0.00     0.135 C 
ATOM     12  C   UNL     1       0.097  -4.222   1.754  1.00  0.00     0.177 C 
ATOM     13  O   UNL     1      -0.078  -5.415   0.969  1.00  0.00    -0.375 OA
BRANCH   9  14
ATOM     14  S   UNL     1      -2.456  -1.697   0.124  1.00  0.00     0.244 S 
ATOM     15  O   UNL     1      -3.274  -1.343   1.260  1.00  0.00    -0.207 OA
ATOM     16  O   UNL     1      -2.968  -1.743  -1.228  1.00  0.00    -0.207 OA
BRANCH  14  17
ATOM     17  C   UNL     1      -1.244  -0.462   0.061  1.00  0.00     0.100 A 
ATOM     18  C   UNL     1       2.158   0.753  -0.138  1.00  0.00     0.149 C 
ATOM     19  N   UNL     1       0.729   0.553  -0.050  1.00  0.00    -0.356 N 
ATOM     20  C   UNL     1      -0.218   1.540   0.026  1.00  0.00     0.086 A 
ATOM     21  C   UNL     1       0.119  -0.667  -0.025  1.00  0.00     0.106 A 
ATOM     22  C   UNL     1      -1.460   0.937   0.090  1.00  0.00     0.041 A 
ENDBRANCH  14  17
ENDBRANCH   9  14
ENDBRANCH   7   8
ENDBRANCH   5   7
ENDBRANCH   4   5
ENDBRANCH   3   4
ENDBRANCH   2   3
ENDBRANCH   1   2
BRANCH   1  23
ATOM     23  C   UNL     1      -2.809  -5.680  -3.570  1.00  0.00     0.202 C 
BRANCH  23  24
ATOM     24  C   UNL     1      -3.691  -6.725  -2.877  1.00  0.00     0.261 C 
BRANCH  24  25
ATOM     25  O   UNL     1      -2.985  -7.956  -2.650  1.00  0.00    -0.460 OA
BRANCH  25  26
ATOM     26  C   UNL     1      -3.387  -8.976  -3.451  1.00  0.00     0.338 C 
ATOM     27  O   UNL     1      -4.335  -8.969  -4.219  1.00  0.00    -0.246 OA
BRANCH  26  28
ATOM     28  C   UNL     1      -2.402 -10.075  -3.422  1.00  0.00     0.060 A 
ATOM     29  C   UNL     1      -1.989 -10.586  -4.660  1.00  0.00     0.016 A 
ATOM     30  C   UNL     1      -1.938 -10.641  -2.232  1.00  0.00     0.016 A 
ATOM     31  C   UNL     1      -1.161 -11.704  -4.714  1.00  0.00     0.010 A 
ATOM     32  C   UNL     1      -1.112 -11.771  -2.289  1.00  0.00     0.010 A 
ATOM     33  C   UNL     1      -0.755 -12.331  -3.530  1.00  0.00    -0.014 A 
BRANCH  33  34
ATOM     34  C   UNL     1      -0.107 -13.664  -3.611  1.00  0.00     0.031 A 
ATOM     35  C   UNL     1      -0.961 -14.891  -3.428  1.00  0.00     0.074 A 
ATOM     36  C   UNL     1       1.202 -13.779  -3.901  1.00  0.00     0.049 A 
ATOM     37  N   UNL     1      -0.623 -16.153  -3.476  1.00  0.00    -0.248 NA
ATOM     38  C   UNL     1      -2.389 -14.662  -3.152  1.00  0.00     0.031 C 
ATOM     39  C   UNL     1       2.114 -12.661  -4.141  1.00  0.00     0.029 A 
ATOM     40  N   UNL     1       1.992 -14.892  -4.045  1.00  0.00    -0.354 N 
ATOM     41  C   UNL     1      -1.790 -16.869  -3.229  1.00  0.00     0.074 A 
ATOM     42  C   UNL     1      -2.840 -15.899  -3.006  1.00  0.00     0.031 C 
ATOM     43  C   UNL     1       3.342 -13.146  -4.394  1.00  0.00     0.029 A 
ATOM     44  C   UNL     1       3.312 -14.604  -4.306  1.00  0.00     0.049 A 
ATOM     45  H   UNL     1       1.646 -15.811  -3.970  1.00  0.00     0.167 HD
ATOM     46  C   UNL     1      -1.968 -18.212  -3.196  1.00  0.00     0.034 A 
ATOM     47  C   UNL     1       4.374 -15.426  -4.438  1.00  0.00     0.034 A 
ATOM     48  C   UNL     1      -0.913 -19.166  -3.429  1.00  0.00     0.049 A 
ATOM     49  C   UNL     1       4.156 -16.919  -4.335  1.00  0.00     0.074 A 
ATOM     50  C   UNL     1      -0.992 -20.547  -3.464  1.00  0.00     0.029 A 
ATOM     51  N   UNL     1       0.418 -18.838  -3.652  1.00  0.00    -0.354 N 
ATOM     52  N   UNL     1       3.038 -17.581  -4.142  1.00  0.00    -0.248 NA
ATOM     53  C   UNL     1       5.342 -17.774  -4.480  1.00  0.00     0.031 C 
ATOM     54  C   UNL     1       0.299 -21.055  -3.637  1.00  0.00     0.029 A 
ATOM     55  C   UNL     1       1.175 -19.991  -3.784  1.00  0.00     0.049 A 
ATOM     56  H   UNL     1       0.772 -17.921  -3.708  1.00  0.00     0.167 HD
ATOM     57  C   UNL     1       3.384 -18.930  -4.180  1.00  0.00     0.074 A 
ATOM     58  C   UNL     1       4.809 -18.986  -4.427  1.00  0.00     0.031 C 
ATOM     59  C   UNL     1       2.597 -20.026  -4.029  1.00  0.00     0.034 A 
BRANCH  46  60
ATOM     60  C   UNL     1      -3.340 -18.728  -2.841  1.00  0.00     0.023 A 
ATOM     61  C   UNL     1      -4.447 -18.551  -3.689  1.00  0.00     0.031 A 
ATOM     62  C   UNL     1      -3.539 -19.408  -1.627  1.00  0.00     0.131 A 
ATOM     63  C   UNL     1      -5.713 -19.007  -3.287  1.00  0.00     0.055 A 
ATOM     64  C   UNL     1      -4.786 -19.917  -1.263  1.00  0.00     0.041 A 
ATOM     65  F   UNL     1      -2.521 -19.585  -0.769  1.00  0.00    -0.206 F 
ATOM     66  C   UNL     1      -5.885 -19.709  -2.091  1.00  0.00     0.022 A 
BRANCH  63  67
ATOM     67  S   UNL     1      -7.155 -18.583  -4.302  1.00  0.00     0.124 S 
ATOM     68  O   UNL     1      -7.138 -17.123  -4.243  1.00  0.00    -0.237 OA
ATOM     69  O   UNL     1      -6.820 -19.175  -5.592  1.00  0.00    -0.237 OA
ATOM     70  O   UNL     1      -8.269 -19.215  -3.597  1.00  0.00    -0.744 OA
ENDBRANCH  63  67
ENDBRANCH  46  60
BRANCH  47  71
ATOM     71  C   UNL     1       5.748 -14.876  -4.635  1.00  0.00     0.023 A 
ATOM     72  C   UNL     1       6.495 -15.176  -5.785  1.00  0.00     0.031 A 
ATOM     73  C   UNL     1       6.367 -14.110  -3.631  1.00  0.00     0.131 A 
ATOM     74  C   UNL     1       7.836 -14.766  -5.876  1.00  0.00     0.055 A 
ATOM     75  C   UNL     1       7.681 -13.655  -3.752  1.00  0.00     0.041 A 
ATOM     76  F   UNL     1       5.701 -13.795  -2.508  1.00  0.00    -0.206 F 
ATOM     77  C   UNL     1       8.430 -13.998  -4.872  1.00  0.00     0.022 A 
BRANCH  74  78
ATOM     78  S   UNL     1       8.831 -15.352  -7.276  1.00  0.00     0.124 S 
ATOM     79  O   UNL     1       8.658 -16.797  -7.180  1.00  0.00    -0.237 OA
ATOM     80  O   UNL     1       8.175 -14.700  -8.405  1.00  0.00    -0.237 OA
ATOM     81  O   UNL     1      10.172 -14.861  -6.968  1.00  0.00    -0.744 OA
ENDBRANCH  74  78
ENDBRANCH  47  71
BRANCH  59  82
ATOM     82  C   UNL     1       3.259 -21.372  -4.182  1.00  0.00     0.023 A 
ATOM     83  C   UNL     1       4.198 -21.845  -3.250  1.00  0.00     0.031 A 
ATOM     84  C   UNL     1       2.950 -22.189  -5.285  1.00  0.00     0.131 A 
ATOM     85  C   UNL     1       4.837 -23.075  -3.465  1.00  0.00     0.055 A 
ATOM     86  C   UNL     1       3.546 -23.438  -5.463  1.00  0.00     0.041 A 
ATOM     87  F   UNL     1       2.060 -21.786  -6.205  1.00  0.00    -0.206 F 
ATOM     88  C   UNL     1       4.505 -23.882  -4.557  1.00  0.00     0.022 A 
BRANCH  85  89
ATOM     89  S   UNL     1       6.173 -23.571  -2.343  1.00  0.00     0.124 S 
ATOM     90  O   UNL     1       7.119 -22.470  -2.492  1.00  0.00    -0.237 OA
ATOM     91  O   UNL     1       5.488 -23.652  -1.058  1.00  0.00    -0.237 OA
ATOM     92  O   UNL     1       6.621 -24.852  -2.888  1.00  0.00    -0.744 OA
ENDBRANCH  85  89
ENDBRANCH  59  82
ENDBRANCH  33  34
ENDBRANCH  26  28
ENDBRANCH  25  26
ENDBRANCH  24  25
ENDBRANCH  23  24
ENDBRANCH   1  23
TORSDOF 20
