REMARK SMILES O=C(C[C@H](NC(=O)[C@]12C[C@H]3C[C@H](C[C@H](C3)C1)C2)c1cccc([N+](=O)[O-])c1)OCCOCCOC(=O)c1ccc(-c2c3nc(c(-c4cc(S(=O)(=O)[O-])ccc4F)c4ccc([nH]4)c(-c4cc(S(=O)(=O)[O-])ccc4F)c4nc(c(-c5cc(S(=O)(=O)[O-])ccc5F)c5ccc2[nH]5)C=C4)C=C3)cc1
REMARK SMILES IDX 30 1 29 2 28 3 27 4 2 5 1 6 3 7 4 8 18 9 19 10 26 11 20 12
REMARK SMILES IDX 22 13 21 14 23 15 24 16 25 17 5 18 6 19 7 21 8 22 9 23 16 24
REMARK SMILES IDX 17 25 10 26 14 27 12 28 11 29 15 30 13 31 31 32 32 33 33 34
REMARK SMILES IDX 34 35 35 36 36 37 37 38 98 39 38 40 97 41 39 42 40 43 41 44
REMARK SMILES IDX 91 45 42 46 96 47 90 48 92 49 43 50 95 51 89 52 88 53 44 55
REMARK SMILES IDX 76 56 56 57 75 58 57 59 60 60 74 61 93 62 58 63 59 64 73 66
REMARK SMILES IDX 94 67 61 68 45 69 46 70 54 71 47 72 53 73 55 74 52 75 48 76
REMARK SMILES IDX 49 77 50 78 51 79 77 80 78 81 86 82 79 83 85 84 87 85 84 86
REMARK SMILES IDX 80 87 81 88 82 89 83 90 62 91 63 92 71 93 64 94 70 95 72 96
REMARK SMILES IDX 69 97 65 98 66 99 67 100 68 101
REMARK H PARENT 5 20 92 54 60 65
REMARK Flexibility Score: inf
ROOT
ATOM      1  O   UNL     1       6.729   1.968   2.272  1.00  0.00    -0.374 OA
ENDROOT
BRANCH   1   2
ATOM      2  C   UNL     1       6.381   2.679   3.458  1.00  0.00     0.202 C 
BRANCH   2   3
ATOM      3  C   UNL     1       4.889   2.897   3.652  1.00  0.00     0.261 C 
BRANCH   3   4
ATOM      4  O   UNL     1       4.206   1.710   4.040  1.00  0.00    -0.463 OA
BRANCH   4   5
ATOM      5  C   UNL     1       3.754   0.782   3.187  1.00  0.00     0.308 C 
ATOM      6  O   UNL     1       3.173  -0.198   3.655  1.00  0.00    -0.252 OA
BRANCH   5   7
ATOM      7  C   UNL     1       4.051   0.862   1.707  1.00  0.00     0.152 C 
BRANCH   7   8
ATOM      8  C   UNL     1       3.128   1.619   0.759  1.00  0.00     0.123 C 
BRANCH   8   9
ATOM      9  C   UNL     1       3.799   2.962   0.368  1.00  0.00    -0.018 A 
ATOM     10  C   UNL     1       5.103   2.985  -0.179  1.00  0.00     0.006 A 
ATOM     11  C   UNL     1       3.196   4.197   0.664  1.00  0.00     0.091 A 
ATOM     12  C   UNL     1       5.833   4.175  -0.293  1.00  0.00     0.007 A 
ATOM     13  C   UNL     1       3.931   5.395   0.524  1.00  0.00     0.269 A 
ATOM     14  C   UNL     1       5.256   5.385   0.074  1.00  0.00     0.085 A 
BRANCH  13  15
ATOM     15  N   UNL     1       3.318   6.674   0.904  1.00  0.00     0.062 N 
ATOM     16  O   UNL     1       4.060   7.659   1.021  1.00  0.00    -0.258 OA
ATOM     17  O   UNL     1       2.091   6.688   1.080  1.00  0.00    -0.258 OA
ENDBRANCH  13  15
ENDBRANCH   8   9
BRANCH   8  18
ATOM     18  N   UNL     1       2.725   0.936  -0.504  1.00  0.00    -0.348 N 
ATOM     19  C   UNL     1       2.477  -0.328  -0.964  1.00  0.00     0.226 C 
ATOM     20  H   UNL     1       2.599   1.594  -1.225  1.00  0.00     0.164 HD
ATOM     21  O   UNL     1       1.803  -0.393  -1.999  1.00  0.00    -0.274 OA
BRANCH  19  22
ATOM     22  C   UNL     1       3.060  -1.618  -0.352  1.00  0.00     0.050 C 
ATOM     23  C   UNL     1       2.486  -1.891   1.056  1.00  0.00     0.020 C 
ATOM     24  C   UNL     1       4.610  -1.555  -0.487  1.00  0.00     0.020 C 
ATOM     25  C   UNL     1       2.670  -2.923  -1.127  1.00  0.00     0.020 C 
ATOM     26  C   UNL     1       3.273  -3.008   1.758  1.00  0.00    -0.010 C 
ATOM     27  C   UNL     1       5.274  -2.733   0.227  1.00  0.00    -0.010 C 
ATOM     28  C   UNL     1       3.337  -4.171  -0.467  1.00  0.00    -0.010 C 
ATOM     29  C   UNL     1       2.926  -4.306   1.014  1.00  0.00     0.007 C 
ATOM     30  C   UNL     1       4.798  -2.790   1.687  1.00  0.00     0.007 C 
ATOM     31  C   UNL     1       4.867  -4.019  -0.506  1.00  0.00     0.007 C 
ENDBRANCH  19  22
ENDBRANCH   8  18
ENDBRANCH   7   8
ENDBRANCH   5   7
ENDBRANCH   4   5
ENDBRANCH   3   4
ENDBRANCH   2   3
ENDBRANCH   1   2
BRANCH   1  32
ATOM     32  C   UNL     1       7.428   0.734   2.460  1.00  0.00     0.202 C 
BRANCH  32  33
ATOM     33  C   UNL     1       8.934   0.886   2.248  1.00  0.00     0.261 C 
BRANCH  33  34
ATOM     34  O   UNL     1       9.443   1.912   3.101  1.00  0.00    -0.460 OA
BRANCH  34  35
ATOM     35  C   UNL     1       9.421   3.165   2.565  1.00  0.00     0.338 C 
ATOM     36  O   UNL     1       9.302   3.458   1.393  1.00  0.00    -0.246 OA
BRANCH  35  37
ATOM     37  C   UNL     1       9.271   4.120   3.693  1.00  0.00     0.060 A 
ATOM     38  C   UNL     1       8.513   5.283   3.477  1.00  0.00     0.016 A 
ATOM     39  C   UNL     1       9.708   3.789   4.981  1.00  0.00     0.016 A 
ATOM     40  C   UNL     1       8.166   6.100   4.550  1.00  0.00     0.010 A 
ATOM     41  C   UNL     1       9.392   4.622   6.048  1.00  0.00     0.010 A 
ATOM     42  C   UNL     1       8.641   5.788   5.829  1.00  0.00    -0.014 A 
BRANCH  42  43
ATOM     43  C   UNL     1       8.637   6.821   6.882  1.00  0.00     0.031 A 
ATOM     44  C   UNL     1       9.872   7.668   6.983  1.00  0.00     0.074 A 
ATOM     45  C   UNL     1       7.603   6.970   7.725  1.00  0.00     0.049 A 
ATOM     46  N   UNL     1      10.204   8.553   7.881  1.00  0.00    -0.248 NA
ATOM     47  C   UNL     1      10.883   7.465   5.930  1.00  0.00     0.031 C 
ATOM     48  C   UNL     1       6.350   6.218   7.674  1.00  0.00     0.029 A 
ATOM     49  N   UNL     1       7.456   7.799   8.806  1.00  0.00    -0.354 N 
ATOM     50  C   UNL     1      11.463   9.006   7.505  1.00  0.00     0.074 A 
ATOM     51  C   UNL     1      11.855   8.265   6.329  1.00  0.00     0.031 C 
ATOM     52  C   UNL     1       5.566   6.612   8.694  1.00  0.00     0.029 A 
ATOM     53  C   UNL     1       6.280   7.609   9.491  1.00  0.00     0.049 A 
ATOM     54  H   UNL     1       8.130   8.468   9.067  1.00  0.00     0.167 HD
ATOM     55  C   UNL     1      12.220   9.962   8.091  1.00  0.00     0.034 A 
ATOM     56  C   UNL     1       5.856   8.160  10.647  1.00  0.00     0.034 A 
ATOM     57  C   UNL     1      11.812  10.661   9.281  1.00  0.00     0.049 A 
ATOM     58  C   UNL     1       6.757   9.163  11.334  1.00  0.00     0.074 A 
ATOM     59  C   UNL     1      12.483  11.649   9.974  1.00  0.00     0.029 A 
ATOM     60  N   UNL     1      10.623  10.429   9.963  1.00  0.00    -0.354 N 
ATOM     61  N   UNL     1       7.944   9.596  10.971  1.00  0.00    -0.248 NA
ATOM     62  C   UNL     1       6.260   9.754  12.582  1.00  0.00     0.031 C 
ATOM     63  C   UNL     1      11.739  11.959  11.116  1.00  0.00     0.029 A 
ATOM     64  C   UNL     1      10.557  11.232  11.088  1.00  0.00     0.049 A 
ATOM     65  H   UNL     1       9.929   9.787   9.687  1.00  0.00     0.167 HD
ATOM     66  C   UNL     1       8.316  10.540  11.926  1.00  0.00     0.074 A 
ATOM     67  C   UNL     1       7.221  10.617  12.873  1.00  0.00     0.031 C 
ATOM     68  C   UNL     1       9.451  11.282  12.016  1.00  0.00     0.034 A 
BRANCH  55  69
ATOM     69  C   UNL     1      13.571  10.241   7.482  1.00  0.00     0.023 A 
ATOM     70  C   UNL     1      13.706  10.723   6.168  1.00  0.00     0.031 A 
ATOM     71  C   UNL     1      14.745   9.963   8.204  1.00  0.00     0.131 A 
ATOM     72  C   UNL     1      14.979  10.840   5.591  1.00  0.00     0.055 A 
ATOM     73  C   UNL     1      16.012  10.165   7.654  1.00  0.00     0.041 A 
ATOM     74  F   UNL     1      14.680   9.464   9.448  1.00  0.00    -0.206 F 
ATOM     75  C   UNL     1      16.134  10.592   6.335  1.00  0.00     0.022 A 
BRANCH  72  76
ATOM     76  S   UNL     1      15.098  11.164   3.810  1.00  0.00     0.124 S 
ATOM     77  O   UNL     1      14.379  10.020   3.254  1.00  0.00    -0.237 OA
ATOM     78  O   UNL     1      14.438  12.458   3.680  1.00  0.00    -0.237 OA
ATOM     79  O   UNL     1      16.537  11.168   3.558  1.00  0.00    -0.744 OA
ENDBRANCH  72  76
ENDBRANCH  55  69
BRANCH  56  80
ATOM     80  C   UNL     1       4.550   7.764  11.250  1.00  0.00     0.023 A 
ATOM     81  C   UNL     1       3.523   8.702  11.437  1.00  0.00     0.031 A 
ATOM     82  C   UNL     1       4.329   6.450  11.703  1.00  0.00     0.131 A 
ATOM     83  C   UNL     1       2.345   8.330  12.104  1.00  0.00     0.055 A 
ATOM     84  C   UNL     1       3.131   6.070  12.313  1.00  0.00     0.041 A 
ATOM     85  F   UNL     1       5.277   5.511  11.554  1.00  0.00    -0.206 F 
ATOM     86  C   UNL     1       2.135   7.017  12.529  1.00  0.00     0.022 A 
BRANCH  83  87
ATOM     87  S   UNL     1       1.126   9.616  12.495  1.00  0.00     0.124 S 
ATOM     88  O   UNL     1       1.923  10.547  13.285  1.00  0.00    -0.237 OA
ATOM     89  O   UNL     1       0.732  10.073  11.167  1.00  0.00    -0.237 OA
ATOM     90  O   UNL     1       0.095   8.892  13.236  1.00  0.00    -0.744 OA
ENDBRANCH  83  87
ENDBRANCH  56  80
BRANCH  68  91
ATOM     91  C   UNL     1       9.533  12.280  13.145  1.00  0.00     0.023 A 
ATOM     92  C   UNL     1       9.593  11.877  14.489  1.00  0.00     0.031 A 
ATOM     93  C   UNL     1       9.559  13.658  12.864  1.00  0.00     0.131 A 
ATOM     94  C   UNL     1       9.616  12.844  15.505  1.00  0.00     0.055 A 
ATOM     95  C   UNL     1       9.654  14.613  13.875  1.00  0.00     0.041 A 
ATOM     96  F   UNL     1       9.504  14.098  11.596  1.00  0.00    -0.206 F 
ATOM     97  C   UNL     1       9.668  14.208  15.206  1.00  0.00     0.022 A 
BRANCH  94  98
ATOM     98  S   UNL     1       9.474  12.297  17.228  1.00  0.00     0.124 S 
ATOM     99  O   UNL     1       8.207  11.573  17.212  1.00  0.00    -0.237 OA
ATOM    100  O   UNL     1      10.672  11.481  17.396  1.00  0.00    -0.237 OA
ATOM    101  O   UNL     1       9.465  13.548  17.985  1.00  0.00    -0.744 OA
ENDBRANCH  94  98
ENDBRANCH  68  91
ENDBRANCH  42  43
ENDBRANCH  35  37
ENDBRANCH  34  35
ENDBRANCH  33  34
ENDBRANCH  32  33
ENDBRANCH   1  32
TORSDOF 22
