REMARK SMILES CN(C)c1cc(C(F)(F)F)cc(-c2cccc(/C=C/C(=O)OCCOCCOC(=O)c3ccc(-c4c5nc(c(-c6cc(S(=O)(=O)[O-])ccc6F)c6ccc([nH]6)c(-c6cc(S(=O)(=O)[O-])ccc6F)c6nc(c(-c7cc(S(=O)(=O)[O-])ccc7F)c7ccc4[nH]7)C=C6)C=C5)cc3)c2)n1
REMARK SMILES IDX 25 1 24 2 23 3 22 4 20 5 21 6 19 7 18 8 17 9 13 10 14 11
REMARK SMILES IDX 94 12 15 13 16 14 12 15 4 16 5 17 95 18 6 19 11 20 2 21 1 22
REMARK SMILES IDX 3 23 7 24 8 25 9 26 10 27 26 28 27 29 28 30 29 31 30 32
REMARK SMILES IDX 31 33 32 34 93 35 33 36 92 37 34 38 35 39 36 40 86 41 37 42
REMARK SMILES IDX 91 43 85 44 87 45 38 46 90 47 84 48 83 49 39 51 71 52 51 53
REMARK SMILES IDX 70 54 52 55 55 56 69 57 88 58 53 59 54 60 68 62 89 63 56 64
REMARK SMILES IDX 40 65 41 66 49 67 42 68 48 69 50 70 47 71 43 72 44 73 45 74
REMARK SMILES IDX 46 75 72 76 73 77 81 78 74 79 80 80 82 81 79 82 75 83 76 84
REMARK SMILES IDX 77 85 78 86 57 87 58 88 66 89 59 90 65 91 67 92 64 93 60 94
REMARK SMILES IDX 61 95 62 96 63 97
REMARK H PARENT 87 50 55 61
REMARK Flexibility Score: inf
ROOT
ATOM      1  O   UNL     1      -3.166   6.334  11.439  1.00  0.00    -0.374 OA
ENDROOT
BRANCH   1   2
ATOM      2  C   UNL     1      -1.782   6.503  11.747  1.00  0.00     0.202 C 
BRANCH   2   3
ATOM      3  C   UNL     1      -1.043   5.226  12.156  1.00  0.00     0.261 C 
BRANCH   3   4
ATOM      4  O   UNL     1      -1.032   4.267  11.084  1.00  0.00    -0.460 OA
BRANCH   4   5
ATOM      5  C   UNL     1      -1.740   3.136  11.306  1.00  0.00     0.330 C 
ATOM      6  O   UNL     1      -2.287   2.807  12.348  1.00  0.00    -0.247 OA
BRANCH   5   7
ATOM      7  C   UNL     1      -1.876   2.311  10.088  1.00  0.00     0.094 C 
ATOM      8  C   UNL     1      -1.299   2.543   8.898  1.00  0.00     0.015 C 
BRANCH   8   9
ATOM      9  C   UNL     1      -1.519   1.687   7.718  1.00  0.00    -0.025 A 
ATOM     10  C   UNL     1      -0.657   0.745   5.620  1.00  0.00     0.001 A 
ATOM     11  C   UNL     1      -1.892   0.104   5.428  1.00  0.00     0.010 A 
ATOM     12  C   UNL     1      -0.494   1.544   6.769  1.00  0.00     0.018 A 
ATOM     13  C   UNL     1      -2.926   0.249   6.351  1.00  0.00     0.001 A 
ATOM     14  C   UNL     1      -2.742   1.042   7.484  1.00  0.00     0.008 A 
BRANCH  10  15
ATOM     15  C   UNL     1       0.432   0.556   4.651  1.00  0.00     0.073 A 
ATOM     16  C   UNL     1       1.056   0.616   2.392  1.00  0.00     0.129 A 
ATOM     17  C   UNL     1       2.328   0.160   2.725  1.00  0.00     0.060 A 
ATOM     18  N   UNL     1       0.123   0.802   3.353  1.00  0.00    -0.231 NA
ATOM     19  C   UNL     1       2.663  -0.086   4.061  1.00  0.00     0.061 A 
ATOM     20  C   UNL     1       1.689   0.117   5.039  1.00  0.00     0.042 A 
BRANCH  16  21
ATOM     21  N   UNL     1       0.732   0.919   1.076  1.00  0.00    -0.363 N 
ATOM     22  C   UNL     1       1.111   0.000   0.018  1.00  0.00     0.144 C 
ATOM     23  C   UNL     1      -0.415   1.788   0.873  1.00  0.00     0.144 C 
ENDBRANCH  16  21
BRANCH  19  24
ATOM     24  C   UNL     1       4.038  -0.548   4.450  1.00  0.00     0.416 C 
ATOM     25  F   UNL     1       4.644   0.297   5.326  1.00  0.00    -0.166 F 
ATOM     26  F   UNL     1       4.017  -1.767   5.058  1.00  0.00    -0.166 F 
ATOM     27  F   UNL     1       4.890  -0.676   3.395  1.00  0.00    -0.166 F 
ENDBRANCH  19  24
ENDBRANCH  10  15
ENDBRANCH   8   9
ENDBRANCH   5   7
ENDBRANCH   4   5
ENDBRANCH   3   4
ENDBRANCH   2   3
ENDBRANCH   1   2
BRANCH   1  28
ATOM     28  C   UNL     1      -3.477   5.914  10.109  1.00  0.00     0.202 C 
BRANCH  28  29
ATOM     29  C   UNL     1      -3.452   7.012   9.038  1.00  0.00     0.261 C 
BRANCH  29  30
ATOM     30  O   UNL     1      -2.112   7.460   8.760  1.00  0.00    -0.460 OA
BRANCH  30  31
ATOM     31  C   UNL     1      -1.828   8.715   9.185  1.00  0.00     0.338 C 
ATOM     32  O   UNL     1      -2.609   9.509   9.697  1.00  0.00    -0.246 OA
BRANCH  31  33
ATOM     33  C   UNL     1      -0.373   8.954   9.124  1.00  0.00     0.060 A 
ATOM     34  C   UNL     1       0.247   9.467  10.271  1.00  0.00     0.016 A 
ATOM     35  C   UNL     1       0.366   8.735   7.960  1.00  0.00     0.016 A 
ATOM     36  C   UNL     1       1.600   9.805  10.244  1.00  0.00     0.010 A 
ATOM     37  C   UNL     1       1.723   9.083   7.932  1.00  0.00     0.010 A 
ATOM     38  C   UNL     1       2.339   9.649   9.064  1.00  0.00    -0.014 A 
BRANCH  38  39
ATOM     39  C   UNL     1       3.709  10.216   8.973  1.00  0.00     0.031 A 
ATOM     40  C   UNL     1       3.899  11.550   8.300  1.00  0.00     0.074 A 
ATOM     41  C   UNL     1       4.761   9.579   9.518  1.00  0.00     0.049 A 
ATOM     42  N   UNL     1       5.001  12.212   8.062  1.00  0.00    -0.248 NA
ATOM     43  C   UNL     1       2.677  12.225   7.834  1.00  0.00     0.031 C 
ATOM     44  C   UNL     1       4.694   8.314  10.250  1.00  0.00     0.029 A 
ATOM     45  N   UNL     1       6.093   9.908   9.539  1.00  0.00    -0.354 N 
ATOM     46  C   UNL     1       4.608  13.387   7.429  1.00  0.00     0.074 A 
ATOM     47  C   UNL     1       3.169  13.321   7.278  1.00  0.00     0.031 C 
ATOM     48  C   UNL     1       5.934   7.972  10.643  1.00  0.00     0.029 A 
ATOM     49  C   UNL     1       6.887   8.969  10.156  1.00  0.00     0.049 A 
ATOM     50  H   UNL     1       6.448  10.740   9.150  1.00  0.00     0.167 HD
ATOM     51  C   UNL     1       5.373  14.432   7.025  1.00  0.00     0.034 A 
ATOM     52  C   UNL     1       8.228   8.909  10.288  1.00  0.00     0.034 A 
ATOM     53  C   UNL     1       6.808  14.477   7.160  1.00  0.00     0.049 A 
ATOM     54  C   UNL     1       9.071  10.029   9.719  1.00  0.00     0.074 A 
ATOM     55  C   UNL     1       7.683  15.472   6.757  1.00  0.00     0.029 A 
ATOM     56  N   UNL     1       7.583  13.481   7.739  1.00  0.00    -0.354 N 
ATOM     57  N   UNL     1       8.686  11.127   9.107  1.00  0.00    -0.248 NA
ATOM     58  C   UNL     1      10.527   9.905   9.865  1.00  0.00     0.031 C 
ATOM     59  C   UNL     1       8.987  15.052   7.038  1.00  0.00     0.029 A 
ATOM     60  C   UNL     1       8.924  13.828   7.683  1.00  0.00     0.049 A 
ATOM     61  H   UNL     1       7.231  12.650   8.132  1.00  0.00     0.167 HD
ATOM     62  C   UNL     1       9.854  11.839   8.837  1.00  0.00     0.074 A 
ATOM     63  C   UNL     1      10.950  11.054   9.361  1.00  0.00     0.031 C 
ATOM     64  C   UNL     1      10.007  13.036   8.216  1.00  0.00     0.034 A 
BRANCH  51  65
ATOM     65  C   UNL     1       4.667  15.590   6.364  1.00  0.00     0.023 A 
ATOM     66  C   UNL     1       3.759  16.397   7.072  1.00  0.00     0.031 A 
ATOM     67  C   UNL     1       4.889  15.881   5.007  1.00  0.00     0.131 A 
ATOM     68  C   UNL     1       3.061  17.416   6.406  1.00  0.00     0.055 A 
ATOM     69  C   UNL     1       4.247  16.943   4.368  1.00  0.00     0.041 A 
ATOM     70  F   UNL     1       5.727  15.130   4.275  1.00  0.00    -0.206 F 
ATOM     71  C   UNL     1       3.317  17.710   5.064  1.00  0.00     0.022 A 
BRANCH  68  72
ATOM     72  S   UNL     1       1.724  18.269   7.283  1.00  0.00     0.124 S 
ATOM     73  O   UNL     1       0.816  17.165   7.582  1.00  0.00    -0.237 OA
ATOM     74  O   UNL     1       2.417  18.854   8.425  1.00  0.00    -0.237 OA
ATOM     75  O   UNL     1       1.225  19.228   6.299  1.00  0.00    -0.744 OA
ENDBRANCH  68  72
ENDBRANCH  51  65
BRANCH  52  76
ATOM     76  C   UNL     1       8.884   7.738  10.942  1.00  0.00     0.023 A 
ATOM     77  C   UNL     1       9.680   7.901  12.087  1.00  0.00     0.031 A 
ATOM     78  C   UNL     1       8.806   6.454  10.373  1.00  0.00     0.131 A 
ATOM     79  C   UNL     1      10.420   6.817  12.586  1.00  0.00     0.055 A 
ATOM     80  C   UNL     1       9.493   5.364  10.912  1.00  0.00     0.041 A 
ATOM     81  F   UNL     1       8.064   6.241   9.275  1.00  0.00    -0.206 F 
ATOM     82  C   UNL     1      10.321   5.547  12.014  1.00  0.00     0.022 A 
BRANCH  79  83
ATOM     83  S   UNL     1      11.614   7.122  13.918  1.00  0.00     0.124 S 
ATOM     84  O   UNL     1      12.443   8.172  13.337  1.00  0.00    -0.237 OA
ATOM     85  O   UNL     1      10.743   7.524  15.017  1.00  0.00    -0.237 OA
ATOM     86  O   UNL     1      12.272   5.828  14.086  1.00  0.00    -0.744 OA
ENDBRANCH  79  83
ENDBRANCH  52  76
BRANCH  64  87
ATOM     87  C   UNL     1      11.408  13.594   8.133  1.00  0.00     0.023 A 
ATOM     88  C   UNL     1      12.406  12.986   7.352  1.00  0.00     0.031 A 
ATOM     89  C   UNL     1      11.749  14.749   8.861  1.00  0.00     0.131 A 
ATOM     90  C   UNL     1      13.711  13.502   7.361  1.00  0.00     0.055 A 
ATOM     91  C   UNL     1      13.034  15.291   8.820  1.00  0.00     0.041 A 
ATOM     92  F   UNL     1      10.835  15.371   9.623  1.00  0.00    -0.206 F 
ATOM     93  C   UNL     1      14.027  14.659   8.078  1.00  0.00     0.022 A 
BRANCH  90  94
ATOM     94  S   UNL     1      15.015  12.588   6.492  1.00  0.00     0.124 S 
ATOM     95  O   UNL     1      14.971  11.289   7.155  1.00  0.00    -0.237 OA
ATOM     96  O   UNL     1      14.547  12.615   5.110  1.00  0.00    -0.237 OA
ATOM     97  O   UNL     1      16.219  13.377   6.752  1.00  0.00    -0.744 OA
ENDBRANCH  90  94
ENDBRANCH  64  87
ENDBRANCH  38  39
ENDBRANCH  31  33
ENDBRANCH  30  31
ENDBRANCH  29  30
ENDBRANCH  28  29
ENDBRANCH   1  28
TORSDOF 21
