REMARK SMILES Cc1cc(N2CCCC2)nc2sc3c(=O)n(CC(=O)OCCOCCOC(=O)c4ccc(-c5c6nc(c(-c7cc(S(=O)(=O)[O-])ccc7F)c7ccc([nH]7)c(-c7cc(S(=O)(=O)[O-])ccc7F)c7nc(c(-c8cc(S(=O)(=O)[O-])ccc8F)c8ccc5[nH]8)C=C7)C=C6)cc4)cnc3c12
REMARK SMILES IDX 24 1 23 2 22 3 21 4 20 5 18 6 19 7 17 8 16 9 1 10 2 11 3 12
REMARK SMILES IDX 95 13 4 14 11 15 94 16 10 17 12 18 13 19 93 20 14 21 92 22
REMARK SMILES IDX 15 23 5 24 6 25 9 26 7 27 8 28 25 29 26 30 27 31 28 32 29 33
REMARK SMILES IDX 30 34 91 35 31 36 90 37 32 38 33 39 34 40 84 41 35 42 89 43
REMARK SMILES IDX 83 44 85 45 36 46 88 47 82 48 81 49 37 51 69 52 49 53 68 54
REMARK SMILES IDX 50 55 53 56 67 57 86 58 51 59 52 60 66 62 87 63 54 64 38 65
REMARK SMILES IDX 39 66 47 67 40 68 46 69 48 70 45 71 41 72 42 73 43 74 44 75
REMARK SMILES IDX 70 76 71 77 79 78 72 79 78 80 80 81 77 82 73 83 74 84 75 85
REMARK SMILES IDX 76 86 55 87 56 88 64 89 57 90 63 91 65 92 62 93 58 94 59 95
REMARK SMILES IDX 60 96 61 97
REMARK H PARENT 85 50 53 61
REMARK Flexibility Score: inf
ROOT
ATOM      1  C   UNL     1      -0.315  -4.670  -4.127  1.00  0.00     0.202 C 
ENDROOT
BRANCH   1   2
ATOM      2  O   UNL     1      -0.197  -5.523  -5.256  1.00  0.00    -0.374 OA
BRANCH   2   3
ATOM      3  C   UNL     1       0.153  -4.939  -6.505  1.00  0.00     0.202 C 
BRANCH   3   4
ATOM      4  C   UNL     1      -0.869  -4.021  -7.188  1.00  0.00     0.261 C 
BRANCH   4   5
ATOM      5  O   UNL     1      -1.459  -3.045  -6.306  1.00  0.00    -0.462 OA
BRANCH   5   6
ATOM      6  C   UNL     1      -2.812  -3.111  -6.197  1.00  0.00     0.326 C 
ATOM      7  O   UNL     1      -3.530  -3.871  -6.843  1.00  0.00    -0.250 OA
BRANCH   6   8
ATOM      8  C   UNL     1      -3.410  -2.202  -5.126  1.00  0.00     0.249 C 
BRANCH   8   9
ATOM      9  N   UNL     1      -2.549  -1.321  -4.346  1.00  0.00    -0.287 N 
ATOM     10  C   UNL     1       0.921  -0.183  -0.093  1.00  0.00     0.045 C 
ATOM     11  C   UNL     1       0.537   1.088  -0.797  1.00  0.00    -0.035 A 
ATOM     12  C   UNL     1       1.082   2.289  -0.316  1.00  0.00     0.051 A 
ATOM     13  C   UNL     1      -0.313   1.191  -1.922  1.00  0.00     0.041 A 
ATOM     14  C   UNL     1       0.747   3.524  -0.867  1.00  0.00     0.130 A 
ATOM     15  C   UNL     1      -0.518   2.472  -2.440  1.00  0.00     0.128 A 
ATOM     16  C   UNL     1      -1.083   0.255  -2.680  1.00  0.00     0.098 A 
ATOM     17  N   UNL     1      -0.081   3.639  -1.918  1.00  0.00    -0.220 NA
ATOM     18  S   UNL     1      -1.422   2.460  -3.899  1.00  0.00    -0.108 S 
ATOM     19  C   UNL     1      -1.636   0.783  -3.815  1.00  0.00     0.121 A 
ATOM     20  N   UNL     1      -1.297  -1.082  -2.311  1.00  0.00    -0.236 NA
ATOM     21  C   UNL     1      -2.368  -0.005  -4.767  1.00  0.00     0.271 A 
ATOM     22  C   UNL     1      -2.030  -1.753  -3.141  1.00  0.00     0.203 A 
ATOM     23  O   UNL     1      -2.840   0.413  -5.826  1.00  0.00    -0.268 OA
BRANCH  14  24
ATOM     24  N   UNL     1       1.235   4.650  -0.256  1.00  0.00    -0.357 N 
ATOM     25  C   UNL     1       2.654   4.924  -0.136  1.00  0.00     0.118 C 
ATOM     26  C   UNL     1       0.434   5.833  -0.027  1.00  0.00     0.118 C 
ATOM     27  C   UNL     1       2.657   5.981   0.961  1.00  0.00     0.023 C 
ATOM     28  C   UNL     1       1.405   6.805   0.663  1.00  0.00     0.023 C 
ENDBRANCH  14  24
ENDBRANCH   8   9
ENDBRANCH   6   8
ENDBRANCH   5   6
ENDBRANCH   4   5
ENDBRANCH   3   4
ENDBRANCH   2   3
ENDBRANCH   1   2
BRANCH   1  29
ATOM     29  C   UNL     1       0.898  -3.914  -3.553  1.00  0.00     0.261 C 
BRANCH  29  30
ATOM     30  O   UNL     1       1.842  -3.389  -4.486  1.00  0.00    -0.460 OA
BRANCH  30  31
ATOM     31  C   UNL     1       2.823  -4.287  -4.759  1.00  0.00     0.338 C 
ATOM     32  O   UNL     1       2.825  -5.469  -4.454  1.00  0.00    -0.246 OA
BRANCH  31  33
ATOM     33  C   UNL     1       3.883  -3.702  -5.586  1.00  0.00     0.060 A 
ATOM     34  C   UNL     1       4.218  -4.356  -6.778  1.00  0.00     0.016 A 
ATOM     35  C   UNL     1       4.685  -2.691  -5.073  1.00  0.00     0.016 A 
ATOM     36  C   UNL     1       5.411  -4.046  -7.427  1.00  0.00     0.010 A 
ATOM     37  C   UNL     1       5.892  -2.411  -5.711  1.00  0.00     0.010 A 
ATOM     38  C   UNL     1       6.285  -3.101  -6.876  1.00  0.00    -0.014 A 
BRANCH  38  39
ATOM     39  C   UNL     1       7.574  -2.812  -7.561  1.00  0.00     0.031 A 
ATOM     40  C   UNL     1       7.993  -1.380  -7.501  1.00  0.00     0.074 A 
ATOM     41  C   UNL     1       8.536  -3.749  -7.743  1.00  0.00     0.049 A 
ATOM     42  N   UNL     1       8.477  -0.870  -6.407  1.00  0.00    -0.248 NA
ATOM     43  C   UNL     1       7.629  -0.384  -8.504  1.00  0.00     0.031 C 
ATOM     44  C   UNL     1       8.658  -4.955  -6.909  1.00  0.00     0.029 A 
ATOM     45  N   UNL     1       9.704  -3.736  -8.482  1.00  0.00    -0.354 N 
ATOM     46  C   UNL     1       8.415   0.502  -6.523  1.00  0.00     0.074 A 
ATOM     47  C   UNL     1       7.918   0.760  -7.859  1.00  0.00     0.031 C 
ATOM     48  C   UNL     1       9.907  -5.449  -7.038  1.00  0.00     0.029 A 
ATOM     49  C   UNL     1      10.632  -4.697  -8.061  1.00  0.00     0.049 A 
ATOM     50  H   UNL     1       9.867  -3.115  -9.229  1.00  0.00     0.167 HD
ATOM     51  C   UNL     1       8.751   1.331  -5.498  1.00  0.00     0.034 A 
ATOM     52  C   UNL     1      11.987  -4.522  -8.052  1.00  0.00     0.034 A 
ATOM     53  C   UNL     1       9.143   0.677  -4.278  1.00  0.00     0.049 A 
ATOM     54  C   UNL     1      12.129  -3.468  -6.975  1.00  0.00     0.074 A 
ATOM     55  C   UNL     1       8.563   0.324  -3.078  1.00  0.00     0.029 A 
ATOM     56  N   UNL     1      10.406   0.133  -4.212  1.00  0.00    -0.354 N 
ATOM     57  N   UNL     1      12.031  -3.646  -5.684  1.00  0.00    -0.248 NA
ATOM     58  C   UNL     1      12.043  -2.073  -7.410  1.00  0.00     0.031 C 
ATOM     59  C   UNL     1       9.326  -0.790  -2.593  1.00  0.00     0.029 A 
ATOM     60  C   UNL     1      10.302  -1.069  -3.549  1.00  0.00     0.049 A 
ATOM     61  H   UNL     1      11.231   0.530  -4.572  1.00  0.00     0.167 HD
ATOM     62  C   UNL     1      11.597  -2.418  -5.172  1.00  0.00     0.074 A 
ATOM     63  C   UNL     1      11.637  -1.497  -6.289  1.00  0.00     0.031 C 
ATOM     64  C   UNL     1      11.069  -2.244  -3.922  1.00  0.00     0.034 A 
BRANCH  51  65
ATOM     65  C   UNL     1       8.963   2.783  -5.677  1.00  0.00     0.023 A 
ATOM     66  C   UNL     1       7.972   3.758  -5.497  1.00  0.00     0.031 A 
ATOM     67  C   UNL     1      10.289   3.196  -5.909  1.00  0.00     0.131 A 
ATOM     68  C   UNL     1       8.342   5.114  -5.537  1.00  0.00     0.055 A 
ATOM     69  C   UNL     1      10.649   4.537  -5.939  1.00  0.00     0.041 A 
ATOM     70  F   UNL     1      11.260   2.280  -6.069  1.00  0.00    -0.206 F 
ATOM     71  C   UNL     1       9.673   5.505  -5.746  1.00  0.00     0.022 A 
BRANCH  68  72
ATOM     72  S   UNL     1       7.132   6.441  -5.269  1.00  0.00     0.124 S 
ATOM     73  O   UNL     1       7.747   7.210  -4.189  1.00  0.00    -0.237 OA
ATOM     74  O   UNL     1       7.115   7.099  -6.573  1.00  0.00    -0.237 OA
ATOM     75  O   UNL     1       5.910   5.731  -4.910  1.00  0.00    -0.744 OA
ENDBRANCH  68  72
ENDBRANCH  51  65
BRANCH  52  76
ATOM     76  C   UNL     1      12.664  -4.370  -9.389  1.00  0.00     0.023 A 
ATOM     77  C   UNL     1      13.624  -3.384  -9.679  1.00  0.00     0.031 A 
ATOM     78  C   UNL     1      12.324  -5.244 -10.443  1.00  0.00     0.131 A 
ATOM     79  C   UNL     1      14.033  -3.157 -11.004  1.00  0.00     0.055 A 
ATOM     80  C   UNL     1      12.786  -5.061 -11.750  1.00  0.00     0.041 A 
ATOM     81  F   UNL     1      11.521  -6.299 -10.223  1.00  0.00    -0.206 F 
ATOM     82  C   UNL     1      13.614  -3.986 -12.044  1.00  0.00     0.022 A 
BRANCH  79  83
ATOM     83  S   UNL     1      15.060  -1.718 -11.417  1.00  0.00     0.124 S 
ATOM     84  O   UNL     1      15.981  -2.260 -12.413  1.00  0.00    -0.237 OA
ATOM     85  O   UNL     1      14.055  -0.789 -11.926  1.00  0.00    -0.237 OA
ATOM     86  O   UNL     1      15.666  -1.359 -10.139  1.00  0.00    -0.744 OA
ENDBRANCH  79  83
ENDBRANCH  52  76
BRANCH  64  87
ATOM     87  C   UNL     1      11.138  -3.427  -2.999  1.00  0.00     0.023 A 
ATOM     88  C   UNL     1       9.977  -4.032  -2.478  1.00  0.00     0.031 A 
ATOM     89  C   UNL     1      12.385  -3.914  -2.572  1.00  0.00     0.131 A 
ATOM     90  C   UNL     1      10.089  -5.052  -1.520  1.00  0.00     0.055 A 
ATOM     91  C   UNL     1      12.490  -4.966  -1.660  1.00  0.00     0.041 A 
ATOM     92  F   UNL     1      13.525  -3.348  -3.002  1.00  0.00    -0.206 F 
ATOM     93  C   UNL     1      11.340  -5.532  -1.120  1.00  0.00     0.022 A 
BRANCH  90  94
ATOM     94  S   UNL     1       8.623  -5.757  -0.715  1.00  0.00     0.124 S 
ATOM     95  O   UNL     1       8.861  -7.195  -0.824  1.00  0.00    -0.237 OA
ATOM     96  O   UNL     1       8.731  -5.213   0.638  1.00  0.00    -0.237 OA
ATOM     97  O   UNL     1       7.505  -5.250  -1.503  1.00  0.00    -0.744 OA
ENDBRANCH  90  94
ENDBRANCH  64  87
ENDBRANCH  38  39
ENDBRANCH  31  33
ENDBRANCH  30  31
ENDBRANCH  29  30
ENDBRANCH   1  29
TORSDOF 19
