REMARK SMILES CC[NH+]1CCC2(CC1)OC[C@@H](C(=O)OCCOCCOC(=O)c1ccc(-c3c4nc(c(-c5cc(S(=O)(=O)[O-])ccc5F)c5ccc([nH]5)c(-c5cc(S(=O)(=O)[O-])ccc5F)c5nc(c(-c6cc(S(=O)(=O)[O-])ccc6F)c6ccc3[nH]6)C=C5)C=C4)cc1)N2C(=O)c1ccc(Cl)c([N+](=O)[O-])c1
REMARK SMILES IDX 17 1 16 2 15 3 14 4 12 5 13 6 11 7 3 8 4 9 8 10 5 12 7 13
REMARK SMILES IDX 6 14 9 15 86 16 10 17 2 18 1 19 87 20 88 21 89 22 90 23
REMARK SMILES IDX 98 24 91 25 94 26 92 27 93 28 95 29 96 30 97 31 18 32 19 33
REMARK SMILES IDX 20 34 21 35 22 36 23 37 24 38 85 39 25 40 84 41 26 42 27 43
REMARK SMILES IDX 28 44 78 45 29 46 83 47 77 48 79 49 30 50 82 51 76 52 75 53
REMARK SMILES IDX 31 55 63 56 43 57 62 58 44 59 47 60 61 61 80 62 45 63 46 64
REMARK SMILES IDX 60 66 81 67 48 68 32 69 33 70 41 71 34 72 40 73 42 74 39 75
REMARK SMILES IDX 35 76 36 77 37 78 38 79 64 80 65 81 73 82 66 83 72 84 74 85
REMARK SMILES IDX 71 86 67 87 68 88 69 89 70 90 49 91 50 92 58 93 51 94 57 95
REMARK SMILES IDX 59 96 56 97 52 98 53 99 54 100 55 101
REMARK H PARENT 3 11 79 54 47 65
REMARK Flexibility Score: inf
ROOT
ATOM      1  O   UNL     1       8.169   4.514   4.969  1.00  0.00    -0.374 OA
ENDROOT
BRANCH   1   2
ATOM      2  C   UNL     1       8.680   3.220   4.667  1.00  0.00     0.202 C 
BRANCH   2   3
ATOM      3  C   UNL     1       7.787   2.004   4.952  1.00  0.00     0.261 C 
BRANCH   3   4
ATOM      4  O   UNL     1       6.481   2.023   4.335  1.00  0.00    -0.462 OA
BRANCH   4   5
ATOM      5  C   UNL     1       5.461   2.267   5.199  1.00  0.00     0.331 C 
ATOM      6  O   UNL     1       5.614   2.510   6.397  1.00  0.00    -0.250 OA
BRANCH   5   7
ATOM      7  C   UNL     1       4.049   2.105   4.627  1.00  0.00     0.224 C 
ATOM      8  N   UNL     1       0.492   0.885   0.916  1.00  0.00    -0.335 N 
ATOM      9  C   UNL     1       0.382   1.976   1.876  1.00  0.00     0.267 C 
ATOM     10  C   UNL     1       1.767   0.177   0.898  1.00  0.00     0.267 C 
ATOM     11  H   UNL     1       0.516   1.347   0.007  1.00  0.00     0.348 HD
ATOM     12  C   UNL     1       1.074   1.806   3.217  1.00  0.00     0.120 C 
ATOM     13  C   UNL     1       2.409  -0.113   2.242  1.00  0.00     0.120 C 
ATOM     14  C   UNL     1       2.423   1.065   3.207  1.00  0.00     0.155 C 
ATOM     15  O   UNL     1       2.411   0.431   4.528  1.00  0.00    -0.352 OA
ATOM     16  N   UNL     1       3.632   1.933   3.235  1.00  0.00    -0.293 N 
ATOM     17  C   UNL     1       3.576   0.810   5.246  1.00  0.00     0.200 C 
BRANCH   8  18
ATOM     18  C   UNL     1      -0.701   0.037   0.880  1.00  0.00     0.258 C 
ATOM     19  C   UNL     1      -0.759  -0.865  -0.351  1.00  0.00     0.071 C 
ENDBRANCH   8  18
BRANCH  16  20
ATOM     20  C   UNL     1       4.044   2.919   2.349  1.00  0.00     0.257 C 
ATOM     21  O   UNL     1       4.668   3.914   2.711  1.00  0.00    -0.269 OA
BRANCH  20  22
ATOM     22  C   UNL     1       3.736   2.897   0.916  1.00  0.00     0.047 A 
ATOM     23  C   UNL     1       4.489   2.152   0.007  1.00  0.00     0.016 A 
ATOM     24  C   UNL     1       2.755   3.774   0.454  1.00  0.00     0.101 A 
ATOM     25  C   UNL     1       4.161   2.200  -1.359  1.00  0.00     0.028 A 
ATOM     26  C   UNL     1       2.373   3.751  -0.897  1.00  0.00     0.288 A 
ATOM     27  C   UNL     1       3.080   2.973  -1.818  1.00  0.00     0.118 A 
ATOM     28  Cl  UNL     1       2.760   2.937  -3.514  1.00  0.00    -0.077 Cl
BRANCH  26  29
ATOM     29  N   UNL     1       1.174   4.505  -1.256  1.00  0.00     0.064 N 
ATOM     30  O   UNL     1       0.402   4.028  -2.096  1.00  0.00    -0.258 OA
ATOM     31  O   UNL     1       0.960   5.551  -0.625  1.00  0.00    -0.258 OA
ENDBRANCH  26  29
ENDBRANCH  20  22
ENDBRANCH  16  20
ENDBRANCH   5   7
ENDBRANCH   4   5
ENDBRANCH   3   4
ENDBRANCH   2   3
ENDBRANCH   1   2
BRANCH   1  32
ATOM     32  C   UNL     1       7.158   5.028   4.100  1.00  0.00     0.202 C 
BRANCH  32  33
ATOM     33  C   UNL     1       7.561   5.289   2.641  1.00  0.00     0.261 C 
BRANCH  33  34
ATOM     34  O   UNL     1       7.868   4.074   1.925  1.00  0.00    -0.460 OA
BRANCH  34  35
ATOM     35  C   UNL     1       9.020   4.111   1.214  1.00  0.00     0.338 C 
ATOM     36  O   UNL     1       9.727   5.090   1.003  1.00  0.00    -0.246 OA
BRANCH  35  37
ATOM     37  C   UNL     1       9.439   2.742   0.865  1.00  0.00     0.060 A 
ATOM     38  C   UNL     1      10.625   2.259   1.431  1.00  0.00     0.016 A 
ATOM     39  C   UNL     1       8.732   1.972  -0.061  1.00  0.00     0.016 A 
ATOM     40  C   UNL     1      11.125   1.014   1.050  1.00  0.00     0.010 A 
ATOM     41  C   UNL     1       9.242   0.724  -0.448  1.00  0.00     0.010 A 
ATOM     42  C   UNL     1      10.455   0.249   0.085  1.00  0.00    -0.014 A 
BRANCH  42  43
ATOM     43  C   UNL     1      11.104  -0.980  -0.446  1.00  0.00     0.031 A 
ATOM     44  C   UNL     1      11.853  -0.913  -1.751  1.00  0.00     0.074 A 
ATOM     45  C   UNL     1      11.069  -2.133   0.251  1.00  0.00     0.049 A 
ATOM     46  N   UNL     1      12.514  -1.854  -2.374  1.00  0.00    -0.248 NA
ATOM     47  C   UNL     1      11.857   0.385  -2.443  1.00  0.00     0.031 C 
ATOM     48  C   UNL     1      10.405  -2.319   1.540  1.00  0.00     0.029 A 
ATOM     49  N   UNL     1      11.607  -3.366  -0.030  1.00  0.00    -0.354 N 
ATOM     50  C   UNL     1      13.016  -1.265  -3.530  1.00  0.00     0.074 A 
ATOM     51  C   UNL     1      12.555   0.107  -3.536  1.00  0.00     0.031 C 
ATOM     52  C   UNL     1      10.567  -3.595   1.935  1.00  0.00     0.029 A 
ATOM     53  C   UNL     1      11.320  -4.324   0.915  1.00  0.00     0.049 A 
ATOM     54  H   UNL     1      12.146  -3.547  -0.833  1.00  0.00     0.167 HD
ATOM     55  C   UNL     1      13.798  -1.813  -4.492  1.00  0.00     0.034 A 
ATOM     56  C   UNL     1      11.613  -5.642   0.946  1.00  0.00     0.034 A 
ATOM     57  C   UNL     1      14.264  -3.177  -4.478  1.00  0.00     0.049 A 
ATOM     58  C   UNL     1      12.419  -6.244  -0.183  1.00  0.00     0.074 A 
ATOM     59  C   UNL     1      15.117  -3.803  -5.371  1.00  0.00     0.029 A 
ATOM     60  N   UNL     1      13.903  -4.133  -3.539  1.00  0.00    -0.354 N 
ATOM     61  N   UNL     1      12.934  -5.655  -1.238  1.00  0.00    -0.248 NA
ATOM     62  C   UNL     1      12.687  -7.688  -0.114  1.00  0.00     0.031 C 
ATOM     63  C   UNL     1      15.210  -5.153  -5.016  1.00  0.00     0.029 A 
ATOM     64  C   UNL     1      14.473  -5.355  -3.861  1.00  0.00     0.049 A 
ATOM     65  H   UNL     1      13.326  -3.967  -2.758  1.00  0.00     0.167 HD
ATOM     66  C   UNL     1      13.606  -6.654  -1.940  1.00  0.00     0.074 A 
ATOM     67  C   UNL     1      13.449  -7.876  -1.180  1.00  0.00     0.031 C 
ATOM     68  C   UNL     1      14.294  -6.571  -3.107  1.00  0.00     0.034 A 
BRANCH  55  69
ATOM     69  C   UNL     1      14.168  -0.952  -5.671  1.00  0.00     0.023 A 
ATOM     70  C   UNL     1      15.050   0.135  -5.550  1.00  0.00     0.031 A 
ATOM     71  C   UNL     1      13.646  -1.245  -6.944  1.00  0.00     0.131 A 
ATOM     72  C   UNL     1      15.355   0.913  -6.677  1.00  0.00     0.055 A 
ATOM     73  C   UNL     1      14.000  -0.503  -8.071  1.00  0.00     0.041 A 
ATOM     74  F   UNL     1      12.785  -2.261  -7.110  1.00  0.00    -0.206 F 
ATOM     75  C   UNL     1      14.854   0.588  -7.940  1.00  0.00     0.022 A 
BRANCH  72  76
ATOM     76  S   UNL     1      16.355   2.410  -6.457  1.00  0.00     0.124 S 
ATOM     77  O   UNL     1      15.511   3.198  -5.561  1.00  0.00    -0.237 OA
ATOM     78  O   UNL     1      17.586   1.886  -5.877  1.00  0.00    -0.237 OA
ATOM     79  O   UNL     1      16.480   2.941  -7.812  1.00  0.00    -0.744 OA
ENDBRANCH  72  76
ENDBRANCH  55  69
BRANCH  56  80
ATOM     80  C   UNL     1      11.100  -6.513   2.043  1.00  0.00     0.023 A 
ATOM     81  C   UNL     1      11.974  -7.210   2.892  1.00  0.00     0.031 A 
ATOM     82  C   UNL     1       9.719  -6.739   2.191  1.00  0.00     0.131 A 
ATOM     83  C   UNL     1      11.463  -8.145   3.807  1.00  0.00     0.055 A 
ATOM     84  C   UNL     1       9.213  -7.627   3.142  1.00  0.00     0.041 A 
ATOM     85  F   UNL     1       8.838  -6.103   1.402  1.00  0.00    -0.206 F 
ATOM     86  C   UNL     1      10.088  -8.350   3.945  1.00  0.00     0.022 A 
BRANCH  83  87
ATOM     87  S   UNL     1      12.629  -9.183   4.733  1.00  0.00     0.124 S 
ATOM     88  O   UNL     1      13.418  -9.774   3.658  1.00  0.00    -0.237 OA
ATOM     89  O   UNL     1      13.313  -8.197   5.564  1.00  0.00    -0.237 OA
ATOM     90  O   UNL     1      11.760 -10.110   5.454  1.00  0.00    -0.744 OA
ENDBRANCH  83  87
ENDBRANCH  56  80
BRANCH  68  91
ATOM     91  C   UNL     1      14.946  -7.833  -3.614  1.00  0.00     0.023 A 
ATOM     92  C   UNL     1      14.184  -8.922  -4.070  1.00  0.00     0.031 A 
ATOM     93  C   UNL     1      16.347  -7.952  -3.632  1.00  0.00     0.131 A 
ATOM     94  C   UNL     1      14.824 -10.102  -4.479  1.00  0.00     0.055 A 
ATOM     95  C   UNL     1      16.981  -9.108  -4.092  1.00  0.00     0.041 A 
ATOM     96  F   UNL     1      17.124  -6.943  -3.206  1.00  0.00    -0.206 F 
ATOM     97  C   UNL     1      16.218 -10.196  -4.507  1.00  0.00     0.022 A 
BRANCH  94  98
ATOM     98  S   UNL     1      13.808 -11.544  -4.901  1.00  0.00     0.124 S 
ATOM     99  O   UNL     1      13.093 -11.788  -3.653  1.00  0.00    -0.237 OA
ATOM    100  O   UNL     1      13.002 -11.045  -6.010  1.00  0.00    -0.237 OA
ATOM    101  O   UNL     1      14.792 -12.564  -5.262  1.00  0.00    -0.744 OA
ENDBRANCH  94  98
ENDBRANCH  68  91
ENDBRANCH  42  43
ENDBRANCH  35  37
ENDBRANCH  34  35
ENDBRANCH  33  34
ENDBRANCH  32  33
ENDBRANCH   1  32
TORSDOF 21
