REMARK SMILES O=C(OCCOCCOC(=O)c1cc(-c2cccc(C(F)(F)F)c2)nc2c(F)cccc12)c1ccc(-c2c3nc(c(-c4cc(S(=O)(=O)[O-])ccc4F)c4ccc([nH]4)c(-c4cc(S(=O)(=O)[O-])ccc4F)c4nc(c(-c5cc(S(=O)(=O)[O-])ccc5F)c5ccc2[nH]5)C=C4)C=C3)cc1
REMARK SMILES IDX 5 1 4 2 3 3 2 4 1 5 33 6 34 7 95 8 35 9 94 10 36 11 37 12
REMARK SMILES IDX 38 13 88 14 39 15 93 16 87 17 89 18 40 19 92 20 86 21 85 22
REMARK SMILES IDX 41 24 73 25 53 26 72 27 54 28 57 29 71 30 90 31 55 32 56 33
REMARK SMILES IDX 70 35 91 36 58 37 42 38 43 39 51 40 44 41 50 42 52 43 49 44
REMARK SMILES IDX 45 45 46 46 47 47 48 48 74 49 75 50 83 51 76 52 82 53 84 54
REMARK SMILES IDX 81 55 77 56 78 57 79 58 80 59 59 60 60 61 68 62 61 63 67 64
REMARK SMILES IDX 69 65 66 66 62 67 63 68 64 69 65 70 6 71 7 72 8 73 9 74
REMARK SMILES IDX 10 75 11 76 12 77 13 78 32 79 14 80 26 81 31 82 25 83 27 84
REMARK SMILES IDX 30 85 28 86 29 87 15 88 16 89 24 90 17 91 19 92 18 93 20 94
REMARK SMILES IDX 21 95 22 96 23 97
REMARK H PARENT 89 23 57 34
REMARK Flexibility Score: inf
ROOT
ATOM      1  C   UNL     1       4.231   0.262  -1.680  1.00  0.00     0.202 C 
ENDROOT
BRANCH   1   2
ATOM      2  C   UNL     1       3.890  -1.065  -0.996  1.00  0.00     0.261 C 
BRANCH   2   3
ATOM      3  O   UNL     1       2.515  -1.071  -0.580  1.00  0.00    -0.460 OA
BRANCH   3   4
ATOM      4  C   UNL     1       2.012  -0.935   0.669  1.00  0.00     0.338 C 
ATOM      5  O   UNL     1       0.796  -1.055   0.821  1.00  0.00    -0.246 OA
BRANCH   4   6
ATOM      6  C   UNL     1       2.841  -0.622   1.874  1.00  0.00     0.060 A 
ATOM      7  C   UNL     1       4.070   0.038   1.851  1.00  0.00     0.016 A 
ATOM      8  C   UNL     1       2.286  -0.928   3.129  1.00  0.00     0.016 A 
ATOM      9  C   UNL     1       4.753   0.352   3.014  1.00  0.00     0.010 A 
ATOM     10  C   UNL     1       2.952  -0.590   4.312  1.00  0.00     0.010 A 
ATOM     11  C   UNL     1       4.195   0.045   4.249  1.00  0.00    -0.014 A 
BRANCH  11  12
ATOM     12  C   UNL     1       5.014   0.316   5.441  1.00  0.00     0.031 A 
ATOM     13  C   UNL     1       5.762  -0.825   6.054  1.00  0.00     0.074 A 
ATOM     14  C   UNL     1       5.197   1.589   5.837  1.00  0.00     0.049 A 
ATOM     15  N   UNL     1       6.537  -0.839   7.101  1.00  0.00    -0.248 NA
ATOM     16  C   UNL     1       5.630  -2.126   5.377  1.00  0.00     0.031 C 
ATOM     17  C   UNL     1       4.609   2.763   5.184  1.00  0.00     0.029 A 
ATOM     18  N   UNL     1       5.952   2.114   6.849  1.00  0.00    -0.354 N 
ATOM     19  C   UNL     1       6.973  -2.153   7.224  1.00  0.00     0.074 A 
ATOM     20  C   UNL     1       6.368  -2.907   6.148  1.00  0.00     0.031 C 
ATOM     21  C   UNL     1       5.044   3.871   5.804  1.00  0.00     0.029 A 
ATOM     22  C   UNL     1       5.875   3.485   6.937  1.00  0.00     0.049 A 
ATOM     23  H   UNL     1       6.498   1.564   7.456  1.00  0.00     0.167 HD
ATOM     24  C   UNL     1       7.794  -2.672   8.167  1.00  0.00     0.034 A 
ATOM     25  C   UNL     1       6.391   4.319   7.862  1.00  0.00     0.034 A 
ATOM     26  C   UNL     1       8.346  -1.879   9.236  1.00  0.00     0.049 A 
ATOM     27  C   UNL     1       7.208   3.700   8.969  1.00  0.00     0.074 A 
ATOM     28  C   UNL     1       9.106  -2.283  10.317  1.00  0.00     0.029 A 
ATOM     29  N   UNL     1       8.181  -0.501   9.356  1.00  0.00    -0.354 N 
ATOM     30  N   UNL     1       7.540   2.438   9.141  1.00  0.00    -0.248 NA
ATOM     31  C   UNL     1       7.710   4.604  10.007  1.00  0.00     0.031 C 
ATOM     32  C   UNL     1       9.346  -1.161  11.121  1.00  0.00     0.029 A 
ATOM     33  C   UNL     1       8.802  -0.043  10.505  1.00  0.00     0.049 A 
ATOM     34  H   UNL     1       7.692   0.066   8.716  1.00  0.00     0.167 HD
ATOM     35  C   UNL     1       8.300   2.399  10.303  1.00  0.00     0.074 A 
ATOM     36  C   UNL     1       8.399   3.769  10.772  1.00  0.00     0.031 C 
ATOM     37  C   UNL     1       8.863   1.336  10.936  1.00  0.00     0.034 A 
BRANCH  24  38
ATOM     38  C   UNL     1       8.018  -4.163   8.124  1.00  0.00     0.023 A 
ATOM     39  C   UNL     1       8.678  -4.790   7.051  1.00  0.00     0.031 A 
ATOM     40  C   UNL     1       7.457  -4.983   9.120  1.00  0.00     0.131 A 
ATOM     41  C   UNL     1       8.685  -6.191   6.956  1.00  0.00     0.055 A 
ATOM     42  C   UNL     1       7.538  -6.376   9.061  1.00  0.00     0.041 A 
ATOM     43  F   UNL     1       6.784  -4.445  10.148  1.00  0.00    -0.206 F 
ATOM     44  C   UNL     1       8.139  -6.988   7.965  1.00  0.00     0.022 A 
BRANCH  41  45
ATOM     45  S   UNL     1       9.267  -6.957   5.416  1.00  0.00     0.124 S 
ATOM     46  O   UNL     1       8.335  -6.398   4.439  1.00  0.00    -0.237 OA
ATOM     47  O   UNL     1      10.643  -6.486   5.327  1.00  0.00    -0.237 OA
ATOM     48  O   UNL     1       9.112  -8.389   5.665  1.00  0.00    -0.744 OA
ENDBRANCH  41  45
ENDBRANCH  24  38
BRANCH  25  49
ATOM     49  C   UNL     1       6.081   5.780   7.833  1.00  0.00     0.023 A 
ATOM     50  C   UNL     1       7.092   6.749   7.737  1.00  0.00     0.031 A 
ATOM     51  C   UNL     1       4.752   6.232   7.947  1.00  0.00     0.131 A 
ATOM     52  C   UNL     1       6.762   8.115   7.792  1.00  0.00     0.055 A 
ATOM     53  C   UNL     1       4.424   7.589   7.944  1.00  0.00     0.041 A 
ATOM     54  F   UNL     1       3.741   5.354   8.052  1.00  0.00    -0.206 F 
ATOM     55  C   UNL     1       5.434   8.540   7.879  1.00  0.00     0.022 A 
BRANCH  52  56
ATOM     56  S   UNL     1       8.102   9.338   7.838  1.00  0.00     0.124 S 
ATOM     57  O   UNL     1       8.866   8.899   9.000  1.00  0.00    -0.237 OA
ATOM     58  O   UNL     1       8.737   9.141   6.539  1.00  0.00    -0.237 OA
ATOM     59  O   UNL     1       7.398  10.609   7.998  1.00  0.00    -0.744 OA
ENDBRANCH  52  56
ENDBRANCH  25  49
BRANCH  37  60
ATOM     60  C   UNL     1       9.655   1.641  12.180  1.00  0.00     0.023 A 
ATOM     61  C   UNL     1       9.030   2.091  13.355  1.00  0.00     0.031 A 
ATOM     62  C   UNL     1      11.051   1.480  12.184  1.00  0.00     0.131 A 
ATOM     63  C   UNL     1       9.810   2.421  14.472  1.00  0.00     0.055 A 
ATOM     64  C   UNL     1      11.814   1.750  13.318  1.00  0.00     0.041 A 
ATOM     65  F   UNL     1      11.692   1.052  11.084  1.00  0.00    -0.206 F 
ATOM     66  C   UNL     1      11.195   2.236  14.467  1.00  0.00     0.022 A 
BRANCH  63  67
ATOM     67  S   UNL     1       8.996   3.178  15.903  1.00  0.00     0.124 S 
ATOM     68  O   UNL     1       8.413   4.381  15.319  1.00  0.00    -0.237 OA
ATOM     69  O   UNL     1       8.050   2.144  16.309  1.00  0.00    -0.237 OA
ATOM     70  O   UNL     1      10.096   3.412  16.838  1.00  0.00    -0.744 OA
ENDBRANCH  63  67
ENDBRANCH  37  60
ENDBRANCH  11  12
ENDBRANCH   4   6
ENDBRANCH   3   4
ENDBRANCH   2   3
ENDBRANCH   1   2
BRANCH   1  71
ATOM     71  O   UNL     1       4.084   1.418  -0.857  1.00  0.00    -0.374 OA
BRANCH  71  72
ATOM     72  C   UNL     1       2.766   1.976  -0.787  1.00  0.00     0.202 C 
BRANCH  72  73
ATOM     73  C   UNL     1       2.849   3.472  -1.083  1.00  0.00     0.261 C 
BRANCH  73  74
ATOM     74  O   UNL     1       3.331   3.613  -2.428  1.00  0.00    -0.460 OA
BRANCH  74  75
ATOM     75  C   UNL     1       4.673   3.749  -2.559  1.00  0.00     0.338 C 
ATOM     76  O   UNL     1       5.481   4.069  -1.705  1.00  0.00    -0.246 OA
BRANCH  75  77
ATOM     77  C   UNL     1       5.047   3.202  -3.879  1.00  0.00     0.071 A 
ATOM     78  C   UNL     1       6.063   2.246  -3.870  1.00  0.00     0.045 A 
ATOM     79  C   UNL     1       4.368   3.538  -5.070  1.00  0.00     0.018 A 
ATOM     80  C   UNL     1       6.347   1.586  -5.046  1.00  0.00     0.072 A 
ATOM     81  C   UNL     1       4.740   2.818  -6.221  1.00  0.00     0.107 A 
ATOM     82  C   UNL     1       3.364   4.539  -5.166  1.00  0.00     0.011 A 
ATOM     83  N   UNL     1       5.701   1.865  -6.200  1.00  0.00    -0.245 NA
ATOM     84  C   UNL     1       4.069   3.115  -7.409  1.00  0.00     0.149 A 
ATOM     85  C   UNL     1       2.713   4.804  -6.366  1.00  0.00     0.004 A 
ATOM     86  F   UNL     1       4.380   2.450  -8.534  1.00  0.00    -0.205 F 
ATOM     87  C   UNL     1       3.068   4.085  -7.494  1.00  0.00     0.041 A 
BRANCH  80  88
ATOM     88  C   UNL     1       7.362   0.531  -5.117  1.00  0.00     0.001 A 
ATOM     89  C   UNL     1       7.122  -0.751  -4.598  1.00  0.00     0.010 A 
ATOM     90  C   UNL     1       8.611   0.791  -5.703  1.00  0.00     0.023 A 
ATOM     91  C   UNL     1       8.106  -1.742  -4.650  1.00  0.00     0.001 A 
ATOM     92  C   UNL     1       9.613  -0.193  -5.756  1.00  0.00     0.056 A 
ATOM     93  C   UNL     1       9.347  -1.462  -5.222  1.00  0.00     0.013 A 
BRANCH  92  94
ATOM     94  C   UNL     1      10.958   0.102  -6.370  1.00  0.00     0.416 C 
ATOM     95  F   UNL     1      11.983  -0.054  -5.487  1.00  0.00    -0.166 F 
ATOM     96  F   UNL     1      11.243  -0.718  -7.420  1.00  0.00    -0.166 F 
ATOM     97  F   UNL     1      11.073   1.372  -6.852  1.00  0.00    -0.166 F 
ENDBRANCH  92  94
ENDBRANCH  80  88
ENDBRANCH  75  77
ENDBRANCH  74  75
ENDBRANCH  73  74
ENDBRANCH  72  73
ENDBRANCH  71  72
ENDBRANCH   1  71
TORSDOF 19
