REMARK SMILES [NH3+][C@@H](Cc1cn(-c2nc(Cl)nc(N3CCOCC3)n2)c2ccccc12)C(=O)OCCOCCOC(=O)c1ccc(-c2c3nc(c(-c4cc(S(=O)(=O)[O-])ccc4F)c4ccc([nH]4)c(-c4cc(S(=O)(=O)[O-])ccc4F)c4nc(c(-c5cc(S(=O)(=O)[O-])ccc5F)c5ccc2[nH]5)C=C4)C=C3)cc1
REMARK SMILES IDX 30 1 29 2 28 3 26 4 27 5 2 6 1 7 3 11 4 12 5 13 25 14 6 15
REMARK SMILES IDX 20 16 24 17 21 18 23 19 22 20 7 21 8 22 19 23 9 24 12 25
REMARK SMILES IDX 10 26 11 27 13 28 14 29 18 30 15 31 17 32 16 33 31 34 32 35
REMARK SMILES IDX 33 36 34 37 35 38 36 39 37 40 38 41 99 42 39 43 98 44 40 45
REMARK SMILES IDX 41 46 42 47 92 48 43 49 97 50 91 51 93 52 44 53 96 54 90 55
REMARK SMILES IDX 89 56 45 58 77 59 57 60 76 61 58 62 61 63 75 64 94 65 59 66
REMARK SMILES IDX 60 67 74 69 95 70 62 71 46 72 47 73 55 74 48 75 54 76 56 77
REMARK SMILES IDX 53 78 49 79 50 80 51 81 52 82 78 83 79 84 87 85 80 86 86 87
REMARK SMILES IDX 88 88 85 89 81 90 82 91 83 92 84 93 63 94 64 95 72 96 65 97
REMARK SMILES IDX 71 98 73 99 70 100 66 101 67 102 68 103 69 104
REMARK H PARENT 1 8 1 9 1 10 93 57 61 68
REMARK Flexibility Score: inf
ROOT
ATOM      1  C   UNL     1      -3.575   1.167  -0.003  1.00  0.00     0.202 C 
ENDROOT
BRANCH   1   2
ATOM      2  C   UNL     1      -2.803   1.306  -1.319  1.00  0.00     0.261 C 
BRANCH   2   3
ATOM      3  O   UNL     1      -1.430   0.948  -1.190  1.00  0.00    -0.459 OA
BRANCH   3   4
ATOM      4  C   UNL     1      -0.586   2.012  -1.113  1.00  0.00     0.365 C 
ATOM      5  O   UNL     1      -0.911   3.188  -1.236  1.00  0.00    -0.245 OA
BRANCH   4   6
ATOM      6  C   UNL     1       0.855   1.573  -0.844  1.00  0.00     0.296 C 
BRANCH   6   7
ATOM      7  N   UNL     1       0.970   0.446   0.128  1.00  0.00    -0.346 N 
ATOM      8  H   UNL     1       1.953   0.208   0.257  1.00  0.00     0.345 HD
ATOM      9  H   UNL     1       0.468  -0.366  -0.233  1.00  0.00     0.345 HD
ATOM     10  H   UNL     1       0.567   0.725   1.022  1.00  0.00     0.345 HD
ENDBRANCH   6   7
BRANCH   6  11
ATOM     11  C   UNL     1       1.526   1.273  -2.178  1.00  0.00     0.115 C 
BRANCH  11  12
ATOM     12  C   UNL     1       1.016   0.033  -2.849  1.00  0.00    -0.015 A 
ATOM     13  C   UNL     1       1.243  -1.288  -2.506  1.00  0.00     0.099 A 
ATOM     14  C   UNL     1       0.178   0.014  -4.000  1.00  0.00     0.004 A 
ATOM     15  N   UNL     1       0.676  -2.098  -3.469  1.00  0.00    -0.285 N 
ATOM     16  C   UNL     1       0.078  -1.311  -4.429  1.00  0.00     0.056 A 
ATOM     17  C   UNL     1      -0.463   1.024  -4.736  1.00  0.00     0.010 A 
ATOM     18  C   UNL     1      -0.574  -1.662  -5.615  1.00  0.00     0.027 A 
ATOM     19  C   UNL     1      -1.089   0.678  -5.926  1.00  0.00     0.001 A 
ATOM     20  C   UNL     1      -1.108  -0.632  -6.374  1.00  0.00     0.002 A 
BRANCH  15  21
ATOM     21  C   UNL     1       0.774  -3.511  -3.506  1.00  0.00     0.240 A 
ATOM     22  N   UNL     1       1.306  -4.049  -4.595  1.00  0.00    -0.181 NA
ATOM     23  N   UNL     1       0.398  -4.190  -2.418  1.00  0.00    -0.176 NA
ATOM     24  C   UNL     1       1.514  -5.346  -4.475  1.00  0.00     0.228 A 
ATOM     25  C   UNL     1       0.574  -5.507  -2.471  1.00  0.00     0.231 A 
ATOM     26  Cl  UNL     1       2.359  -6.085  -5.762  1.00  0.00    -0.041 Cl
ATOM     27  N   UNL     1       1.213  -6.128  -3.448  1.00  0.00    -0.182 NA
BRANCH  25  28
ATOM     28  N   UNL     1       0.094  -6.241  -1.434  1.00  0.00    -0.336 N 
ATOM     29  C   UNL     1      -1.336  -6.306  -1.169  1.00  0.00     0.148 C 
ATOM     30  C   UNL     1       0.926  -7.172  -0.700  1.00  0.00     0.148 C 
ATOM     31  C   UNL     1      -1.556  -6.152   0.343  1.00  0.00     0.181 C 
ATOM     32  C   UNL     1       0.633  -6.958   0.797  1.00  0.00     0.181 C 
ATOM     33  O   UNL     1      -0.770  -7.106   1.091  1.00  0.00    -0.378 OA
ENDBRANCH  25  28
ENDBRANCH  15  21
ENDBRANCH  11  12
ENDBRANCH   6  11
ENDBRANCH   4   6
ENDBRANCH   3   4
ENDBRANCH   2   3
ENDBRANCH   1   2
BRANCH   1  34
ATOM     34  O   UNL     1      -3.028   1.651   1.217  1.00  0.00    -0.374 OA
BRANCH  34  35
ATOM     35  C   UNL     1      -1.850   1.018   1.718  1.00  0.00     0.202 C 
BRANCH  35  36
ATOM     36  C   UNL     1      -1.799  -0.506   2.002  1.00  0.00     0.261 C 
BRANCH  36  37
ATOM     37  O   UNL     1      -2.177  -1.338   0.882  1.00  0.00    -0.460 OA
BRANCH  37  38
ATOM     38  C   UNL     1      -3.314  -2.071   1.029  1.00  0.00     0.338 C 
ATOM     39  O   UNL     1      -3.858  -2.354   2.106  1.00  0.00    -0.246 OA
BRANCH  38  40
ATOM     40  C   UNL     1      -4.021  -2.125  -0.283  1.00  0.00     0.060 A 
ATOM     41  C   UNL     1      -3.355  -2.295  -1.498  1.00  0.00     0.016 A 
ATOM     42  C   UNL     1      -5.348  -1.664  -0.297  1.00  0.00     0.016 A 
ATOM     43  C   UNL     1      -3.938  -1.765  -2.671  1.00  0.00     0.010 A 
ATOM     44  C   UNL     1      -5.930  -1.193  -1.478  1.00  0.00     0.010 A 
ATOM     45  C   UNL     1      -5.177  -1.063  -2.644  1.00  0.00    -0.014 A 
BRANCH  45  46
ATOM     46  C   UNL     1      -5.845  -0.561  -3.899  1.00  0.00     0.031 A 
ATOM     47  C   UNL     1      -6.133  -1.805  -4.702  1.00  0.00     0.074 A 
ATOM     48  C   UNL     1      -6.235   0.716  -4.279  1.00  0.00     0.049 A 
ATOM     49  N   UNL     1      -5.474  -2.204  -5.740  1.00  0.00    -0.248 NA
ATOM     50  C   UNL     1      -6.968  -2.888  -4.121  1.00  0.00     0.031 C 
ATOM     51  C   UNL     1      -6.128   2.003  -3.553  1.00  0.00     0.029 A 
ATOM     52  N   UNL     1      -6.869   1.169  -5.456  1.00  0.00    -0.354 N 
ATOM     53  C   UNL     1      -6.070  -3.403  -6.128  1.00  0.00     0.074 A 
ATOM     54  C   UNL     1      -6.788  -3.886  -4.989  1.00  0.00     0.031 C 
ATOM     55  C   UNL     1      -6.903   2.969  -4.128  1.00  0.00     0.029 A 
ATOM     56  C   UNL     1      -7.477   2.473  -5.365  1.00  0.00     0.049 A 
ATOM     57  H   UNL     1      -6.894   0.632  -6.281  1.00  0.00     0.167 HD
ATOM     58  C   UNL     1      -6.193  -3.704  -7.450  1.00  0.00     0.034 A 
ATOM     59  C   UNL     1      -8.236   3.177  -6.294  1.00  0.00     0.034 A 
ATOM     60  C   UNL     1      -5.359  -2.821  -8.220  1.00  0.00     0.049 A 
ATOM     61  C   UNL     1      -8.042   2.525  -7.602  1.00  0.00     0.074 A 
ATOM     62  C   UNL     1      -4.024  -2.690  -8.508  1.00  0.00     0.029 A 
ATOM     63  N   UNL     1      -5.943  -1.605  -8.441  1.00  0.00    -0.354 N 
ATOM     64  N   UNL     1      -6.910   2.575  -8.236  1.00  0.00    -0.248 NA
ATOM     65  C   UNL     1      -8.898   1.378  -7.845  1.00  0.00     0.031 C 
ATOM     66  C   UNL     1      -3.820  -1.305  -8.766  1.00  0.00     0.029 A 
ATOM     67  C   UNL     1      -5.025  -0.620  -8.638  1.00  0.00     0.049 A 
ATOM     68  H   UNL     1      -6.917  -1.458  -8.456  1.00  0.00     0.167 HD
ATOM     69  C   UNL     1      -6.658   1.247  -8.512  1.00  0.00     0.074 A 
ATOM     70  C   UNL     1      -7.934   0.557  -8.262  1.00  0.00     0.031 C 
ATOM     71  C   UNL     1      -5.377   0.787  -8.598  1.00  0.00     0.034 A 
BRANCH  58  72
ATOM     72  C   UNL     1      -7.400  -4.384  -8.066  1.00  0.00     0.023 A 
ATOM     73  C   UNL     1      -8.627  -4.594  -7.400  1.00  0.00     0.031 A 
ATOM     74  C   UNL     1      -7.403  -4.635  -9.456  1.00  0.00     0.131 A 
ATOM     75  C   UNL     1      -9.756  -5.075  -8.090  1.00  0.00     0.055 A 
ATOM     76  C   UNL     1      -8.547  -5.041 -10.152  1.00  0.00     0.041 A 
ATOM     77  F   UNL     1      -6.294  -4.454 -10.190  1.00  0.00    -0.206 F 
ATOM     78  C   UNL     1      -9.730  -5.272  -9.467  1.00  0.00     0.022 A 
BRANCH  75  79
ATOM     79  S   UNL     1     -11.290  -5.497  -7.211  1.00  0.00     0.124 S 
ATOM     80  O   UNL     1     -12.287  -4.707  -7.928  1.00  0.00    -0.237 OA
ATOM     81  O   UNL     1     -11.359  -6.941  -7.430  1.00  0.00    -0.237 OA
ATOM     82  O   UNL     1     -11.020  -5.091  -5.837  1.00  0.00    -0.744 OA
ENDBRANCH  75  79
ENDBRANCH  58  72
BRANCH  59  83
ATOM     83  C   UNL     1      -9.552   3.914  -6.119  1.00  0.00     0.023 A 
ATOM     84  C   UNL     1     -10.325   3.538  -5.021  1.00  0.00     0.031 A 
ATOM     85  C   UNL     1     -10.248   4.610  -7.154  1.00  0.00     0.131 A 
ATOM     86  C   UNL     1     -11.716   3.737  -5.001  1.00  0.00     0.055 A 
ATOM     87  C   UNL     1     -11.639   4.872  -7.101  1.00  0.00     0.041 A 
ATOM     88  F   UNL     1      -9.619   4.978  -8.283  1.00  0.00    -0.206 F 
ATOM     89  C   UNL     1     -12.387   4.404  -6.027  1.00  0.00     0.022 A 
BRANCH  86  90
ATOM     90  S   UNL     1     -12.681   2.943  -3.690  1.00  0.00     0.124 S 
ATOM     91  O   UNL     1     -13.467   4.058  -3.170  1.00  0.00    -0.237 OA
ATOM     92  O   UNL     1     -13.424   1.938  -4.442  1.00  0.00    -0.237 OA
ATOM     93  O   UNL     1     -11.657   2.431  -2.784  1.00  0.00    -0.744 OA
ENDBRANCH  86  90
ENDBRANCH  59  83
BRANCH  71  94
ATOM     94  C   UNL     1      -4.237   1.794  -8.600  1.00  0.00     0.023 A 
ATOM     95  C   UNL     1      -3.326   1.663  -9.655  1.00  0.00     0.031 A 
ATOM     96  C   UNL     1      -3.894   2.696  -7.570  1.00  0.00     0.131 A 
ATOM     97  C   UNL     1      -2.085   2.300  -9.621  1.00  0.00     0.055 A 
ATOM     98  C   UNL     1      -2.696   3.435  -7.599  1.00  0.00     0.041 A 
ATOM     99  F   UNL     1      -4.638   2.806  -6.460  1.00  0.00    -0.206 F 
ATOM    100  C   UNL     1      -1.766   3.210  -8.613  1.00  0.00     0.022 A 
BRANCH  97 101
ATOM    101  S   UNL     1      -0.801   1.782 -10.786  1.00  0.00     0.124 S 
ATOM    102  O   UNL     1      -0.513   3.024 -11.496  1.00  0.00    -0.237 OA
ATOM    103  O   UNL     1       0.250   1.307  -9.890  1.00  0.00    -0.237 OA
ATOM    104  O   UNL     1      -1.448   0.742 -11.581  1.00  0.00    -0.744 OA
ENDBRANCH  97 101
ENDBRANCH  71  94
ENDBRANCH  45  46
ENDBRANCH  38  40
ENDBRANCH  37  38
ENDBRANCH  36  37
ENDBRANCH  35  36
ENDBRANCH  34  35
ENDBRANCH   1  34
TORSDOF 22
