REMARK SMILES Cc1cc(C)c2c(c1)C=C(C(=O)OCCOCCOC(=O)c1ccc(-c3c4nc(c(-c5cc(S(=O)(=O)[O-])ccc5F)c5ccc([nH]5)c(-c5cc(S(=O)(=O)[O-])ccc5F)c5nc(c(-c6cc(S(=O)(=O)[O-])ccc6F)c6ccc3[nH]6)C=C5)C=C4)cc1)[C@@H](C(F)(F)F)O2
REMARK SMILES IDX 17 1 16 2 15 3 14 4 13 5 11 6 12 7 10 8 1 9 2 10 3 11 8 12
REMARK SMILES IDX 4 13 7 14 5 15 6 16 9 17 90 18 85 19 86 20 87 21 88 22 89 23
REMARK SMILES IDX 18 24 19 25 20 26 21 27 22 28 23 29 84 30 24 31 83 32 25 33
REMARK SMILES IDX 26 34 27 35 77 36 28 37 82 38 76 39 78 40 29 41 81 42 75 43
REMARK SMILES IDX 74 44 30 46 62 47 42 48 61 49 43 50 46 51 60 52 79 53 44 54
REMARK SMILES IDX 45 55 59 57 80 58 47 59 31 60 32 61 40 62 33 63 39 64 41 65
REMARK SMILES IDX 38 66 34 67 35 68 36 69 37 70 63 71 64 72 72 73 65 74 71 75
REMARK SMILES IDX 73 76 70 77 66 78 67 79 68 80 69 81 48 82 49 83 57 84 50 85
REMARK SMILES IDX 56 86 58 87 55 88 51 89 52 90 53 91 54 92
REMARK H PARENT 78 45 46 56
REMARK Flexibility Score: inf
ROOT
ATOM      1  C   UNL     1       0.128   2.928   7.351  1.00  0.00     0.202 C 
ENDROOT
BRANCH   1   2
ATOM      2  O   UNL     1      -0.956   3.698   7.874  1.00  0.00    -0.374 OA
BRANCH   2   3
ATOM      3  C   UNL     1      -1.825   3.078   8.818  1.00  0.00     0.202 C 
BRANCH   3   4
ATOM      4  C   UNL     1      -2.872   2.101   8.274  1.00  0.00     0.261 C 
BRANCH   4   5
ATOM      5  O   UNL     1      -2.283   1.070   7.466  1.00  0.00    -0.460 OA
BRANCH   5   6
ATOM      6  C   UNL     1      -2.552   1.173   6.145  1.00  0.00     0.338 C 
ATOM      7  O   UNL     1      -3.308   1.969   5.607  1.00  0.00    -0.246 OA
BRANCH   6   8
ATOM      8  C   UNL     1      -1.685   0.253   5.385  1.00  0.00     0.087 C 
ATOM      9  C   UNL     1       1.122  -0.078  -0.081  1.00  0.00     0.044 C 
ATOM     10  C   UNL     1       0.653  -0.559   1.260  1.00  0.00    -0.050 A 
ATOM     11  C   UNL     1       0.826  -1.898   1.633  1.00  0.00     0.010 A 
ATOM     12  C   UNL     1       0.037   0.319   2.155  1.00  0.00     0.015 A 
ATOM     13  C   UNL     1       0.391  -2.363   2.885  1.00  0.00    -0.008 A 
ATOM     14  C   UNL     1      -0.420  -0.137   3.397  1.00  0.00     0.018 A 
ATOM     15  C   UNL     1       0.556  -3.813   3.247  1.00  0.00     0.048 C 
ATOM     16  C   UNL     1      -0.222  -1.467   3.774  1.00  0.00     0.130 A 
ATOM     17  C   UNL     1      -1.170   0.757   4.257  1.00  0.00     0.027 C 
ATOM     18  O   UNL     1      -0.596  -1.956   4.996  1.00  0.00    -0.475 OA
ATOM     19  C   UNL     1      -1.446  -1.151   5.861  1.00  0.00     0.316 C 
BRANCH  19  20
ATOM     20  C   UNL     1      -2.751  -1.925   6.101  1.00  0.00     0.430 C 
ATOM     21  F   UNL     1      -2.500  -3.203   6.474  1.00  0.00    -0.167 F 
ATOM     22  F   UNL     1      -3.494  -1.370   7.084  1.00  0.00    -0.167 F 
ATOM     23  F   UNL     1      -3.519  -1.972   4.988  1.00  0.00    -0.167 F 
ENDBRANCH  19  20
ENDBRANCH   6   8
ENDBRANCH   5   6
ENDBRANCH   4   5
ENDBRANCH   3   4
ENDBRANCH   2   3
ENDBRANCH   1   2
BRANCH   1  24
ATOM     24  C   UNL     1       1.271   2.548   8.301  1.00  0.00     0.261 C 
BRANCH  24  25
ATOM     25  O   UNL     1       0.861   1.601   9.304  1.00  0.00    -0.460 OA
BRANCH  25  26
ATOM     26  C   UNL     1       0.931   2.058  10.578  1.00  0.00     0.338 C 
ATOM     27  O   UNL     1       1.350   3.147  10.949  1.00  0.00    -0.246 OA
BRANCH  26  28
ATOM     28  C   UNL     1       0.234   1.125  11.479  1.00  0.00     0.060 A 
ATOM     29  C   UNL     1      -0.889   1.598  12.169  1.00  0.00     0.016 A 
ATOM     30  C   UNL     1       0.721  -0.164  11.708  1.00  0.00     0.016 A 
ATOM     31  C   UNL     1      -1.514   0.791  13.116  1.00  0.00     0.010 A 
ATOM     32  C   UNL     1       0.099  -0.967  12.670  1.00  0.00     0.010 A 
ATOM     33  C   UNL     1      -1.001  -0.481  13.400  1.00  0.00    -0.014 A 
BRANCH  33  34
ATOM     34  C   UNL     1      -1.528  -1.217  14.576  1.00  0.00     0.031 A 
ATOM     35  C   UNL     1      -0.770  -1.145  15.874  1.00  0.00     0.074 A 
ATOM     36  C   UNL     1      -2.707  -1.861  14.511  1.00  0.00     0.049 A 
ATOM     37  N   UNL     1      -1.069  -1.662  17.036  1.00  0.00    -0.248 NA
ATOM     38  C   UNL     1       0.489  -0.381  15.861  1.00  0.00     0.031 C 
ATOM     39  C   UNL     1      -3.555  -1.949  13.323  1.00  0.00     0.029 A 
ATOM     40  N   UNL     1      -3.407  -2.546  15.474  1.00  0.00    -0.354 N 
ATOM     41  C   UNL     1      -0.049  -1.274  17.896  1.00  0.00     0.074 A 
ATOM     42  C   UNL     1       0.904  -0.520  17.111  1.00  0.00     0.031 C 
ATOM     43  C   UNL     1      -4.672  -2.630  13.634  1.00  0.00     0.029 A 
ATOM     44  C   UNL     1      -4.606  -3.054  15.031  1.00  0.00     0.049 A 
ATOM     45  H   UNL     1      -3.080  -2.663  16.395  1.00  0.00     0.167 HD
ATOM     46  C   UNL     1       0.069  -1.503  19.226  1.00  0.00     0.034 A 
ATOM     47  C   UNL     1      -5.539  -3.781  15.679  1.00  0.00     0.034 A 
ATOM     48  C   UNL     1      -0.884  -2.251  20.000  1.00  0.00     0.049 A 
ATOM     49  C   UNL     1      -5.323  -4.126  17.132  1.00  0.00     0.074 A 
ATOM     50  C   UNL     1      -0.858  -2.534  21.354  1.00  0.00     0.029 A 
ATOM     51  N   UNL     1      -2.032  -2.840  19.490  1.00  0.00    -0.354 N 
ATOM     52  N   UNL     1      -4.347  -3.759  17.929  1.00  0.00    -0.248 NA
ATOM     53  C   UNL     1      -6.328  -4.989  17.772  1.00  0.00     0.031 C 
ATOM     54  C   UNL     1      -1.954  -3.347  21.651  1.00  0.00     0.029 A 
ATOM     55  C   UNL     1      -2.700  -3.518  20.495  1.00  0.00     0.049 A 
ATOM     56  H   UNL     1      -2.328  -2.784  18.553  1.00  0.00     0.167 HD
ATOM     57  C   UNL     1      -4.630  -4.331  19.166  1.00  0.00     0.074 A 
ATOM     58  C   UNL     1      -5.871  -5.062  19.015  1.00  0.00     0.031 C 
ATOM     59  C   UNL     1      -3.928  -4.253  20.324  1.00  0.00     0.034 A 
BRANCH  46  60
ATOM     60  C   UNL     1       1.282  -0.952  19.924  1.00  0.00     0.023 A 
ATOM     61  C   UNL     1       1.449   0.429  20.119  1.00  0.00     0.031 A 
ATOM     62  C   UNL     1       2.268  -1.819  20.428  1.00  0.00     0.131 A 
ATOM     63  C   UNL     1       2.595   0.907  20.768  1.00  0.00     0.055 A 
ATOM     64  C   UNL     1       3.377  -1.340  21.126  1.00  0.00     0.041 A 
ATOM     65  F   UNL     1       2.164  -3.146  20.252  1.00  0.00    -0.206 F 
ATOM     66  C   UNL     1       3.549   0.031  21.294  1.00  0.00     0.022 A 
BRANCH  63  67
ATOM     67  S   UNL     1       2.861   2.698  20.854  1.00  0.00     0.124 S 
ATOM     68  O   UNL     1       3.014   3.041  19.442  1.00  0.00    -0.237 OA
ATOM     69  O   UNL     1       1.640   3.171  21.496  1.00  0.00    -0.237 OA
ATOM     70  O   UNL     1       4.076   2.826  21.656  1.00  0.00    -0.744 OA
ENDBRANCH  63  67
ENDBRANCH  46  60
BRANCH  47  71
ATOM     71  C   UNL     1      -6.753  -4.257  14.959  1.00  0.00     0.023 A 
ATOM     72  C   UNL     1      -8.030  -3.785  15.302  1.00  0.00     0.031 A 
ATOM     73  C   UNL     1      -6.655  -5.212  13.931  1.00  0.00     0.131 A 
ATOM     74  C   UNL     1      -9.161  -4.287  14.639  1.00  0.00     0.055 A 
ATOM     75  C   UNL     1      -7.779  -5.677  13.247  1.00  0.00     0.041 A 
ATOM     76  F   UNL     1      -5.457  -5.696  13.567  1.00  0.00    -0.206 F 
ATOM     77  C   UNL     1      -9.043  -5.220  13.605  1.00  0.00     0.022 A 
BRANCH  74  78
ATOM     78  S   UNL     1     -10.803  -3.734  15.176  1.00  0.00     0.124 S 
ATOM     79  O   UNL     1     -10.852  -4.238  16.544  1.00  0.00    -0.237 OA
ATOM     80  O   UNL     1     -10.701  -2.286  15.027  1.00  0.00    -0.237 OA
ATOM     81  O   UNL     1     -11.708  -4.391  14.235  1.00  0.00    -0.744 OA
ENDBRANCH  74  78
ENDBRANCH  47  71
BRANCH  59  82
ATOM     82  C   UNL     1      -4.475  -4.970  21.529  1.00  0.00     0.023 A 
ATOM     83  C   UNL     1      -4.397  -6.367  21.640  1.00  0.00     0.031 A 
ATOM     84  C   UNL     1      -4.988  -4.240  22.616  1.00  0.00     0.131 A 
ATOM     85  C   UNL     1      -4.835  -6.997  22.814  1.00  0.00     0.055 A 
ATOM     86  C   UNL     1      -5.384  -4.868  23.797  1.00  0.00     0.041 A 
ATOM     87  F   UNL     1      -5.073  -2.901  22.560  1.00  0.00    -0.206 F 
ATOM     88  C   UNL     1      -5.309  -6.255  23.900  1.00  0.00     0.022 A 
BRANCH  85  89
ATOM     89  S   UNL     1      -4.775  -8.806  22.908  1.00  0.00     0.124 S 
ATOM     90  O   UNL     1      -5.771  -9.194  21.914  1.00  0.00    -0.237 OA
ATOM     91  O   UNL     1      -3.387  -9.097  22.565  1.00  0.00    -0.237 OA
ATOM     92  O   UNL     1      -5.139  -9.090  24.295  1.00  0.00    -0.744 OA
ENDBRANCH  85  89
ENDBRANCH  59  82
ENDBRANCH  33  34
ENDBRANCH  26  28
ENDBRANCH  25  26
ENDBRANCH  24  25
ENDBRANCH   1  24
TORSDOF 18
