REMARK SMILES CCOc1ccc(C(=O)N2CCC(C(=O)OCCOCCOC(=O)c3ccc(-c4c5nc(c(-c6cc(S(=O)(=O)[O-])ccc6F)c6ccc([nH]6)c(-c6cc(S(=O)(=O)[O-])ccc6F)c6nc(c(-c7cc(S(=O)(=O)[O-])ccc7F)c7ccc4[nH]7)C=C6)C=C5)cc3)(c3ccccc3)CC2)cc1OC
REMARK SMILES IDX 19 1 18 2 17 3 16 4 14 5 15 6 13 7 8 8 9 9 10 10 11 11 95 12
REMARK SMILES IDX 12 13 94 14 7 15 4 16 5 17 97 18 6 19 96 20 3 21 2 22 1 23
REMARK SMILES IDX 98 24 99 25 88 26 89 27 93 28 90 29 92 30 91 31 20 32 21 33
REMARK SMILES IDX 22 34 23 35 24 36 25 37 26 38 87 39 27 40 86 41 28 42 29 43
REMARK SMILES IDX 30 44 80 45 31 46 85 47 79 48 81 49 32 50 84 51 78 52 77 53
REMARK SMILES IDX 33 55 65 56 45 57 64 58 46 59 49 60 63 61 82 62 47 63 48 64
REMARK SMILES IDX 62 66 83 67 50 68 34 69 35 70 43 71 36 72 42 73 44 74 41 75
REMARK SMILES IDX 37 76 38 77 39 78 40 79 66 80 67 81 75 82 68 83 74 84 76 85
REMARK SMILES IDX 73 86 69 87 70 88 71 89 72 90 51 91 52 92 60 93 53 94 59 95
REMARK SMILES IDX 61 96 58 97 54 98 55 99 56 100 57 101
REMARK H PARENT 81 54 49 65
REMARK Flexibility Score: inf
ROOT
ATOM      1  O   UNL     1      14.055  -1.686   2.551  1.00  0.00    -0.374 OA
ENDROOT
BRANCH   1   2
ATOM      2  C   UNL     1      13.897  -3.066   2.882  1.00  0.00     0.202 C 
BRANCH   2   3
ATOM      3  C   UNL     1      12.555  -3.471   3.498  1.00  0.00     0.261 C 
BRANCH   3   4
ATOM      4  O   UNL     1      11.462  -3.112   2.639  1.00  0.00    -0.463 OA
BRANCH   4   5
ATOM      5  C   UNL     1      10.447  -2.423   3.223  1.00  0.00     0.316 C 
ATOM      6  O   UNL     1      10.349  -2.248   4.435  1.00  0.00    -0.251 OA
BRANCH   5   7
ATOM      7  C   UNL     1       9.418  -1.857   2.200  1.00  0.00     0.096 C 
ATOM      8  C   UNL     1       6.396  -3.068  -0.747  1.00  0.00     0.253 C 
ATOM      9  O   UNL     1       6.737  -3.488  -1.851  1.00  0.00    -0.269 OA
ATOM     10  N   UNL     1       7.317  -2.703   0.249  1.00  0.00    -0.339 N 
ATOM     11  C   UNL     1       8.587  -2.177  -0.231  1.00  0.00     0.121 C 
ATOM     12  C   UNL     1       6.970  -2.564   1.664  1.00  0.00     0.121 C 
ATOM     13  C   UNL     1       9.747  -2.279   0.747  1.00  0.00     0.045 C 
ATOM     14  C   UNL     1       8.140  -2.623   2.626  1.00  0.00     0.045 C 
BRANCH   8  15
ATOM     15  C   UNL     1       4.944  -2.822  -0.535  1.00  0.00     0.043 A 
ATOM     16  C   UNL     1       2.221  -2.197  -0.338  1.00  0.00     0.161 A 
ATOM     17  C   UNL     1       2.635  -3.357  -1.012  1.00  0.00     0.051 A 
ATOM     18  C   UNL     1       3.161  -1.360   0.263  1.00  0.00     0.161 A 
ATOM     19  C   UNL     1       3.995  -3.672  -1.108  1.00  0.00     0.018 A 
ATOM     20  C   UNL     1       4.514  -1.646   0.087  1.00  0.00     0.064 A 
BRANCH  16  21
ATOM     21  O   UNL     1       0.886  -1.905  -0.284  1.00  0.00    -0.490 OA
BRANCH  21  22
ATOM     22  C   UNL     1       0.400  -1.400  -1.534  1.00  0.00     0.226 C 
ATOM     23  C   UNL     1      -0.211  -0.030  -1.299  1.00  0.00     0.049 C 
ENDBRANCH  21  22
ENDBRANCH  16  21
BRANCH  18  24
ATOM     24  O   UNL     1       2.948  -0.211   0.970  1.00  0.00    -0.493 OA
ATOM     25  C   UNL     1       1.731  -0.092   1.692  1.00  0.00     0.278 C 
ENDBRANCH  18  24
ENDBRANCH   8  15
BRANCH   7  26
ATOM     26  C   UNL     1       9.346  -0.302   2.321  1.00  0.00    -0.031 A 
ATOM     27  C   UNL     1      10.365   0.432   2.969  1.00  0.00     0.005 A 
ATOM     28  C   UNL     1       8.304   0.462   1.764  1.00  0.00     0.005 A 
ATOM     29  C   UNL     1      10.319   1.828   3.089  1.00  0.00     0.000 A 
ATOM     30  C   UNL     1       8.256   1.859   1.879  1.00  0.00     0.000 A 
ATOM     31  C   UNL     1       9.260   2.542   2.549  1.00  0.00     0.000 A 
ENDBRANCH   7  26
ENDBRANCH   5   7
ENDBRANCH   4   5
ENDBRANCH   3   4
ENDBRANCH   2   3
ENDBRANCH   1   2
BRANCH   1  32
ATOM     32  C   UNL     1      13.370  -1.202   1.395  1.00  0.00     0.202 C 
BRANCH  32  33
ATOM     33  C   UNL     1      13.856  -1.686   0.022  1.00  0.00     0.261 C 
BRANCH  33  34
ATOM     34  O   UNL     1      13.640  -3.094  -0.184  1.00  0.00    -0.460 OA
BRANCH  34  35
ATOM     35  C   UNL     1      14.777  -3.813  -0.375  1.00  0.00     0.338 C 
ATOM     36  O   UNL     1      15.914  -3.377  -0.444  1.00  0.00    -0.246 OA
BRANCH  35  37
ATOM     37  C   UNL     1      14.492  -5.259  -0.301  1.00  0.00     0.060 A 
ATOM     38  C   UNL     1      15.193  -6.006   0.654  1.00  0.00     0.016 A 
ATOM     39  C   UNL     1      13.640  -5.891  -1.210  1.00  0.00     0.016 A 
ATOM     40  C   UNL     1      15.080  -7.394   0.678  1.00  0.00     0.010 A 
ATOM     41  C   UNL     1      13.538  -7.288  -1.192  1.00  0.00     0.010 A 
ATOM     42  C   UNL     1      14.282  -8.047  -0.270  1.00  0.00    -0.014 A 
BRANCH  42  43
ATOM     43  C   UNL     1      14.349  -9.526  -0.383  1.00  0.00     0.031 A 
ATOM     44  C   UNL     1      15.251 -10.138  -1.422  1.00  0.00     0.074 A 
ATOM     45  C   UNL     1      13.650 -10.312   0.455  1.00  0.00     0.049 A 
ATOM     46  N   UNL     1      15.447 -11.397  -1.714  1.00  0.00    -0.248 NA
ATOM     47  C   UNL     1      16.035  -9.199  -2.238  1.00  0.00     0.031 C 
ATOM     48  C   UNL     1      12.785  -9.833   1.532  1.00  0.00     0.029 A 
ATOM     49  N   UNL     1      13.554 -11.679   0.528  1.00  0.00    -0.354 N 
ATOM     50  C   UNL     1      16.378 -11.406  -2.748  1.00  0.00     0.074 A 
ATOM     51  C   UNL     1      16.679 -10.022  -3.052  1.00  0.00     0.031 C 
ATOM     52  C   UNL     1      12.235 -10.892   2.152  1.00  0.00     0.029 A 
ATOM     53  C   UNL     1      12.679 -12.119   1.493  1.00  0.00     0.049 A 
ATOM     54  H   UNL     1      14.063 -12.287  -0.055  1.00  0.00     0.167 HD
ATOM     55  C   UNL     1      16.935 -12.469  -3.380  1.00  0.00     0.034 A 
ATOM     56  C   UNL     1      12.264 -13.367   1.791  1.00  0.00     0.034 A 
ATOM     57  C   UNL     1      16.611 -13.842  -3.078  1.00  0.00     0.049 A 
ATOM     58  C   UNL     1      12.825 -14.531   1.011  1.00  0.00     0.074 A 
ATOM     59  C   UNL     1      17.121 -14.996  -3.649  1.00  0.00     0.029 A 
ATOM     60  N   UNL     1      15.679 -14.249  -2.131  1.00  0.00    -0.354 N 
ATOM     61  N   UNL     1      13.709 -14.526   0.038  1.00  0.00    -0.248 NA
ATOM     62  C   UNL     1      12.337 -15.868   1.372  1.00  0.00     0.031 C 
ATOM     63  C   UNL     1      16.449 -16.093  -3.097  1.00  0.00     0.029 A 
ATOM     64  C   UNL     1      15.574 -15.632  -2.127  1.00  0.00     0.049 A 
ATOM     65  H   UNL     1      15.168 -13.643  -1.547  1.00  0.00     0.167 HD
ATOM     66  C   UNL     1      13.900 -15.862  -0.307  1.00  0.00     0.074 A 
ATOM     67  C   UNL     1      13.052 -16.643   0.569  1.00  0.00     0.031 C 
ATOM     68  C   UNL     1      14.709 -16.396  -1.258  1.00  0.00     0.034 A 
BRANCH  55  69
ATOM     69  C   UNL     1      17.907 -12.178  -4.498  1.00  0.00     0.023 A 
ATOM     70  C   UNL     1      19.141 -11.546  -4.263  1.00  0.00     0.031 A 
ATOM     71  C   UNL     1      17.580 -12.511  -5.824  1.00  0.00     0.131 A 
ATOM     72  C   UNL     1      19.971 -11.208  -5.343  1.00  0.00     0.055 A 
ATOM     73  C   UNL     1      18.443 -12.238  -6.887  1.00  0.00     0.041 A 
ATOM     74  F   UNL     1      16.406 -13.095  -6.112  1.00  0.00    -0.206 F 
ATOM     75  C   UNL     1      19.641 -11.570  -6.651  1.00  0.00     0.022 A 
BRANCH  72  76
ATOM     76  S   UNL     1      21.427 -10.171  -5.030  1.00  0.00     0.124 S 
ATOM     77  O   UNL     1      20.820  -8.979  -4.442  1.00  0.00    -0.237 OA
ATOM     78  O   UNL     1      22.216 -10.999  -4.125  1.00  0.00    -0.237 OA
ATOM     79  O   UNL     1      22.002  -9.976  -6.359  1.00  0.00    -0.744 OA
ENDBRANCH  72  76
ENDBRANCH  55  69
BRANCH  56  80
ATOM     80  C   UNL     1      11.227 -13.587   2.840  1.00  0.00     0.023 A 
ATOM     81  C   UNL     1      11.513 -14.309   4.009  1.00  0.00     0.031 A 
ATOM     82  C   UNL     1       9.912 -13.122   2.657  1.00  0.00     0.131 A 
ATOM     83  C   UNL     1      10.489 -14.580   4.931  1.00  0.00     0.055 A 
ATOM     84  C   UNL     1       8.909 -13.351   3.600  1.00  0.00     0.041 A 
ATOM     85  F   UNL     1       9.585 -12.428   1.555  1.00  0.00    -0.206 F 
ATOM     86  C   UNL     1       9.193 -14.096   4.740  1.00  0.00     0.022 A 
BRANCH  83  87
ATOM     87  S   UNL     1      10.857 -15.648   6.351  1.00  0.00     0.124 S 
ATOM     88  O   UNL     1      11.308 -16.870   5.695  1.00  0.00    -0.237 OA
ATOM     89  O   UNL     1      11.880 -14.879   7.050  1.00  0.00    -0.237 OA
ATOM     90  O   UNL     1       9.573 -15.748   7.043  1.00  0.00    -0.744 OA
ENDBRANCH  83  87
ENDBRANCH  56  80
BRANCH  68  91
ATOM     91  C   UNL     1      14.739 -17.902  -1.365  1.00  0.00     0.023 A 
ATOM     92  C   UNL     1      13.626 -18.634  -1.812  1.00  0.00     0.031 A 
ATOM     93  C   UNL     1      15.896 -18.613  -0.999  1.00  0.00     0.131 A 
ATOM     94  C   UNL     1      13.675 -20.037  -1.832  1.00  0.00     0.055 A 
ATOM     95  C   UNL     1      15.958 -20.005  -1.075  1.00  0.00     0.041 A 
ATOM     96  F   UNL     1      16.988 -17.963  -0.564  1.00  0.00    -0.206 F 
ATOM     97  C   UNL     1      14.839 -20.726  -1.481  1.00  0.00     0.022 A 
BRANCH  94  98
ATOM     98  S   UNL     1      12.165 -20.957  -2.239  1.00  0.00     0.124 S 
ATOM     99  O   UNL     1      11.238 -20.490  -1.213  1.00  0.00    -0.237 OA
ATOM    100  O   UNL     1      11.886 -20.513  -3.601  1.00  0.00    -0.237 OA
ATOM    101  O   UNL     1      12.572 -22.356  -2.116  1.00  0.00    -0.744 OA
ENDBRANCH  94  98
ENDBRANCH  68  91
ENDBRANCH  42  43
ENDBRANCH  35  37
ENDBRANCH  34  35
ENDBRANCH  33  34
ENDBRANCH  32  33
ENDBRANCH   1  32
TORSDOF 22
