REMARK SMILES CCOc1c(Br)cc(CNc2cccc(C(=O)OCCOCCOC(=O)c3ccc(-c4c5nc(c(-c6cc(S(=O)(=O)[O-])ccc6F)c6ccc([nH]6)c(-c6cc(S(=O)(=O)[O-])ccc6F)c6nc(c(-c7cc(S(=O)(=O)[O-])ccc7F)c7ccc4[nH]7)C=C6)C=C5)cc3)c2C)cc1OC
REMARK SMILES IDX 20 1 19 2 18 3 16 4 17 5 15 6 11 7 12 8 90 9 13 10 91 11
REMARK SMILES IDX 14 12 10 13 9 15 8 16 4 17 5 18 93 19 6 20 7 21 92 22 3 23
REMARK SMILES IDX 2 24 1 25 94 26 95 27 21 28 22 29 23 30 24 31 25 32 26 33
REMARK SMILES IDX 27 34 28 35 89 36 29 37 88 38 30 39 31 40 32 41 82 42 33 43
REMARK SMILES IDX 87 44 81 45 83 46 34 47 86 48 80 49 79 50 35 52 67 53 47 54
REMARK SMILES IDX 66 55 48 56 51 57 65 58 84 59 49 60 50 61 64 63 85 64 52 65
REMARK SMILES IDX 36 66 37 67 45 68 38 69 44 70 46 71 43 72 39 73 40 74 41 75
REMARK SMILES IDX 42 76 68 77 69 78 77 79 70 80 76 81 78 82 75 83 71 84 72 85
REMARK SMILES IDX 73 86 74 87 53 88 54 89 62 90 55 91 61 92 63 93 60 94 56 95
REMARK SMILES IDX 57 96 58 97 59 98
REMARK H PARENT 10 14 83 51 51 62
REMARK Flexibility Score: inf
ROOT
ATOM      1  C   UNL     1      11.562   0.196  -3.287  1.00  0.00     0.202 C 
ENDROOT
BRANCH   1   2
ATOM      2  C   UNL     1      10.971   1.364  -2.595  1.00  0.00     0.261 C 
BRANCH   2   3
ATOM      3  O   UNL     1      10.386   0.957  -1.354  1.00  0.00    -0.460 OA
BRANCH   3   4
ATOM      4  C   UNL     1       9.126   0.441  -1.311  1.00  0.00     0.338 C 
ATOM      5  O   UNL     1       8.290   0.487  -2.172  1.00  0.00    -0.246 OA
BRANCH   4   6
ATOM      6  C   UNL     1       9.011  -0.236   0.012  1.00  0.00     0.065 A 
ATOM      7  C   UNL     1       8.177  -1.977   1.460  1.00  0.00     0.038 A 
ATOM      8  C   UNL     1       9.130  -1.592   2.424  1.00  0.00     0.026 A 
ATOM      9  C   UNL     1       8.123  -1.313   0.215  1.00  0.00    -0.013 A 
ATOM     10  C   UNL     1       9.965  -0.507   2.229  1.00  0.00     0.003 A 
ATOM     11  C   UNL     1       7.086  -1.699  -0.814  1.00  0.00     0.047 C 
ATOM     12  C   UNL     1       9.881   0.186   1.038  1.00  0.00     0.016 A 
BRANCH   7  13
ATOM     13  N   UNL     1       7.235  -2.946   1.812  1.00  0.00    -0.381 N 
ATOM     14  H   UNL     1       7.104  -3.762   1.276  1.00  0.00     0.160 HD
BRANCH  13  15
ATOM     15  C   UNL     1       6.460  -2.686   3.009  1.00  0.00     0.149 C 
BRANCH  15  16
ATOM     16  C   UNL     1       5.043  -2.354   2.630  1.00  0.00    -0.024 A 
ATOM     17  C   UNL     1       2.363  -1.739   2.001  1.00  0.00     0.175 A 
ATOM     18  C   UNL     1       3.348  -0.735   2.033  1.00  0.00     0.064 A 
ATOM     19  C   UNL     1       2.720  -3.054   2.343  1.00  0.00     0.162 A 
ATOM     20  Br  UNL     1       2.937   1.112   1.880  1.00  0.00    -0.047 Br
ATOM     21  C   UNL     1       4.684  -1.048   2.293  1.00  0.00     0.025 A 
ATOM     22  C   UNL     1       4.060  -3.345   2.637  1.00  0.00     0.056 A 
BRANCH  17  23
ATOM     23  O   UNL     1       1.065  -1.384   1.746  1.00  0.00    -0.489 OA
BRANCH  23  24
ATOM     24  C   UNL     1       0.682  -1.590   0.377  1.00  0.00     0.226 C 
ATOM     25  C   UNL     1       0.852  -0.343  -0.467  1.00  0.00     0.049 C 
ENDBRANCH  23  24
ENDBRANCH  17  23
BRANCH  19  26
ATOM     26  O   UNL     1       1.929  -4.165   2.464  1.00  0.00    -0.493 OA
ATOM     27  C   UNL     1       0.529  -3.991   2.596  1.00  0.00     0.278 C 
ENDBRANCH  19  26
ENDBRANCH  15  16
ENDBRANCH  13  15
ENDBRANCH   7  13
ENDBRANCH   4   6
ENDBRANCH   3   4
ENDBRANCH   2   3
ENDBRANCH   1   2
BRANCH   1  28
ATOM     28  O   UNL     1      10.416  -0.470  -3.804  1.00  0.00    -0.374 OA
BRANCH  28  29
ATOM     29  C   UNL     1      10.669  -1.715  -4.394  1.00  0.00     0.202 C 
BRANCH  29  30
ATOM     30  C   UNL     1      11.600  -1.574  -5.599  1.00  0.00     0.261 C 
BRANCH  30  31
ATOM     31  O   UNL     1      10.991  -0.723  -6.601  1.00  0.00    -0.460 OA
BRANCH  31  32
ATOM     32  C   UNL     1      11.451   0.563  -6.664  1.00  0.00     0.338 C 
ATOM     33  O   UNL     1      12.608   0.879  -6.884  1.00  0.00    -0.246 OA
BRANCH  32  34
ATOM     34  C   UNL     1      10.372   1.524  -6.279  1.00  0.00     0.060 A 
ATOM     35  C   UNL     1      10.684   2.854  -5.919  1.00  0.00     0.016 A 
ATOM     36  C   UNL     1       9.113   1.007  -5.992  1.00  0.00     0.016 A 
ATOM     37  C   UNL     1       9.789   3.609  -5.140  1.00  0.00     0.010 A 
ATOM     38  C   UNL     1       8.297   1.703  -5.129  1.00  0.00     0.010 A 
ATOM     39  C   UNL     1       8.625   2.997  -4.682  1.00  0.00    -0.014 A 
BRANCH  39  40
ATOM     40  C   UNL     1       7.689   3.521  -3.680  1.00  0.00     0.031 A 
ATOM     41  C   UNL     1       6.298   3.743  -4.117  1.00  0.00     0.074 A 
ATOM     42  C   UNL     1       7.996   3.504  -2.360  1.00  0.00     0.049 A 
ATOM     43  N   UNL     1       5.424   4.407  -3.449  1.00  0.00    -0.248 NA
ATOM     44  C   UNL     1       5.788   3.306  -5.417  1.00  0.00     0.031 C 
ATOM     45  C   UNL     1       7.102   3.393  -1.206  1.00  0.00     0.029 A 
ATOM     46  N   UNL     1       9.255   3.541  -1.771  1.00  0.00    -0.354 N 
ATOM     47  C   UNL     1       4.197   4.154  -4.018  1.00  0.00     0.074 A 
ATOM     48  C   UNL     1       4.505   3.651  -5.326  1.00  0.00     0.031 C 
ATOM     49  C   UNL     1       7.800   3.588  -0.069  1.00  0.00     0.029 A 
ATOM     50  C   UNL     1       9.163   3.947  -0.438  1.00  0.00     0.049 A 
ATOM     51  H   UNL     1      10.095   3.312  -2.230  1.00  0.00     0.167 HD
ATOM     52  C   UNL     1       3.089   4.234  -3.227  1.00  0.00     0.034 A 
ATOM     53  C   UNL     1       9.908   5.005  -0.025  1.00  0.00     0.034 A 
ATOM     54  C   UNL     1       3.467   4.740  -1.890  1.00  0.00     0.049 A 
ATOM     55  C   UNL     1       8.917   6.133   0.131  1.00  0.00     0.074 A 
ATOM     56  C   UNL     1       3.568   4.131  -0.651  1.00  0.00     0.029 A 
ATOM     57  N   UNL     1       4.170   5.947  -1.775  1.00  0.00    -0.354 N 
ATOM     58  N   UNL     1       7.753   6.134  -0.471  1.00  0.00    -0.248 NA
ATOM     59  C   UNL     1       9.059   7.222   1.086  1.00  0.00     0.031 C 
ATOM     60  C   UNL     1       4.438   4.923   0.160  1.00  0.00     0.029 A 
ATOM     61  C   UNL     1       4.841   6.037  -0.565  1.00  0.00     0.049 A 
ATOM     62  H   UNL     1       4.186   6.646  -2.469  1.00  0.00     0.167 HD
ATOM     63  C   UNL     1       6.953   7.075   0.089  1.00  0.00     0.074 A 
ATOM     64  C   UNL     1       7.834   7.773   1.023  1.00  0.00     0.031 C 
ATOM     65  C   UNL     1       5.630   7.221  -0.222  1.00  0.00     0.034 A 
BRANCH  52  66
ATOM     66  C   UNL     1       1.730   3.606  -3.546  1.00  0.00     0.023 A 
ATOM     67  C   UNL     1       0.735   3.583  -2.542  1.00  0.00     0.031 A 
ATOM     68  C   UNL     1       1.343   2.978  -4.755  1.00  0.00     0.131 A 
ATOM     69  C   UNL     1      -0.519   2.963  -2.749  1.00  0.00     0.055 A 
ATOM     70  C   UNL     1       0.109   2.345  -4.953  1.00  0.00     0.041 A 
ATOM     71  F   UNL     1       2.112   2.937  -5.842  1.00  0.00    -0.206 F 
ATOM     72  C   UNL     1      -0.831   2.329  -3.947  1.00  0.00     0.022 A 
BRANCH  69  73
ATOM     73  S   UNL     1      -1.785   3.032  -1.452  1.00  0.00     0.124 S 
ATOM     74  O   UNL     1      -1.134   2.357  -0.337  1.00  0.00    -0.237 OA
ATOM     75  O   UNL     1      -1.997   4.467  -1.308  1.00  0.00    -0.237 OA
ATOM     76  O   UNL     1      -2.909   2.299  -2.036  1.00  0.00    -0.744 OA
ENDBRANCH  69  73
ENDBRANCH  52  66
BRANCH  53  77
ATOM     77  C   UNL     1      11.290   4.992  -0.633  1.00  0.00     0.023 A 
ATOM     78  C   UNL     1      12.184   3.958  -0.220  1.00  0.00     0.031 A 
ATOM     79  C   UNL     1      11.574   5.619  -1.856  1.00  0.00     0.131 A 
ATOM     80  C   UNL     1      13.238   3.521  -1.056  1.00  0.00     0.055 A 
ATOM     81  C   UNL     1      12.626   5.184  -2.684  1.00  0.00     0.041 A 
ATOM     82  F   UNL     1      10.758   6.566  -2.341  1.00  0.00    -0.206 F 
ATOM     83  C   UNL     1      13.445   4.120  -2.301  1.00  0.00     0.022 A 
BRANCH  80  84
ATOM     84  S   UNL     1      14.061   1.903  -0.731  1.00  0.00     0.124 S 
ATOM     85  O   UNL     1      15.267   2.299  -0.016  1.00  0.00    -0.237 OA
ATOM     86  O   UNL     1      13.071   1.176   0.057  1.00  0.00    -0.237 OA
ATOM     87  O   UNL     1      14.271   1.364  -2.075  1.00  0.00    -0.744 OA
ENDBRANCH  80  84
ENDBRANCH  53  77
BRANCH  65  88
ATOM     88  C   UNL     1       4.972   8.560  -0.106  1.00  0.00     0.023 A 
ATOM     89  C   UNL     1       5.742   9.727  -0.023  1.00  0.00     0.031 A 
ATOM     90  C   UNL     1       3.578   8.736  -0.180  1.00  0.00     0.131 A 
ATOM     91  C   UNL     1       5.147  10.969   0.180  1.00  0.00     0.055 A 
ATOM     92  C   UNL     1       2.985   9.998  -0.126  1.00  0.00     0.041 A 
ATOM     93  F   UNL     1       2.737   7.701  -0.322  1.00  0.00    -0.206 F 
ATOM     94  C   UNL     1       3.768  11.124   0.097  1.00  0.00     0.022 A 
BRANCH  91  95
ATOM     95  S   UNL     1       6.229  12.311   0.715  1.00  0.00     0.124 S 
ATOM     96  O   UNL     1       6.734  11.792   1.986  1.00  0.00    -0.237 OA
ATOM     97  O   UNL     1       7.206  12.385  -0.366  1.00  0.00    -0.237 OA
ATOM     98  O   UNL     1       5.327  13.453   0.824  1.00  0.00    -0.744 OA
ENDBRANCH  91  95
ENDBRANCH  65  88
ENDBRANCH  39  40
ENDBRANCH  32  34
ENDBRANCH  31  32
ENDBRANCH  30  31
ENDBRANCH  29  30
ENDBRANCH  28  29
ENDBRANCH   1  28
TORSDOF 23
