REMARK SMILES C#CC[NH2+]CC(=O)N[C@H](CC)C(=O)OCCOCCOC(=O)c1ccc(-c2c3nc(c(-c4cc(S(=O)(=O)[O-])ccc4F)c4ccc([nH]4)c(-c4cc(S(=O)(=O)[O-])ccc4F)c4nc(c(-c5cc(S(=O)(=O)[O-])ccc5F)c5ccc2[nH]5)C=C4)C=C3)cc1
REMARK SMILES IDX 16 1 15 2 14 3 12 4 13 5 9 6 8 7 6 8 7 9 5 11 4 12 3 15 2 16
REMARK SMILES IDX 1 17 10 18 11 19 17 20 18 21 19 22 20 23 21 24 22 25 23 26
REMARK SMILES IDX 24 27 85 28 25 29 84 30 26 31 27 32 28 33 78 34 29 35 83 36
REMARK SMILES IDX 77 37 79 38 30 39 82 40 76 41 75 42 31 44 63 45 43 46 62 47
REMARK SMILES IDX 44 48 47 49 61 50 80 51 45 52 46 53 60 55 81 56 48 57 32 58
REMARK SMILES IDX 33 59 41 60 34 61 40 62 42 63 39 64 35 65 36 66 37 67 38 68
REMARK SMILES IDX 64 69 65 70 73 71 66 72 72 73 74 74 71 75 67 76 68 77 69 78
REMARK SMILES IDX 70 79 49 80 50 81 58 82 51 83 57 84 59 85 56 86 52 87 53 88
REMARK SMILES IDX 54 89 55 90
REMARK H PARENT 8 10 4 13 4 14 79 43 47 54
REMARK Flexibility Score: inf
ROOT
ATOM      1  C   UNL     1      -5.701  -0.889   4.846  1.00  0.00     0.202 C 
ENDROOT
BRANCH   1   2
ATOM      2  C   UNL     1      -4.547   0.121   4.904  1.00  0.00     0.261 C 
BRANCH   2   3
ATOM      3  O   UNL     1      -4.333   0.820   3.659  1.00  0.00    -0.462 OA
BRANCH   3   4
ATOM      4  C   UNL     1      -3.120   0.617   3.092  1.00  0.00     0.328 C 
ATOM      5  O   UNL     1      -2.232  -0.072   3.592  1.00  0.00    -0.250 OA
BRANCH   4   6
ATOM      6  C   UNL     1      -2.958   1.201   1.673  1.00  0.00     0.192 C 
BRANCH   6   7
ATOM      7  N   UNL     1      -1.542   1.603   1.598  1.00  0.00    -0.338 N 
ATOM      8  C   UNL     1      -0.599   1.372   0.645  1.00  0.00     0.275 C 
ATOM      9  O   UNL     1       0.586   1.530   0.951  1.00  0.00    -0.268 OA
ATOM     10  H   UNL     1      -1.225   2.127   2.369  1.00  0.00     0.164 HD
BRANCH   8  11
ATOM     11  C   UNL     1      -0.993   0.939  -0.768  1.00  0.00     0.362 C 
BRANCH  11  12
ATOM     12  N   UNL     1      -0.837  -0.516  -0.996  1.00  0.00    -0.328 N 
ATOM     13  H   UNL     1      -0.873  -0.703  -1.998  1.00  0.00     0.347 HD
ATOM     14  H   UNL     1       0.060  -0.810  -0.609  1.00  0.00     0.347 HD
BRANCH  12  15
ATOM     15  C   UNL     1      -1.892  -1.266  -0.335  1.00  0.00     0.352 C 
BRANCH  15  16
ATOM     16  C   UNL     1      -1.956  -2.682  -0.695  1.00  0.00    -0.047 C 
ATOM     17  C   UNL     1      -2.177  -3.845  -0.876  1.00  0.00     0.010 C 
ENDBRANCH  15  16
ENDBRANCH  12  15
ENDBRANCH  11  12
ENDBRANCH   8  11
ENDBRANCH   6   7
BRANCH   6  18
ATOM     18  C   UNL     1      -3.893   2.300   1.161  1.00  0.00     0.033 C 
ATOM     19  C   UNL     1      -4.878   1.805   0.090  1.00  0.00     0.007 C 
ENDBRANCH   6  18
ENDBRANCH   4   6
ENDBRANCH   3   4
ENDBRANCH   2   3
ENDBRANCH   1   2
BRANCH   1  20
ATOM     20  O   UNL     1      -5.643  -1.902   3.849  1.00  0.00    -0.374 OA
BRANCH  20  21
ATOM     21  C   UNL     1      -5.683  -1.507   2.481  1.00  0.00     0.202 C 
BRANCH  21  22
ATOM     22  C   UNL     1      -6.847  -0.627   1.994  1.00  0.00     0.261 C 
BRANCH  22  23
ATOM     23  O   UNL     1      -6.952   0.642   2.674  1.00  0.00    -0.460 OA
BRANCH  23  24
ATOM     24  C   UNL     1      -8.166   0.876   3.239  1.00  0.00     0.338 C 
ATOM     25  O   UNL     1      -9.157   0.170   3.140  1.00  0.00    -0.246 OA
BRANCH  24  26
ATOM     26  C   UNL     1      -8.131   2.015   4.179  1.00  0.00     0.060 A 
ATOM     27  C   UNL     1      -8.248   1.721   5.543  1.00  0.00     0.016 A 
ATOM     28  C   UNL     1      -8.206   3.337   3.738  1.00  0.00     0.016 A 
ATOM     29  C   UNL     1      -8.492   2.738   6.461  1.00  0.00     0.010 A 
ATOM     30  C   UNL     1      -8.450   4.362   4.669  1.00  0.00     0.010 A 
ATOM     31  C   UNL     1      -8.636   4.065   6.032  1.00  0.00    -0.014 A 
BRANCH  31  32
ATOM     32  C   UNL     1      -9.076   5.085   7.027  1.00  0.00     0.031 A 
ATOM     33  C   UNL     1     -10.485   5.622   6.995  1.00  0.00     0.074 A 
ATOM     34  C   UNL     1      -8.248   5.443   8.027  1.00  0.00     0.049 A 
ATOM     35  N   UNL     1     -11.078   6.445   7.825  1.00  0.00    -0.248 NA
ATOM     36  C   UNL     1     -11.337   5.176   5.885  1.00  0.00     0.031 C 
ATOM     37  C   UNL     1      -6.877   4.960   8.191  1.00  0.00     0.029 A 
ATOM     38  N   UNL     1      -8.442   6.269   9.106  1.00  0.00    -0.354 N 
ATOM     39  C   UNL     1     -12.371   6.616   7.340  1.00  0.00     0.074 A 
ATOM     40  C   UNL     1     -12.457   5.846   6.116  1.00  0.00     0.031 C 
ATOM     41  C   UNL     1      -6.364   5.476   9.319  1.00  0.00     0.029 A 
ATOM     42  C   UNL     1      -7.346   6.366   9.932  1.00  0.00     0.049 A 
ATOM     43  H   UNL     1      -9.286   6.748   9.273  1.00  0.00     0.167 HD
ATOM     44  C   UNL     1     -13.392   7.337   7.870  1.00  0.00     0.034 A 
ATOM     45  C   UNL     1      -7.145   7.099  11.045  1.00  0.00     0.034 A 
ATOM     46  C   UNL     1     -13.288   8.111   9.088  1.00  0.00     0.049 A 
ATOM     47  C   UNL     1      -8.272   7.955  11.569  1.00  0.00     0.074 A 
ATOM     48  C   UNL     1     -14.267   8.863   9.717  1.00  0.00     0.029 A 
ATOM     49  N   UNL     1     -12.138   8.247   9.855  1.00  0.00    -0.354 N 
ATOM     50  N   UNL     1      -9.493   8.094  11.104  1.00  0.00    -0.248 NA
ATOM     51  C   UNL     1      -7.995   8.738  12.778  1.00  0.00     0.031 C 
ATOM     52  C   UNL     1     -13.685   9.527  10.802  1.00  0.00     0.029 A 
ATOM     53  C   UNL     1     -12.372   9.105  10.922  1.00  0.00     0.049 A 
ATOM     54  H   UNL     1     -11.281   7.800   9.670  1.00  0.00     0.167 HD
ATOM     55  C   UNL     1     -10.138   8.958  11.987  1.00  0.00     0.074 A 
ATOM     56  C   UNL     1      -9.178   9.275  13.025  1.00  0.00     0.031 C 
ATOM     57  C   UNL     1     -11.407   9.443  11.944  1.00  0.00     0.034 A 
BRANCH  44  58
ATOM     58  C   UNL     1     -14.699   7.371   7.106  1.00  0.00     0.023 A 
ATOM     59  C   UNL     1     -15.460   6.211   6.876  1.00  0.00     0.031 A 
ATOM     60  C   UNL     1     -15.189   8.587   6.593  1.00  0.00     0.131 A 
ATOM     61  C   UNL     1     -16.625   6.280   6.095  1.00  0.00     0.055 A 
ATOM     62  C   UNL     1     -16.396   8.663   5.895  1.00  0.00     0.041 A 
ATOM     63  F   UNL     1     -14.497   9.726   6.757  1.00  0.00    -0.206 F 
ATOM     64  C   UNL     1     -17.115   7.502   5.629  1.00  0.00     0.022 A 
BRANCH  61  65
ATOM     65  S   UNL     1     -17.407   4.731   5.564  1.00  0.00     0.124 S 
ATOM     66  O   UNL     1     -16.305   4.068   4.872  1.00  0.00    -0.237 OA
ATOM     67  O   UNL     1     -17.819   4.136   6.830  1.00  0.00    -0.237 OA
ATOM     68  O   UNL     1     -18.497   5.177   4.699  1.00  0.00    -0.744 OA
ENDBRANCH  61  65
ENDBRANCH  44  58
BRANCH  45  69
ATOM     69  C   UNL     1      -5.817   7.091  11.726  1.00  0.00     0.023 A 
ATOM     70  C   UNL     1      -5.678   6.672  13.059  1.00  0.00     0.031 A 
ATOM     71  C   UNL     1      -4.669   7.568  11.065  1.00  0.00     0.131 A 
ATOM     72  C   UNL     1      -4.436   6.789  13.703  1.00  0.00     0.055 A 
ATOM     73  C   UNL     1      -3.422   7.615  11.688  1.00  0.00     0.041 A 
ATOM     74  F   UNL     1      -4.744   7.990   9.793  1.00  0.00    -0.206 F 
ATOM     75  C   UNL     1      -3.304   7.239  13.021  1.00  0.00     0.022 A 
BRANCH  72  76
ATOM     76  S   UNL     1      -4.346   6.450  15.483  1.00  0.00     0.124 S 
ATOM     77  O   UNL     1      -5.321   7.396  16.014  1.00  0.00    -0.237 OA
ATOM     78  O   UNL     1      -4.719   5.041  15.542  1.00  0.00    -0.237 OA
ATOM     79  O   UNL     1      -2.951   6.739  15.813  1.00  0.00    -0.744 OA
ENDBRANCH  72  76
ENDBRANCH  45  69
BRANCH  57  80
ATOM     80  C   UNL     1     -11.836  10.338  13.088  1.00  0.00     0.023 A 
ATOM     81  C   UNL     1     -11.180  11.551  13.366  1.00  0.00     0.031 A 
ATOM     82  C   UNL     1     -12.868   9.940  13.957  1.00  0.00     0.131 A 
ATOM     83  C   UNL     1     -11.483  12.260  14.538  1.00  0.00     0.055 A 
ATOM     84  C   UNL     1     -13.232  10.702  15.069  1.00  0.00     0.041 A 
ATOM     85  F   UNL     1     -13.533   8.791  13.751  1.00  0.00    -0.206 F 
ATOM     86  C   UNL     1     -12.520  11.855  15.380  1.00  0.00     0.022 A 
BRANCH  83  87
ATOM     87  S   UNL     1     -10.380  13.611  15.040  1.00  0.00     0.124 S 
ATOM     88  O   UNL     1      -9.081  12.945  15.061  1.00  0.00    -0.237 OA
ATOM     89  O   UNL     1     -10.579  14.588  13.975  1.00  0.00    -0.237 OA
ATOM     90  O   UNL     1     -10.896  14.006  16.349  1.00  0.00    -0.744 OA
ENDBRANCH  83  87
ENDBRANCH  57  80
ENDBRANCH  31  32
ENDBRANCH  24  26
ENDBRANCH  23  24
ENDBRANCH  22  23
ENDBRANCH  21  22
ENDBRANCH  20  21
ENDBRANCH   1  20
TORSDOF 23
