REMARK SMILES O=C(OCCOCCOC(=O)[C@]1(CCc2cccnc2)C[C@H]2CC[C@@H]1O2)c1ccc(-c2c3nc(c(-c4cc(S(=O)(=O)[O-])ccc4F)c4ccc([nH]4)c(-c4cc(S(=O)(=O)[O-])ccc4F)c4nc(c(-c5cc(S(=O)(=O)[O-])ccc5F)c5ccc2[nH]5)C=C4)C=C3)cc1
REMARK SMILES IDX 6 1 5 2 4 3 3 4 2 5 1 6 27 7 28 8 89 9 29 10 88 11 30 12
REMARK SMILES IDX 31 13 32 14 82 15 33 16 87 17 81 18 83 19 34 20 86 21 80 22
REMARK SMILES IDX 79 23 35 25 67 26 47 27 66 28 48 29 51 30 65 31 84 32 49 33
REMARK SMILES IDX 50 34 64 36 85 37 52 38 36 39 37 40 45 41 38 42 44 43 46 44
REMARK SMILES IDX 43 45 39 46 40 47 41 48 42 49 68 50 69 51 77 52 70 53 76 54
REMARK SMILES IDX 78 55 75 56 71 57 72 58 73 59 74 60 53 61 54 62 62 63 55 64
REMARK SMILES IDX 61 65 63 66 60 67 56 68 57 69 58 70 59 71 7 72 8 73 9 74
REMARK SMILES IDX 10 75 11 76 12 77 21 78 25 79 22 80 24 81 26 82 23 83 13 84
REMARK SMILES IDX 14 85 15 86 16 87 20 88 17 89 19 90 18 91
REMARK H PARENT 83 24 51 35
REMARK Flexibility Score: inf
ROOT
ATOM      1  O   UNL     1       3.918   0.181  -1.179  1.00  0.00    -0.374 OA
ENDROOT
BRANCH   1   2
ATOM      2  C   UNL     1       4.324  -1.070  -0.612  1.00  0.00     0.202 C 
BRANCH   2   3
ATOM      3  C   UNL     1       3.848  -1.445   0.798  1.00  0.00     0.261 C 
BRANCH   3   4
ATOM      4  O   UNL     1       2.460  -1.159   0.999  1.00  0.00    -0.460 OA
BRANCH   4   5
ATOM      5  C   UNL     1       1.933  -0.077   1.622  1.00  0.00     0.338 C 
ATOM      6  O   UNL     1       0.721  -0.055   1.827  1.00  0.00    -0.246 OA
BRANCH   5   7
ATOM      7  C   UNL     1       2.742   1.119   2.026  1.00  0.00     0.060 A 
ATOM      8  C   UNL     1       4.002   1.448   1.519  1.00  0.00     0.016 A 
ATOM      9  C   UNL     1       2.156   2.010   2.939  1.00  0.00     0.016 A 
ATOM     10  C   UNL     1       4.698   2.562   1.943  1.00  0.00     0.010 A 
ATOM     11  C   UNL     1       2.840   3.152   3.366  1.00  0.00     0.010 A 
ATOM     12  C   UNL     1       4.130   3.402   2.887  1.00  0.00    -0.014 A 
BRANCH  12  13
ATOM     13  C   UNL     1       5.039   4.374   3.508  1.00  0.00     0.031 A 
ATOM     14  C   UNL     1       5.686   3.970   4.796  1.00  0.00     0.074 A 
ATOM     15  C   UNL     1       5.426   5.459   2.818  1.00  0.00     0.049 A 
ATOM     16  N   UNL     1       6.532   4.622   5.542  1.00  0.00    -0.248 NA
ATOM     17  C   UNL     1       5.349   2.625   5.297  1.00  0.00     0.031 C 
ATOM     18  C   UNL     1       4.978   5.803   1.465  1.00  0.00     0.029 A 
ATOM     19  N   UNL     1       6.315   6.445   3.138  1.00  0.00    -0.354 N 
ATOM     20  C   UNL     1       6.804   3.783   6.617  1.00  0.00     0.074 A 
ATOM     21  C   UNL     1       6.034   2.576   6.426  1.00  0.00     0.031 C 
ATOM     22  C   UNL     1       5.609   6.921   1.069  1.00  0.00     0.029 A 
ATOM     23  C   UNL     1       6.444   7.406   2.163  1.00  0.00     0.049 A 
ATOM     24  H   UNL     1       6.816   6.466   3.985  1.00  0.00     0.167 HD
ATOM     25  C   UNL     1       7.615   4.021   7.673  1.00  0.00     0.034 A 
ATOM     26  C   UNL     1       7.132   8.563   2.190  1.00  0.00     0.034 A 
ATOM     27  C   UNL     1       8.338   5.257   7.825  1.00  0.00     0.049 A 
ATOM     28  C   UNL     1       7.912   8.874   3.445  1.00  0.00     0.074 A 
ATOM     29  C   UNL     1       9.114   5.686   8.884  1.00  0.00     0.029 A 
ATOM     30  N   UNL     1       8.361   6.274   6.874  1.00  0.00    -0.354 N 
ATOM     31  N   UNL     1       8.083   8.132   4.519  1.00  0.00    -0.248 NA
ATOM     32  C   UNL     1       8.585  10.175   3.498  1.00  0.00     0.031 C 
ATOM     33  C   UNL     1       9.544   6.989   8.605  1.00  0.00     0.029 A 
ATOM     34  C   UNL     1       9.113   7.340   7.332  1.00  0.00     0.049 A 
ATOM     35  H   UNL     1       7.906   6.240   6.001  1.00  0.00     0.167 HD
ATOM     36  C   UNL     1       8.914   8.864   5.360  1.00  0.00     0.074 A 
ATOM     37  C   UNL     1       9.217  10.098   4.660  1.00  0.00     0.031 C 
ATOM     38  C   UNL     1       9.390   8.553   6.595  1.00  0.00     0.034 A 
BRANCH  25  39
ATOM     39  C   UNL     1       7.623   2.983   8.768  1.00  0.00     0.023 A 
ATOM     40  C   UNL     1       8.079   1.669   8.552  1.00  0.00     0.031 A 
ATOM     41  C   UNL     1       7.038   3.279  10.012  1.00  0.00     0.131 A 
ATOM     42  C   UNL     1       7.852   0.682   9.525  1.00  0.00     0.055 A 
ATOM     43  C   UNL     1       6.899   2.314  11.010  1.00  0.00     0.041 A 
ATOM     44  F   UNL     1       6.548   4.504  10.261  1.00  0.00    -0.206 F 
ATOM     45  C   UNL     1       7.288   1.001  10.763  1.00  0.00     0.022 A 
BRANCH  42  46
ATOM     46  S   UNL     1       8.124  -1.057   9.079  1.00  0.00     0.124 S 
ATOM     47  O   UNL     1       7.220  -1.214   7.940  1.00  0.00    -0.237 OA
ATOM     48  O   UNL     1       9.548  -1.086   8.770  1.00  0.00    -0.237 OA
ATOM     49  O   UNL     1       7.730  -1.787  10.282  1.00  0.00    -0.744 OA
ENDBRANCH  42  46
ENDBRANCH  25  39
BRANCH  26  50
ATOM     50  C   UNL     1       7.060   9.530   1.055  1.00  0.00     0.023 A 
ATOM     51  C   UNL     1       8.215   9.945   0.374  1.00  0.00     0.031 A 
ATOM     52  C   UNL     1       5.833  10.107   0.674  1.00  0.00     0.131 A 
ATOM     53  C   UNL     1       8.127  10.941  -0.613  1.00  0.00     0.055 A 
ATOM     54  C   UNL     1       5.742  11.051  -0.350  1.00  0.00     0.041 A 
ATOM     55  F   UNL     1       4.694   9.758   1.295  1.00  0.00    -0.206 F 
ATOM     56  C   UNL     1       6.897  11.485  -0.991  1.00  0.00     0.022 A 
BRANCH  53  57
ATOM     57  S   UNL     1       9.661  11.596  -1.327  1.00  0.00     0.124 S 
ATOM     58  O   UNL     1      10.362  12.068  -0.139  1.00  0.00    -0.237 OA
ATOM     59  O   UNL     1      10.222  10.415  -1.976  1.00  0.00    -0.237 OA
ATOM     60  O   UNL     1       9.195  12.643  -2.234  1.00  0.00    -0.744 OA
ENDBRANCH  53  57
ENDBRANCH  26  50
BRANCH  38  61
ATOM     61  C   UNL     1      10.341   9.542   7.220  1.00  0.00     0.023 A 
ATOM     62  C   UNL     1       9.927  10.827   7.607  1.00  0.00     0.031 A 
ATOM     63  C   UNL     1      11.687   9.187   7.420  1.00  0.00     0.131 A 
ATOM     64  C   UNL     1      10.866  11.735   8.114  1.00  0.00     0.055 A 
ATOM     65  C   UNL     1      12.600  10.071   7.990  1.00  0.00     0.041 A 
ATOM     66  F   UNL     1      12.132   7.971   7.066  1.00  0.00    -0.206 F 
ATOM     67  C   UNL     1      12.195  11.359   8.326  1.00  0.00     0.022 A 
BRANCH  64  68
ATOM     68  S   UNL     1      10.352  13.452   8.387  1.00  0.00     0.124 S 
ATOM     69  O   UNL     1       9.864  13.836   7.066  1.00  0.00    -0.237 OA
ATOM     70  O   UNL     1       9.337  13.312   9.426  1.00  0.00    -0.237 OA
ATOM     71  O   UNL     1      11.584  14.115   8.810  1.00  0.00    -0.744 OA
ENDBRANCH  64  68
ENDBRANCH  38  61
ENDBRANCH  12  13
ENDBRANCH   5   7
ENDBRANCH   4   5
ENDBRANCH   3   4
ENDBRANCH   2   3
ENDBRANCH   1   2
BRANCH   1  72
ATOM     72  C   UNL     1       2.525   0.360  -1.471  1.00  0.00     0.202 C 
BRANCH  72  73
ATOM     73  C   UNL     1       2.354   0.921  -2.880  1.00  0.00     0.261 C 
BRANCH  73  74
ATOM     74  O   UNL     1       2.762  -0.138  -3.749  1.00  0.00    -0.463 OA
BRANCH  74  75
ATOM     75  C   UNL     1       3.875   0.069  -4.480  1.00  0.00     0.314 C 
ATOM     76  O   UNL     1       4.155   1.143  -5.012  1.00  0.00    -0.252 OA
BRANCH  75  77
ATOM     77  C   UNL     1       4.734  -1.192  -4.584  1.00  0.00     0.097 C 
ATOM     78  C   UNL     1       4.788  -1.640  -6.062  1.00  0.00     0.053 C 
ATOM     79  C   UNL     1       3.972  -2.405  -3.974  1.00  0.00     0.136 C 
ATOM     80  C   UNL     1       3.992  -2.953  -6.060  1.00  0.00     0.120 C 
ATOM     81  C   UNL     1       4.775  -3.705  -3.945  1.00  0.00     0.036 C 
ATOM     82  O   UNL     1       3.022  -2.712  -5.030  1.00  0.00    -0.374 OA
ATOM     83  C   UNL     1       4.782  -4.094  -5.422  1.00  0.00     0.035 C 
BRANCH  77  84
ATOM     84  C   UNL     1       6.133  -0.965  -3.936  1.00  0.00     0.026 C 
BRANCH  84  85
ATOM     85  C   UNL     1       6.991   0.235  -4.403  1.00  0.00     0.038 C 
BRANCH  85  86
ATOM     86  C   UNL     1       6.781   1.591  -3.774  1.00  0.00    -0.030 A 
ATOM     87  C   UNL     1       6.402   1.794  -2.447  1.00  0.00     0.007 A 
ATOM     88  C   UNL     1       7.037   2.741  -4.522  1.00  0.00     0.114 A 
ATOM     89  C   UNL     1       6.214   3.088  -1.960  1.00  0.00     0.020 A 
ATOM     90  N   UNL     1       6.886   4.009  -4.075  1.00  0.00    -0.264 NA
ATOM     91  C   UNL     1       6.463   4.155  -2.804  1.00  0.00     0.111 A 
ENDBRANCH  85  86
ENDBRANCH  84  85
ENDBRANCH  77  84
ENDBRANCH  75  77
ENDBRANCH  74  75
ENDBRANCH  73  74
ENDBRANCH  72  73
ENDBRANCH   1  72
TORSDOF 20
