REMARK SMILES O=C(OCCOCCOC(=O)[C@@H]1CCCN1S(=O)(=O)c1ccc2c3c(cccc13)C(=O)N2)c1ccc(-c2c3nc(c(-c4cc(S(=O)(=O)[O-])ccc4F)c4ccc([nH]4)c(-c4cc(S(=O)(=O)[O-])ccc4F)c4nc(c(-c5cc(S(=O)(=O)[O-])ccc5F)c5ccc2[nH]5)C=C4)C=C3)cc1
REMARK SMILES IDX 5 1 4 2 3 3 2 4 1 5 33 6 34 7 95 8 35 9 94 10 36 11 37 12
REMARK SMILES IDX 38 13 88 14 39 15 93 16 87 17 89 18 40 19 92 20 86 21 85 22
REMARK SMILES IDX 41 24 73 25 53 26 72 27 54 28 57 29 71 30 90 31 55 32 56 33
REMARK SMILES IDX 70 35 91 36 58 37 42 38 43 39 51 40 44 41 50 42 52 43 49 44
REMARK SMILES IDX 45 45 46 46 47 47 48 48 74 49 75 50 83 51 76 52 82 53 84 54
REMARK SMILES IDX 81 55 77 56 78 57 79 58 80 59 59 60 60 61 68 62 61 63 67 64
REMARK SMILES IDX 69 65 66 66 62 67 63 68 64 69 65 70 6 71 7 72 8 73 9 74
REMARK SMILES IDX 10 75 11 76 12 77 13 78 16 79 14 80 15 81 17 82 18 83 19 84
REMARK SMILES IDX 20 85 21 86 29 87 22 88 24 89 28 90 23 91 25 92 27 93 32 94
REMARK SMILES IDX 26 95 30 96 31 98
REMARK H PARENT 89 23 57 34 32 97
REMARK Flexibility Score: inf
ROOT
ATOM      1  C   UNL     1       3.795  -0.532  -0.799  1.00  0.00     0.202 C 
ENDROOT
BRANCH   1   2
ATOM      2  C   UNL     1       3.601  -1.346   0.478  1.00  0.00     0.261 C 
BRANCH   2   3
ATOM      3  O   UNL     1       2.293  -1.201   1.020  1.00  0.00    -0.460 OA
BRANCH   3   4
ATOM      4  C   UNL     1       1.875  -0.210   1.845  1.00  0.00     0.338 C 
ATOM      5  O   UNL     1       0.762  -0.339   2.356  1.00  0.00    -0.246 OA
BRANCH   4   6
ATOM      6  C   UNL     1       2.633   1.065   2.106  1.00  0.00     0.060 A 
ATOM      7  C   UNL     1       3.894   1.403   1.606  1.00  0.00     0.016 A 
ATOM      8  C   UNL     1       1.976   2.035   2.885  1.00  0.00     0.016 A 
ATOM      9  C   UNL     1       4.412   2.681   1.712  1.00  0.00     0.010 A 
ATOM     10  C   UNL     1       2.547   3.291   3.112  1.00  0.00     0.010 A 
ATOM     11  C   UNL     1       3.764   3.610   2.511  1.00  0.00    -0.014 A 
BRANCH  11  12
ATOM     12  C   UNL     1       4.567   4.773   2.898  1.00  0.00     0.031 A 
ATOM     13  C   UNL     1       5.633   4.541   3.925  1.00  0.00     0.074 A 
ATOM     14  C   UNL     1       4.471   5.925   2.219  1.00  0.00     0.049 A 
ATOM     15  N   UNL     1       6.532   5.365   4.378  1.00  0.00    -0.248 NA
ATOM     16  C   UNL     1       5.732   3.175   4.476  1.00  0.00     0.031 C 
ATOM     17  C   UNL     1       3.578   6.168   1.088  1.00  0.00     0.029 A 
ATOM     18  N   UNL     1       5.156   7.098   2.373  1.00  0.00    -0.354 N 
ATOM     19  C   UNL     1       7.318   4.614   5.240  1.00  0.00     0.074 A 
ATOM     20  C   UNL     1       6.794   3.271   5.256  1.00  0.00     0.031 C 
ATOM     21  C   UNL     1       3.756   7.430   0.663  1.00  0.00     0.029 A 
ATOM     22  C   UNL     1       4.743   8.089   1.520  1.00  0.00     0.049 A 
ATOM     23  H   UNL     1       5.876   7.219   3.034  1.00  0.00     0.167 HD
ATOM     24  C   UNL     1       8.376   5.023   5.970  1.00  0.00     0.034 A 
ATOM     25  C   UNL     1       5.105   9.386   1.473  1.00  0.00     0.034 A 
ATOM     26  C   UNL     1       8.813   6.387   6.008  1.00  0.00     0.049 A 
ATOM     27  C   UNL     1       6.159   9.872   2.437  1.00  0.00     0.074 A 
ATOM     28  C   UNL     1       9.780   6.954   6.814  1.00  0.00     0.029 A 
ATOM     29  N   UNL     1       8.295   7.402   5.214  1.00  0.00    -0.354 N 
ATOM     30  N   UNL     1       6.844   9.185   3.323  1.00  0.00    -0.248 NA
ATOM     31  C   UNL     1       6.487  11.303   2.410  1.00  0.00     0.031 C 
ATOM     32  C   UNL     1       9.799   8.325   6.556  1.00  0.00     0.029 A 
ATOM     33  C   UNL     1       8.906   8.600   5.529  1.00  0.00     0.049 A 
ATOM     34  H   UNL     1       7.598   7.285   4.529  1.00  0.00     0.167 HD
ATOM     35  C   UNL     1       7.715  10.088   3.925  1.00  0.00     0.074 A 
ATOM     36  C   UNL     1       7.460  11.375   3.311  1.00  0.00     0.031 C 
ATOM     37  C   UNL     1       8.645   9.869   4.889  1.00  0.00     0.034 A 
BRANCH  24  38
ATOM     38  C   UNL     1       9.055   4.006   6.839  1.00  0.00     0.023 A 
ATOM     39  C   UNL     1       8.942   4.103   8.236  1.00  0.00     0.031 A 
ATOM     40  C   UNL     1       9.827   2.965   6.297  1.00  0.00     0.131 A 
ATOM     41  C   UNL     1       9.618   3.189   9.050  1.00  0.00     0.055 A 
ATOM     42  C   UNL     1      10.469   2.033   7.112  1.00  0.00     0.041 A 
ATOM     43  F   UNL     1       9.932   2.814   4.966  1.00  0.00    -0.206 F 
ATOM     44  C   UNL     1      10.374   2.150   8.496  1.00  0.00     0.022 A 
BRANCH  41  45
ATOM     45  S   UNL     1       9.554   3.328  10.854  1.00  0.00     0.124 S 
ATOM     46  O   UNL     1       9.082   2.001  11.243  1.00  0.00    -0.237 OA
ATOM     47  O   UNL     1      10.946   3.618  11.185  1.00  0.00    -0.237 OA
ATOM     48  O   UNL     1       8.608   4.413  11.090  1.00  0.00    -0.744 OA
ENDBRANCH  41  45
ENDBRANCH  24  38
BRANCH  25  49
ATOM     49  C   UNL     1       4.455  10.281   0.476  1.00  0.00     0.023 A 
ATOM     50  C   UNL     1       3.066  10.508   0.518  1.00  0.00     0.031 A 
ATOM     51  C   UNL     1       5.183  10.828  -0.591  1.00  0.00     0.131 A 
ATOM     52  C   UNL     1       2.439  11.197  -0.529  1.00  0.00     0.055 A 
ATOM     53  C   UNL     1       4.563  11.568  -1.600  1.00  0.00     0.041 A 
ATOM     54  F   UNL     1       6.508  10.636  -0.675  1.00  0.00    -0.206 F 
ATOM     55  C   UNL     1       3.181  11.741  -1.581  1.00  0.00     0.022 A 
BRANCH  52  56
ATOM     56  S   UNL     1       0.631  11.321  -0.603  1.00  0.00     0.124 S 
ATOM     57  O   UNL     1       0.427  12.746  -0.842  1.00  0.00    -0.237 OA
ATOM     58  O   UNL     1       0.325  10.442  -1.730  1.00  0.00    -0.237 OA
ATOM     59  O   UNL     1       0.198  10.836   0.703  1.00  0.00    -0.744 OA
ENDBRANCH  52  56
ENDBRANCH  25  49
BRANCH  37  60
ATOM     60  C   UNL     1       9.501  11.020   5.351  1.00  0.00     0.023 A 
ATOM     61  C   UNL     1      10.895  10.960   5.155  1.00  0.00     0.031 A 
ATOM     62  C   UNL     1       8.980  12.048   6.151  1.00  0.00     0.131 A 
ATOM     63  C   UNL     1      11.728  11.877   5.803  1.00  0.00     0.055 A 
ATOM     64  C   UNL     1       9.812  12.992   6.754  1.00  0.00     0.041 A 
ATOM     65  F   UNL     1       7.660  12.135   6.378  1.00  0.00    -0.206 F 
ATOM     66  C   UNL     1      11.193  12.898   6.596  1.00  0.00     0.022 A 
BRANCH  63  67
ATOM     67  S   UNL     1      13.532  11.719   5.721  1.00  0.00     0.124 S 
ATOM     68  O   UNL     1      13.928  13.030   5.210  1.00  0.00    -0.237 OA
ATOM     69  O   UNL     1      13.881  11.463   7.116  1.00  0.00    -0.237 OA
ATOM     70  O   UNL     1      13.750  10.606   4.803  1.00  0.00    -0.744 OA
ENDBRANCH  63  67
ENDBRANCH  37  60
ENDBRANCH  11  12
ENDBRANCH   4   6
ENDBRANCH   3   4
ENDBRANCH   2   3
ENDBRANCH   1   2
BRANCH   1  71
ATOM     71  O   UNL     1       3.140   0.724  -0.917  1.00  0.00    -0.374 OA
BRANCH  71  72
ATOM     72  C   UNL     1       1.913   0.716  -1.640  1.00  0.00     0.202 C 
BRANCH  72  73
ATOM     73  C   UNL     1       2.151   0.772  -3.156  1.00  0.00     0.261 C 
BRANCH  73  74
ATOM     74  O   UNL     1       2.847  -0.429  -3.559  1.00  0.00    -0.462 OA
BRANCH  74  75
ATOM     75  C   UNL     1       3.949  -0.280  -4.338  1.00  0.00     0.324 C 
ATOM     76  O   UNL     1       4.165   0.708  -5.032  1.00  0.00    -0.250 OA
BRANCH  75  77
ATOM     77  C   UNL     1       4.896  -1.452  -4.251  1.00  0.00     0.183 C 
ATOM     78  C   UNL     1       4.322  -2.743  -3.669  1.00  0.00     0.034 C 
ATOM     79  N   UNL     1       6.348  -1.462  -3.867  1.00  0.00    -0.184 NA
ATOM     80  C   UNL     1       5.395  -3.749  -4.010  1.00  0.00     0.019 C 
ATOM     81  C   UNL     1       6.703  -2.962  -3.915  1.00  0.00     0.103 C 
BRANCH  79  82
ATOM     82  S   UNL     1       7.164  -0.789  -2.504  1.00  0.00     0.244 S 
ATOM     83  O   UNL     1       6.616  -1.464  -1.343  1.00  0.00    -0.207 OA
ATOM     84  O   UNL     1       8.562  -1.006  -2.837  1.00  0.00    -0.207 OA
BRANCH  82  85
ATOM     85  C   UNL     1       7.012   0.971  -2.203  1.00  0.00     0.090 A 
ATOM     86  C   UNL     1       5.843   1.666  -2.553  1.00  0.00     0.024 A 
ATOM     87  C   UNL     1       8.026   1.665  -1.448  1.00  0.00     0.005 A 
ATOM     88  C   UNL     1       5.600   3.018  -2.236  1.00  0.00     0.028 A 
ATOM     89  C   UNL     1       7.752   2.982  -1.177  1.00  0.00     0.019 A 
ATOM     90  C   UNL     1       9.260   1.231  -0.886  1.00  0.00     0.010 A 
ATOM     91  C   UNL     1       6.602   3.645  -1.537  1.00  0.00     0.050 A 
ATOM     92  C   UNL     1       8.540   3.873  -0.462  1.00  0.00     0.050 A 
ATOM     93  C   UNL     1      10.095   2.110  -0.152  1.00  0.00     0.002 A 
ATOM     94  N   UNL     1       6.683   4.935  -1.049  1.00  0.00    -0.321 N 
ATOM     95  C   UNL     1       9.751   3.451   0.070  1.00  0.00     0.014 A 
ATOM     96  C   UNL     1       7.891   5.167  -0.388  1.00  0.00     0.256 C 
ATOM     97  H   UNL     1       5.973   5.609  -1.154  1.00  0.00     0.170 HD
ATOM     98  O   UNL     1       8.239   6.244   0.079  1.00  0.00    -0.269 OA
ENDBRANCH  82  85
ENDBRANCH  79  82
ENDBRANCH  75  77
ENDBRANCH  74  75
ENDBRANCH  73  74
ENDBRANCH  72  73
ENDBRANCH  71  72
ENDBRANCH   1  71
TORSDOF 19
