REMARK SMILES COc1cc(/C=C2/CCc3cc(OC(C)(C)C(=O)OCCOCCOC(=O)c4ccc(-c5c6nc(c(-c7cc(S(=O)(=O)[O-])ccc7F)c7ccc([nH]7)c(-c7cc(S(=O)(=O)[O-])ccc7F)c7nc(c(-c8cc(S(=O)(=O)[O-])ccc8F)c8ccc5[nH]8)C=C7)C=C6)cc4)ccc3C2=O)cc(OC)c1O
REMARK SMILES IDX 21 1 20 2 19 3 17 4 18 5 14 6 15 7 16 8 13 9 12 10 6 11 7 12
REMARK SMILES IDX 8 13 94 14 9 15 93 16 95 17 10 18 92 19 11 20 91 21 5 22
REMARK SMILES IDX 3 23 4 24 100 25 97 26 96 27 2 28 1 29 101 30 98 32 99 33
REMARK SMILES IDX 22 34 23 35 24 36 25 37 26 38 27 39 28 40 29 41 90 42 30 43
REMARK SMILES IDX 89 44 31 45 32 46 33 47 83 48 34 49 88 50 82 51 84 52 35 53
REMARK SMILES IDX 87 54 81 55 80 56 36 58 68 59 48 60 67 61 49 62 52 63 66 64
REMARK SMILES IDX 85 65 50 66 51 67 65 69 86 70 53 71 37 72 38 73 46 74 39 75
REMARK SMILES IDX 45 76 47 77 44 78 40 79 41 80 42 81 43 82 69 83 70 84 78 85
REMARK SMILES IDX 71 86 77 87 79 88 76 89 72 90 73 91 74 92 75 93 54 94 55 95
REMARK SMILES IDX 63 96 56 97 62 98 64 99 61 100 57 101 58 102 59 103 60 104
REMARK H PARENT 101 31 84 57 52 68
REMARK Flexibility Score: inf
ROOT
ATOM      1  C   UNL     1      -0.202  -6.614   0.138  1.00  0.00     0.202 C 
ENDROOT
BRANCH   1   2
ATOM      2  C   UNL     1      -1.735  -6.411   0.292  1.00  0.00     0.261 C 
BRANCH   2   3
ATOM      3  O   UNL     1      -2.122  -5.402   1.253  1.00  0.00    -0.460 OA
BRANCH   3   4
ATOM      4  C   UNL     1      -3.091  -5.665   2.205  1.00  0.00     0.349 C 
ATOM      5  O   UNL     1      -3.639  -6.749   2.345  1.00  0.00    -0.247 OA
BRANCH   4   6
ATOM      6  C   UNL     1      -3.350  -4.393   3.099  1.00  0.00     0.200 C 
ATOM      7  C   UNL     1      -4.114  -3.355   2.260  1.00  0.00     0.069 C 
ATOM      8  C   UNL     1      -1.933  -3.867   3.322  1.00  0.00     0.069 C 
BRANCH   6   9
ATOM      9  O   UNL     1      -4.189  -4.611   4.302  1.00  0.00    -0.476 OA
BRANCH   9  10
ATOM     10  C   UNL     1      -3.680  -4.145   5.506  1.00  0.00     0.121 A 
ATOM     11  C   UNL     1       0.469  -0.100   6.157  1.00  0.00     0.016 C 
ATOM     12  C   UNL     1      -0.693  -0.566   6.663  1.00  0.00     0.001 C 
ATOM     13  C   UNL     1      -1.680  -0.212   7.778  1.00  0.00     0.044 C 
ATOM     14  C   UNL     1      -1.329  -1.598   5.873  1.00  0.00     0.189 C 
ATOM     15  C   UNL     1      -3.206  -0.766   7.456  1.00  0.00     0.041 C 
ATOM     16  C   UNL     1      -1.898  -2.663   6.759  1.00  0.00     0.026 A 
ATOM     17  O   UNL     1      -1.783  -1.297   4.772  1.00  0.00    -0.289 OA
ATOM     18  C   UNL     1      -3.197  -2.211   6.905  1.00  0.00    -0.033 A 
ATOM     19  C   UNL     1      -1.568  -3.995   6.546  1.00  0.00     0.016 A 
ATOM     20  C   UNL     1      -4.110  -2.917   6.101  1.00  0.00     0.051 A 
ATOM     21  C   UNL     1      -2.535  -4.795   5.971  1.00  0.00     0.047 A 
BRANCH  11  22
ATOM     22  C   UNL     1       0.826  -0.300   4.701  1.00  0.00    -0.018 A 
ATOM     23  C   UNL     1       0.700   0.801   2.501  1.00  0.00     0.165 A 
ATOM     24  C   UNL     1       0.684   0.848   3.903  1.00  0.00     0.058 A 
ATOM     25  C   UNL     1       0.828  -0.431   1.869  1.00  0.00     0.200 A 
ATOM     26  C   UNL     1       0.939  -1.602   2.626  1.00  0.00     0.165 A 
ATOM     27  C   UNL     1       1.011  -1.532   4.037  1.00  0.00     0.058 A 
BRANCH  23  28
ATOM     28  O   UNL     1       0.550   2.024   1.902  1.00  0.00    -0.493 OA
ATOM     29  C   UNL     1       0.776   2.100   0.497  1.00  0.00     0.278 C 
ENDBRANCH  23  28
BRANCH  25  30
ATOM     30  O   UNL     1       0.836  -0.491   0.504  1.00  0.00    -0.502 OA
ATOM     31  H   UNL     1       0.761   0.295   0.000  1.00  0.00     0.293 HD
ENDBRANCH  25  30
BRANCH  26  32
ATOM     32  O   UNL     1       0.943  -2.858   2.072  1.00  0.00    -0.493 OA
ATOM     33  C   UNL     1       0.177  -3.027   0.869  1.00  0.00     0.278 C 
ENDBRANCH  26  32
ENDBRANCH  11  22
ENDBRANCH   9  10
ENDBRANCH   6   9
ENDBRANCH   4   6
ENDBRANCH   3   4
ENDBRANCH   2   3
ENDBRANCH   1   2
BRANCH   1  34
ATOM     34  O   UNL     1       0.433  -7.226   1.262  1.00  0.00    -0.374 OA
BRANCH  34  35
ATOM     35  C   UNL     1       0.975  -6.334   2.240  1.00  0.00     0.202 C 
BRANCH  35  36
ATOM     36  C   UNL     1       2.439  -5.915   2.002  1.00  0.00     0.261 C 
BRANCH  36  37
ATOM     37  O   UNL     1       2.538  -4.789   1.103  1.00  0.00    -0.460 OA
BRANCH  37  38
ATOM     38  C   UNL     1       3.429  -4.863   0.091  1.00  0.00     0.338 C 
ATOM     39  O   UNL     1       4.136  -5.819  -0.187  1.00  0.00    -0.246 OA
BRANCH  38  40
ATOM     40  C   UNL     1       3.335  -3.646  -0.755  1.00  0.00     0.060 A 
ATOM     41  C   UNL     1       2.942  -3.812  -2.085  1.00  0.00     0.016 A 
ATOM     42  C   UNL     1       3.659  -2.364  -0.289  1.00  0.00     0.016 A 
ATOM     43  C   UNL     1       2.905  -2.717  -2.959  1.00  0.00     0.010 A 
ATOM     44  C   UNL     1       3.606  -1.261  -1.171  1.00  0.00     0.010 A 
ATOM     45  C   UNL     1       3.263  -1.431  -2.528  1.00  0.00    -0.014 A 
BRANCH  45  46
ATOM     46  C   UNL     1       3.459  -0.348  -3.551  1.00  0.00     0.031 A 
ATOM     47  C   UNL     1       4.867   0.083  -3.900  1.00  0.00     0.074 A 
ATOM     48  C   UNL     1       2.434   0.181  -4.255  1.00  0.00     0.049 A 
ATOM     49  N   UNL     1       5.282   0.928  -4.812  1.00  0.00    -0.248 NA
ATOM     50  C   UNL     1       5.949  -0.522  -3.111  1.00  0.00     0.031 C 
ATOM     51  C   UNL     1       1.021  -0.142  -4.069  1.00  0.00     0.029 A 
ATOM     52  N   UNL     1       2.429   1.094  -5.290  1.00  0.00    -0.354 N 
ATOM     53  C   UNL     1       6.670   0.951  -4.709  1.00  0.00     0.074 A 
ATOM     54  C   UNL     1       7.017   0.086  -3.601  1.00  0.00     0.031 C 
ATOM     55  C   UNL     1       0.291   0.540  -4.972  1.00  0.00     0.029 A 
ATOM     56  C   UNL     1       1.174   1.378  -5.786  1.00  0.00     0.049 A 
ATOM     57  H   UNL     1       3.250   1.508  -5.643  1.00  0.00     0.167 HD
ATOM     58  C   UNL     1       7.583   1.602  -5.475  1.00  0.00     0.034 A 
ATOM     59  C   UNL     1       0.774   2.213  -6.773  1.00  0.00     0.034 A 
ATOM     60  C   UNL     1       7.254   2.465  -6.582  1.00  0.00     0.049 A 
ATOM     61  C   UNL     1       1.804   3.003  -7.556  1.00  0.00     0.074 A 
ATOM     62  C   UNL     1       8.117   3.150  -7.423  1.00  0.00     0.029 A 
ATOM     63  N   UNL     1       5.969   2.777  -7.001  1.00  0.00    -0.354 N 
ATOM     64  N   UNL     1       3.114   2.987  -7.457  1.00  0.00    -0.248 NA
ATOM     65  C   UNL     1       1.298   3.915  -8.594  1.00  0.00     0.031 C 
ATOM     66  C   UNL     1       7.356   3.937  -8.293  1.00  0.00     0.029 A 
ATOM     67  C   UNL     1       6.016   3.673  -8.060  1.00  0.00     0.049 A 
ATOM     68  H   UNL     1       5.143   2.415  -6.604  1.00  0.00     0.167 HD
ATOM     69  C   UNL     1       3.582   3.854  -8.446  1.00  0.00     0.074 A 
ATOM     70  C   UNL     1       2.420   4.365  -9.137  1.00  0.00     0.031 C 
ATOM     71  C   UNL     1       4.861   4.190  -8.755  1.00  0.00     0.034 A 
BRANCH  58  72
ATOM     72  C   UNL     1       9.038   1.431  -5.104  1.00  0.00     0.023 A 
ATOM     73  C   UNL     1       9.675   0.179  -5.167  1.00  0.00     0.031 A 
ATOM     74  C   UNL     1       9.788   2.529  -4.649  1.00  0.00     0.131 A 
ATOM     75  C   UNL     1      10.990   0.040  -4.700  1.00  0.00     0.055 A 
ATOM     76  C   UNL     1      11.126   2.401  -4.272  1.00  0.00     0.041 A 
ATOM     77  F   UNL     1       9.229   3.745  -4.547  1.00  0.00    -0.206 F 
ATOM     78  C   UNL     1      11.730   1.147  -4.280  1.00  0.00     0.022 A 
BRANCH  75  79
ATOM     79  S   UNL     1      11.660  -1.633  -4.494  1.00  0.00     0.124 S 
ATOM     80  O   UNL     1      10.688  -2.228  -3.579  1.00  0.00    -0.237 OA
ATOM     81  O   UNL     1      11.653  -2.147  -5.858  1.00  0.00    -0.237 OA
ATOM     82  O   UNL     1      12.984  -1.402  -3.920  1.00  0.00    -0.744 OA
ENDBRANCH  75  79
ENDBRANCH  58  72
BRANCH  59  83
ATOM     83  C   UNL     1      -0.680   2.403  -7.076  1.00  0.00     0.023 A 
ATOM     84  C   UNL     1      -1.215   2.101  -8.342  1.00  0.00     0.031 A 
ATOM     85  C   UNL     1      -1.537   2.993  -6.129  1.00  0.00     0.131 A 
ATOM     86  C   UNL     1      -2.546   2.442  -8.642  1.00  0.00     0.055 A 
ATOM     87  C   UNL     1      -2.875   3.273  -6.413  1.00  0.00     0.041 A 
ATOM     88  F   UNL     1      -1.079   3.316  -4.909  1.00  0.00    -0.206 F 
ATOM     89  C   UNL     1      -3.383   3.012  -7.681  1.00  0.00     0.022 A 
BRANCH  86  90
ATOM     90  S   UNL     1      -3.142   2.229 -10.344  1.00  0.00     0.124 S 
ATOM     91  O   UNL     1      -2.221   3.079 -11.089  1.00  0.00    -0.237 OA
ATOM     92  O   UNL     1      -2.991   0.791 -10.540  1.00  0.00    -0.237 OA
ATOM     93  O   UNL     1      -4.522   2.705 -10.284  1.00  0.00    -0.744 OA
ENDBRANCH  86  90
ENDBRANCH  59  83
BRANCH  71  94
ATOM     94  C   UNL     1       5.083   5.113  -9.935  1.00  0.00     0.023 A 
ATOM     95  C   UNL     1       4.633   6.446  -9.942  1.00  0.00     0.031 A 
ATOM     96  C   UNL     1       5.760   4.646 -11.078  1.00  0.00     0.131 A 
ATOM     97  C   UNL     1       4.814   7.244 -11.084  1.00  0.00     0.055 A 
ATOM     98  C   UNL     1       5.995   5.464 -12.185  1.00  0.00     0.041 A 
ATOM     99  F   UNL     1       6.212   3.383 -11.136  1.00  0.00    -0.206 F 
ATOM    100  C   UNL     1       5.509   6.767 -12.198  1.00  0.00     0.022 A 
BRANCH  97 101
ATOM    101  S   UNL     1       4.042   8.886 -11.137  1.00  0.00     0.124 S 
ATOM    102  O   UNL     1       2.637   8.568 -10.907  1.00  0.00    -0.237 OA
ATOM    103  O   UNL     1       4.723   9.585 -10.052  1.00  0.00    -0.237 OA
ATOM    104  O   UNL     1       4.357   9.371 -12.479  1.00  0.00    -0.744 OA
ENDBRANCH  97 101
ENDBRANCH  71  94
ENDBRANCH  45  46
ENDBRANCH  38  40
ENDBRANCH  37  38
ENDBRANCH  36  37
ENDBRANCH  35  36
ENDBRANCH  34  35
ENDBRANCH   1  34
TORSDOF 23
