REMARK SMILES Nc1nc(N2CCCCC2)nc2c1[C@H](C(=O)OCCOCCOC(=O)c1ccc(-c3c4nc(c(-c5cc(S(=O)(=O)[O-])ccc5F)c5ccc([nH]5)c(-c5cc(S(=O)(=O)[O-])ccc5F)c5nc(c(-c6cc(S(=O)(=O)[O-])ccc6F)c6ccc3[nH]6)C=C5)C=C4)cc1)CC(=O)N2
REMARK SMILES IDX 21 1 20 2 19 3 18 4 17 5 15 6 16 7 14 8 2 9 3 10 13 11 4 12
REMARK SMILES IDX 12 13 11 14 92 15 89 16 90 17 91 19 1 20 5 23 6 24 10 25
REMARK SMILES IDX 7 26 9 27 8 28 22 29 23 30 24 31 25 32 26 33 27 34 88 35
REMARK SMILES IDX 28 36 87 37 29 38 30 39 31 40 81 41 32 42 86 43 80 44 82 45
REMARK SMILES IDX 33 46 85 47 79 48 78 49 34 51 66 52 46 53 65 54 47 55 50 56
REMARK SMILES IDX 64 57 83 58 48 59 49 60 63 62 84 63 51 64 35 65 36 66 44 67
REMARK SMILES IDX 37 68 43 69 45 70 42 71 38 72 39 73 40 74 41 75 67 76 68 77
REMARK SMILES IDX 76 78 69 79 75 80 77 81 74 82 70 83 71 84 72 85 73 86 52 87
REMARK SMILES IDX 53 88 61 89 54 90 60 91 62 92 59 93 55 94 56 95 57 96 58 97
REMARK H PARENT 92 18 1 21 1 22 82 50 50 61
REMARK Flexibility Score: inf
ROOT
ATOM      1  C   UNL     1      -4.537   0.141   0.896  1.00  0.00     0.202 C 
ENDROOT
BRANCH   1   2
ATOM      2  O   UNL     1      -4.393  -1.115   0.232  1.00  0.00    -0.374 OA
BRANCH   2   3
ATOM      3  C   UNL     1      -3.955  -2.230   1.001  1.00  0.00     0.202 C 
BRANCH   3   4
ATOM      4  C   UNL     1      -2.479  -2.291   1.419  1.00  0.00     0.261 C 
BRANCH   4   5
ATOM      5  O   UNL     1      -1.931  -1.036   1.856  1.00  0.00    -0.463 OA
BRANCH   5   6
ATOM      6  C   UNL     1      -1.185  -0.392   0.919  1.00  0.00     0.314 C 
ATOM      7  O   UNL     1      -0.932  -0.864  -0.185  1.00  0.00    -0.252 OA
BRANCH   6   8
ATOM      8  C   UNL     1      -0.590   0.935   1.412  1.00  0.00     0.146 C 
ATOM      9  C   UNL     1       0.719   1.516  -0.699  1.00  0.00     0.135 A 
ATOM     10  N   UNL     1       0.885   2.215  -1.827  1.00  0.00    -0.196 NA
ATOM     11  C   UNL     1      -0.256   1.814   0.233  1.00  0.00     0.052 A 
ATOM     12  C   UNL     1       0.067   3.250  -2.048  1.00  0.00     0.229 A 
ATOM     13  C   UNL     1      -1.018   2.913  -0.076  1.00  0.00     0.144 A 
ATOM     14  N   UNL     1      -0.860   3.656  -1.175  1.00  0.00    -0.195 NA
ATOM     15  N   UNL     1      -2.073   3.276   0.744  1.00  0.00    -0.310 N 
ATOM     16  C   UNL     1      -1.412   1.672   2.475  1.00  0.00     0.120 C 
ATOM     17  C   UNL     1      -2.384   2.690   1.927  1.00  0.00     0.226 C 
ATOM     18  H   UNL     1      -2.644   4.020   0.444  1.00  0.00     0.171 HD
ATOM     19  O   UNL     1      -3.384   3.036   2.552  1.00  0.00    -0.275 OA
BRANCH   9  20
ATOM     20  N   UNL     1       1.571   0.431  -0.539  1.00  0.00    -0.383 N 
ATOM     21  H   UNL     1       2.258   0.240  -1.218  1.00  0.00     0.158 HD
ATOM     22  H   UNL     1       1.488  -0.148   0.253  1.00  0.00     0.158 HD
ENDBRANCH   9  20
BRANCH  12  23
ATOM     23  N   UNL     1       0.118   3.897  -3.256  1.00  0.00    -0.341 N 
ATOM     24  C   UNL     1       0.234   3.121  -4.476  1.00  0.00     0.119 C 
ATOM     25  C   UNL     1       0.513   5.289  -3.257  1.00  0.00     0.119 C 
ATOM     26  C   UNL     1       1.628   3.257  -5.080  1.00  0.00     0.022 C 
ATOM     27  C   UNL     1       1.933   5.412  -3.817  1.00  0.00     0.022 C 
ATOM     28  C   UNL     1       2.049   4.723  -5.178  1.00  0.00     0.004 C 
ENDBRANCH  12  23
ENDBRANCH   6   8
ENDBRANCH   5   6
ENDBRANCH   4   5
ENDBRANCH   3   4
ENDBRANCH   2   3
ENDBRANCH   1   2
BRANCH   1  29
ATOM     29  C   UNL     1      -5.559   0.255   2.032  1.00  0.00     0.261 C 
BRANCH  29  30
ATOM     30  O   UNL     1      -5.173  -0.523   3.180  1.00  0.00    -0.460 OA
BRANCH  30  31
ATOM     31  C   UNL     1      -6.106  -1.414   3.590  1.00  0.00     0.338 C 
ATOM     32  O   UNL     1      -7.240  -1.551   3.145  1.00  0.00    -0.246 OA
BRANCH  31  33
ATOM     33  C   UNL     1      -5.507  -2.380   4.523  1.00  0.00     0.060 A 
ATOM     34  C   UNL     1      -5.558  -3.734   4.167  1.00  0.00     0.016 A 
ATOM     35  C   UNL     1      -4.998  -1.987   5.763  1.00  0.00     0.016 A 
ATOM     36  C   UNL     1      -5.154  -4.707   5.075  1.00  0.00     0.010 A 
ATOM     37  C   UNL     1      -4.607  -2.968   6.681  1.00  0.00     0.010 A 
ATOM     38  C   UNL     1      -4.724  -4.331   6.354  1.00  0.00    -0.014 A 
BRANCH  38  39
ATOM     39  C   UNL     1      -4.600  -5.380   7.394  1.00  0.00     0.031 A 
ATOM     40  C   UNL     1      -5.777  -5.638   8.296  1.00  0.00     0.074 A 
ATOM     41  C   UNL     1      -3.501  -6.153   7.465  1.00  0.00     0.049 A 
ATOM     42  N   UNL     1      -5.915  -6.525   9.246  1.00  0.00    -0.248 NA
ATOM     43  C   UNL     1      -6.962  -4.787   8.090  1.00  0.00     0.031 C 
ATOM     44  C   UNL     1      -2.333  -6.038   6.592  1.00  0.00     0.029 A 
ATOM     45  N   UNL     1      -3.199  -7.200   8.297  1.00  0.00    -0.354 N 
ATOM     46  C   UNL     1      -7.203  -6.351   9.741  1.00  0.00     0.074 A 
ATOM     47  C   UNL     1      -7.792  -5.247   9.014  1.00  0.00     0.031 C 
ATOM     48  C   UNL     1      -1.445  -6.991   6.927  1.00  0.00     0.029 A 
ATOM     49  C   UNL     1      -1.967  -7.760   8.055  1.00  0.00     0.049 A 
ATOM     50  H   UNL     1      -3.808  -7.522   9.001  1.00  0.00     0.167 HD
ATOM     51  C   UNL     1      -7.841  -7.057  10.704  1.00  0.00     0.034 A 
ATOM     52  C   UNL     1      -1.331  -8.771   8.682  1.00  0.00     0.034 A 
ATOM     53  C   UNL     1      -7.242  -8.148  11.427  1.00  0.00     0.049 A 
ATOM     54  C   UNL     1      -2.018  -9.466   9.830  1.00  0.00     0.074 A 
ATOM     55  C   UNL     1      -7.794  -8.921  12.432  1.00  0.00     0.029 A 
ATOM     56  N   UNL     1      -5.950  -8.616  11.226  1.00  0.00    -0.354 N 
ATOM     57  N   UNL     1      -3.223  -9.265  10.313  1.00  0.00    -0.248 NA
ATOM     58  C   UNL     1      -1.260 -10.518  10.521  1.00  0.00     0.031 C 
ATOM     59  C   UNL     1      -6.817  -9.818  12.879  1.00  0.00     0.029 A 
ATOM     60  C   UNL     1      -5.677  -9.645  12.110  1.00  0.00     0.049 A 
ATOM     61  H   UNL     1      -5.322  -8.266  10.554  1.00  0.00     0.167 HD
ATOM     62  C   UNL     1      -3.370 -10.175  11.356  1.00  0.00     0.074 A 
ATOM     63  C   UNL     1      -2.137 -10.932  11.426  1.00  0.00     0.031 C 
ATOM     64  C   UNL     1      -4.431 -10.370  12.178  1.00  0.00     0.034 A 
BRANCH  51  65
ATOM     65  C   UNL     1      -9.246  -6.644  11.053  1.00  0.00     0.023 A 
ATOM     66  C   UNL     1     -10.315  -6.852  10.165  1.00  0.00     0.031 A 
ATOM     67  C   UNL     1      -9.519  -6.041  12.293  1.00  0.00     0.131 A 
ATOM     68  C   UNL     1     -11.604  -6.423  10.515  1.00  0.00     0.055 A 
ATOM     69  C   UNL     1     -10.813  -5.668  12.658  1.00  0.00     0.041 A 
ATOM     70  F   UNL     1      -8.529  -5.801  13.168  1.00  0.00    -0.206 F 
ATOM     71  C   UNL     1     -11.864  -5.853  11.764  1.00  0.00     0.022 A 
BRANCH  68  72
ATOM     72  S   UNL     1     -12.930  -6.552   9.284  1.00  0.00     0.124 S 
ATOM     73  O   UNL     1     -12.473  -5.615   8.261  1.00  0.00    -0.237 OA
ATOM     74  O   UNL     1     -12.891  -7.964   8.921  1.00  0.00    -0.237 OA
ATOM     75  O   UNL     1     -14.121  -6.131  10.020  1.00  0.00    -0.744 OA
ENDBRANCH  68  72
ENDBRANCH  51  65
BRANCH  52  76
ATOM     76  C   UNL     1       0.043  -9.164   8.264  1.00  0.00     0.023 A 
ATOM     77  C   UNL     1       0.293 -10.411   7.669  1.00  0.00     0.031 A 
ATOM     78  C   UNL     1       1.132  -8.299   8.472  1.00  0.00     0.131 A 
ATOM     79  C   UNL     1       1.607 -10.765   7.321  1.00  0.00     0.055 A 
ATOM     80  C   UNL     1       2.430  -8.641   8.091  1.00  0.00     0.041 A 
ATOM     81  F   UNL     1       0.943  -7.095   9.036  1.00  0.00    -0.206 F 
ATOM     82  C   UNL     1       2.674  -9.885   7.517  1.00  0.00     0.022 A 
BRANCH  79  83
ATOM     83  S   UNL     1       1.911 -12.415   6.630  1.00  0.00     0.124 S 
ATOM     84  O   UNL     1       1.536 -13.277   7.744  1.00  0.00    -0.237 OA
ATOM     85  O   UNL     1       1.019 -12.430   5.475  1.00  0.00    -0.237 OA
ATOM     86  O   UNL     1       3.337 -12.391   6.309  1.00  0.00    -0.744 OA
ENDBRANCH  79  83
ENDBRANCH  52  76
BRANCH  64  87
ATOM     87  C   UNL     1      -4.309 -11.448  13.222  1.00  0.00     0.023 A 
ATOM     88  C   UNL     1      -3.489 -11.281  14.349  1.00  0.00     0.031 A 
ATOM     89  C   UNL     1      -5.060 -12.632  13.110  1.00  0.00     0.131 A 
ATOM     90  C   UNL     1      -3.417 -12.297  15.313  1.00  0.00     0.055 A 
ATOM     91  C   UNL     1      -5.019 -13.619  14.095  1.00  0.00     0.041 A 
ATOM     92  F   UNL     1      -5.862 -12.834  12.053  1.00  0.00    -0.206 F 
ATOM     93  C   UNL     1      -4.190 -13.457  15.201  1.00  0.00     0.022 A 
BRANCH  90  94
ATOM     94  S   UNL     1      -2.274 -12.097  16.706  1.00  0.00     0.124 S 
ATOM     95  O   UNL     1      -0.978 -12.106  16.037  1.00  0.00    -0.237 OA
ATOM     96  O   UNL     1      -2.689 -10.818  17.274  1.00  0.00    -0.237 OA
ATOM     97  O   UNL     1      -2.548 -13.262  17.545  1.00  0.00    -0.744 OA
ENDBRANCH  90  94
ENDBRANCH  64  87
ENDBRANCH  38  39
ENDBRANCH  31  33
ENDBRANCH  30  31
ENDBRANCH  29  30
ENDBRANCH   1  29
TORSDOF 19
