REMARK SMILES COc1ccc(-c2cccc(Cl)c2C(=O)OCCOCCOC(=O)c2ccc(-c3c4nc(c(-c5cc(S(=O)(=O)[O-])ccc5F)c5ccc([nH]5)c(-c5cc(S(=O)(=O)[O-])ccc5F)c5nc(c(-c6cc(S(=O)(=O)[O-])ccc6F)c6ccc3[nH]6)C=C5)C=C4)cc2)c(F)c1
REMARK SMILES IDX 20 1 19 2 18 3 17 4 16 5 14 6 15 7 13 8 7 9 8 10 9 11 11 12
REMARK SMILES IDX 10 13 12 14 6 15 3 16 4 17 90 18 5 19 88 20 89 21 2 22 1 23
REMARK SMILES IDX 21 24 22 25 23 26 24 27 25 28 26 29 87 30 27 31 86 32 28 33
REMARK SMILES IDX 29 34 30 35 80 36 31 37 85 38 79 39 81 40 32 41 84 42 78 43
REMARK SMILES IDX 77 44 33 46 65 47 45 48 64 49 46 50 49 51 63 52 82 53 47 54
REMARK SMILES IDX 48 55 62 57 83 58 50 59 34 60 35 61 43 62 36 63 42 64 44 65
REMARK SMILES IDX 41 66 37 67 38 68 39 69 40 70 66 71 67 72 75 73 68 74 74 75
REMARK SMILES IDX 76 76 73 77 69 78 70 79 71 80 72 81 51 82 52 83 60 84 53 85
REMARK SMILES IDX 59 86 61 87 58 88 54 89 55 90 56 91 57 92
REMARK H PARENT 81 45 49 56
REMARK Flexibility Score: inf
ROOT
ATOM      1  C   UNL     1       5.301   4.210   1.522  1.00  0.00     0.202 C 
ENDROOT
BRANCH   1   2
ATOM      2  O   UNL     1       5.465   4.539   0.148  1.00  0.00    -0.374 OA
BRANCH   2   3
ATOM      3  C   UNL     1       5.531   5.925  -0.198  1.00  0.00     0.202 C 
BRANCH   3   4
ATOM      4  C   UNL     1       4.255   6.747  -0.007  1.00  0.00     0.261 C 
BRANCH   4   5
ATOM      5  O   UNL     1       3.933   6.842   1.392  1.00  0.00    -0.460 OA
BRANCH   5   6
ATOM      6  C   UNL     1       2.623   6.714   1.703  1.00  0.00     0.340 C 
ATOM      7  O   UNL     1       1.694   6.624   0.914  1.00  0.00    -0.246 OA
BRANCH   6   8
ATOM      8  C   UNL     1       2.472   6.566   3.169  1.00  0.00     0.086 A 
ATOM      9  C   UNL     1       1.825   5.415   3.694  1.00  0.00     0.001 A 
ATOM     10  C   UNL     1       1.622   5.336   5.085  1.00  0.00     0.010 A 
ATOM     11  C   UNL     1       2.065   6.347   5.936  1.00  0.00     0.002 A 
ATOM     12  C   UNL     1       2.932   7.571   4.035  1.00  0.00     0.056 A 
ATOM     13  C   UNL     1       2.732   7.452   5.414  1.00  0.00     0.021 A 
ATOM     14  Cl  UNL     1       3.726   9.006   3.487  1.00  0.00    -0.083 Cl
BRANCH   9  15
ATOM     15  C   UNL     1       1.406   4.276   2.860  1.00  0.00     0.019 A 
ATOM     16  C   UNL     1       0.694   2.138   1.148  1.00  0.00     0.121 A 
ATOM     17  C   UNL     1       1.895   2.101   1.854  1.00  0.00     0.047 A 
ATOM     18  C   UNL     1      -0.168   3.220   1.330  1.00  0.00     0.086 A 
ATOM     19  C   UNL     1       2.237   3.154   2.715  1.00  0.00     0.015 A 
ATOM     20  C   UNL     1       0.183   4.265   2.183  1.00  0.00     0.134 A 
ATOM     21  F   UNL     1      -0.685   5.273   2.353  1.00  0.00    -0.206 F 
BRANCH  16  22
ATOM     22  O   UNL     1       0.254   1.195   0.260  1.00  0.00    -0.497 OA
ATOM     23  C   UNL     1       1.038   0.017   0.122  1.00  0.00     0.278 C 
ENDBRANCH  16  22
ENDBRANCH   9  15
ENDBRANCH   6   8
ENDBRANCH   5   6
ENDBRANCH   4   5
ENDBRANCH   3   4
ENDBRANCH   2   3
ENDBRANCH   1   2
BRANCH   1  24
ATOM     24  C   UNL     1       6.521   4.288   2.450  1.00  0.00     0.261 C 
BRANCH  24  25
ATOM     25  O   UNL     1       7.254   5.511   2.348  1.00  0.00    -0.460 OA
BRANCH  25  26
ATOM     26  C   UNL     1       8.334   5.429   1.532  1.00  0.00     0.338 C 
ATOM     27  O   UNL     1       8.744   4.436   0.950  1.00  0.00    -0.246 OA
BRANCH  26  28
ATOM     28  C   UNL     1       8.874   6.777   1.300  1.00  0.00     0.060 A 
ATOM     29  C   UNL     1       9.004   7.207  -0.026  1.00  0.00     0.016 A 
ATOM     30  C   UNL     1       9.293   7.584   2.360  1.00  0.00     0.016 A 
ATOM     31  C   UNL     1       9.595   8.435  -0.301  1.00  0.00     0.010 A 
ATOM     32  C   UNL     1       9.897   8.812   2.081  1.00  0.00     0.010 A 
ATOM     33  C   UNL     1      10.079   9.225   0.749  1.00  0.00    -0.014 A 
BRANCH  33  34
ATOM     34  C   UNL     1      10.913  10.410   0.445  1.00  0.00     0.031 A 
ATOM     35  C   UNL     1      12.407  10.289   0.563  1.00  0.00     0.074 A 
ATOM     36  C   UNL     1      10.347  11.559   0.035  1.00  0.00     0.049 A 
ATOM     37  N   UNL     1      13.325  11.205   0.406  1.00  0.00    -0.248 NA
ATOM     38  C   UNL     1      12.935   8.957   0.904  1.00  0.00     0.031 C 
ATOM     39  C   UNL     1       8.913  11.765  -0.172  1.00  0.00     0.029 A 
ATOM     40  N   UNL     1      10.910  12.767  -0.285  1.00  0.00    -0.354 N 
ATOM     41  C   UNL     1      14.538  10.565   0.634  1.00  0.00     0.074 A 
ATOM     42  C   UNL     1      14.238   9.191   0.970  1.00  0.00     0.031 C 
ATOM     43  C   UNL     1       8.711  13.027  -0.586  1.00  0.00     0.029 A 
ATOM     44  C   UNL     1       9.992  13.730  -0.629  1.00  0.00     0.049 A 
ATOM     45  H   UNL     1      11.881  12.930  -0.269  1.00  0.00     0.167 HD
ATOM     46  C   UNL     1      15.787  11.081   0.561  1.00  0.00     0.034 A 
ATOM     47  C   UNL     1      10.164  15.035  -0.920  1.00  0.00     0.034 A 
ATOM     48  C   UNL     1      16.067  12.451   0.220  1.00  0.00     0.049 A 
ATOM     49  C   UNL     1      11.557  15.609  -0.906  1.00  0.00     0.074 A 
ATOM     50  C   UNL     1      17.298  13.073   0.105  1.00  0.00     0.029 A 
ATOM     51  N   UNL     1      15.106  13.414  -0.057  1.00  0.00    -0.354 N 
ATOM     52  N   UNL     1      12.695  15.002  -0.658  1.00  0.00    -0.248 NA
ATOM     53  C   UNL     1      11.692  17.041  -1.205  1.00  0.00     0.031 C 
ATOM     54  C   UNL     1      17.080  14.425  -0.170  1.00  0.00     0.029 A 
ATOM     55  C   UNL     1      15.716  14.633  -0.306  1.00  0.00     0.049 A 
ATOM     56  H   UNL     1      14.135  13.255  -0.073  1.00  0.00     0.167 HD
ATOM     57  C   UNL     1      13.682  15.974  -0.792  1.00  0.00     0.074 A 
ATOM     58  C   UNL     1      13.008  17.206  -1.147  1.00  0.00     0.031 C 
ATOM     59  C   UNL     1      15.026  15.855  -0.643  1.00  0.00     0.034 A 
BRANCH  46  60
ATOM     60  C   UNL     1      16.943  10.175   0.895  1.00  0.00     0.023 A 
ATOM     61  C   UNL     1      17.312   9.107   0.061  1.00  0.00     0.031 A 
ATOM     62  C   UNL     1      17.708  10.409   2.052  1.00  0.00     0.131 A 
ATOM     63  C   UNL     1      18.399   8.292   0.412  1.00  0.00     0.055 A 
ATOM     64  C   UNL     1      18.824   9.633   2.364  1.00  0.00     0.041 A 
ATOM     65  F   UNL     1      17.385  11.404   2.894  1.00  0.00    -0.206 F 
ATOM     66  C   UNL     1      19.172   8.563   1.544  1.00  0.00     0.022 A 
BRANCH  63  67
ATOM     67  S   UNL     1      18.753   6.827  -0.595  1.00  0.00     0.124 S 
ATOM     68  O   UNL     1      17.554   6.022  -0.377  1.00  0.00    -0.237 OA
ATOM     69  O   UNL     1      18.909   7.390  -1.931  1.00  0.00    -0.237 OA
ATOM     70  O   UNL     1      19.975   6.288  -0.000  1.00  0.00    -0.744 OA
ENDBRANCH  63  67
ENDBRANCH  46  60
BRANCH  47  71
ATOM     71  C   UNL     1       8.981  15.893  -1.209  1.00  0.00     0.023 A 
ATOM     72  C   UNL     1       8.767  16.428  -2.488  1.00  0.00     0.031 A 
ATOM     73  C   UNL     1       8.043  16.186  -0.202  1.00  0.00     0.131 A 
ATOM     74  C   UNL     1       7.649  17.244  -2.724  1.00  0.00     0.055 A 
ATOM     75  C   UNL     1       6.912  16.964  -0.452  1.00  0.00     0.041 A 
ATOM     76  F   UNL     1       8.203  15.695   1.038  1.00  0.00    -0.206 F 
ATOM     77  C   UNL     1       6.713  17.503  -1.719  1.00  0.00     0.022 A 
BRANCH  74  78
ATOM     78  S   UNL     1       7.444  17.989  -4.364  1.00  0.00     0.124 S 
ATOM     79  O   UNL     1       8.609  18.864  -4.440  1.00  0.00    -0.237 OA
ATOM     80  O   UNL     1       7.462  16.820  -5.236  1.00  0.00    -0.237 OA
ATOM     81  O   UNL     1       6.155  18.672  -4.269  1.00  0.00    -0.744 OA
ENDBRANCH  74  78
ENDBRANCH  47  71
BRANCH  59  82
ATOM     82  C   UNL     1      15.867  17.080  -0.889  1.00  0.00     0.023 A 
ATOM     83  C   UNL     1      15.871  18.161   0.007  1.00  0.00     0.031 A 
ATOM     84  C   UNL     1      16.722  17.136  -2.004  1.00  0.00     0.131 A 
ATOM     85  C   UNL     1      16.698  19.267  -0.240  1.00  0.00     0.055 A 
ATOM     86  C   UNL     1      17.579  18.215  -2.218  1.00  0.00     0.041 A 
ATOM     87  F   UNL     1      16.759  16.125  -2.888  1.00  0.00    -0.206 F 
ATOM     88  C   UNL     1      17.566  19.292  -1.336  1.00  0.00     0.022 A 
BRANCH  85  89
ATOM     89  S   UNL     1      16.604  20.694   0.875  1.00  0.00     0.124 S 
ATOM     90  O   UNL     1      15.234  21.151   0.664  1.00  0.00    -0.237 OA
ATOM     91  O   UNL     1      16.883  20.096   2.177  1.00  0.00    -0.237 OA
ATOM     92  O   UNL     1      17.642  21.591   0.372  1.00  0.00    -0.744 OA
ENDBRANCH  85  89
ENDBRANCH  59  82
ENDBRANCH  33  34
ENDBRANCH  26  28
ENDBRANCH  25  26
ENDBRANCH  24  25
ENDBRANCH   1  24
TORSDOF 19
