REMARK SMILES O=C(Cc1ccccc1Nc1c(F)cccc1C(F)(F)F)OCCOCCOC(=O)c1ccc(-c2c3nc(c(-c4cc(S(=O)(=O)[O-])ccc4F)c4ccc([nH]4)c(-c4cc(S(=O)(=O)[O-])ccc4F)c4nc(c(-c5cc(S(=O)(=O)[O-])ccc5F)c5ccc2[nH]5)C=C4)C=C3)cc1
REMARK SMILES IDX 24 1 23 2 22 3 2 4 1 5 3 6 4 7 5 8 9 9 6 10 8 11 7 12 10 13
REMARK SMILES IDX 11 15 12 16 17 17 13 18 14 19 16 20 15 21 18 22 19 23 20 24
REMARK SMILES IDX 21 25 25 26 26 27 27 28 28 29 29 30 30 31 31 32 32 33 93 34
REMARK SMILES IDX 33 35 92 36 34 37 35 38 36 39 86 40 37 41 91 42 85 43 87 44
REMARK SMILES IDX 38 45 90 46 84 47 83 48 39 50 71 51 51 52 70 53 52 54 55 55
REMARK SMILES IDX 69 56 88 57 53 58 54 59 68 61 89 62 56 63 40 64 41 65 49 66
REMARK SMILES IDX 42 67 48 68 50 69 47 70 43 71 44 72 45 73 46 74 72 75 73 76
REMARK SMILES IDX 81 77 74 78 80 79 82 80 79 81 75 82 76 83 77 84 78 85 57 86
REMARK SMILES IDX 58 87 66 88 59 89 65 90 67 91 64 92 60 93 61 94 62 95 63 96
REMARK H PARENT 10 14 87 49 55 60
REMARK Flexibility Score: inf
ROOT
ATOM      1  C   UNL     1       4.644  -1.201  -0.392  1.00  0.00     0.202 C 
ENDROOT
BRANCH   1   2
ATOM      2  C   UNL     1       3.816  -1.200   0.902  1.00  0.00     0.261 C 
BRANCH   2   3
ATOM      3  O   UNL     1       2.459  -0.748   0.856  1.00  0.00    -0.463 OA
BRANCH   3   4
ATOM      4  C   UNL     1       2.092   0.550   0.793  1.00  0.00     0.310 C 
ATOM      5  O   UNL     1       1.040   0.911   1.322  1.00  0.00    -0.252 OA
BRANCH   4   6
ATOM      6  C   UNL     1       2.875   1.483  -0.099  1.00  0.00     0.160 C 
BRANCH   6   7
ATOM      7  C   UNL     1       3.682   2.533   0.613  1.00  0.00    -0.013 A 
ATOM      8  C   UNL     1       4.777   2.147   1.406  1.00  0.00     0.006 A 
ATOM      9  C   UNL     1       3.423   3.902   0.449  1.00  0.00     0.042 A 
ATOM     10  C   UNL     1       5.487   3.067   2.168  1.00  0.00     0.000 A 
ATOM     11  C   UNL     1       4.102   4.811   1.275  1.00  0.00     0.026 A 
ATOM     12  C   UNL     1       5.109   4.396   2.146  1.00  0.00     0.002 A 
BRANCH   9  13
ATOM     13  N   UNL     1       2.613   4.349  -0.612  1.00  0.00    -0.352 N 
ATOM     14  H   UNL     1       1.975   3.680  -0.951  1.00  0.00     0.167 HD
BRANCH  13  15
ATOM     15  C   UNL     1       2.561   5.592  -1.268  1.00  0.00     0.087 A 
ATOM     16  C   UNL     1       1.282   6.149  -1.452  1.00  0.00     0.147 A 
ATOM     17  C   UNL     1       3.681   6.340  -1.669  1.00  0.00     0.082 A 
ATOM     18  F   UNL     1       0.200   5.418  -1.137  1.00  0.00    -0.205 F 
ATOM     19  C   UNL     1       1.094   7.436  -1.933  1.00  0.00     0.041 A 
ATOM     20  C   UNL     1       3.482   7.662  -2.127  1.00  0.00     0.015 A 
ATOM     21  C   UNL     1       2.203   8.209  -2.248  1.00  0.00     0.004 A 
BRANCH  17  22
ATOM     22  C   UNL     1       5.091   5.789  -1.711  1.00  0.00     0.418 C 
ATOM     23  F   UNL     1       5.792   6.301  -2.773  1.00  0.00    -0.166 F 
ATOM     24  F   UNL     1       5.829   6.128  -0.618  1.00  0.00    -0.166 F 
ATOM     25  F   UNL     1       5.188   4.441  -1.860  1.00  0.00    -0.166 F 
ENDBRANCH  17  22
ENDBRANCH  13  15
ENDBRANCH   9  13
ENDBRANCH   6   7
ENDBRANCH   4   6
ENDBRANCH   3   4
ENDBRANCH   2   3
ENDBRANCH   1   2
BRANCH   1  26
ATOM     26  O   UNL     1       4.081  -0.878  -1.656  1.00  0.00    -0.374 OA
BRANCH  26  27
ATOM     27  C   UNL     1       2.811  -1.376  -2.046  1.00  0.00     0.202 C 
BRANCH  27  28
ATOM     28  C   UNL     1       2.768  -2.806  -2.563  1.00  0.00     0.261 C 
BRANCH  28  29
ATOM     29  O   UNL     1       3.239  -3.730  -1.580  1.00  0.00    -0.460 OA
BRANCH  29  30
ATOM     30  C   UNL     1       4.514  -4.139  -1.778  1.00  0.00     0.338 C 
ATOM     31  O   UNL     1       5.246  -3.848  -2.714  1.00  0.00    -0.246 OA
BRANCH  30  32
ATOM     32  C   UNL     1       4.986  -4.829  -0.567  1.00  0.00     0.060 A 
ATOM     33  C   UNL     1       6.266  -4.506  -0.101  1.00  0.00     0.016 A 
ATOM     34  C   UNL     1       4.197  -5.774   0.093  1.00  0.00     0.016 A 
ATOM     35  C   UNL     1       6.786  -5.168   1.000  1.00  0.00     0.010 A 
ATOM     36  C   UNL     1       4.727  -6.453   1.189  1.00  0.00     0.010 A 
ATOM     37  C   UNL     1       6.038  -6.180   1.613  1.00  0.00    -0.014 A 
BRANCH  37  38
ATOM     38  C   UNL     1       6.732  -7.079   2.557  1.00  0.00     0.031 A 
ATOM     39  C   UNL     1       7.233  -8.398   2.040  1.00  0.00     0.074 A 
ATOM     40  C   UNL     1       6.989  -6.673   3.811  1.00  0.00     0.049 A 
ATOM     41  N   UNL     1       7.902  -9.331   2.662  1.00  0.00    -0.248 NA
ATOM     42  C   UNL     1       6.940  -8.703   0.629  1.00  0.00     0.031 C 
ATOM     43  C   UNL     1       6.580  -5.389   4.382  1.00  0.00     0.029 A 
ATOM     44  N   UNL     1       7.666  -7.294   4.826  1.00  0.00    -0.354 N 
ATOM     45  C   UNL     1       8.122 -10.328   1.717  1.00  0.00     0.074 A 
ATOM     46  C   UNL     1       7.465  -9.911   0.498  1.00  0.00     0.031 C 
ATOM     47  C   UNL     1       7.016  -5.320   5.651  1.00  0.00     0.029 A 
ATOM     48  C   UNL     1       7.700  -6.565   5.990  1.00  0.00     0.049 A 
ATOM     49  H   UNL     1       8.088  -8.179   4.732  1.00  0.00     0.167 HD
ATOM     50  C   UNL     1       8.826 -11.477   1.853  1.00  0.00     0.034 A 
ATOM     51  C   UNL     1       8.209  -6.884   7.196  1.00  0.00     0.034 A 
ATOM     52  C   UNL     1       9.454 -11.877   3.088  1.00  0.00     0.049 A 
ATOM     53  C   UNL     1       8.915  -8.210   7.345  1.00  0.00     0.074 A 
ATOM     54  C   UNL     1      10.176 -13.025   3.357  1.00  0.00     0.029 A 
ATOM     55  N   UNL     1       9.426 -11.140   4.267  1.00  0.00    -0.354 N 
ATOM     56  N   UNL     1       9.118  -9.147   6.445  1.00  0.00    -0.248 NA
ATOM     57  C   UNL     1       9.477  -8.511   8.666  1.00  0.00     0.031 C 
ATOM     58  C   UNL     1      10.520 -13.017   4.713  1.00  0.00     0.029 A 
ATOM     59  C   UNL     1      10.093 -11.822   5.272  1.00  0.00     0.049 A 
ATOM     60  H   UNL     1       8.995 -10.261   4.372  1.00  0.00     0.167 HD
ATOM     61  C   UNL     1       9.854 -10.139   7.089  1.00  0.00     0.074 A 
ATOM     62  C   UNL     1      10.089  -9.663   8.438  1.00  0.00     0.031 C 
ATOM     63  C   UNL     1      10.294 -11.336   6.618  1.00  0.00     0.034 A 
BRANCH  50  64
ATOM     64  C   UNL     1       8.909 -12.388   0.653  1.00  0.00     0.023 A 
ATOM     65  C   UNL     1       9.546 -11.990  -0.536  1.00  0.00     0.031 A 
ATOM     66  C   UNL     1       8.320 -13.665   0.687  1.00  0.00     0.131 A 
ATOM     67  C   UNL     1       9.528 -12.833  -1.658  1.00  0.00     0.055 A 
ATOM     68  C   UNL     1       8.375 -14.531  -0.406  1.00  0.00     0.041 A 
ATOM     69  F   UNL     1       7.670 -14.088   1.782  1.00  0.00    -0.206 F 
ATOM     70  C   UNL     1       8.971 -14.113  -1.592  1.00  0.00     0.022 A 
BRANCH  67  71
ATOM     71  S   UNL     1      10.122 -12.183  -3.244  1.00  0.00     0.124 S 
ATOM     72  O   UNL     1       9.230 -11.045  -3.449  1.00  0.00    -0.237 OA
ATOM     73  O   UNL     1      11.514 -11.861  -2.951  1.00  0.00    -0.237 OA
ATOM     74  O   UNL     1       9.920 -13.297  -4.168  1.00  0.00    -0.744 OA
ENDBRANCH  67  71
ENDBRANCH  50  64
BRANCH  51  75
ATOM     75  C   UNL     1       8.034  -5.967   8.360  1.00  0.00     0.023 A 
ATOM     76  C   UNL     1       9.136  -5.426   9.040  1.00  0.00     0.031 A 
ATOM     77  C   UNL     1       6.749  -5.671   8.852  1.00  0.00     0.131 A 
ATOM     78  C   UNL     1       8.937  -4.669  10.205  1.00  0.00     0.055 A 
ATOM     79  C   UNL     1       6.553  -4.863   9.972  1.00  0.00     0.041 A 
ATOM     80  F   UNL     1       5.658  -6.163   8.243  1.00  0.00    -0.206 F 
ATOM     81  C   UNL     1       7.653  -4.370  10.666  1.00  0.00     0.022 A 
BRANCH  78  82
ATOM     82  S   UNL     1      10.386  -4.173  11.176  1.00  0.00     0.124 S 
ATOM     83  O   UNL     1      11.026  -5.458  11.432  1.00  0.00    -0.237 OA
ATOM     84  O   UNL     1      11.079  -3.284  10.250  1.00  0.00    -0.237 OA
ATOM     85  O   UNL     1       9.804  -3.520  12.347  1.00  0.00    -0.744 OA
ENDBRANCH  78  82
ENDBRANCH  51  75
BRANCH  63  86
ATOM     86  C   UNL     1      11.097 -12.185   7.575  1.00  0.00     0.023 A 
ATOM     87  C   UNL     1      10.538 -12.680   8.766  1.00  0.00     0.031 A 
ATOM     88  C   UNL     1      12.452 -12.462   7.318  1.00  0.00     0.131 A 
ATOM     89  C   UNL     1      11.351 -13.338   9.699  1.00  0.00     0.055 A 
ATOM     90  C   UNL     1      13.235 -13.194   8.212  1.00  0.00     0.041 A 
ATOM     91  F   UNL     1      13.042 -12.016   6.198  1.00  0.00    -0.206 F 
ATOM     92  C   UNL     1      12.691 -13.616   9.422  1.00  0.00     0.022 A 
BRANCH  89  93
ATOM     93  S   UNL     1      10.670 -13.684  11.344  1.00  0.00     0.124 S 
ATOM     94  O   UNL     1      10.246 -12.357  11.780  1.00  0.00    -0.237 OA
ATOM     95  O   UNL     1       9.600 -14.630  11.046  1.00  0.00    -0.237 OA
ATOM     96  O   UNL     1      11.806 -14.243  12.074  1.00  0.00    -0.744 OA
ENDBRANCH  89  93
ENDBRANCH  63  86
ENDBRANCH  37  38
ENDBRANCH  30  32
ENDBRANCH  29  30
ENDBRANCH  28  29
ENDBRANCH  27  28
ENDBRANCH  26  27
ENDBRANCH   1  26
TORSDOF 21
