REMARK SMILES Cc1cccc(Cl)c1Nc1ccccc1CC(=O)OCCOCCOC(=O)c1ccc(-c2c3nc(c(-c4cc(S(=O)(=O)[O-])ccc4F)c4ccc([nH]4)c(-c4cc(S(=O)(=O)[O-])ccc4F)c4nc(c(-c5cc(S(=O)(=O)[O-])ccc5F)c5ccc2[nH]5)C=C4)C=C3)cc1
REMARK SMILES IDX 22 1 21 2 20 3 19 4 17 5 18 6 16 7 15 8 10 9 11 10 12 11
REMARK SMILES IDX 14 12 13 13 9 14 8 16 1 17 2 18 3 19 4 20 6 21 5 22 7 23
REMARK SMILES IDX 23 24 24 25 25 26 26 27 27 28 28 29 29 30 90 31 30 32 89 33
REMARK SMILES IDX 31 34 32 35 33 36 83 37 34 38 88 39 82 40 84 41 35 42 87 43
REMARK SMILES IDX 81 44 80 45 36 47 68 48 48 49 67 50 49 51 52 52 66 53 85 54
REMARK SMILES IDX 50 55 51 56 65 58 86 59 53 60 37 61 38 62 46 63 39 64 45 65
REMARK SMILES IDX 47 66 44 67 40 68 41 69 42 70 43 71 69 72 70 73 78 74 71 75
REMARK SMILES IDX 77 76 79 77 76 78 72 79 73 80 74 81 75 82 54 83 55 84 63 85
REMARK SMILES IDX 56 86 62 87 64 88 61 89 57 90 58 91 59 92 60 93
REMARK H PARENT 9 15 84 46 52 57
REMARK Flexibility Score: inf
ROOT
ATOM      1  O   UNL     1       3.359   3.104  -5.557  1.00  0.00    -0.374 OA
ENDROOT
BRANCH   1   2
ATOM      2  C   UNL     1       2.116   3.803  -5.500  1.00  0.00     0.202 C 
BRANCH   2   3
ATOM      3  C   UNL     1       0.926   3.074  -4.865  1.00  0.00     0.261 C 
BRANCH   3   4
ATOM      4  O   UNL     1       1.158   2.684  -3.497  1.00  0.00    -0.463 OA
BRANCH   4   5
ATOM      5  C   UNL     1       1.291   1.349  -3.292  1.00  0.00     0.310 C 
ATOM      6  O   UNL     1       1.177   0.499  -4.173  1.00  0.00    -0.252 OA
BRANCH   5   7
ATOM      7  C   UNL     1       1.563   0.938  -1.866  1.00  0.00     0.160 C 
BRANCH   7   8
ATOM      8  C   UNL     1       2.039   1.962  -0.852  1.00  0.00    -0.013 A 
ATOM      9  C   UNL     1       1.219   2.496   0.166  1.00  0.00     0.042 A 
ATOM     10  C   UNL     1       1.743   3.498   1.008  1.00  0.00     0.026 A 
ATOM     11  C   UNL     1       3.069   3.916   0.909  1.00  0.00     0.002 A 
ATOM     12  C   UNL     1       3.392   2.360  -0.896  1.00  0.00     0.006 A 
ATOM     13  C   UNL     1       3.902   3.327  -0.030  1.00  0.00     0.000 A 
BRANCH   9  14
ATOM     14  N   UNL     1      -0.051   1.989   0.509  1.00  0.00    -0.354 N 
ATOM     15  H   UNL     1      -0.718   2.677   0.737  1.00  0.00     0.167 HD
BRANCH  14  16
ATOM     16  C   UNL     1      -0.533   0.659   0.583  1.00  0.00     0.060 A 
ATOM     17  C   UNL     1      -2.833   1.541  -0.088  1.00  0.00     0.046 C 
ATOM     18  C   UNL     1      -1.872   0.413   0.189  1.00  0.00    -0.026 A 
ATOM     19  C   UNL     1      -2.314  -0.907  -0.009  1.00  0.00     0.005 A 
ATOM     20  C   UNL     1      -1.463  -1.987   0.204  1.00  0.00     0.002 A 
ATOM     21  C   UNL     1       0.285  -0.460   0.878  1.00  0.00     0.064 A 
ATOM     22  C   UNL     1      -0.173  -1.766   0.669  1.00  0.00     0.023 A 
ATOM     23  Cl  UNL     1       1.870  -0.321   1.569  1.00  0.00    -0.082 Cl
ENDBRANCH  14  16
ENDBRANCH   9  14
ENDBRANCH   7   8
ENDBRANCH   5   7
ENDBRANCH   4   5
ENDBRANCH   3   4
ENDBRANCH   2   3
ENDBRANCH   1   2
BRANCH   1  24
ATOM     24  C   UNL     1       4.090   2.988  -4.339  1.00  0.00     0.202 C 
BRANCH  24  25
ATOM     25  C   UNL     1       4.801   4.244  -3.820  1.00  0.00     0.261 C 
BRANCH  25  26
ATOM     26  O   UNL     1       3.876   5.279  -3.441  1.00  0.00    -0.460 OA
BRANCH  26  27
ATOM     27  C   UNL     1       3.957   6.403  -4.193  1.00  0.00     0.338 C 
ATOM     28  O   UNL     1       4.790   6.644  -5.058  1.00  0.00    -0.246 OA
BRANCH  27  29
ATOM     29  C   UNL     1       2.773   7.257  -3.985  1.00  0.00     0.060 A 
ATOM     30  C   UNL     1       2.086   7.679  -5.131  1.00  0.00     0.016 A 
ATOM     31  C   UNL     1       2.387   7.710  -2.721  1.00  0.00     0.016 A 
ATOM     32  C   UNL     1       1.056   8.609  -5.026  1.00  0.00     0.010 A 
ATOM     33  C   UNL     1       1.355   8.653  -2.619  1.00  0.00     0.010 A 
ATOM     34  C   UNL     1       0.716   9.138  -3.775  1.00  0.00    -0.014 A 
BRANCH  34  35
ATOM     35  C   UNL     1      -0.181  10.320  -3.719  1.00  0.00     0.031 A 
ATOM     36  C   UNL     1       0.433  11.690  -3.588  1.00  0.00     0.074 A 
ATOM     37  C   UNL     1      -1.512  10.183  -3.855  1.00  0.00     0.049 A 
ATOM     38  N   UNL     1      -0.148  12.860  -3.536  1.00  0.00    -0.248 NA
ATOM     39  C   UNL     1       1.901  11.741  -3.506  1.00  0.00     0.031 C 
ATOM     40  C   UNL     1      -2.212   8.913  -4.042  1.00  0.00     0.029 A 
ATOM     41  N   UNL     1      -2.512  11.123  -3.864  1.00  0.00    -0.354 N 
ATOM     42  C   UNL     1       0.882  13.789  -3.417  1.00  0.00     0.074 A 
ATOM     43  C   UNL     1       2.119  13.039  -3.361  1.00  0.00     0.031 C 
ATOM     44  C   UNL     1      -3.531   9.154  -4.144  1.00  0.00     0.029 A 
ATOM     45  C   UNL     1      -3.772  10.588  -3.996  1.00  0.00     0.049 A 
ATOM     46  H   UNL     1      -2.343  12.089  -3.783  1.00  0.00     0.167 HD
ATOM     47  C   UNL     1       0.803  15.142  -3.369  1.00  0.00     0.034 A 
ATOM     48  C   UNL     1      -4.981  11.186  -3.978  1.00  0.00     0.034 A 
ATOM     49  C   UNL     1      -0.440  15.874  -3.413  1.00  0.00     0.049 A 
ATOM     50  C   UNL     1      -5.050  12.688  -3.835  1.00  0.00     0.074 A 
ATOM     51  C   UNL     1      -0.638  17.243  -3.378  1.00  0.00     0.029 A 
ATOM     52  N   UNL     1      -1.701  15.294  -3.489  1.00  0.00    -0.354 N 
ATOM     53  N   UNL     1      -4.069  13.555  -3.728  1.00  0.00    -0.248 NA
ATOM     54  C   UNL     1      -6.389  13.292  -3.821  1.00  0.00     0.031 C 
ATOM     55  C   UNL     1      -2.015  17.488  -3.360  1.00  0.00     0.029 A 
ATOM     56  C   UNL     1      -2.680  16.276  -3.466  1.00  0.00     0.049 A 
ATOM     57  H   UNL     1      -1.874  14.327  -3.551  1.00  0.00     0.167 HD
ATOM     58  C   UNL     1      -4.673  14.808  -3.666  1.00  0.00     0.074 A 
ATOM     59  C   UNL     1      -6.101  14.584  -3.760  1.00  0.00     0.031 C 
ATOM     60  C   UNL     1      -4.102  16.035  -3.549  1.00  0.00     0.034 A 
BRANCH  47  61
ATOM     61  C   UNL     1       2.096  15.907  -3.207  1.00  0.00     0.023 A 
ATOM     62  C   UNL     1       3.101  15.885  -4.191  1.00  0.00     0.031 A 
ATOM     63  C   UNL     1       2.341  16.642  -2.034  1.00  0.00     0.131 A 
ATOM     64  C   UNL     1       4.327  16.524  -3.954  1.00  0.00     0.055 A 
ATOM     65  C   UNL     1       3.533  17.341  -1.837  1.00  0.00     0.041 A 
ATOM     66  F   UNL     1       1.430  16.681  -1.049  1.00  0.00    -0.206 F 
ATOM     67  C   UNL     1       4.541  17.273  -2.794  1.00  0.00     0.022 A 
BRANCH  64  68
ATOM     68  S   UNL     1       5.692  16.246  -5.117  1.00  0.00     0.124 S 
ATOM     69  O   UNL     1       5.832  14.793  -5.064  1.00  0.00    -0.237 OA
ATOM     70  O   UNL     1       5.163  16.794  -6.360  1.00  0.00    -0.237 OA
ATOM     71  O   UNL     1       6.802  16.993  -4.528  1.00  0.00    -0.744 OA
ENDBRANCH  64  68
ENDBRANCH  47  61
BRANCH  48  72
ATOM     72  C   UNL     1      -6.228  10.371  -4.058  1.00  0.00     0.023 A 
ATOM     73  C   UNL     1      -7.122  10.506  -5.131  1.00  0.00     0.031 A 
ATOM     74  C   UNL     1      -6.567   9.478  -3.025  1.00  0.00     0.131 A 
ATOM     75  C   UNL     1      -8.332   9.794  -5.126  1.00  0.00     0.055 A 
ATOM     76  C   UNL     1      -7.747   8.732  -3.051  1.00  0.00     0.041 A 
ATOM     77  F   UNL     1      -5.749   9.311  -1.974  1.00  0.00    -0.206 F 
ATOM     78  C   UNL     1      -8.644   8.898  -4.101  1.00  0.00     0.022 A 
BRANCH  75  79
ATOM     79  S   UNL     1      -9.538  10.117  -6.443  1.00  0.00     0.124 S 
ATOM     80  O   UNL     1      -9.768  11.549  -6.290  1.00  0.00    -0.237 OA
ATOM     81  O   UNL     1      -8.801   9.707  -7.634  1.00  0.00    -0.237 OA
ATOM     82  O   UNL     1     -10.668   9.261  -6.087  1.00  0.00    -0.744 OA
ENDBRANCH  75  79
ENDBRANCH  48  72
BRANCH  60  83
ATOM     83  C   UNL     1      -5.026  17.228  -3.563  1.00  0.00     0.023 A 
ATOM     84  C   UNL     1      -5.936  17.476  -2.520  1.00  0.00     0.031 A 
ATOM     85  C   UNL     1      -5.000  18.128  -4.644  1.00  0.00     0.131 A 
ATOM     86  C   UNL     1      -6.819  18.563  -2.606  1.00  0.00     0.055 A 
ATOM     87  C   UNL     1      -5.839  19.242  -4.695  1.00  0.00     0.041 A 
ATOM     88  F   UNL     1      -4.152  17.940  -5.669  1.00  0.00    -0.206 F 
ATOM     89  C   UNL     1      -6.764  19.457  -3.678  1.00  0.00     0.022 A 
BRANCH  86  90
ATOM     90  S   UNL     1      -8.104  18.745  -1.338  1.00  0.00     0.124 S 
ATOM     91  O   UNL     1      -8.825  17.481  -1.454  1.00  0.00    -0.237 OA
ATOM     92  O   UNL     1      -7.319  18.922  -0.121  1.00  0.00    -0.237 OA
ATOM     93  O   UNL     1      -8.848  19.926  -1.771  1.00  0.00    -0.744 OA
ENDBRANCH  86  90
ENDBRANCH  60  83
ENDBRANCH  34  35
ENDBRANCH  27  29
ENDBRANCH  26  27
ENDBRANCH  25  26
ENDBRANCH  24  25
ENDBRANCH   1  24
TORSDOF 20
