REMARK SMILES O=C(OCCOCCOC(=O)[C@H]1CN(C(=O)C[C@H]2NC(=O)c3ccccc32)C[C@@H]1c1ccc(F)cc1)c1ccc(-c2c3nc(c(-c4cc(S(=O)(=O)[O-])ccc4F)c4ccc([nH]4)c(-c4cc(S(=O)(=O)[O-])ccc4F)c4nc(c(-c5cc(S(=O)(=O)[O-])ccc5F)c5ccc2[nH]5)C=C4)C=C3)cc1
REMARK SMILES IDX 6 1 5 2 4 3 3 4 2 5 1 6 37 7 38 8 99 9 39 10 98 11 40 12
REMARK SMILES IDX 41 13 42 14 92 15 43 16 97 17 91 18 93 19 44 20 96 21 90 22
REMARK SMILES IDX 89 23 45 25 77 26 57 27 76 28 58 29 61 30 75 31 94 32 59 33
REMARK SMILES IDX 60 34 74 36 95 37 62 38 46 39 47 40 55 41 48 42 54 43 56 44
REMARK SMILES IDX 53 45 49 46 50 47 51 48 52 49 78 50 79 51 87 52 80 53 86 54
REMARK SMILES IDX 88 55 85 56 81 57 82 58 83 59 84 60 63 61 64 62 72 63 65 64
REMARK SMILES IDX 71 65 73 66 70 67 66 68 67 69 68 70 69 71 7 72 8 73 9 74
REMARK SMILES IDX 10 75 11 76 12 77 13 78 29 79 14 80 28 81 30 82 31 83 36 84
REMARK SMILES IDX 32 85 35 86 33 87 34 88 15 89 16 90 17 91 18 92 19 93 27 94
REMARK SMILES IDX 20 95 22 97 26 98 21 99 23 100 25 101 24 102
REMARK H PARENT 93 24 61 35 19 96
REMARK Flexibility Score: inf
ROOT
ATOM      1  O   UNL     1       1.919  -0.123  -0.387  1.00  0.00    -0.374 OA
ENDROOT
BRANCH   1   2
ATOM      2  C   UNL     1       2.584   1.093  -0.068  1.00  0.00     0.202 C 
BRANCH   2   3
ATOM      3  C   UNL     1       2.048   2.406  -0.648  1.00  0.00     0.261 C 
BRANCH   3   4
ATOM      4  O   UNL     1       0.712   2.627  -0.157  1.00  0.00    -0.460 OA
BRANCH   4   5
ATOM      5  C   UNL     1      -0.435   2.273  -0.788  1.00  0.00     0.338 C 
ATOM      6  O   UNL     1      -1.513   2.375  -0.211  1.00  0.00    -0.246 OA
BRANCH   5   7
ATOM      7  C   UNL     1      -0.402   1.797  -2.191  1.00  0.00     0.060 A 
ATOM      8  C   UNL     1       0.596   0.954  -2.661  1.00  0.00     0.016 A 
ATOM      9  C   UNL     1      -1.423   2.159  -3.069  1.00  0.00     0.016 A 
ATOM     10  C   UNL     1       0.680   0.534  -3.947  1.00  0.00     0.010 A 
ATOM     11  C   UNL     1      -1.417   1.656  -4.372  1.00  0.00     0.010 A 
ATOM     12  C   UNL     1      -0.370   0.823  -4.784  1.00  0.00    -0.014 A 
BRANCH  12  13
ATOM     13  C   UNL     1      -0.228   0.238  -6.105  1.00  0.00     0.031 A 
ATOM     14  C   UNL     1       0.239   1.128  -7.193  1.00  0.00     0.074 A 
ATOM     15  C   UNL     1      -0.257  -1.104  -6.201  1.00  0.00     0.049 A 
ATOM     16  N   UNL     1       0.332   0.878  -8.462  1.00  0.00    -0.248 NA
ATOM     17  C   UNL     1       0.675   2.480  -6.795  1.00  0.00     0.031 C 
ATOM     18  C   UNL     1      -0.413  -2.037  -5.069  1.00  0.00     0.029 A 
ATOM     19  N   UNL     1      -0.086  -1.921  -7.274  1.00  0.00    -0.354 N 
ATOM     20  C   UNL     1       0.786   2.057  -9.031  1.00  0.00     0.074 A 
ATOM     21  C   UNL     1       0.961   3.020  -7.968  1.00  0.00     0.031 C 
ATOM     22  C   UNL     1      -0.304  -3.295  -5.517  1.00  0.00     0.029 A 
ATOM     23  C   UNL     1      -0.200  -3.254  -6.965  1.00  0.00     0.049 A 
ATOM     24  H   UNL     1       0.101  -1.589  -8.183  1.00  0.00     0.167 HD
ATOM     25  C   UNL     1       0.999   2.284 -10.344  1.00  0.00     0.034 A 
ATOM     26  C   UNL     1      -0.283  -4.309  -7.790  1.00  0.00     0.034 A 
ATOM     27  C   UNL     1       0.770   1.261 -11.329  1.00  0.00     0.049 A 
ATOM     28  C   UNL     1      -0.246  -4.003  -9.258  1.00  0.00     0.074 A 
ATOM     29  C   UNL     1       0.776   1.356 -12.705  1.00  0.00     0.029 A 
ATOM     30  N   UNL     1       0.488  -0.071 -11.018  1.00  0.00    -0.354 N 
ATOM     31  N   UNL     1      -0.056  -2.841  -9.847  1.00  0.00    -0.248 NA
ATOM     32  C   UNL     1      -0.461  -5.123 -10.172  1.00  0.00     0.031 C 
ATOM     33  C   UNL     1       0.437   0.099 -13.221  1.00  0.00     0.029 A 
ATOM     34  C   UNL     1       0.307  -0.805 -12.173  1.00  0.00     0.049 A 
ATOM     35  H   UNL     1       0.427  -0.434 -10.105  1.00  0.00     0.167 HD
ATOM     36  C   UNL     1      -0.097  -3.091 -11.209  1.00  0.00     0.074 A 
ATOM     37  C   UNL     1      -0.339  -4.520 -11.348  1.00  0.00     0.031 C 
ATOM     38  C   UNL     1       0.061  -2.231 -12.248  1.00  0.00     0.034 A 
BRANCH  25  39
ATOM     39  C   UNL     1       1.346   3.694 -10.731  1.00  0.00     0.023 A 
ATOM     40  C   UNL     1       2.544   4.304 -10.318  1.00  0.00     0.031 A 
ATOM     41  C   UNL     1       0.398   4.486 -11.402  1.00  0.00     0.131 A 
ATOM     42  C   UNL     1       2.726   5.683 -10.508  1.00  0.00     0.055 A 
ATOM     43  C   UNL     1       0.622   5.839 -11.662  1.00  0.00     0.041 A 
ATOM     44  F   UNL     1      -0.783   3.969 -11.774  1.00  0.00    -0.206 F 
ATOM     45  C   UNL     1       1.784   6.449 -11.200  1.00  0.00     0.022 A 
BRANCH  42  46
ATOM     46  S   UNL     1       4.133   6.494  -9.700  1.00  0.00     0.124 S 
ATOM     47  O   UNL     1       3.807   6.305  -8.288  1.00  0.00    -0.237 OA
ATOM     48  O   UNL     1       5.270   5.731 -10.201  1.00  0.00    -0.237 OA
ATOM     49  O   UNL     1       4.051   7.874 -10.174  1.00  0.00    -0.744 OA
ENDBRANCH  42  46
ENDBRANCH  25  39
BRANCH  26  50
ATOM     50  C   UNL     1      -0.485  -5.675  -7.241  1.00  0.00     0.023 A 
ATOM     51  C   UNL     1       0.514  -6.650  -7.355  1.00  0.00     0.031 A 
ATOM     52  C   UNL     1      -1.657  -6.008  -6.533  1.00  0.00     0.131 A 
ATOM     53  C   UNL     1       0.324  -7.914  -6.774  1.00  0.00     0.055 A 
ATOM     54  C   UNL     1      -1.827  -7.255  -5.929  1.00  0.00     0.041 A 
ATOM     55  F   UNL     1      -2.639  -5.104  -6.379  1.00  0.00    -0.206 F 
ATOM     56  C   UNL     1      -0.833  -8.219  -6.051  1.00  0.00     0.022 A 
BRANCH  53  57
ATOM     57  S   UNL     1       1.622  -9.165  -6.972  1.00  0.00     0.124 S 
ATOM     58  O   UNL     1       1.603  -9.385  -8.414  1.00  0.00    -0.237 OA
ATOM     59  O   UNL     1       2.794  -8.476  -6.442  1.00  0.00    -0.237 OA
ATOM     60  O   UNL     1       1.142 -10.284  -6.163  1.00  0.00    -0.744 OA
ENDBRANCH  53  57
ENDBRANCH  26  50
BRANCH  38  61
ATOM     61  C   UNL     1       0.047  -2.837 -13.620  1.00  0.00     0.023 A 
ATOM     62  C   UNL     1      -1.127  -3.350 -14.190  1.00  0.00     0.031 A 
ATOM     63  C   UNL     1       1.232  -2.860 -14.377  1.00  0.00     0.131 A 
ATOM     64  C   UNL     1      -1.082  -3.906 -15.473  1.00  0.00     0.055 A 
ATOM     65  C   UNL     1       1.255  -3.356 -15.677  1.00  0.00     0.041 A 
ATOM     66  F   UNL     1       2.378  -2.380 -13.867  1.00  0.00    -0.206 F 
ATOM     67  C   UNL     1       0.095  -3.891 -16.229  1.00  0.00     0.022 A 
BRANCH  64  68
ATOM     68  S   UNL     1      -2.570  -4.710 -16.119  1.00  0.00     0.124 S 
ATOM     69  O   UNL     1      -2.769  -5.790 -15.157  1.00  0.00    -0.237 OA
ATOM     70  O   UNL     1      -3.553  -3.633 -16.079  1.00  0.00    -0.237 OA
ATOM     71  O   UNL     1      -2.174  -5.138 -17.459  1.00  0.00    -0.744 OA
ENDBRANCH  64  68
ENDBRANCH  38  61
ENDBRANCH  12  13
ENDBRANCH   5   7
ENDBRANCH   4   5
ENDBRANCH   3   4
ENDBRANCH   2   3
ENDBRANCH   1   2
BRANCH   1  72
ATOM     72  C   UNL     1       0.805  -0.491   0.429  1.00  0.00     0.202 C 
BRANCH  72  73
ATOM     73  C   UNL     1       1.162  -1.775   1.163  1.00  0.00     0.261 C 
BRANCH  73  74
ATOM     74  O   UNL     1       2.219  -1.438   2.077  1.00  0.00    -0.463 OA
BRANCH  74  75
ATOM     75  C   UNL     1       3.466  -1.424   1.538  1.00  0.00     0.311 C 
ATOM     76  O   UNL     1       3.795  -1.967   0.491  1.00  0.00    -0.252 OA
BRANCH  75  77
ATOM     77  C   UNL     1       4.459  -0.689   2.408  1.00  0.00     0.128 C 
ATOM     78  C   UNL     1       4.348   0.822   2.630  1.00  0.00     0.135 C 
ATOM     79  C   UNL     1       4.340  -1.231   3.833  1.00  0.00     0.055 C 
ATOM     80  N   UNL     1       3.371   0.981   3.688  1.00  0.00    -0.341 N 
ATOM     81  C   UNL     1       3.372  -0.225   4.516  1.00  0.00     0.128 C 
BRANCH  79  82
ATOM     82  C   UNL     1       5.682  -1.432   4.514  1.00  0.00    -0.042 A 
ATOM     83  C   UNL     1       5.697  -2.160   5.712  1.00  0.00     0.007 A 
ATOM     84  C   UNL     1       6.912  -1.051   3.944  1.00  0.00     0.007 A 
ATOM     85  C   UNL     1       6.907  -2.526   6.298  1.00  0.00     0.039 A 
ATOM     86  C   UNL     1       8.119  -1.429   4.522  1.00  0.00     0.039 A 
ATOM     87  C   UNL     1       8.105  -2.169   5.692  1.00  0.00     0.123 A 
ATOM     88  F   UNL     1       9.265  -2.552   6.239  1.00  0.00    -0.207 F 
ENDBRANCH  79  82
BRANCH  80  89
ATOM     89  C   UNL     1       2.509   2.021   3.974  1.00  0.00     0.225 C 
ATOM     90  O   UNL     1       1.799   1.990   4.984  1.00  0.00    -0.275 OA
BRANCH  89  91
ATOM     91  C   UNL     1       2.410   3.230   3.056  1.00  0.00     0.130 C 
BRANCH  91  92
ATOM     92  C   UNL     1       3.335   4.352   3.507  1.00  0.00     0.123 C 
ATOM     93  N   UNL     1       4.618   4.287   2.821  1.00  0.00    -0.345 N 
ATOM     94  C   UNL     1       2.871   5.739   3.129  1.00  0.00    -0.012 A 
ATOM     95  C   UNL     1       4.936   5.433   2.124  1.00  0.00     0.252 C 
ATOM     96  H   UNL     1       5.204   3.496   2.853  1.00  0.00     0.164 HD
ATOM     97  C   UNL     1       3.826   6.367   2.326  1.00  0.00     0.045 A 
ATOM     98  C   UNL     1       1.735   6.437   3.509  1.00  0.00     0.007 A 
ATOM     99  O   UNL     1       5.947   5.637   1.495  1.00  0.00    -0.269 OA
ATOM    100  C   UNL     1       3.704   7.671   1.879  1.00  0.00     0.014 A 
ATOM    101  C   UNL     1       1.588   7.762   3.071  1.00  0.00     0.000 A 
ATOM    102  C   UNL     1       2.564   8.375   2.264  1.00  0.00     0.001 A 
ENDBRANCH  91  92
ENDBRANCH  89  91
ENDBRANCH  80  89
ENDBRANCH  75  77
ENDBRANCH  74  75
ENDBRANCH  73  74
ENDBRANCH  72  73
ENDBRANCH   1  72
TORSDOF 21
