REMARK SMILES CC(C)N1C[C@H](C(=O)N[C@@H]2C=C[C@@H](C(=O)OCCOCCOC(=O)c3ccc(-c4c5nc(c(-c6cc(S(=O)(=O)[O-])ccc6F)c6ccc([nH]6)c(-c6cc(S(=O)(=O)[O-])ccc6F)c6nc(c(-c7cc(S(=O)(=O)[O-])ccc7F)c7ccc4[nH]7)C=C6)C=C5)cc3)C2)CC1=O
REMARK SMILES IDX 19 1 18 2 17 3 16 4 14 5 15 6 13 7 10 8 11 9 88 10 12 11
REMARK SMILES IDX 9 12 7 13 8 14 6 16 4 17 5 18 90 19 89 20 91 21 2 22 1 23
REMARK SMILES IDX 3 24 20 25 21 26 22 27 23 28 24 29 25 30 26 31 87 32 27 33
REMARK SMILES IDX 86 34 28 35 29 36 30 37 80 38 31 39 85 40 79 41 81 42 32 43
REMARK SMILES IDX 84 44 78 45 77 46 33 48 65 49 45 50 64 51 46 52 49 53 63 54
REMARK SMILES IDX 82 55 47 56 48 57 62 59 83 60 50 61 34 62 35 63 43 64 36 65
REMARK SMILES IDX 42 66 44 67 41 68 37 69 38 70 39 71 40 72 66 73 67 74 75 75
REMARK SMILES IDX 68 76 74 77 76 78 73 79 69 80 70 81 71 82 72 83 51 84 52 85
REMARK SMILES IDX 60 86 53 87 59 88 61 89 58 90 54 91 55 92 56 93 57 94
REMARK H PARENT 9 15 81 47 49 58
REMARK Flexibility Score: inf
ROOT
ATOM      1  O   UNL     1     -11.107  -0.427  -4.468  1.00  0.00    -0.374 OA
ENDROOT
BRANCH   1   2
ATOM      2  C   UNL     1     -10.287   0.678  -4.857  1.00  0.00     0.202 C 
BRANCH   2   3
ATOM      3  C   UNL     1      -9.588   1.408  -3.708  1.00  0.00     0.261 C 
BRANCH   3   4
ATOM      4  O   UNL     1      -8.638   0.531  -3.081  1.00  0.00    -0.463 OA
BRANCH   4   5
ATOM      5  C   UNL     1      -8.670   0.476  -1.725  1.00  0.00     0.312 C 
ATOM      6  O   UNL     1      -9.315   1.232  -1.008  1.00  0.00    -0.252 OA
BRANCH   5   7
ATOM      7  C   UNL     1      -7.852  -0.687  -1.170  1.00  0.00     0.124 C 
ATOM      8  C   UNL     1      -5.867  -2.090  -1.440  1.00  0.00     0.106 C 
ATOM      9  C   UNL     1      -5.622  -0.948  -0.496  1.00  0.00    -0.006 C 
ATOM     10  C   UNL     1      -7.105  -1.572  -2.178  1.00  0.00     0.048 C 
ATOM     11  C   UNL     1      -6.717  -0.196  -0.322  1.00  0.00    -0.014 C 
BRANCH   8  12
ATOM     12  N   UNL     1      -6.019  -3.270  -0.600  1.00  0.00    -0.350 N 
ATOM     13  C   UNL     1      -6.300  -4.570  -0.891  1.00  0.00     0.225 C 
ATOM     14  O   UNL     1      -5.985  -5.422  -0.059  1.00  0.00    -0.275 OA
ATOM     15  H   UNL     1      -5.897  -3.094   0.361  1.00  0.00     0.164 HD
BRANCH  13  16
ATOM     16  C   UNL     1      -7.051  -4.923  -2.158  1.00  0.00     0.107 C 
ATOM     17  N   UNL     1      -8.169  -7.007  -2.010  1.00  0.00    -0.339 N 
ATOM     18  C   UNL     1      -6.954  -6.400  -2.514  1.00  0.00     0.133 C 
ATOM     19  C   UNL     1      -9.126  -6.059  -1.698  1.00  0.00     0.223 C 
ATOM     20  C   UNL     1      -8.545  -4.692  -1.939  1.00  0.00     0.115 C 
ATOM     21  O   UNL     1     -10.279  -6.243  -1.341  1.00  0.00    -0.275 OA
BRANCH  17  22
ATOM     22  C   UNL     1      -8.363  -8.461  -2.059  1.00  0.00     0.078 C 
ATOM     23  C   UNL     1      -9.462  -8.986  -1.132  1.00  0.00     0.031 C 
ATOM     24  C   UNL     1      -8.620  -8.934  -3.490  1.00  0.00     0.031 C 
ENDBRANCH  17  22
ENDBRANCH  13  16
ENDBRANCH   8  12
ENDBRANCH   5   7
ENDBRANCH   4   5
ENDBRANCH   3   4
ENDBRANCH   2   3
ENDBRANCH   1   2
BRANCH   1  25
ATOM     25  C   UNL     1     -10.449  -1.645  -4.119  1.00  0.00     0.202 C 
BRANCH  25  26
ATOM     26  C   UNL     1      -9.900  -2.481  -5.281  1.00  0.00     0.261 C 
BRANCH  26  27
ATOM     27  O   UNL     1      -8.794  -1.843  -5.946  1.00  0.00    -0.460 OA
BRANCH  27  28
ATOM     28  C   UNL     1      -9.046  -1.490  -7.231  1.00  0.00     0.338 C 
ATOM     29  O   UNL     1     -10.066  -1.722  -7.868  1.00  0.00    -0.246 OA
BRANCH  28  30
ATOM     30  C   UNL     1      -7.984  -0.607  -7.742  1.00  0.00     0.060 A 
ATOM     31  C   UNL     1      -8.377   0.627  -8.276  1.00  0.00     0.016 A 
ATOM     32  C   UNL     1      -6.646  -1.007  -7.786  1.00  0.00     0.016 A 
ATOM     33  C   UNL     1      -7.441   1.447  -8.901  1.00  0.00     0.010 A 
ATOM     34  C   UNL     1      -5.708  -0.184  -8.421  1.00  0.00     0.010 A 
ATOM     35  C   UNL     1      -6.108   1.029  -9.012  1.00  0.00    -0.014 A 
BRANCH  35  36
ATOM     36  C   UNL     1      -5.178   1.794  -9.879  1.00  0.00     0.031 A 
ATOM     37  C   UNL     1      -4.891   1.290 -11.267  1.00  0.00     0.074 A 
ATOM     38  C   UNL     1      -4.626   2.942  -9.447  1.00  0.00     0.049 A 
ATOM     39  N   UNL     1      -4.098   1.779 -12.184  1.00  0.00    -0.248 NA
ATOM     40  C   UNL     1      -5.592   0.060 -11.667  1.00  0.00     0.031 C 
ATOM     41  C   UNL     1      -4.857   3.546  -8.136  1.00  0.00     0.029 A 
ATOM     42  N   UNL     1      -3.751   3.800 -10.064  1.00  0.00    -0.354 N 
ATOM     43  C   UNL     1      -4.203   0.920 -13.274  1.00  0.00     0.074 A 
ATOM     44  C   UNL     1      -5.098  -0.147 -12.878  1.00  0.00     0.031 C 
ATOM     45  C   UNL     1      -4.126   4.669  -8.040  1.00  0.00     0.029 A 
ATOM     46  C   UNL     1      -3.352   4.846  -9.266  1.00  0.00     0.049 A 
ATOM     47  H   UNL     1      -3.438   3.678 -10.990  1.00  0.00     0.167 HD
ATOM     48  C   UNL     1      -3.618   1.020 -14.494  1.00  0.00     0.034 A 
ATOM     49  C   UNL     1      -2.443   5.817  -9.490  1.00  0.00     0.034 A 
ATOM     50  C   UNL     1      -2.712   2.083 -14.862  1.00  0.00     0.049 A 
ATOM     51  C   UNL     1      -1.740   5.869 -10.824  1.00  0.00     0.074 A 
ATOM     52  C   UNL     1      -2.072   2.293 -16.070  1.00  0.00     0.029 A 
ATOM     53  N   UNL     1      -2.304   3.108 -14.016  1.00  0.00    -0.354 N 
ATOM     54  N   UNL     1      -1.861   5.062 -11.853  1.00  0.00    -0.248 NA
ATOM     55  C   UNL     1      -0.790   6.969 -11.030  1.00  0.00     0.031 C 
ATOM     56  C   UNL     1      -1.222   3.397 -15.932  1.00  0.00     0.029 A 
ATOM     57  C   UNL     1      -1.392   3.929 -14.664  1.00  0.00     0.049 A 
ATOM     58  H   UNL     1      -2.616   3.233 -13.091  1.00  0.00     0.167 HD
ATOM     59  C   UNL     1      -1.018   5.572 -12.838  1.00  0.00     0.074 A 
ATOM     60  C   UNL     1      -0.409   6.764 -12.282  1.00  0.00     0.031 C 
ATOM     61  C   UNL     1      -0.775   5.103 -14.089  1.00  0.00     0.034 A 
BRANCH  48  62
ATOM     62  C   UNL     1      -3.904  -0.083 -15.487  1.00  0.00     0.023 A 
ATOM     63  C   UNL     1      -5.205  -0.334 -15.959  1.00  0.00     0.031 A 
ATOM     64  C   UNL     1      -2.872  -0.932 -15.925  1.00  0.00     0.131 A 
ATOM     65  C   UNL     1      -5.454  -1.457 -16.763  1.00  0.00     0.055 A 
ATOM     66  C   UNL     1      -3.113  -1.996 -16.797  1.00  0.00     0.041 A 
ATOM     67  F   UNL     1      -1.613  -0.758 -15.492  1.00  0.00    -0.206 F 
ATOM     68  C   UNL     1      -4.413  -2.276 -17.205  1.00  0.00     0.022 A 
BRANCH  65  69
ATOM     69  S   UNL     1      -7.178  -1.932 -17.074  1.00  0.00     0.124 S 
ATOM     70  O   UNL     1      -7.693  -2.078 -15.715  1.00  0.00    -0.237 OA
ATOM     71  O   UNL     1      -7.685  -0.795 -17.833  1.00  0.00    -0.237 OA
ATOM     72  O   UNL     1      -7.058  -3.182 -17.823  1.00  0.00    -0.744 OA
ENDBRANCH  65  69
ENDBRANCH  48  62
BRANCH  49  73
ATOM     73  C   UNL     1      -2.110   6.788  -8.409  1.00  0.00     0.023 A 
ATOM     74  C   UNL     1      -2.394   8.156  -8.536  1.00  0.00     0.031 A 
ATOM     75  C   UNL     1      -1.468   6.353  -7.234  1.00  0.00     0.131 A 
ATOM     76  C   UNL     1      -2.007   9.046  -7.522  1.00  0.00     0.055 A 
ATOM     77  C   UNL     1      -1.129   7.235  -6.207  1.00  0.00     0.041 A 
ATOM     78  F   UNL     1      -1.177   5.054  -7.061  1.00  0.00    -0.206 F 
ATOM     79  C   UNL     1      -1.389   8.593  -6.353  1.00  0.00     0.022 A 
BRANCH  76  80
ATOM     80  S   UNL     1      -2.264  10.823  -7.778  1.00  0.00     0.124 S 
ATOM     81  O   UNL     1      -1.483  11.066  -8.986  1.00  0.00    -0.237 OA
ATOM     82  O   UNL     1      -3.714  10.900  -7.925  1.00  0.00    -0.237 OA
ATOM     83  O   UNL     1      -1.731  11.424  -6.558  1.00  0.00    -0.744 OA
ENDBRANCH  76  80
ENDBRANCH  49  73
BRANCH  61  84
ATOM     84  C   UNL     1       0.168   5.908 -14.953  1.00  0.00     0.023 A 
ATOM     85  C   UNL     1       1.536   6.023 -14.649  1.00  0.00     0.031 A 
ATOM     86  C   UNL     1      -0.314   6.576 -16.093  1.00  0.00     0.131 A 
ATOM     87  C   UNL     1       2.363   6.832 -15.444  1.00  0.00     0.055 A 
ATOM     88  C   UNL     1       0.525   7.330 -16.914  1.00  0.00     0.041 A 
ATOM     89  F   UNL     1      -1.612   6.504 -16.430  1.00  0.00    -0.206 F 
ATOM     90  C   UNL     1       1.870   7.472 -16.584  1.00  0.00     0.022 A 
BRANCH  87  91
ATOM     91  S   UNL     1       4.076   7.111 -14.917  1.00  0.00     0.124 S 
ATOM     92  O   UNL     1       3.894   7.696 -13.593  1.00  0.00    -0.237 OA
ATOM     93  O   UNL     1       4.636   5.764 -14.948  1.00  0.00    -0.237 OA
ATOM     94  O   UNL     1       4.602   8.024 -15.931  1.00  0.00    -0.744 OA
ENDBRANCH  87  91
ENDBRANCH  61  84
ENDBRANCH  35  36
ENDBRANCH  28  30
ENDBRANCH  27  28
ENDBRANCH  26  27
ENDBRANCH  25  26
ENDBRANCH   1  25
TORSDOF 20
