REMARK SMILES C[C@@H]1c2ccccc2C(C)(C)C[C@H]2c3cccc(C(=O)OCCOCCOC(=O)c4ccc(-c5c6nc(c(-c7cc(S(=O)(=O)[O-])ccc7F)c7ccc([nH]7)c(-c7cc(S(=O)(=O)[O-])ccc7F)c7nc(c(-c8cc(S(=O)(=O)[O-])ccc8F)c8ccc5[nH]8)C=C7)C=C6)cc4)c3C(=O)N12
REMARK SMILES IDX 24 1 23 2 22 3 21 4 19 5 20 6 18 7 96 8 13 9 94 10 14 11
REMARK SMILES IDX 93 12 95 13 15 14 16 15 17 16 2 17 1 18 3 19 4 20 8 21 5 22
REMARK SMILES IDX 7 23 6 24 9 25 10 26 11 27 12 29 25 31 26 32 27 33 28 34
REMARK SMILES IDX 29 35 30 36 31 37 92 38 32 39 91 40 33 41 34 42 35 43 85 44
REMARK SMILES IDX 36 45 90 46 84 47 86 48 37 49 89 50 83 51 82 52 38 54 70 55
REMARK SMILES IDX 50 56 69 57 51 58 54 59 68 60 87 61 52 62 53 63 67 65 88 66
REMARK SMILES IDX 55 67 39 68 40 69 48 70 41 71 47 72 49 73 46 74 42 75 43 76
REMARK SMILES IDX 44 77 45 78 71 79 72 80 80 81 73 82 79 83 81 84 78 85 74 86
REMARK SMILES IDX 75 87 76 88 77 89 56 90 57 91 65 92 58 93 64 94 66 95 63 96
REMARK SMILES IDX 59 97 60 98 61 99 62 100
REMARK H PARENT 86 53 54 64
REMARK Flexibility Score: 90.00
ROOT
ATOM      1  O   UNL     1      -3.196  -6.032   3.839  1.00  0.00    -0.374 OA
ENDROOT
BRANCH   1   2
ATOM      2  C   UNL     1      -3.061  -4.617   3.964  1.00  0.00     0.202 C 
BRANCH   2   3
ATOM      3  C   UNL     1      -1.842  -3.958   3.310  1.00  0.00     0.261 C 
BRANCH   3   4
ATOM      4  O   UNL     1      -1.767  -4.195   1.898  1.00  0.00    -0.460 OA
BRANCH   4   5
ATOM      5  C   UNL     1      -0.746  -4.993   1.512  1.00  0.00     0.339 C 
ATOM      6  O   UNL     1       0.035  -5.615   2.213  1.00  0.00    -0.246 OA
BRANCH   5   7
ATOM      7  C   UNL     1      -0.788  -5.175   0.062  1.00  0.00     0.073 A 
ATOM      8  N   UNL     1      -0.053  -2.152  -1.809  1.00  0.00    -0.325 N 
ATOM      9  C   UNL     1       0.106  -3.140  -2.867  1.00  0.00     0.118 C 
ATOM     10  C   UNL     1      -0.191  -2.737  -0.565  1.00  0.00     0.256 C 
ATOM     11  C   UNL     1      -0.350  -4.394  -2.180  1.00  0.00    -0.012 A 
ATOM     12  C   UNL     1      -0.453  -4.162  -0.807  1.00  0.00     0.059 A 
ATOM     13  O   UNL     1      -0.148  -2.210   0.529  1.00  0.00    -0.269 OA
ATOM     14  C   UNL     1      -0.657  -5.633  -2.723  1.00  0.00     0.007 A 
ATOM     15  C   UNL     1      -1.044  -6.658  -1.856  1.00  0.00     0.001 A 
ATOM     16  C   UNL     1      -1.082  -6.440  -0.468  1.00  0.00     0.016 A 
BRANCH   8  17
ATOM     17  C   UNL     1       0.083  -0.716  -2.072  1.00  0.00     0.113 C 
ATOM     18  C   UNL     1      -0.969   0.123  -1.329  1.00  0.00     0.036 C 
BRANCH  17  19
ATOM     19  C   UNL     1       0.178  -0.467  -3.582  1.00  0.00    -0.022 A 
ATOM     20  C   UNL     1      -0.906   0.119  -4.268  1.00  0.00     0.006 A 
ATOM     21  C   UNL     1       1.293  -0.946  -4.338  1.00  0.00    -0.037 A 
ATOM     22  C   UNL     1      -0.869   0.328  -5.644  1.00  0.00     0.000 A 
ATOM     23  C   UNL     1       1.332  -0.645  -5.715  1.00  0.00     0.004 A 
ATOM     24  C   UNL     1       0.265  -0.017  -6.360  1.00  0.00     0.000 A 
BRANCH  21  25
ATOM     25  C   UNL     1       2.322  -1.928  -3.722  1.00  0.00    -0.008 CG0
ATOM     26  C   UNL     1       3.460  -2.326  -4.707  1.00  0.00     0.016 C 
ATOM     27  C   UNL     1       3.076  -1.337  -2.499  1.00  0.00     0.016 C 
ATOM     28  G   UNL     1       1.576  -3.260  -3.344  1.00  0.00     0.000 G0
ENDBRANCH  21  25
ENDBRANCH  17  19
ENDBRANCH   8  17
BRANCH   9  29
ATOM     29  C   UNL     1       1.576  -3.260  -3.344  1.00  0.00     0.041 CG0
ATOM     30  G   UNL     1       2.322  -1.928  -3.722  1.00  0.00     0.000 G0
ENDBRANCH   9  29
ENDBRANCH   5   7
ENDBRANCH   4   5
ENDBRANCH   3   4
ENDBRANCH   2   3
ENDBRANCH   1   2
BRANCH   1  31
ATOM     31  C   UNL     1      -3.601  -6.550   2.575  1.00  0.00     0.202 C 
BRANCH  31  32
ATOM     32  C   UNL     1      -5.069  -6.377   2.165  1.00  0.00     0.261 C 
BRANCH  32  33
ATOM     33  O   UNL     1      -5.454  -5.003   2.009  1.00  0.00    -0.460 OA
BRANCH  33  34
ATOM     34  C   UNL     1      -6.305  -4.540   2.961  1.00  0.00     0.338 C 
ATOM     35  O   UNL     1      -6.790  -5.176   3.882  1.00  0.00    -0.246 OA
BRANCH  34  36
ATOM     36  C   UNL     1      -6.439  -3.076   2.834  1.00  0.00     0.060 A 
ATOM     37  C   UNL     1      -6.826  -2.481   1.632  1.00  0.00     0.016 A 
ATOM     38  C   UNL     1      -6.217  -2.295   3.976  1.00  0.00     0.016 A 
ATOM     39  C   UNL     1      -7.018  -1.096   1.585  1.00  0.00     0.010 A 
ATOM     40  C   UNL     1      -6.407  -0.915   3.925  1.00  0.00     0.010 A 
ATOM     41  C   UNL     1      -6.826  -0.306   2.733  1.00  0.00    -0.014 A 
BRANCH  41  42
ATOM     42  C   UNL     1      -7.194   1.131   2.724  1.00  0.00     0.031 A 
ATOM     43  C   UNL     1      -6.151   2.207   2.700  1.00  0.00     0.074 A 
ATOM     44  C   UNL     1      -8.500   1.456   2.784  1.00  0.00     0.049 A 
ATOM     45  N   UNL     1      -6.314   3.501   2.610  1.00  0.00    -0.248 NA
ATOM     46  C   UNL     1      -4.747   1.781   2.799  1.00  0.00     0.031 C 
ATOM     47  C   UNL     1      -9.593   0.487   2.878  1.00  0.00     0.029 A 
ATOM     48  N   UNL     1      -9.132   2.674   2.783  1.00  0.00    -0.354 N 
ATOM     49  C   UNL     1      -5.037   4.049   2.628  1.00  0.00     0.074 A 
ATOM     50  C   UNL     1      -4.112   2.947   2.786  1.00  0.00     0.031 C 
ATOM     51  C   UNL     1     -10.760   1.146   2.908  1.00  0.00     0.029 A 
ATOM     52  C   UNL     1     -10.503   2.584   2.864  1.00  0.00     0.049 A 
ATOM     53  H   UNL     1      -8.651   3.531   2.730  1.00  0.00     0.167 HD
ATOM     54  C   UNL     1      -4.679   5.350   2.503  1.00  0.00     0.034 A 
ATOM     55  C   UNL     1     -11.448   3.547   2.897  1.00  0.00     0.034 A 
ATOM     56  C   UNL     1      -5.623   6.431   2.355  1.00  0.00     0.049 A 
ATOM     57  C   UNL     1     -11.023   4.988   2.766  1.00  0.00     0.074 A 
ATOM     58  C   UNL     1      -5.357   7.771   2.137  1.00  0.00     0.029 A 
ATOM     59  N   UNL     1      -7.004   6.309   2.432  1.00  0.00    -0.354 N 
ATOM     60  N   UNL     1      -9.814   5.479   2.621  1.00  0.00    -0.248 NA
ATOM     61  C   UNL     1     -12.082   6.006   2.783  1.00  0.00     0.031 C 
ATOM     62  C   UNL     1      -6.566   8.468   2.164  1.00  0.00     0.029 A 
ATOM     63  C   UNL     1      -7.598   7.555   2.311  1.00  0.00     0.049 A 
ATOM     64  H   UNL     1      -7.490   5.461   2.554  1.00  0.00     0.167 HD
ATOM     65  C   UNL     1      -9.970   6.858   2.502  1.00  0.00     0.074 A 
ATOM     66  C   UNL     1     -11.393   7.119   2.564  1.00  0.00     0.031 C 
ATOM     67  C   UNL     1      -9.019   7.815   2.358  1.00  0.00     0.034 A 
BRANCH  54  68
ATOM     68  C   UNL     1      -3.211   5.705   2.490  1.00  0.00     0.023 A 
ATOM     69  C   UNL     1      -2.685   6.571   3.467  1.00  0.00     0.031 A 
ATOM     70  C   UNL     1      -2.374   5.317   1.428  1.00  0.00     0.131 A 
ATOM     71  C   UNL     1      -1.374   7.050   3.343  1.00  0.00     0.055 A 
ATOM     72  C   UNL     1      -1.055   5.762   1.332  1.00  0.00     0.041 A 
ATOM     73  F   UNL     1      -2.830   4.502   0.462  1.00  0.00    -0.206 F 
ATOM     74  C   UNL     1      -0.554   6.644   2.285  1.00  0.00     0.022 A 
BRANCH  71  75
ATOM     75  S   UNL     1      -0.708   8.279   4.498  1.00  0.00     0.124 S 
ATOM     76  O   UNL     1       0.440   7.571   5.060  1.00  0.00    -0.237 OA
ATOM     77  O   UNL     1      -0.380   9.389   3.608  1.00  0.00    -0.237 OA
ATOM     78  O   UNL     1      -1.806   8.519   5.428  1.00  0.00    -0.744 OA
ENDBRANCH  71  75
ENDBRANCH  54  68
BRANCH  55  79
ATOM     79  C   UNL     1     -12.885   3.151   2.987  1.00  0.00     0.023 A 
ATOM     80  C   UNL     1     -13.368   2.430   4.095  1.00  0.00     0.031 A 
ATOM     81  C   UNL     1     -13.768   3.392   1.922  1.00  0.00     0.131 A 
ATOM     82  C   UNL     1     -14.673   1.920   4.081  1.00  0.00     0.055 A 
ATOM     83  C   UNL     1     -15.091   2.946   1.945  1.00  0.00     0.041 A 
ATOM     84  F   UNL     1     -13.351   4.059   0.835  1.00  0.00    -0.206 F 
ATOM     85  C   UNL     1     -15.544   2.190   3.021  1.00  0.00     0.022 A 
BRANCH  82  86
ATOM     86  S   UNL     1     -15.238   0.774   5.370  1.00  0.00     0.124 S 
ATOM     87  O   UNL     1     -16.347   1.510   5.967  1.00  0.00    -0.237 OA
ATOM     88  O   UNL     1     -15.611  -0.399   4.582  1.00  0.00    -0.237 OA
ATOM     89  O   UNL     1     -14.063   0.602   6.217  1.00  0.00    -0.744 OA
ENDBRANCH  82  86
ENDBRANCH  55  79
BRANCH  67  90
ATOM     90  C   UNL     1      -9.452   9.260   2.250  1.00  0.00     0.023 A 
ATOM     91  C   UNL     1      -9.141  10.004   1.094  1.00  0.00     0.031 A 
ATOM     92  C   UNL     1     -10.021   9.940   3.341  1.00  0.00     0.131 A 
ATOM     93  C   UNL     1      -9.351  11.388   1.075  1.00  0.00     0.055 A 
ATOM     94  C   UNL     1     -10.279  11.312   3.297  1.00  0.00     0.041 A 
ATOM     95  F   UNL     1     -10.327   9.282   4.470  1.00  0.00    -0.206 F 
ATOM     96  C   UNL     1      -9.928  12.045   2.167  1.00  0.00     0.022 A 
BRANCH  93  97
ATOM     97  S   UNL     1      -8.793  12.402  -0.323  1.00  0.00     0.124 S 
ATOM     98  O   UNL     1     -10.045  12.998  -0.783  1.00  0.00    -0.237 OA
ATOM     99  O   UNL     1      -7.863  13.327   0.320  1.00  0.00    -0.237 OA
ATOM    100  O   UNL     1      -8.190  11.440  -1.238  1.00  0.00    -0.744 OA
ENDBRANCH  93  97
ENDBRANCH  67  90
ENDBRANCH  41  42
ENDBRANCH  34  36
ENDBRANCH  33  34
ENDBRANCH  32  33
ENDBRANCH  31  32
ENDBRANCH   1  31
TORSDOF 17
