REMARK SMILES NS(=O)(=O)c1ccc(-n2nc(C(=O)OCCOCCOC(=O)c3ccc(-c4c5nc(c(-c6cc(S(=O)(=O)[O-])ccc6F)c6ccc([nH]6)c(-c6cc(S(=O)(=O)[O-])ccc6F)c6nc(c(-c7cc(S(=O)(=O)[O-])ccc7F)c7ccc4[nH]7)C=C6)C=C5)cc3)cc2-c2ccc(Cl)s2)cc1
REMARK SMILES IDX 17 1 16 2 15 3 14 4 12 5 13 6 11 7 9 8 10 9 87 10 86 11 8 12
REMARK SMILES IDX 5 13 6 14 95 15 7 16 94 17 2 18 3 19 4 20 1 21 88 24 89 25
REMARK SMILES IDX 93 26 90 27 91 28 92 29 18 30 19 31 20 32 21 33 22 34 23 35
REMARK SMILES IDX 24 36 85 37 25 38 84 39 26 40 27 41 28 42 78 43 29 44 83 45
REMARK SMILES IDX 77 46 79 47 30 48 82 49 76 50 75 51 31 53 63 54 43 55 62 56
REMARK SMILES IDX 44 57 47 58 61 59 80 60 45 61 46 62 60 64 81 65 48 66 32 67
REMARK SMILES IDX 33 68 41 69 34 70 40 71 42 72 39 73 35 74 36 75 37 76 38 77
REMARK SMILES IDX 64 78 65 79 73 80 66 81 72 82 74 83 71 84 67 85 68 86 69 87
REMARK SMILES IDX 70 88 49 89 50 90 58 91 51 92 57 93 59 94 56 95 52 96 53 97
REMARK SMILES IDX 54 98 55 99
REMARK H PARENT 1 22 1 23 79 52 47 63
REMARK Flexibility Score: inf
ROOT
ATOM      1  O   UNL     1       0.495  -2.665  12.292  1.00  0.00    -0.374 OA
ENDROOT
BRANCH   1   2
ATOM      2  C   UNL     1       0.821  -4.037  12.506  1.00  0.00     0.202 C 
BRANCH   2   3
ATOM      3  C   UNL     1       0.394  -5.048  11.440  1.00  0.00     0.261 C 
BRANCH   3   4
ATOM      4  O   UNL     1       1.048  -4.826  10.182  1.00  0.00    -0.458 OA
BRANCH   4   5
ATOM      5  C   UNL     1       0.283  -4.200   9.238  1.00  0.00     0.358 C 
ATOM      6  O   UNL     1      -0.914  -3.967   9.357  1.00  0.00    -0.244 OA
BRANCH   5   7
ATOM      7  C   UNL     1       1.083  -3.770   8.083  1.00  0.00     0.171 A 
ATOM      8  N   UNL     1       1.603  -2.671   6.324  1.00  0.00    -0.231 N 
ATOM      9  N   UNL     1       0.798  -2.639   7.409  1.00  0.00    -0.160 NA
ATOM     10  C   UNL     1       2.498  -3.726   6.371  1.00  0.00     0.085 A 
ATOM     11  C   UNL     1       2.219  -4.411   7.533  1.00  0.00     0.068 A 
BRANCH   8  12
ATOM     12  C   UNL     1       1.316  -1.822   5.231  1.00  0.00     0.065 A 
ATOM     13  C   UNL     1       0.776  -0.180   3.063  1.00  0.00     0.082 A 
ATOM     14  C   UNL     1       0.771  -1.567   2.893  1.00  0.00     0.024 A 
ATOM     15  C   UNL     1       1.042   0.392   4.314  1.00  0.00     0.024 A 
ATOM     16  C   UNL     1       1.058  -2.392   3.977  1.00  0.00     0.030 A 
ATOM     17  C   UNL     1       1.280  -0.435   5.415  1.00  0.00     0.030 A 
BRANCH  13  18
ATOM     18  S   UNL     1       0.471   0.864   1.670  1.00  0.00     0.238 S 
ATOM     19  O   UNL     1       1.215   2.098   1.827  1.00  0.00    -0.207 OA
ATOM     20  O   UNL     1      -0.934   0.832   1.369  1.00  0.00    -0.207 OA
BRANCH  18  21
ATOM     21  N   UNL     1       1.237   0.059   0.405  1.00  0.00    -0.225 NA
ATOM     22  H   UNL     1       1.116   0.589  -0.458  1.00  0.00     0.137 HD
ATOM     23  H   UNL     1       0.826  -0.868   0.294  1.00  0.00     0.137 HD
ENDBRANCH  18  21
ENDBRANCH  13  18
ENDBRANCH   8  12
BRANCH  10  24
ATOM     24  C   UNL     1       3.474  -4.024   5.366  1.00  0.00     0.054 A 
ATOM     25  C   UNL     1       3.577  -5.207   4.660  1.00  0.00     0.024 A 
ATOM     26  S   UNL     1       4.661  -2.888   4.874  1.00  0.00    -0.122 S 
ATOM     27  C   UNL     1       4.591  -5.149   3.659  1.00  0.00     0.033 A 
ATOM     28  C   UNL     1       5.237  -3.940   3.681  1.00  0.00     0.094 A 
ATOM     29  Cl  UNL     1       6.504  -3.440   2.637  1.00  0.00    -0.072 Cl
ENDBRANCH  10  24
ENDBRANCH   5   7
ENDBRANCH   4   5
ENDBRANCH   3   4
ENDBRANCH   2   3
ENDBRANCH   1   2
BRANCH   1  30
ATOM     30  C   UNL     1       1.216  -1.901  11.332  1.00  0.00     0.202 C 
BRANCH  30  31
ATOM     31  C   UNL     1       2.677  -1.571  11.592  1.00  0.00     0.261 C 
BRANCH  31  32
ATOM     32  O   UNL     1       3.479  -2.728  11.769  1.00  0.00    -0.460 OA
BRANCH  32  33
ATOM     33  C   UNL     1       3.792  -2.966  13.066  1.00  0.00     0.338 C 
ATOM     34  O   UNL     1       3.169  -2.600  14.048  1.00  0.00    -0.246 OA
BRANCH  33  35
ATOM     35  C   UNL     1       5.115  -3.590  13.117  1.00  0.00     0.060 A 
ATOM     36  C   UNL     1       5.669  -3.757  14.387  1.00  0.00     0.016 A 
ATOM     37  C   UNL     1       5.884  -3.693  11.948  1.00  0.00     0.016 A 
ATOM     38  C   UNL     1       7.040  -3.796  14.494  1.00  0.00     0.010 A 
ATOM     39  C   UNL     1       7.252  -3.710  12.060  1.00  0.00     0.010 A 
ATOM     40  C   UNL     1       7.815  -3.674  13.332  1.00  0.00    -0.014 A 
BRANCH  40  41
ATOM     41  C   UNL     1       9.256  -3.739  13.457  1.00  0.00     0.031 A 
ATOM     42  C   UNL     1       9.675  -5.115  13.802  1.00  0.00     0.074 A 
ATOM     43  C   UNL     1      10.082  -2.708  13.190  1.00  0.00     0.049 A 
ATOM     44  N   UNL     1      10.033  -5.538  14.968  1.00  0.00    -0.248 NA
ATOM     45  C   UNL     1       9.378  -6.199  12.846  1.00  0.00     0.031 C 
ATOM     46  C   UNL     1       9.751  -1.389  12.651  1.00  0.00     0.029 A 
ATOM     47  N   UNL     1      11.439  -2.656  13.283  1.00  0.00    -0.354 N 
ATOM     48  C   UNL     1      10.311  -6.885  14.792  1.00  0.00     0.074 A 
ATOM     49  C   UNL     1       9.621  -7.274  13.596  1.00  0.00     0.031 C 
ATOM     50  C   UNL     1      10.888  -0.765  12.255  1.00  0.00     0.029 A 
ATOM     51  C   UNL     1      12.036  -1.582  12.617  1.00  0.00     0.049 A 
ATOM     52  H   UNL     1      11.961  -3.325  13.782  1.00  0.00     0.167 HD
ATOM     53  C   UNL     1      11.360  -7.452  15.446  1.00  0.00     0.034 A 
ATOM     54  C   UNL     1      13.368  -1.430  12.342  1.00  0.00     0.034 A 
ATOM     55  C   UNL     1      11.761  -6.627  16.569  1.00  0.00     0.049 A 
ATOM     56  C   UNL     1      14.094  -2.291  13.316  1.00  0.00     0.074 A 
ATOM     57  C   UNL     1      11.104  -6.129  17.679  1.00  0.00     0.029 A 
ATOM     58  N   UNL     1      12.889  -5.846  16.425  1.00  0.00    -0.354 N 
ATOM     59  N   UNL     1      14.102  -2.049  14.600  1.00  0.00    -0.248 NA
ATOM     60  C   UNL     1      14.319  -3.684  12.949  1.00  0.00     0.031 C 
ATOM     61  C   UNL     1      11.588  -4.796  17.827  1.00  0.00     0.029 A 
ATOM     62  C   UNL     1      12.596  -4.585  16.885  1.00  0.00     0.049 A 
ATOM     63  H   UNL     1      13.754  -6.141  16.057  1.00  0.00     0.167 HD
ATOM     64  C   UNL     1      13.881  -3.280  15.200  1.00  0.00     0.074 A 
ATOM     65  C   UNL     1      14.088  -4.263  14.133  1.00  0.00     0.031 C 
ATOM     66  C   UNL     1      13.249  -3.379  16.408  1.00  0.00     0.034 A 
BRANCH  53  67
ATOM     67  C   UNL     1      12.291  -8.468  14.816  1.00  0.00     0.023 A 
ATOM     68  C   UNL     1      13.382  -8.878  15.601  1.00  0.00     0.031 A 
ATOM     69  C   UNL     1      12.362  -8.811  13.445  1.00  0.00     0.131 A 
ATOM     70  C   UNL     1      14.521  -9.448  15.012  1.00  0.00     0.055 A 
ATOM     71  C   UNL     1      13.471  -9.440  12.874  1.00  0.00     0.041 A 
ATOM     72  F   UNL     1      11.418  -8.495  12.554  1.00  0.00    -0.206 F 
ATOM     73  C   UNL     1      14.577  -9.727  13.651  1.00  0.00     0.022 A 
BRANCH  70  74
ATOM     74  S   UNL     1      15.999  -9.632  16.035  1.00  0.00     0.124 S 
ATOM     75  O   UNL     1      16.207  -8.260  16.485  1.00  0.00    -0.237 OA
ATOM     76  O   UNL     1      15.544 -10.581  17.046  1.00  0.00    -0.237 OA
ATOM     77  O   UNL     1      16.995 -10.146  15.099  1.00  0.00    -0.744 OA
ENDBRANCH  70  74
ENDBRANCH  53  67
BRANCH  54  78
ATOM     78  C   UNL     1      14.000  -0.896  11.088  1.00  0.00     0.023 A 
ATOM     79  C   UNL     1      15.374  -0.554  10.976  1.00  0.00     0.031 A 
ATOM     80  C   UNL     1      13.278  -0.954   9.874  1.00  0.00     0.131 A 
ATOM     81  C   UNL     1      15.952  -0.292   9.702  1.00  0.00     0.055 A 
ATOM     82  C   UNL     1      13.854  -0.702   8.626  1.00  0.00     0.041 A 
ATOM     83  F   UNL     1      11.996  -1.347   9.844  1.00  0.00    -0.206 F 
ATOM     84  C   UNL     1      15.196  -0.380   8.533  1.00  0.00     0.022 A 
BRANCH  81  85
ATOM     85  S   UNL     1      17.732   0.096   9.516  1.00  0.00     0.124 S 
ATOM     86  O   UNL     1      17.830   1.415  10.129  1.00  0.00    -0.237 OA
ATOM     87  O   UNL     1      18.374  -1.002  10.229  1.00  0.00    -0.237 OA
ATOM     88  O   UNL     1      17.937   0.081   8.066  1.00  0.00    -0.744 OA
ENDBRANCH  81  85
ENDBRANCH  54  78
BRANCH  66  89
ATOM     89  C   UNL     1      13.062  -2.126  17.243  1.00  0.00     0.023 A 
ATOM     90  C   UNL     1      12.383  -0.953  16.837  1.00  0.00     0.031 A 
ATOM     91  C   UNL     1      13.500  -2.194  18.578  1.00  0.00     0.131 A 
ATOM     92  C   UNL     1      12.177   0.095  17.761  1.00  0.00     0.055 A 
ATOM     93  C   UNL     1      13.270  -1.170  19.493  1.00  0.00     0.041 A 
ATOM     94  F   UNL     1      14.134  -3.289  19.031  1.00  0.00    -0.206 F 
ATOM     95  C   UNL     1      12.612  -0.018  19.086  1.00  0.00     0.022 A 
BRANCH  92  96
ATOM     96  S   UNL     1      11.362   1.647  17.257  1.00  0.00     0.124 S 
ATOM     97  O   UNL     1      12.032   1.994  16.009  1.00  0.00    -0.237 OA
ATOM     98  O   UNL     1       9.962   1.245  17.140  1.00  0.00    -0.237 OA
ATOM     99  O   UNL     1      11.641   2.556  18.371  1.00  0.00    -0.744 OA
ENDBRANCH  92  96
ENDBRANCH  66  89
ENDBRANCH  40  41
ENDBRANCH  33  35
ENDBRANCH  32  33
ENDBRANCH  31  32
ENDBRANCH  30  31
ENDBRANCH   1  30
TORSDOF 21
