REMARK SMILES O=C(OCCOCCOC(=O)c1ccc2nc(-c3c[nH]nc3-c3ccc(F)cc3F)[nH]c2c1)c1ccc(-c2c3nc(c(-c4cc(S(=O)(=O)[O-])ccc4F)c4ccc([nH]4)c(-c4cc(S(=O)(=O)[O-])ccc4F)c4nc(c(-c5cc(S(=O)(=O)[O-])ccc5F)c5ccc2[nH]5)C=C4)C=C3)cc1
REMARK SMILES IDX 5 1 4 2 3 3 2 4 1 5 34 6 35 7 96 8 36 9 95 10 37 11 38 12
REMARK SMILES IDX 39 13 89 14 40 15 94 16 88 17 90 18 41 19 93 20 87 21 86 22
REMARK SMILES IDX 42 24 74 25 54 26 73 27 55 28 58 29 72 30 91 31 56 32 57 33
REMARK SMILES IDX 71 35 92 36 59 37 43 38 44 39 52 40 45 41 51 42 53 43 50 44
REMARK SMILES IDX 46 45 47 46 48 47 49 48 75 49 76 50 84 51 77 52 83 53 85 54
REMARK SMILES IDX 82 55 78 56 79 57 80 58 81 59 60 60 61 61 69 62 62 63 68 64
REMARK SMILES IDX 70 65 67 66 63 67 64 68 65 69 66 70 6 71 7 72 8 73 9 74
REMARK SMILES IDX 10 75 11 76 12 77 13 78 33 79 14 80 32 81 15 82 31 83 16 84
REMARK SMILES IDX 17 85 18 87 19 88 22 89 20 90 21 91 23 93 24 94 29 95 25 96
REMARK SMILES IDX 28 97 30 98 26 99 27 100
REMARK H PARENT 90 23 58 34 31 86 20 92
REMARK Flexibility Score: inf
ROOT
ATOM      1  C   UNL     1       4.355  -1.542   0.344  1.00  0.00     0.202 C 
ENDROOT
BRANCH   1   2
ATOM      2  C   UNL     1       4.054  -0.396   1.310  1.00  0.00     0.261 C 
BRANCH   2   3
ATOM      3  O   UNL     1       2.657  -0.072   1.262  1.00  0.00    -0.460 OA
BRANCH   3   4
ATOM      4  C   UNL     1       2.057   0.958   0.624  1.00  0.00     0.338 C 
ATOM      5  O   UNL     1       0.833   1.054   0.699  1.00  0.00    -0.246 OA
BRANCH   4   6
ATOM      6  C   UNL     1       2.792   1.996  -0.161  1.00  0.00     0.060 A 
ATOM      7  C   UNL     1       3.995   1.795  -0.845  1.00  0.00     0.016 A 
ATOM      8  C   UNL     1       2.163   3.245  -0.292  1.00  0.00     0.016 A 
ATOM      9  C   UNL     1       4.587   2.803  -1.593  1.00  0.00     0.010 A 
ATOM     10  C   UNL     1       2.736   4.259  -1.062  1.00  0.00     0.010 A 
ATOM     11  C   UNL     1       3.962   4.038  -1.700  1.00  0.00    -0.014 A 
BRANCH  11  12
ATOM     12  C   UNL     1       4.680   5.130  -2.374  1.00  0.00     0.031 A 
ATOM     13  C   UNL     1       5.379   6.137  -1.519  1.00  0.00     0.074 A 
ATOM     14  C   UNL     1       4.768   5.146  -3.714  1.00  0.00     0.049 A 
ATOM     15  N   UNL     1       5.976   7.244  -1.857  1.00  0.00    -0.248 NA
ATOM     16  C   UNL     1       5.407   5.845  -0.077  1.00  0.00     0.031 C 
ATOM     17  C   UNL     1       4.226   4.117  -4.604  1.00  0.00     0.029 A 
ATOM     18  N   UNL     1       5.349   6.050  -4.559  1.00  0.00    -0.354 N 
ATOM     19  C   UNL     1       6.429   7.801  -0.667  1.00  0.00     0.074 A 
ATOM     20  C   UNL     1       6.026   6.911   0.400  1.00  0.00     0.031 C 
ATOM     21  C   UNL     1       4.494   4.456  -5.875  1.00  0.00     0.029 A 
ATOM     22  C   UNL     1       5.159   5.754  -5.888  1.00  0.00     0.049 A 
ATOM     23  H   UNL     1       5.853   6.836  -4.247  1.00  0.00     0.167 HD
ATOM     24  C   UNL     1       7.108   8.961  -0.496  1.00  0.00     0.034 A 
ATOM     25  C   UNL     1       5.446   6.486  -6.982  1.00  0.00     0.034 A 
ATOM     26  C   UNL     1       7.446   9.827  -1.598  1.00  0.00     0.049 A 
ATOM     27  C   UNL     1       6.098   7.829  -6.768  1.00  0.00     0.074 A 
ATOM     28  C   UNL     1       8.041  11.074  -1.577  1.00  0.00     0.029 A 
ATOM     29  N   UNL     1       7.197   9.525  -2.936  1.00  0.00    -0.354 N 
ATOM     30  N   UNL     1       6.446   8.404  -5.637  1.00  0.00    -0.248 NA
ATOM     31  C   UNL     1       6.388   8.625  -7.964  1.00  0.00     0.031 C 
ATOM     32  C   UNL     1       8.095  11.550  -2.894  1.00  0.00     0.029 A 
ATOM     33  C   UNL     1       7.606  10.569  -3.747  1.00  0.00     0.049 A 
ATOM     34  H   UNL     1       6.789   8.689  -3.258  1.00  0.00     0.167 HD
ATOM     35  C   UNL     1       7.018   9.622  -5.987  1.00  0.00     0.074 A 
ATOM     36  C   UNL     1       6.972   9.693  -7.436  1.00  0.00     0.031 C 
ATOM     37  C   UNL     1       7.537  10.593  -5.191  1.00  0.00     0.034 A 
BRANCH  24  38
ATOM     38  C   UNL     1       7.391   9.371   0.930  1.00  0.00     0.023 A 
ATOM     39  C   UNL     1       8.188   8.586   1.784  1.00  0.00     0.031 A 
ATOM     40  C   UNL     1       6.736  10.485   1.485  1.00  0.00     0.131 A 
ATOM     41  C   UNL     1       8.215   8.857   3.162  1.00  0.00     0.055 A 
ATOM     42  C   UNL     1       6.844  10.805   2.840  1.00  0.00     0.041 A 
ATOM     43  F   UNL     1       5.935  11.254   0.731  1.00  0.00    -0.206 F 
ATOM     44  C   UNL     1       7.568   9.975   3.692  1.00  0.00     0.022 A 
BRANCH  41  45
ATOM     45  S   UNL     1       8.929   7.612   4.276  1.00  0.00     0.124 S 
ATOM     46  O   UNL     1       8.126   6.434   3.956  1.00  0.00    -0.237 OA
ATOM     47  O   UNL     1      10.323   7.569   3.851  1.00  0.00    -0.237 OA
ATOM     48  O   UNL     1       8.698   8.169   5.607  1.00  0.00    -0.744 OA
ENDBRANCH  41  45
ENDBRANCH  24  38
BRANCH  25  49
ATOM     49  C   UNL     1       5.049   6.003  -8.336  1.00  0.00     0.023 A 
ATOM     50  C   UNL     1       6.001   5.707  -9.323  1.00  0.00     0.031 A 
ATOM     51  C   UNL     1       3.689   5.826  -8.661  1.00  0.00     0.131 A 
ATOM     52  C   UNL     1       5.582   5.268 -10.591  1.00  0.00     0.055 A 
ATOM     53  C   UNL     1       3.280   5.346  -9.906  1.00  0.00     0.041 A 
ATOM     54  F   UNL     1       2.734   6.095  -7.757  1.00  0.00    -0.206 F 
ATOM     55  C   UNL     1       4.230   5.071 -10.883  1.00  0.00     0.022 A 
BRANCH  52  56
ATOM     56  S   UNL     1       6.830   5.006 -11.882  1.00  0.00     0.124 S 
ATOM     57  O   UNL     1       7.439   6.327 -11.980  1.00  0.00    -0.237 OA
ATOM     58  O   UNL     1       7.658   3.958 -11.295  1.00  0.00    -0.237 OA
ATOM     59  O   UNL     1       6.040   4.595 -13.041  1.00  0.00    -0.744 OA
ENDBRANCH  52  56
ENDBRANCH  25  49
BRANCH  37  60
ATOM     60  C   UNL     1       8.145  11.782  -5.887  1.00  0.00     0.023 A 
ATOM     61  C   UNL     1       7.355  12.737  -6.547  1.00  0.00     0.031 A 
ATOM     62  C   UNL     1       9.538  11.968  -5.859  1.00  0.00     0.131 A 
ATOM     63  C   UNL     1       7.971  13.821  -7.188  1.00  0.00     0.055 A 
ATOM     64  C   UNL     1      10.140  13.075  -6.453  1.00  0.00     0.041 A 
ATOM     65  F   UNL     1      10.333  11.081  -5.238  1.00  0.00    -0.206 F 
ATOM     66  C   UNL     1       9.355  14.005  -7.130  1.00  0.00     0.022 A 
BRANCH  63  67
ATOM     67  S   UNL     1       6.942  14.960  -8.153  1.00  0.00     0.124 S 
ATOM     68  O   UNL     1       6.380  14.075  -9.168  1.00  0.00    -0.237 OA
ATOM     69  O   UNL     1       6.005  15.460  -7.152  1.00  0.00    -0.237 OA
ATOM     70  O   UNL     1       7.899  15.947  -8.651  1.00  0.00    -0.744 OA
ENDBRANCH  63  67
ENDBRANCH  37  60
ENDBRANCH  11  12
ENDBRANCH   4   6
ENDBRANCH   3   4
ENDBRANCH   2   3
ENDBRANCH   1   2
BRANCH   1  71
ATOM     71  O   UNL     1       4.117  -1.240  -1.030  1.00  0.00    -0.374 OA
BRANCH  71  72
ATOM     72  C   UNL     1       2.791  -1.481  -1.512  1.00  0.00     0.202 C 
BRANCH  72  73
ATOM     73  C   UNL     1       2.860  -2.362  -2.761  1.00  0.00     0.261 C 
BRANCH  73  74
ATOM     74  O   UNL     1       3.308  -3.670  -2.369  1.00  0.00    -0.460 OA
BRANCH  74  75
ATOM     75  C   UNL     1       4.655  -3.820  -2.313  1.00  0.00     0.338 C 
ATOM     76  O   UNL     1       5.514  -3.136  -2.841  1.00  0.00    -0.246 OA
BRANCH  75  77
ATOM     77  C   UNL     1       4.933  -4.843  -1.286  1.00  0.00     0.062 A 
ATOM     78  C   UNL     1       4.194  -6.031  -1.253  1.00  0.00     0.018 A 
ATOM     79  C   UNL     1       5.897  -4.538  -0.309  1.00  0.00     0.044 A 
ATOM     80  C   UNL     1       4.423  -6.973  -0.247  1.00  0.00     0.031 A 
ATOM     81  C   UNL     1       6.042  -5.463   0.725  1.00  0.00     0.067 A 
ATOM     82  C   UNL     1       5.371  -6.681   0.742  1.00  0.00     0.089 A 
ATOM     83  N   UNL     1       6.784  -5.466   1.882  1.00  0.00    -0.338 N 
ATOM     84  N   UNL     1       5.811  -7.457   1.775  1.00  0.00    -0.228 NA
ATOM     85  C   UNL     1       6.673  -6.715   2.435  1.00  0.00     0.142 A 
ATOM     86  H   UNL     1       7.299  -4.710   2.246  1.00  0.00     0.168 HD
BRANCH  85  87
ATOM     87  C   UNL     1       7.530  -7.251   3.507  1.00  0.00     0.063 A 
ATOM     88  C   UNL     1       7.740  -6.739   4.761  1.00  0.00     0.117 A 
ATOM     89  C   UNL     1       8.344  -8.410   3.412  1.00  0.00     0.106 A 
ATOM     90  N   UNL     1       8.548  -7.651   5.380  1.00  0.00    -0.284 N 
ATOM     91  N   UNL     1       8.979  -8.638   4.572  1.00  0.00    -0.175 NA
ATOM     92  H   UNL     1       8.793  -7.592   6.332  1.00  0.00     0.189 HD
BRANCH  89  93
ATOM     93  C   UNL     1       8.636  -9.154   2.195  1.00  0.00     0.039 A 
ATOM     94  C   UNL     1       9.288  -8.494   1.136  1.00  0.00     0.016 A 
ATOM     95  C   UNL     1       8.232 -10.478   2.023  1.00  0.00     0.135 A 
ATOM     96  C   UNL     1       9.520  -9.153  -0.071  1.00  0.00     0.040 A 
ATOM     97  C   UNL     1       8.467 -11.142   0.821  1.00  0.00     0.079 A 
ATOM     98  F   UNL     1       7.587 -11.135   2.999  1.00  0.00    -0.206 F 
ATOM     99  C   UNL     1       9.107 -10.471  -0.215  1.00  0.00     0.126 A 
ATOM    100  F   UNL     1       9.328 -11.105  -1.375  1.00  0.00    -0.207 F 
ENDBRANCH  89  93
ENDBRANCH  85  87
ENDBRANCH  75  77
ENDBRANCH  74  75
ENDBRANCH  73  74
ENDBRANCH  72  73
ENDBRANCH  71  72
ENDBRANCH   1  71
TORSDOF 19
