REMARK SMILES Cc1c(NC(=O)c2cccc(-c3cc4ccccc4oc3=O)c2)cccc1C(=O)OCCOCCOC(=O)c1ccc(-c2c3nc(c(-c4cc(S(=O)(=O)[O-])ccc4F)c4ccc([nH]4)c(-c4cc(S(=O)(=O)[O-])ccc4F)c4nc(c(-c5cc(S(=O)(=O)[O-])ccc5F)c5ccc2[nH]5)C=C4)C=C3)cc1
REMARK SMILES IDX 33 1 32 2 31 3 30 4 28 5 29 6 27 7 1 8 2 9 3 10 24 11 26 12
REMARK SMILES IDX 25 13 4 14 5 15 6 17 7 18 8 19 23 20 9 21 11 22 10 23 12 24
REMARK SMILES IDX 13 25 21 26 14 27 20 28 22 29 15 30 19 31 16 32 18 33 17 34
REMARK SMILES IDX 34 35 35 36 36 37 37 38 38 39 39 40 40 41 101 42 41 43
REMARK SMILES IDX 100 44 42 45 43 46 44 47 94 48 45 49 99 50 93 51 95 52 46 53
REMARK SMILES IDX 98 54 92 55 91 56 47 58 79 59 59 60 78 61 60 62 63 63 77 64
REMARK SMILES IDX 96 65 61 66 62 67 76 69 97 70 64 71 48 72 49 73 57 74 50 75
REMARK SMILES IDX 56 76 58 77 55 78 51 79 52 80 53 81 54 82 80 83 81 84 89 85
REMARK SMILES IDX 82 86 88 87 90 88 87 89 83 90 84 91 85 92 86 93 65 94 66 95
REMARK SMILES IDX 74 96 67 97 73 98 75 99 72 100 68 101 69 102 70 103 71 104
REMARK H PARENT 4 16 95 57 63 68
REMARK Flexibility Score: inf
ROOT
ATOM      1  O   UNL     1       1.070   3.522  -2.214  1.00  0.00    -0.374 OA
ENDROOT
BRANCH   1   2
ATOM      2  C   UNL     1       2.255   2.752  -2.366  1.00  0.00     0.202 C 
BRANCH   2   3
ATOM      3  C   UNL     1       2.681   2.386  -0.983  1.00  0.00     0.261 C 
BRANCH   3   4
ATOM      4  O   UNL     1       1.812   1.490  -0.254  1.00  0.00    -0.460 OA
BRANCH   4   5
ATOM      5  C   UNL     1       0.691   1.858   0.420  1.00  0.00     0.338 C 
ATOM      6  O   UNL     1       0.234   2.975   0.527  1.00  0.00    -0.246 OA
BRANCH   5   7
ATOM      7  C   UNL     1      -0.042   0.607   0.835  1.00  0.00     0.065 A 
ATOM      8  C   UNL     1       2.014  -0.961   0.904  1.00  0.00     0.047 C 
ATOM      9  C   UNL     1       0.526  -0.690   0.906  1.00  0.00    -0.013 A 
ATOM     10  C   UNL     1      -0.348  -1.807   0.909  1.00  0.00     0.045 A 
ATOM     11  C   UNL     1      -1.730  -1.626   1.018  1.00  0.00     0.026 A 
ATOM     12  C   UNL     1      -1.436   0.762   0.960  1.00  0.00     0.016 A 
ATOM     13  C   UNL     1      -2.273  -0.346   1.065  1.00  0.00     0.003 A 
BRANCH  10  14
ATOM     14  N   UNL     1       0.214  -3.094   0.788  1.00  0.00    -0.322 N 
ATOM     15  C   UNL     1      -0.254  -4.267   0.251  1.00  0.00     0.255 C 
ATOM     16  H   UNL     1       1.122  -3.165   1.163  1.00  0.00     0.170 HD
ATOM     17  O   UNL     1       0.359  -5.311   0.488  1.00  0.00    -0.269 OA
BRANCH  15  18
ATOM     18  C   UNL     1      -1.405  -4.338  -0.691  1.00  0.00     0.040 A 
ATOM     19  C   UNL     1      -2.122  -5.537  -0.734  1.00  0.00     0.014 A 
ATOM     20  C   UNL     1      -1.699  -3.337  -1.629  1.00  0.00     0.022 A 
ATOM     21  C   UNL     1      -3.155  -5.709  -1.653  1.00  0.00     0.001 A 
ATOM     22  C   UNL     1      -2.725  -3.506  -2.584  1.00  0.00    -0.010 A 
ATOM     23  C   UNL     1      -3.459  -4.697  -2.562  1.00  0.00     0.009 A 
BRANCH  22  24
ATOM     24  C   UNL     1      -3.018  -2.588  -3.727  1.00  0.00     0.068 A 
ATOM     25  C   UNL     1      -2.939  -1.241  -3.681  1.00  0.00     0.028 A 
ATOM     26  C   UNL     1      -2.393  -3.009  -5.030  1.00  0.00     0.344 A 
ATOM     27  C   UNL     1      -1.527  -0.846  -3.618  1.00  0.00     0.018 A 
ATOM     28  O   UNL     1      -1.034  -2.692  -5.120  1.00  0.00    -0.422 OA
ATOM     29  O   UNL     1      -3.014  -3.602  -5.902  1.00  0.00    -0.246 OA
ATOM     30  C   UNL     1      -1.129   0.172  -2.795  1.00  0.00     0.012 A 
ATOM     31  C   UNL     1      -0.577  -1.675  -4.255  1.00  0.00     0.138 A 
ATOM     32  C   UNL     1       0.222   0.257  -2.541  1.00  0.00     0.001 A 
ATOM     33  C   UNL     1       0.779  -1.580  -3.981  1.00  0.00     0.048 A 
ATOM     34  C   UNL     1       1.179  -0.615  -3.075  1.00  0.00     0.004 A 
ENDBRANCH  22  24
ENDBRANCH  15  18
ENDBRANCH  10  14
ENDBRANCH   5   7
ENDBRANCH   4   5
ENDBRANCH   3   4
ENDBRANCH   2   3
ENDBRANCH   1   2
BRANCH   1  35
ATOM     35  C   UNL     1       0.402   3.884  -3.402  1.00  0.00     0.202 C 
BRANCH  35  36
ATOM     36  C   UNL     1       1.322   4.461  -4.485  1.00  0.00     0.261 C 
BRANCH  36  37
ATOM     37  O   UNL     1       1.828   5.761  -4.093  1.00  0.00    -0.460 OA
BRANCH  37  38
ATOM     38  C   UNL     1       3.104   5.802  -3.607  1.00  0.00     0.338 C 
ATOM     39  O   UNL     1       4.104   5.558  -4.261  1.00  0.00    -0.246 OA
BRANCH  38  40
ATOM     40  C   UNL     1       3.094   6.058  -2.134  1.00  0.00     0.060 A 
ATOM     41  C   UNL     1       4.243   5.840  -1.347  1.00  0.00     0.016 A 
ATOM     42  C   UNL     1       1.859   6.215  -1.517  1.00  0.00     0.016 A 
ATOM     43  C   UNL     1       4.123   5.628   0.038  1.00  0.00     0.010 A 
ATOM     44  C   UNL     1       1.733   5.846  -0.199  1.00  0.00     0.010 A 
ATOM     45  C   UNL     1       2.851   5.540   0.595  1.00  0.00    -0.014 A 
BRANCH  45  46
ATOM     46  C   UNL     1       2.497   5.062   1.938  1.00  0.00     0.031 A 
ATOM     47  C   UNL     1       1.693   5.982   2.777  1.00  0.00     0.074 A 
ATOM     48  C   UNL     1       2.612   3.751   2.284  1.00  0.00     0.049 A 
ATOM     49  N   UNL     1       1.362   5.727   3.987  1.00  0.00    -0.248 NA
ATOM     50  C   UNL     1       1.208   7.298   2.345  1.00  0.00     0.031 C 
ATOM     51  C   UNL     1       1.868   2.995   3.298  1.00  0.00     0.029 A 
ATOM     52  N   UNL     1       3.461   2.775   1.759  1.00  0.00    -0.354 N 
ATOM     53  C   UNL     1       0.393   6.619   4.369  1.00  0.00     0.074 A 
ATOM     54  C   UNL     1       0.421   7.647   3.367  1.00  0.00     0.031 C 
ATOM     55  C   UNL     1       2.467   1.807   3.515  1.00  0.00     0.029 A 
ATOM     56  C   UNL     1       3.686   1.787   2.723  1.00  0.00     0.049 A 
ATOM     57  H   UNL     1       3.842   2.781   0.852  1.00  0.00     0.167 HD
ATOM     58  C   UNL     1      -0.375   6.286   5.440  1.00  0.00     0.034 A 
ATOM     59  C   UNL     1       4.958   1.523   3.114  1.00  0.00     0.034 A 
ATOM     60  C   UNL     1       0.183   5.095   6.103  1.00  0.00     0.049 A 
ATOM     61  C   UNL     1       5.040   2.042   4.525  1.00  0.00     0.074 A 
ATOM     62  C   UNL     1      -0.212   3.773   6.205  1.00  0.00     0.029 A 
ATOM     63  N   UNL     1       1.519   5.130   6.508  1.00  0.00    -0.354 N 
ATOM     64  N   UNL     1       4.238   2.973   4.982  1.00  0.00    -0.248 NA
ATOM     65  C   UNL     1       5.843   1.424   5.572  1.00  0.00     0.031 C 
ATOM     66  C   UNL     1       0.947   3.005   6.549  1.00  0.00     0.029 A 
ATOM     67  C   UNL     1       2.031   3.862   6.696  1.00  0.00     0.049 A 
ATOM     68  H   UNL     1       2.034   5.959   6.642  1.00  0.00     0.167 HD
ATOM     69  C   UNL     1       4.272   2.966   6.340  1.00  0.00     0.074 A 
ATOM     70  C   UNL     1       5.340   2.028   6.664  1.00  0.00     0.031 C 
ATOM     71  C   UNL     1       3.416   3.683   7.127  1.00  0.00     0.034 A 
BRANCH  58  72
ATOM     72  C   UNL     1      -1.692   6.922   5.830  1.00  0.00     0.023 A 
ATOM     73  C   UNL     1      -2.336   6.453   6.993  1.00  0.00     0.031 A 
ATOM     74  C   UNL     1      -2.409   7.899   5.104  1.00  0.00     0.131 A 
ATOM     75  C   UNL     1      -3.596   6.942   7.388  1.00  0.00     0.055 A 
ATOM     76  C   UNL     1      -3.641   8.422   5.524  1.00  0.00     0.041 A 
ATOM     77  F   UNL     1      -1.999   8.371   3.922  1.00  0.00    -0.206 F 
ATOM     78  C   UNL     1      -4.245   7.942   6.671  1.00  0.00     0.022 A 
BRANCH  75  79
ATOM     79  S   UNL     1      -4.401   6.218   8.840  1.00  0.00     0.124 S 
ATOM     80  O   UNL     1      -4.606   4.836   8.418  1.00  0.00    -0.237 OA
ATOM     81  O   UNL     1      -3.410   6.437   9.887  1.00  0.00    -0.237 OA
ATOM     82  O   UNL     1      -5.626   7.006   8.977  1.00  0.00    -0.744 OA
ENDBRANCH  75  79
ENDBRANCH  58  72
BRANCH  59  83
ATOM     83  C   UNL     1       5.907   1.620   1.946  1.00  0.00     0.023 A 
ATOM     84  C   UNL     1       5.800   0.604   0.952  1.00  0.00     0.031 A 
ATOM     85  C   UNL     1       6.456   2.847   1.538  1.00  0.00     0.131 A 
ATOM     86  C   UNL     1       6.083   0.877  -0.403  1.00  0.00     0.055 A 
ATOM     87  C   UNL     1       6.755   3.107   0.187  1.00  0.00     0.041 A 
ATOM     88  F   UNL     1       6.551   3.870   2.399  1.00  0.00    -0.206 F 
ATOM     89  C   UNL     1       6.530   2.140  -0.793  1.00  0.00     0.022 A 
BRANCH  86  90
ATOM     90  S   UNL     1       5.581  -0.294  -1.718  1.00  0.00     0.124 S 
ATOM     91  O   UNL     1       6.855  -0.879  -2.115  1.00  0.00    -0.237 OA
ATOM     92  O   UNL     1       4.654  -1.190  -1.036  1.00  0.00    -0.237 OA
ATOM     93  O   UNL     1       4.948   0.577  -2.709  1.00  0.00    -0.744 OA
ENDBRANCH  86  90
ENDBRANCH  59  83
BRANCH  71  94
ATOM     94  C   UNL     1       3.882   4.250   8.436  1.00  0.00     0.023 A 
ATOM     95  C   UNL     1       5.240   4.253   8.772  1.00  0.00     0.031 A 
ATOM     96  C   UNL     1       3.022   4.922   9.329  1.00  0.00     0.131 A 
ATOM     97  C   UNL     1       5.682   4.740  10.000  1.00  0.00     0.055 A 
ATOM     98  C   UNL     1       3.486   5.536  10.494  1.00  0.00     0.041 A 
ATOM     99  F   UNL     1       1.705   5.032   9.104  1.00  0.00    -0.206 F 
ATOM    100  C   UNL     1       4.821   5.416  10.856  1.00  0.00     0.022 A 
BRANCH  97 101
ATOM    101  S   UNL     1       7.368   4.315  10.480  1.00  0.00     0.124 S 
ATOM    102  O   UNL     1       7.316   2.854  10.474  1.00  0.00    -0.237 OA
ATOM    103  O   UNL     1       8.164   4.920   9.417  1.00  0.00    -0.237 OA
ATOM    104  O   UNL     1       7.512   4.927  11.797  1.00  0.00    -0.744 OA
ENDBRANCH  97 101
ENDBRANCH  71  94
ENDBRANCH  45  46
ENDBRANCH  38  40
ENDBRANCH  37  38
ENDBRANCH  36  37
ENDBRANCH  35  36
ENDBRANCH   1  35
TORSDOF 20
