REMARK SMILES O=C(OCCOCCOC(=O)[C@H]1CCCN(C(=O)CCOc2ccc(F)cc2)C1)c1ccc(-c2c3nc(c(-c4cc(S(=O)(=O)[O-])ccc4F)c4ccc([nH]4)c(-c4cc(S(=O)(=O)[O-])ccc4F)c4nc(c(-c5cc(S(=O)(=O)[O-])ccc5F)c5ccc2[nH]5)C=C4)C=C3)cc1
REMARK SMILES IDX 7 1 6 2 5 3 4 4 3 5 2 6 1 7 30 8 31 9 92 10 32 11 91 12
REMARK SMILES IDX 33 13 34 14 35 15 85 16 36 17 90 18 84 19 86 20 37 21 89 22
REMARK SMILES IDX 83 23 82 24 38 26 70 27 50 28 69 29 51 30 54 31 68 32 87 33
REMARK SMILES IDX 52 34 53 35 67 37 88 38 55 39 39 40 40 41 48 42 41 43 47 44
REMARK SMILES IDX 49 45 46 46 42 47 43 48 44 49 45 50 71 51 72 52 80 53 73 54
REMARK SMILES IDX 79 55 81 56 78 57 74 58 75 59 76 60 77 61 56 62 57 63 65 64
REMARK SMILES IDX 58 65 64 66 66 67 63 68 59 69 60 70 61 71 62 72 8 73 9 74
REMARK SMILES IDX 10 75 11 76 12 77 13 78 29 79 14 80 16 81 15 82 17 83 18 84
REMARK SMILES IDX 19 85 20 86 21 87 22 88 23 89 28 90 24 91 27 92 25 93 26 94
REMARK H PARENT 86 25 54 36
REMARK Flexibility Score: inf
ROOT
ATOM      1  C   UNL     1       7.206  -0.996   2.243  1.00  0.00     0.202 C 
ENDROOT
BRANCH   1   2
ATOM      2  O   UNL     1       7.479  -2.317   2.711  1.00  0.00    -0.374 OA
BRANCH   2   3
ATOM      3  C   UNL     1       6.443  -2.959   3.457  1.00  0.00     0.202 C 
BRANCH   3   4
ATOM      4  C   UNL     1       6.229  -2.587   4.933  1.00  0.00     0.261 C 
BRANCH   4   5
ATOM      5  O   UNL     1       6.345  -1.180   5.165  1.00  0.00    -0.460 OA
BRANCH   5   6
ATOM      6  C   UNL     1       7.494  -0.517   5.448  1.00  0.00     0.338 C 
ATOM      7  O   UNL     1       7.461   0.705   5.575  1.00  0.00    -0.246 OA
BRANCH   6   8
ATOM      8  C   UNL     1       8.795  -1.220   5.634  1.00  0.00     0.060 A 
ATOM      9  C   UNL     1       9.140  -2.418   5.010  1.00  0.00     0.016 A 
ATOM     10  C   UNL     1       9.756  -0.609   6.447  1.00  0.00     0.016 A 
ATOM     11  C   UNL     1      10.350  -3.030   5.184  1.00  0.00     0.010 A 
ATOM     12  C   UNL     1      11.007  -1.205   6.623  1.00  0.00     0.010 A 
ATOM     13  C   UNL     1      11.290  -2.416   5.983  1.00  0.00    -0.014 A 
BRANCH  13  14
ATOM     14  C   UNL     1      12.499  -3.190   6.220  1.00  0.00     0.031 A 
ATOM     15  C   UNL     1      12.585  -3.927   7.510  1.00  0.00     0.074 A 
ATOM     16  C   UNL     1      13.359  -3.374   5.204  1.00  0.00     0.049 A 
ATOM     17  N   UNL     1      13.610  -4.519   8.042  1.00  0.00    -0.248 NA
ATOM     18  C   UNL     1      11.344  -4.022   8.306  1.00  0.00     0.031 C 
ATOM     19  C   UNL     1      13.175  -2.881   3.830  1.00  0.00     0.029 A 
ATOM     20  N   UNL     1      14.539  -4.053   5.155  1.00  0.00    -0.354 N 
ATOM     21  C   UNL     1      13.158  -5.015   9.255  1.00  0.00     0.074 A 
ATOM     22  C   UNL     1      11.761  -4.675   9.380  1.00  0.00     0.031 C 
ATOM     23  C   UNL     1      14.216  -3.274   3.080  1.00  0.00     0.029 A 
ATOM     24  C   UNL     1      15.177  -3.945   3.942  1.00  0.00     0.049 A 
ATOM     25  H   UNL     1      14.899  -4.569   5.912  1.00  0.00     0.167 HD
ATOM     26  C   UNL     1      13.885  -5.680  10.175  1.00  0.00     0.034 A 
ATOM     27  C   UNL     1      16.434  -4.290   3.615  1.00  0.00     0.034 A 
ATOM     28  C   UNL     1      15.273  -5.985   9.968  1.00  0.00     0.049 A 
ATOM     29  C   UNL     1      17.274  -4.876   4.720  1.00  0.00     0.074 A 
ATOM     30  C   UNL     1      16.180  -6.540  10.845  1.00  0.00     0.029 A 
ATOM     31  N   UNL     1      15.945  -5.765   8.770  1.00  0.00    -0.354 N 
ATOM     32  N   UNL     1      16.922  -5.177   5.952  1.00  0.00    -0.248 NA
ATOM     33  C   UNL     1      18.680  -5.142   4.409  1.00  0.00     0.031 C 
ATOM     34  C   UNL     1      17.414  -6.615  10.190  1.00  0.00     0.029 A 
ATOM     35  C   UNL     1      17.259  -6.169   8.884  1.00  0.00     0.049 A 
ATOM     36  H   UNL     1      15.542  -5.378   7.959  1.00  0.00     0.167 HD
ATOM     37  C   UNL     1      18.059  -5.691   6.558  1.00  0.00     0.074 A 
ATOM     38  C   UNL     1      19.101  -5.676   5.545  1.00  0.00     0.031 C 
ATOM     39  C   UNL     1      18.244  -6.130   7.830  1.00  0.00     0.034 A 
BRANCH  26  40
ATOM     40  C   UNL     1      13.222  -6.025  11.474  1.00  0.00     0.023 A 
ATOM     41  C   UNL     1      12.253  -7.037  11.562  1.00  0.00     0.031 A 
ATOM     42  C   UNL     1      13.559  -5.320  12.641  1.00  0.00     0.131 A 
ATOM     43  C   UNL     1      11.642  -7.308  12.796  1.00  0.00     0.055 A 
ATOM     44  C   UNL     1      12.987  -5.628  13.875  1.00  0.00     0.041 A 
ATOM     45  F   UNL     1      14.449  -4.315  12.598  1.00  0.00    -0.206 F 
ATOM     46  C   UNL     1      12.022  -6.628  13.957  1.00  0.00     0.022 A 
BRANCH  43  47
ATOM     47  S   UNL     1      10.307  -8.533  12.861  1.00  0.00     0.124 S 
ATOM     48  O   UNL     1       9.238  -7.840  12.148  1.00  0.00    -0.237 OA
ATOM     49  O   UNL     1      10.891  -9.680  12.176  1.00  0.00    -0.237 OA
ATOM     50  O   UNL     1      10.080  -8.714  14.294  1.00  0.00    -0.744 OA
ENDBRANCH  43  47
ENDBRANCH  26  40
BRANCH  27  51
ATOM     51  C   UNL     1      16.992  -4.006   2.265  1.00  0.00     0.023 A 
ATOM     52  C   UNL     1      17.485  -5.045   1.463  1.00  0.00     0.031 A 
ATOM     53  C   UNL     1      17.096  -2.691   1.772  1.00  0.00     0.131 A 
ATOM     54  C   UNL     1      18.103  -4.752   0.237  1.00  0.00     0.055 A 
ATOM     55  C   UNL     1      17.660  -2.409   0.527  1.00  0.00     0.041 A 
ATOM     56  F   UNL     1      16.643  -1.654   2.495  1.00  0.00    -0.206 F 
ATOM     57  C   UNL     1      18.183  -3.443  -0.242  1.00  0.00     0.022 A 
BRANCH  54  58
ATOM     58  S   UNL     1      18.880  -6.107  -0.682  1.00  0.00     0.124 S 
ATOM     59  O   UNL     1      19.863  -6.592   0.281  1.00  0.00    -0.237 OA
ATOM     60  O   UNL     1      17.746  -6.987  -0.940  1.00  0.00    -0.237 OA
ATOM     61  O   UNL     1      19.434  -5.445  -1.861  1.00  0.00    -0.744 OA
ENDBRANCH  54  58
ENDBRANCH  27  51
BRANCH  39  62
ATOM     62  C   UNL     1      19.606  -6.666   8.155  1.00  0.00     0.023 A 
ATOM     63  C   UNL     1      20.721  -5.818   8.224  1.00  0.00     0.031 A 
ATOM     64  C   UNL     1      19.781  -8.036   8.409  1.00  0.00     0.131 A 
ATOM     65  C   UNL     1      21.983  -6.362   8.485  1.00  0.00     0.055 A 
ATOM     66  C   UNL     1      21.029  -8.560   8.736  1.00  0.00     0.041 A 
ATOM     67  F   UNL     1      18.738  -8.880   8.357  1.00  0.00    -0.206 F 
ATOM     68  C   UNL     1      22.141  -7.723   8.762  1.00  0.00     0.022 A 
BRANCH  65  69
ATOM     69  S   UNL     1      23.425  -5.273   8.373  1.00  0.00     0.124 S 
ATOM     70  O   UNL     1      23.378  -4.853   6.977  1.00  0.00    -0.237 OA
ATOM     71  O   UNL     1      23.118  -4.242   9.359  1.00  0.00    -0.237 OA
ATOM     72  O   UNL     1      24.542  -6.150   8.721  1.00  0.00    -0.744 OA
ENDBRANCH  65  69
ENDBRANCH  39  62
ENDBRANCH  13  14
ENDBRANCH   6   8
ENDBRANCH   5   6
ENDBRANCH   4   5
ENDBRANCH   3   4
ENDBRANCH   2   3
ENDBRANCH   1   2
BRANCH   1  73
ATOM     73  C   UNL     1       6.653  -1.021   0.823  1.00  0.00     0.261 C 
BRANCH  73  74
ATOM     74  O   UNL     1       5.445  -1.805   0.848  1.00  0.00    -0.463 OA
BRANCH  74  75
ATOM     75  C   UNL     1       5.254  -2.674  -0.175  1.00  0.00     0.310 C 
ATOM     76  O   UNL     1       5.859  -2.586  -1.238  1.00  0.00    -0.252 OA
BRANCH  75  77
ATOM     77  C   UNL     1       4.021  -3.795   0.182  1.00  0.00     0.119 C 
ATOM     78  C   UNL     1       3.967  -6.007   0.355  1.00  0.00     0.019 C 
ATOM     79  C   UNL     1       3.179  -2.866   1.681  1.00  0.00     0.134 C 
ATOM     80  C   UNL     1       3.166  -6.637   2.045  1.00  0.00     0.022 C 
ATOM     81  N   UNL     1       2.119  -3.710   2.674  1.00  0.00    -0.342 N 
ATOM     82  C   UNL     1       2.451  -5.338   3.230  1.00  0.00     0.119 C 
BRANCH  81  83
ATOM     83  C   UNL     1       0.808  -3.261   2.349  1.00  0.00     0.226 C 
ATOM     84  O   UNL     1       0.478  -2.093   2.571  1.00  0.00    -0.275 OA
BRANCH  83  85
ATOM     85  C   UNL     1      -0.073  -4.131   1.387  1.00  0.00     0.141 C 
BRANCH  85  86
ATOM     86  C   UNL     1       0.215  -3.933  -0.169  1.00  0.00     0.239 C 
BRANCH  86  87
ATOM     87  O   UNL     1       1.025  -4.853  -1.016  1.00  0.00    -0.493 OA
BRANCH  87  88
ATOM     88  C   UNL     1       2.345  -4.928  -0.692  1.00  0.00     0.119 A 
ATOM     89  C   UNL     1       2.624  -4.869   0.937  1.00  0.00     0.049 A 
ATOM     90  C   UNL     1       3.740  -5.062  -1.679  1.00  0.00     0.049 A 
ATOM     91  C   UNL     1       4.377  -4.808   1.768  1.00  0.00     0.043 A 
ATOM     92  C   UNL     1       5.377  -5.112  -1.030  1.00  0.00     0.043 A 
ATOM     93  C   UNL     1       5.744  -4.950   0.678  1.00  0.00     0.123 A 
ATOM     94  F   UNL     1       6.989  -5.090   1.141  1.00  0.00    -0.207 F 
ENDBRANCH  87  88
ENDBRANCH  86  87
ENDBRANCH  85  86
ENDBRANCH  83  85
ENDBRANCH  81  83
ENDBRANCH  75  77
ENDBRANCH  74  75
ENDBRANCH  73  74
ENDBRANCH   1  73
TORSDOF 22
