REMARK SMILES O=C(OCCOCCOC(=O)c1sccc1S(=O)(=O)Nc1ccc(Cn2cncn2)cc1)c1ccc(-c2c3nc(c(-c4cc(S(=O)(=O)[O-])ccc4F)c4ccc([nH]4)c(-c4cc(S(=O)(=O)[O-])ccc4F)c4nc(c(-c5cc(S(=O)(=O)[O-])ccc5F)c5ccc2[nH]5)C=C4)C=C3)cc1
REMARK SMILES IDX 7 1 6 2 5 3 4 4 3 5 2 6 1 7 33 8 34 9 95 10 35 11 94 12
REMARK SMILES IDX 36 13 37 14 38 15 88 16 39 17 93 18 87 19 89 20 40 21 92 22
REMARK SMILES IDX 86 23 85 24 41 26 73 27 53 28 72 29 54 30 57 31 71 32 90 33
REMARK SMILES IDX 55 34 56 35 70 37 91 38 58 39 42 40 43 41 51 42 44 43 50 44
REMARK SMILES IDX 52 45 49 46 45 47 46 48 47 49 48 50 74 51 75 52 83 53 76 54
REMARK SMILES IDX 82 55 84 56 81 57 77 58 78 59 79 60 80 61 59 62 60 63 68 64
REMARK SMILES IDX 61 65 67 66 69 67 66 68 62 69 63 70 64 71 65 72 8 73 9 74
REMARK SMILES IDX 10 75 11 76 12 77 13 78 16 79 14 80 15 81 17 82 18 83 19 84
REMARK SMILES IDX 20 85 21 87 22 88 32 89 23 90 31 91 24 92 25 93 26 94 27 95
REMARK SMILES IDX 30 96 28 97 29 98
REMARK H PARENT 89 25 57 36 20 86
REMARK Flexibility Score: inf
ROOT
ATOM      1  C   UNL     1       3.187  -0.214  -0.740  1.00  0.00     0.202 C 
ENDROOT
BRANCH   1   2
ATOM      2  O   UNL     1       4.348   0.455  -0.293  1.00  0.00    -0.374 OA
BRANCH   2   3
ATOM      3  C   UNL     1       5.163  -0.172   0.687  1.00  0.00     0.202 C 
BRANCH   3   4
ATOM      4  C   UNL     1       4.572  -0.456   2.076  1.00  0.00     0.261 C 
BRANCH   4   5
ATOM      5  O   UNL     1       3.191  -0.831   2.102  1.00  0.00    -0.460 OA
BRANCH   5   6
ATOM      6  C   UNL     1       2.095  -0.037   2.095  1.00  0.00     0.338 C 
ATOM      7  O   UNL     1       0.992  -0.581   2.167  1.00  0.00    -0.246 OA
BRANCH   6   8
ATOM      8  C   UNL     1       2.122   1.435   1.823  1.00  0.00     0.060 A 
ATOM      9  C   UNL     1       3.225   2.281   1.949  1.00  0.00     0.016 A 
ATOM     10  C   UNL     1       0.881   1.992   1.447  1.00  0.00     0.016 A 
ATOM     11  C   UNL     1       3.039   3.645   2.005  1.00  0.00     0.010 A 
ATOM     12  C   UNL     1       0.686   3.354   1.493  1.00  0.00     0.010 A 
ATOM     13  C   UNL     1       1.746   4.142   1.905  1.00  0.00    -0.014 A 
BRANCH  13  14
ATOM     14  C   UNL     1       1.534   5.525   2.259  1.00  0.00     0.031 A 
ATOM     15  C   UNL     1       2.057   6.454   1.239  1.00  0.00     0.074 A 
ATOM     16  C   UNL     1       0.927   5.844   3.420  1.00  0.00     0.049 A 
ATOM     17  N   UNL     1       3.151   7.135   1.305  1.00  0.00    -0.248 NA
ATOM     18  C   UNL     1       1.450   6.431  -0.101  1.00  0.00     0.031 C 
ATOM     19  C   UNL     1       0.264   4.954   4.378  1.00  0.00     0.029 A 
ATOM     20  N   UNL     1       0.713   7.071   3.962  1.00  0.00    -0.354 N 
ATOM     21  C   UNL     1       3.195   7.868   0.126  1.00  0.00     0.074 A 
ATOM     22  C   UNL     1       2.299   7.205  -0.779  1.00  0.00     0.031 C 
ATOM     23  C   UNL     1      -0.474   5.688   5.243  1.00  0.00     0.029 A 
ATOM     24  C   UNL     1      -0.234   7.098   4.989  1.00  0.00     0.049 A 
ATOM     25  H   UNL     1       1.188   7.877   3.656  1.00  0.00     0.167 HD
ATOM     26  C   UNL     1       3.700   9.132   0.132  1.00  0.00     0.034 A 
ATOM     27  C   UNL     1      -0.818   8.216   5.513  1.00  0.00     0.034 A 
ATOM     28  C   UNL     1       4.541   9.336   1.296  1.00  0.00     0.049 A 
ATOM     29  C   UNL     1       0.118   9.339   5.222  1.00  0.00     0.074 A 
ATOM     30  C   UNL     1       5.671   8.707   1.787  1.00  0.00     0.029 A 
ATOM     31  N   UNL     1       4.015  10.035   2.362  1.00  0.00    -0.354 N 
ATOM     32  N   UNL     1       1.309   9.413   5.759  1.00  0.00    -0.248 NA
ATOM     33  C   UNL     1      -0.024  10.027   3.944  1.00  0.00     0.031 C 
ATOM     34  C   UNL     1       5.468   8.640   3.198  1.00  0.00     0.029 A 
ATOM     35  C   UNL     1       4.295   9.331   3.509  1.00  0.00     0.049 A 
ATOM     36  H   UNL     1       3.525  10.888   2.311  1.00  0.00     0.167 HD
ATOM     37  C   UNL     1       2.157   9.758   4.715  1.00  0.00     0.074 A 
ATOM     38  C   UNL     1       1.268  10.186   3.632  1.00  0.00     0.031 C 
ATOM     39  C   UNL     1       3.469   9.370   4.703  1.00  0.00     0.034 A 
BRANCH  26  40
ATOM     40  C   UNL     1       3.075  10.288  -0.624  1.00  0.00     0.023 A 
ATOM     41  C   UNL     1       3.649  11.554  -0.410  1.00  0.00     0.031 A 
ATOM     42  C   UNL     1       1.808  10.290  -1.253  1.00  0.00     0.131 A 
ATOM     43  C   UNL     1       2.920  12.727  -0.660  1.00  0.00     0.055 A 
ATOM     44  C   UNL     1       1.114  11.462  -1.561  1.00  0.00     0.041 A 
ATOM     45  F   UNL     1       1.124   9.177  -1.534  1.00  0.00    -0.206 F 
ATOM     46  C   UNL     1       1.650  12.691  -1.227  1.00  0.00     0.022 A 
BRANCH  43  47
ATOM     47  S   UNL     1       3.588  14.288  -0.037  1.00  0.00     0.124 S 
ATOM     48  O   UNL     1       3.742  13.986   1.382  1.00  0.00    -0.237 OA
ATOM     49  O   UNL     1       4.821  14.413  -0.807  1.00  0.00    -0.237 OA
ATOM     50  O   UNL     1       2.546  15.257  -0.365  1.00  0.00    -0.744 OA
ENDBRANCH  43  47
ENDBRANCH  26  40
BRANCH  27  51
ATOM     51  C   UNL     1      -2.273   8.397   5.828  1.00  0.00     0.023 A 
ATOM     52  C   UNL     1      -2.788   9.452   6.622  1.00  0.00     0.031 A 
ATOM     53  C   UNL     1      -3.230   7.624   5.128  1.00  0.00     0.131 A 
ATOM     54  C   UNL     1      -4.189   9.683   6.690  1.00  0.00     0.055 A 
ATOM     55  C   UNL     1      -4.605   7.860   5.196  1.00  0.00     0.041 A 
ATOM     56  F   UNL     1      -2.857   6.653   4.280  1.00  0.00    -0.206 F 
ATOM     57  C   UNL     1      -5.091   8.897   5.971  1.00  0.00     0.022 A 
BRANCH  54  58
ATOM     58  S   UNL     1      -4.880  11.064   7.671  1.00  0.00     0.124 S 
ATOM     59  O   UNL     1      -4.582  10.655   9.038  1.00  0.00    -0.237 OA
ATOM     60  O   UNL     1      -4.144  12.215   7.161  1.00  0.00    -0.237 OA
ATOM     61  O   UNL     1      -6.303  11.051   7.327  1.00  0.00    -0.744 OA
ENDBRANCH  54  58
ENDBRANCH  27  51
BRANCH  39  62
ATOM     62  C   UNL     1       4.067   8.782   5.969  1.00  0.00     0.023 A 
ATOM     63  C   UNL     1       3.607   7.622   6.638  1.00  0.00     0.031 A 
ATOM     64  C   UNL     1       5.251   9.377   6.440  1.00  0.00     0.131 A 
ATOM     65  C   UNL     1       4.327   7.114   7.742  1.00  0.00     0.055 A 
ATOM     66  C   UNL     1       5.969   8.859   7.515  1.00  0.00     0.041 A 
ATOM     67  F   UNL     1       5.756  10.462   5.830  1.00  0.00    -0.206 F 
ATOM     68  C   UNL     1       5.506   7.729   8.175  1.00  0.00     0.022 A 
BRANCH  65  69
ATOM     69  S   UNL     1       3.737   5.652   8.661  1.00  0.00     0.124 S 
ATOM     70  O   UNL     1       2.317   5.920   8.854  1.00  0.00    -0.237 OA
ATOM     71  O   UNL     1       4.063   4.556   7.752  1.00  0.00    -0.237 OA
ATOM     72  O   UNL     1       4.535   5.678   9.889  1.00  0.00    -0.744 OA
ENDBRANCH  65  69
ENDBRANCH  39  62
ENDBRANCH  13  14
ENDBRANCH   6   8
ENDBRANCH   5   6
ENDBRANCH   4   5
ENDBRANCH   3   4
ENDBRANCH   2   3
ENDBRANCH   1   2
BRANCH   1  73
ATOM     73  C   UNL     1       3.292  -1.650  -1.172  1.00  0.00     0.261 C 
BRANCH  73  74
ATOM     74  O   UNL     1       3.896  -2.627  -0.348  1.00  0.00    -0.459 OA
BRANCH  74  75
ATOM     75  C   UNL     1       4.976  -3.202  -0.957  1.00  0.00     0.349 C 
ATOM     76  O   UNL     1       5.737  -2.667  -1.742  1.00  0.00    -0.245 OA
BRANCH  75  77
ATOM     77  C   UNL     1       5.044  -4.564  -0.551  1.00  0.00     0.133 A 
ATOM     78  S   UNL     1       6.219  -4.952   0.631  1.00  0.00    -0.136 S 
ATOM     79  C   UNL     1       4.330  -5.657  -0.989  1.00  0.00     0.113 A 
ATOM     80  C   UNL     1       5.759  -6.592   0.629  1.00  0.00     0.067 A 
ATOM     81  C   UNL     1       4.745  -6.838  -0.273  1.00  0.00     0.035 A 
BRANCH  79  82
ATOM     82  S   UNL     1       3.123  -5.737  -2.257  1.00  0.00     0.263 S 
ATOM     83  O   UNL     1       3.859  -6.258  -3.387  1.00  0.00    -0.201 OA
ATOM     84  O   UNL     1       2.095  -6.535  -1.617  1.00  0.00    -0.201 OA
BRANCH  82  85
ATOM     85  N   UNL     1       2.331  -4.321  -2.681  1.00  0.00    -0.280 N 
ATOM     86  H   UNL     1       1.520  -4.109  -2.164  1.00  0.00     0.180 HD
BRANCH  85  87
ATOM     87  C   UNL     1       2.691  -3.373  -3.711  1.00  0.00     0.049 A 
ATOM     88  C   UNL     1       1.833  -2.259  -3.856  1.00  0.00     0.027 A 
ATOM     89  C   UNL     1       3.980  -3.263  -4.214  1.00  0.00     0.027 A 
ATOM     90  C   UNL     1       2.340  -0.987  -4.212  1.00  0.00     0.008 A 
ATOM     91  C   UNL     1       4.481  -2.005  -4.596  1.00  0.00     0.008 A 
ATOM     92  C   UNL     1       3.711  -0.831  -4.460  1.00  0.00    -0.026 A 
BRANCH  92  93
ATOM     93  C   UNL     1       4.485   0.450  -4.143  1.00  0.00     0.181 C 
BRANCH  93  94
ATOM     94  N   UNL     1       3.948   1.713  -4.614  1.00  0.00    -0.249 N 
ATOM     95  C   UNL     1       3.077   2.538  -3.962  1.00  0.00     0.220 A 
ATOM     96  N   UNL     1       4.597   2.391  -5.587  1.00  0.00    -0.160 NA
ATOM     97  N   UNL     1       3.093   3.728  -4.517  1.00  0.00    -0.224 NA
ATOM     98  C   UNL     1       4.060   3.607  -5.470  1.00  0.00     0.246 A 
ENDBRANCH  93  94
ENDBRANCH  92  93
ENDBRANCH  85  87
ENDBRANCH  82  85
ENDBRANCH  79  82
ENDBRANCH  75  77
ENDBRANCH  74  75
ENDBRANCH  73  74
ENDBRANCH   1  73
TORSDOF 22
