REMARK SMILES O=C(OCCOCCOC(=O)[C@@H]1[C@H](C(=O)Nc2ccccc2OC(F)F)[C@@H]2C=C[C@H]1C2)c1ccc(-c2c3nc(c(-c4cc(S(=O)(=O)[O-])ccc4F)c4ccc([nH]4)c(-c4cc(S(=O)(=O)[O-])ccc4F)c4nc(c(-c5cc(S(=O)(=O)[O-])ccc5F)c5ccc2[nH]5)C=C4)C=C3)cc1
REMARK SMILES IDX 7 1 6 2 5 3 4 4 3 5 2 6 1 7 32 8 33 9 94 10 34 11 93 12
REMARK SMILES IDX 35 13 36 14 37 15 87 16 38 17 92 18 86 19 88 20 39 21 91 22
REMARK SMILES IDX 85 23 84 24 40 26 72 27 52 28 71 29 53 30 56 31 70 32 89 33
REMARK SMILES IDX 54 34 55 35 69 37 90 38 57 39 41 40 42 41 50 42 43 43 49 44
REMARK SMILES IDX 51 45 48 46 44 47 45 48 46 49 47 50 73 51 74 52 82 53 75 54
REMARK SMILES IDX 81 55 83 56 80 57 76 58 77 59 78 60 79 61 58 62 59 63 67 64
REMARK SMILES IDX 60 65 66 66 68 67 65 68 61 69 62 70 63 71 64 72 8 73 9 74
REMARK SMILES IDX 10 75 11 76 12 77 13 78 30 79 27 80 29 81 31 82 28 83 14 84
REMARK SMILES IDX 15 85 16 86 17 88 18 89 22 90 19 91 21 92 20 93 23 94 24 95
REMARK SMILES IDX 25 96 26 97
REMARK H PARENT 88 25 56 36 16 87
REMARK Flexibility Score: inf
ROOT
ATOM      1  C   UNL     1       2.073  -0.303   2.153  1.00  0.00     0.202 C 
ENDROOT
BRANCH   1   2
ATOM      2  O   UNL     1       3.076  -0.819   1.270  1.00  0.00    -0.374 OA
BRANCH   2   3
ATOM      3  C   UNL     1       3.434  -0.219   0.013  1.00  0.00     0.202 C 
BRANCH   3   4
ATOM      4  C   UNL     1       2.413   0.457  -0.883  1.00  0.00     0.261 C 
BRANCH   4   5
ATOM      5  O   UNL     1       1.100  -0.126  -0.871  1.00  0.00    -0.460 OA
BRANCH   5   6
ATOM      6  C   UNL     1       0.767  -1.337  -1.389  1.00  0.00     0.338 C 
ATOM      7  O   UNL     1      -0.392  -1.691  -1.499  1.00  0.00    -0.246 OA
BRANCH   6   8
ATOM      8  C   UNL     1       1.861  -2.258  -1.747  1.00  0.00     0.060 A 
ATOM      9  C   UNL     1       2.588  -2.816  -0.711  1.00  0.00     0.016 A 
ATOM     10  C   UNL     1       2.187  -2.570  -3.062  1.00  0.00     0.016 A 
ATOM     11  C   UNL     1       3.814  -3.393  -0.986  1.00  0.00     0.010 A 
ATOM     12  C   UNL     1       3.250  -3.457  -3.306  1.00  0.00     0.010 A 
ATOM     13  C   UNL     1       4.087  -3.884  -2.257  1.00  0.00    -0.014 A 
BRANCH  13  14
ATOM     14  C   UNL     1       5.157  -4.919  -2.410  1.00  0.00     0.031 A 
ATOM     15  C   UNL     1       6.091  -4.882  -3.588  1.00  0.00     0.074 A 
ATOM     16  C   UNL     1       5.258  -5.919  -1.497  1.00  0.00     0.049 A 
ATOM     17  N   UNL     1       6.801  -5.849  -4.103  1.00  0.00    -0.248 NA
ATOM     18  C   UNL     1       6.226  -3.598  -4.296  1.00  0.00     0.031 C 
ATOM     19  C   UNL     1       4.474  -6.045  -0.257  1.00  0.00     0.029 A 
ATOM     20  N   UNL     1       6.061  -7.035  -1.455  1.00  0.00    -0.354 N 
ATOM     21  C   UNL     1       7.391  -5.323  -5.248  1.00  0.00     0.074 A 
ATOM     22  C   UNL     1       6.979  -3.938  -5.335  1.00  0.00     0.031 C 
ATOM     23  C   UNL     1       4.889  -7.095   0.452  1.00  0.00     0.029 A 
ATOM     24  C   UNL     1       5.792  -7.859  -0.379  1.00  0.00     0.049 A 
ATOM     25  H   UNL     1       6.758  -7.228  -2.123  1.00  0.00     0.167 HD
ATOM     26  C   UNL     1       8.178  -5.965  -6.147  1.00  0.00     0.034 A 
ATOM     27  C   UNL     1       6.113  -9.142  -0.133  1.00  0.00     0.034 A 
ATOM     28  C   UNL     1       8.591  -7.339  -5.984  1.00  0.00     0.049 A 
ATOM     29  C   UNL     1       6.909  -9.854  -1.185  1.00  0.00     0.074 A 
ATOM     30  C   UNL     1       9.372  -8.114  -6.822  1.00  0.00     0.029 A 
ATOM     31  N   UNL     1       8.256  -8.141  -4.897  1.00  0.00    -0.354 N 
ATOM     32  N   UNL     1       7.378  -9.382  -2.317  1.00  0.00    -0.248 NA
ATOM     33  C   UNL     1       7.198 -11.269  -0.945  1.00  0.00     0.031 C 
ATOM     34  C   UNL     1       9.450  -9.401  -6.277  1.00  0.00     0.029 A 
ATOM     35  C   UNL     1       8.790  -9.408  -5.058  1.00  0.00     0.049 A 
ATOM     36  H   UNL     1       7.718  -7.850  -4.126  1.00  0.00     0.167 HD
ATOM     37  C   UNL     1       8.037 -10.444  -2.918  1.00  0.00     0.074 A 
ATOM     38  C   UNL     1       7.932 -11.566  -2.005  1.00  0.00     0.031 C 
ATOM     39  C   UNL     1       8.664 -10.498  -4.120  1.00  0.00     0.034 A 
BRANCH  26  40
ATOM     40  C   UNL     1       8.550  -5.232  -7.413  1.00  0.00     0.023 A 
ATOM     41  C   UNL     1       9.376  -4.096  -7.417  1.00  0.00     0.031 A 
ATOM     42  C   UNL     1       8.041  -5.677  -8.649  1.00  0.00     0.131 A 
ATOM     43  C   UNL     1       9.616  -3.409  -8.620  1.00  0.00     0.055 A 
ATOM     44  C   UNL     1       8.345  -5.034  -9.851  1.00  0.00     0.041 A 
ATOM     45  F   UNL     1       7.225  -6.741  -8.708  1.00  0.00    -0.206 F 
ATOM     46  C   UNL     1       9.127  -3.885  -9.839  1.00  0.00     0.022 A 
BRANCH  43  47
ATOM     47  S   UNL     1      10.472  -1.811  -8.553  1.00  0.00     0.124 S 
ATOM     48  O   UNL     1       9.550  -1.019  -7.742  1.00  0.00    -0.237 OA
ATOM     49  O   UNL     1      11.740  -2.156  -7.922  1.00  0.00    -0.237 OA
ATOM     50  O   UNL     1      10.561  -1.409  -9.955  1.00  0.00    -0.744 OA
ENDBRANCH  43  47
ENDBRANCH  26  40
BRANCH  27  51
ATOM     51  C   UNL     1       5.575  -9.862   1.064  1.00  0.00     0.023 A 
ATOM     52  C   UNL     1       6.442 -10.465   1.986  1.00  0.00     0.031 A 
ATOM     53  C   UNL     1       4.189 -10.015   1.279  1.00  0.00     0.131 A 
ATOM     54  C   UNL     1       5.922 -11.240   3.035  1.00  0.00     0.055 A 
ATOM     55  C   UNL     1       3.677 -10.714   2.373  1.00  0.00     0.041 A 
ATOM     56  F   UNL     1       3.301  -9.471   0.431  1.00  0.00    -0.206 F 
ATOM     57  C   UNL     1       4.547 -11.352   3.248  1.00  0.00     0.022 A 
BRANCH  54  58
ATOM     58  S   UNL     1       7.077 -12.222   4.030  1.00  0.00     0.124 S 
ATOM     59  O   UNL     1       7.793 -12.967   3.001  1.00  0.00    -0.237 OA
ATOM     60  O   UNL     1       7.838 -11.184   4.718  1.00  0.00    -0.237 OA
ATOM     61  O   UNL     1       6.197 -13.019   4.882  1.00  0.00    -0.744 OA
ENDBRANCH  54  58
ENDBRANCH  27  51
BRANCH  39  62
ATOM     62  C   UNL     1       9.323 -11.804  -4.463  1.00  0.00     0.023 A 
ATOM     63  C   UNL     1       8.569 -12.965  -4.700  1.00  0.00     0.031 A 
ATOM     64  C   UNL     1      10.724 -11.890  -4.522  1.00  0.00     0.131 A 
ATOM     65  C   UNL     1       9.225 -14.181  -4.924  1.00  0.00     0.055 A 
ATOM     66  C   UNL     1      11.369 -13.088  -4.819  1.00  0.00     0.041 A 
ATOM     67  F   UNL     1      11.485 -10.808  -4.292  1.00  0.00    -0.206 F 
ATOM     68  C   UNL     1      10.619 -14.246  -5.008  1.00  0.00     0.022 A 
BRANCH  65  69
ATOM     69  S   UNL     1       8.234 -15.696  -4.996  1.00  0.00     0.124 S 
ATOM     70  O   UNL     1       7.600 -15.704  -3.682  1.00  0.00    -0.237 OA
ATOM     71  O   UNL     1       7.350 -15.438  -6.128  1.00  0.00    -0.237 OA
ATOM     72  O   UNL     1       9.229 -16.745  -5.213  1.00  0.00    -0.744 OA
ENDBRANCH  65  69
ENDBRANCH  39  62
ENDBRANCH  13  14
ENDBRANCH   6   8
ENDBRANCH   5   6
ENDBRANCH   4   5
ENDBRANCH   3   4
ENDBRANCH   2   3
ENDBRANCH   1   2
BRANCH   1  73
ATOM     73  C   UNL     1       2.493  -0.226   3.690  1.00  0.00     0.261 C 
BRANCH  73  74
ATOM     74  O   UNL     1       3.435   0.862   4.068  1.00  0.00    -0.463 OA
BRANCH  74  75
ATOM     75  C   UNL     1       4.579   0.533   4.785  1.00  0.00     0.310 C 
ATOM     76  O   UNL     1       4.622  -0.467   5.497  1.00  0.00    -0.252 OA
BRANCH  75  77
ATOM     77  C   UNL     1       5.756   1.611   4.730  1.00  0.00     0.119 C 
ATOM     78  C   UNL     1       6.773   2.285   3.614  1.00  0.00     0.100 C 
ATOM     79  C   UNL     1       6.816   1.223   5.816  1.00  0.00     0.027 C 
ATOM     80  C   UNL     1       8.148   2.232   4.329  1.00  0.00     0.025 C 
ATOM     81  C   UNL     1       7.757   0.180   5.250  1.00  0.00    -0.027 C 
ATOM     82  C   UNL     1       7.753   2.438   5.781  1.00  0.00     0.017 C 
ATOM     83  C   UNL     1       8.568   0.791   4.378  1.00  0.00    -0.027 C 
BRANCH  78  84
ATOM     84  C   UNL     1       7.202   2.265   2.092  1.00  0.00     0.229 C 
ATOM     85  O   UNL     1       7.451   3.363   1.567  1.00  0.00    -0.274 OA
ATOM     86  N   UNL     1       7.446   1.172   1.320  1.00  0.00    -0.323 N 
ATOM     87  H   UNL     1       8.011   1.316   0.527  1.00  0.00     0.170 HD
BRANCH  86  88
ATOM     88  C   UNL     1       6.991  -0.117   1.523  1.00  0.00     0.084 A 
ATOM     89  C   UNL     1       7.761  -1.217   1.115  1.00  0.00     0.030 A 
ATOM     90  C   UNL     1       5.804  -0.313   2.169  1.00  0.00     0.149 A 
ATOM     91  C   UNL     1       7.474  -2.500   1.597  1.00  0.00     0.002 A 
ATOM     92  C   UNL     1       5.568  -1.594   2.710  1.00  0.00     0.049 A 
ATOM     93  C   UNL     1       6.413  -2.675   2.466  1.00  0.00     0.004 A 
BRANCH  90  94
ATOM     94  O   UNL     1       4.832   0.625   2.297  1.00  0.00    -0.433 OA
BRANCH  94  95
ATOM     95  C   UNL     1       4.523   1.944   1.788  1.00  0.00     0.542 C 
ATOM     96  F   UNL     1       5.092   2.202   0.594  1.00  0.00    -0.167 F 
ATOM     97  F   UNL     1       3.180   2.039   1.589  1.00  0.00    -0.167 F 
ENDBRANCH  94  95
ENDBRANCH  90  94
ENDBRANCH  86  88
ENDBRANCH  78  84
ENDBRANCH  75  77
ENDBRANCH  74  75
ENDBRANCH  73  74
ENDBRANCH   1  73
TORSDOF 21
