REMARK SMILES CC[C@@H](C(=O)OCCOCCOC(=O)c1ccc(-c2c3nc(c(-c4cc(S(=O)(=O)[O-])ccc4F)c4ccc([nH]4)c(-c4cc(S(=O)(=O)[O-])ccc4F)c4nc(c(-c5cc(S(=O)(=O)[O-])ccc5F)c5ccc2[nH]5)C=C4)C=C3)cc1)N(C)C(=O)N(C)C[C@@H]1CCC[N@H+]1C
REMARK SMILES IDX 8 1 7 2 6 3 4 4 5 5 3 6 2 7 1 8 78 9 79 10 80 11 81 12 82 13
REMARK SMILES IDX 83 14 84 15 85 16 86 17 89 18 87 19 88 20 90 21 9 23 10 24
REMARK SMILES IDX 11 25 12 26 13 27 14 28 15 29 16 30 77 31 17 32 76 33 18 34
REMARK SMILES IDX 19 35 20 36 70 37 21 38 75 39 69 40 71 41 22 42 74 43 68 44
REMARK SMILES IDX 67 45 23 47 55 48 35 49 54 50 36 51 39 52 53 53 72 54 37 55
REMARK SMILES IDX 38 56 52 58 73 59 40 60 24 61 25 62 33 63 26 64 32 65 34 66
REMARK SMILES IDX 31 67 27 68 28 69 29 70 30 71 56 72 57 73 65 74 58 75 64 76
REMARK SMILES IDX 66 77 63 78 59 79 60 80 61 81 62 82 41 83 42 84 50 85 43 86
REMARK SMILES IDX 49 87 51 88 48 89 44 90 45 91 46 92 47 93
REMARK H PARENT 89 22 71 46 39 57
REMARK Flexibility Score: inf
ROOT
ATOM      1  C   UNL     1      -8.230   4.403   5.373  1.00  0.00     0.202 C 
ENDROOT
BRANCH   1   2
ATOM      2  C   UNL     1      -7.910   4.852   3.942  1.00  0.00     0.261 C 
BRANCH   2   3
ATOM      3  O   UNL     1      -8.073   3.756   3.019  1.00  0.00    -0.462 OA
BRANCH   3   4
ATOM      4  C   UNL     1      -6.955   3.345   2.368  1.00  0.00     0.328 C 
ATOM      5  O   UNL     1      -5.923   4.012   2.316  1.00  0.00    -0.250 OA
BRANCH   4   6
ATOM      6  C   UNL     1      -7.141   2.005   1.596  1.00  0.00     0.196 C 
BRANCH   6   7
ATOM      7  C   UNL     1      -8.321   1.065   1.954  1.00  0.00     0.034 C 
ATOM      8  C   UNL     1      -9.718   1.668   1.843  1.00  0.00     0.007 C 
ENDBRANCH   6   7
BRANCH   6   9
ATOM      9  N   UNL     1      -5.797   1.317   1.558  1.00  0.00    -0.314 N 
ATOM     10  C   UNL     1      -4.897   1.851   0.544  1.00  0.00     0.149 C 
BRANCH   9  11
ATOM     11  C   UNL     1      -5.389   0.566   2.654  1.00  0.00     0.320 C 
ATOM     12  O   UNL     1      -6.155   0.388   3.605  1.00  0.00    -0.248 OA
BRANCH  11  13
ATOM     13  N   UNL     1      -4.132  -0.011   2.721  1.00  0.00    -0.322 N 
ATOM     14  C   UNL     1      -3.311  -0.477   1.617  1.00  0.00     0.149 C 
BRANCH  13  15
ATOM     15  C   UNL     1      -3.692  -0.483   4.056  1.00  0.00     0.185 C 
BRANCH  15  16
ATOM     16  C   UNL     1      -3.124   0.597   5.037  1.00  0.00     0.203 C 
ATOM     17  C   UNL     1      -3.869   0.602   6.381  1.00  0.00     0.073 C 
ATOM     18  N   UNL     1      -3.172   1.998   4.606  1.00  0.00    -0.333 N 
ATOM     19  C   UNL     1      -3.799   2.033   6.896  1.00  0.00     0.068 C 
ATOM     20  C   UNL     1      -3.103   2.830   5.808  1.00  0.00     0.262 C 
ATOM     21  C   UNL     1      -2.148   2.357   3.634  1.00  0.00     0.333 C 
ATOM     22  H   UNL     1      -4.046   2.156   4.106  1.00  0.00     0.348 HD
ENDBRANCH  15  16
ENDBRANCH  13  15
ENDBRANCH  11  13
ENDBRANCH   9  11
ENDBRANCH   6   9
ENDBRANCH   4   6
ENDBRANCH   3   4
ENDBRANCH   2   3
ENDBRANCH   1   2
BRANCH   1  23
ATOM     23  O   UNL     1      -7.288   3.515   5.978  1.00  0.00    -0.374 OA
BRANCH  23  24
ATOM     24  C   UNL     1      -7.297   2.178   5.486  1.00  0.00     0.202 C 
BRANCH  24  25
ATOM     25  C   UNL     1      -8.204   1.180   6.202  1.00  0.00     0.261 C 
BRANCH  25  26
ATOM     26  O   UNL     1      -9.585   1.512   5.994  1.00  0.00    -0.460 OA
BRANCH  26  27
ATOM     27  C   UNL     1     -10.148   2.201   7.015  1.00  0.00     0.338 C 
ATOM     28  O   UNL     1      -9.658   2.439   8.103  1.00  0.00    -0.246 OA
BRANCH  27  29
ATOM     29  C   UNL     1     -11.405   2.815   6.542  1.00  0.00     0.060 A 
ATOM     30  C   UNL     1     -11.613   4.165   6.854  1.00  0.00     0.016 A 
ATOM     31  C   UNL     1     -12.363   2.092   5.830  1.00  0.00     0.016 A 
ATOM     32  C   UNL     1     -12.809   4.784   6.504  1.00  0.00     0.010 A 
ATOM     33  C   UNL     1     -13.566   2.712   5.487  1.00  0.00     0.010 A 
ATOM     34  C   UNL     1     -13.807   4.048   5.857  1.00  0.00    -0.014 A 
BRANCH  34  35
ATOM     35  C   UNL     1     -15.167   4.619   5.719  1.00  0.00     0.031 A 
ATOM     36  C   UNL     1     -16.232   4.168   6.680  1.00  0.00     0.074 A 
ATOM     37  C   UNL     1     -15.441   5.530   4.769  1.00  0.00     0.049 A 
ATOM     38  N   UNL     1     -17.508   4.447   6.697  1.00  0.00    -0.248 NA
ATOM     39  C   UNL     1     -15.793   3.274   7.764  1.00  0.00     0.031 C 
ATOM     40  C   UNL     1     -14.470   6.083   3.826  1.00  0.00     0.029 A 
ATOM     41  N   UNL     1     -16.623   6.141   4.434  1.00  0.00    -0.354 N 
ATOM     42  C   UNL     1     -18.030   3.752   7.784  1.00  0.00     0.074 A 
ATOM     43  C   UNL     1     -16.937   3.012   8.376  1.00  0.00     0.031 C 
ATOM     44  C   UNL     1     -15.100   6.943   3.008  1.00  0.00     0.029 A 
ATOM     45  C   UNL     1     -16.525   6.962   3.335  1.00  0.00     0.049 A 
ATOM     46  H   UNL     1     -17.460   6.005   4.933  1.00  0.00     0.167 HD
ATOM     47  C   UNL     1     -19.305   3.741   8.244  1.00  0.00     0.034 A 
ATOM     48  C   UNL     1     -17.484   7.619   2.651  1.00  0.00     0.034 A 
ATOM     49  C   UNL     1     -20.379   4.480   7.628  1.00  0.00     0.049 A 
ATOM     50  C   UNL     1     -18.916   7.509   3.119  1.00  0.00     0.074 A 
ATOM     51  C   UNL     1     -21.706   4.554   8.014  1.00  0.00     0.029 A 
ATOM     52  N   UNL     1     -20.254   5.264   6.487  1.00  0.00    -0.354 N 
ATOM     53  N   UNL     1     -19.403   6.847   4.145  1.00  0.00    -0.248 NA
ATOM     54  C   UNL     1     -19.928   8.236   2.341  1.00  0.00     0.031 C 
ATOM     55  C   UNL     1     -22.397   5.310   7.062  1.00  0.00     0.029 A 
ATOM     56  C   UNL     1     -21.486   5.791   6.134  1.00  0.00     0.049 A 
ATOM     57  H   UNL     1     -19.412   5.422   6.002  1.00  0.00     0.167 HD
ATOM     58  C   UNL     1     -20.771   7.111   4.155  1.00  0.00     0.074 A 
ATOM     59  C   UNL     1     -21.029   7.997   3.038  1.00  0.00     0.031 C 
ATOM     60  C   UNL     1     -21.727   6.671   5.013  1.00  0.00     0.034 A 
BRANCH  47  61
ATOM     61  C   UNL     1     -19.610   2.856   9.428  1.00  0.00     0.023 A 
ATOM     62  C   UNL     1     -19.023   3.068  10.688  1.00  0.00     0.031 A 
ATOM     63  C   UNL     1     -20.484   1.762   9.287  1.00  0.00     0.131 A 
ATOM     64  C   UNL     1     -19.261   2.163  11.733  1.00  0.00     0.055 A 
ATOM     65  C   UNL     1     -20.782   0.914  10.355  1.00  0.00     0.041 A 
ATOM     66  F   UNL     1     -21.055   1.492   8.103  1.00  0.00    -0.206 F 
ATOM     67  C   UNL     1     -20.158   1.103  11.583  1.00  0.00     0.022 A 
BRANCH  64  68
ATOM     68  S   UNL     1     -18.268   2.303  13.245  1.00  0.00     0.124 S 
ATOM     69  O   UNL     1     -16.910   2.175  12.719  1.00  0.00    -0.237 OA
ATOM     70  O   UNL     1     -18.639   3.622  13.745  1.00  0.00    -0.237 OA
ATOM     71  O   UNL     1     -18.721   1.177  14.058  1.00  0.00    -0.744 OA
ENDBRANCH  64  68
ENDBRANCH  47  61
BRANCH  48  72
ATOM     72  C   UNL     1     -17.140   8.397   1.427  1.00  0.00     0.023 A 
ATOM     73  C   UNL     1     -17.361   9.781   1.360  1.00  0.00     0.031 A 
ATOM     74  C   UNL     1     -16.634   7.756   0.281  1.00  0.00     0.131 A 
ATOM     75  C   UNL     1     -17.125  10.471   0.160  1.00  0.00     0.055 A 
ATOM     76  C   UNL     1     -16.343   8.457  -0.891  1.00  0.00     0.041 A 
ATOM     77  F   UNL     1     -16.407   6.433   0.286  1.00  0.00    -0.206 F 
ATOM     78  C   UNL     1     -16.602   9.821  -0.961  1.00  0.00     0.022 A 
BRANCH  75  79
ATOM     79  S   UNL     1     -17.607  12.216   0.053  1.00  0.00     0.124 S 
ATOM     80  O   UNL     1     -19.031  12.149   0.359  1.00  0.00    -0.237 OA
ATOM     81  O   UNL     1     -16.758  12.827   1.071  1.00  0.00    -0.237 OA
ATOM     82  O   UNL     1     -17.280  12.575  -1.326  1.00  0.00    -0.744 OA
ENDBRANCH  75  79
ENDBRANCH  48  72
BRANCH  60  83
ATOM     83  C   UNL     1     -23.131   7.190   4.816  1.00  0.00     0.023 A 
ATOM     84  C   UNL     1     -23.901   6.852   3.689  1.00  0.00     0.031 A 
ATOM     85  C   UNL     1     -23.712   8.028   5.786  1.00  0.00     0.131 A 
ATOM     86  C   UNL     1     -25.190   7.385   3.539  1.00  0.00     0.055 A 
ATOM     87  C   UNL     1     -25.018   8.503   5.662  1.00  0.00     0.041 A 
ATOM     88  F   UNL     1     -23.021   8.387   6.880  1.00  0.00    -0.206 F 
ATOM     89  C   UNL     1     -25.761   8.191   4.529  1.00  0.00     0.022 A 
BRANCH  86  90
ATOM     90  S   UNL     1     -26.087   7.080   1.992  1.00  0.00     0.124 S 
ATOM     91  O   UNL     1     -25.185   7.655   1.000  1.00  0.00    -0.237 OA
ATOM     92  O   UNL     1     -26.204   5.625   1.980  1.00  0.00    -0.237 OA
ATOM     93  O   UNL     1     -27.346   7.801   2.177  1.00  0.00    -0.744 OA
ENDBRANCH  86  90
ENDBRANCH  60  83
ENDBRANCH  34  35
ENDBRANCH  27  29
ENDBRANCH  26  27
ENDBRANCH  25  26
ENDBRANCH  24  25
ENDBRANCH  23  24
ENDBRANCH   1  23
TORSDOF 23
