REMARK SMILES N#Cc1ccccc1NC(=O)C[N@H+]1CCCC[C@H]1C(=O)OCCOCCOC(=O)c1ccc(-c2c3nc(c(-c4cc(S(=O)(=O)[O-])ccc4F)c4ccc([nH]4)c(-c4cc(S(=O)(=O)[O-])ccc4F)c4nc(c(-c5cc(S(=O)(=O)[O-])ccc5F)c5ccc2[nH]5)C=C4)C=C3)cc1
REMARK SMILES IDX 23 1 22 2 21 3 19 4 20 5 18 6 13 7 14 8 15 10 17 11 16 12
REMARK SMILES IDX 12 13 10 14 9 15 11 17 8 18 3 19 4 20 5 21 7 22 6 23 2 24
REMARK SMILES IDX 1 25 24 26 25 27 26 28 27 29 28 30 29 31 30 32 31 33 92 34
REMARK SMILES IDX 32 35 91 36 33 37 34 38 35 39 85 40 36 41 90 42 84 43 86 44
REMARK SMILES IDX 37 45 89 46 83 47 82 48 38 50 70 51 50 52 69 53 51 54 54 55
REMARK SMILES IDX 68 56 87 57 52 58 53 59 67 61 88 62 55 63 39 64 40 65 48 66
REMARK SMILES IDX 41 67 47 68 49 69 46 70 42 71 43 72 44 73 45 74 71 75 72 76
REMARK SMILES IDX 80 77 73 78 79 79 81 80 78 81 74 82 75 83 76 84 77 85 56 86
REMARK SMILES IDX 57 87 65 88 58 89 64 90 66 91 63 92 59 93 60 94 61 95 62 96
REMARK H PARENT 13 9 9 16 86 49 54 60
REMARK Flexibility Score: inf
ROOT
ATOM      1  C   UNL     1      -2.849  -1.807  -2.340  1.00  0.00     0.202 C 
ENDROOT
BRANCH   1   2
ATOM      2  C   UNL     1      -1.861  -0.690  -1.927  1.00  0.00     0.261 C 
BRANCH   2   3
ATOM      3  O   UNL     1      -0.473  -0.793  -2.283  1.00  0.00    -0.459 OA
BRANCH   3   4
ATOM      4  C   UNL     1       0.172  -1.642  -1.447  1.00  0.00     0.365 C 
ATOM      5  O   UNL     1      -0.455  -2.382  -0.700  1.00  0.00    -0.245 OA
BRANCH   4   6
ATOM      6  C   UNL     1       1.705  -1.545  -1.429  1.00  0.00     0.295 C 
ATOM      7  N   UNL     1       2.346  -2.836  -1.102  1.00  0.00    -0.315 N 
ATOM      8  C   UNL     1       2.278  -3.817  -2.184  1.00  0.00     0.263 C 
ATOM      9  H   UNL     1       3.316  -2.528  -1.041  1.00  0.00     0.349 HD
ATOM     10  C   UNL     1       2.772  -3.258  -3.533  1.00  0.00     0.062 C 
ATOM     11  C   UNL     1       2.355  -0.942  -2.678  1.00  0.00     0.078 C 
ATOM     12  C   UNL     1       2.254  -1.865  -3.876  1.00  0.00     0.013 C 
BRANCH   7  13
ATOM     13  C   UNL     1       2.274  -3.387   0.282  1.00  0.00     0.364 C 
BRANCH  13  14
ATOM     14  C   UNL     1       0.961  -3.429   1.099  1.00  0.00     0.279 C 
ATOM     15  N   UNL     1       0.397  -2.338   1.738  1.00  0.00    -0.320 N 
ATOM     16  H   UNL     1      -0.403  -2.541   2.276  1.00  0.00     0.170 HD
ATOM     17  O   UNL     1       0.363  -4.510   1.222  1.00  0.00    -0.268 OA
BRANCH  15  18
ATOM     18  C   UNL     1       0.784  -0.978   1.742  1.00  0.00     0.059 A 
ATOM     19  C   UNL     1      -0.172   0.047   1.569  1.00  0.00     0.076 A 
ATOM     20  C   UNL     1       0.251   1.327   1.173  1.00  0.00     0.021 A 
ATOM     21  C   UNL     1       1.609   1.619   1.066  1.00  0.00     0.002 A 
ATOM     22  C   UNL     1       2.132  -0.623   1.796  1.00  0.00     0.027 A 
ATOM     23  C   UNL     1       2.546   0.662   1.440  1.00  0.00     0.002 A 
BRANCH  19  24
ATOM     24  C   UNL     1      -1.585  -0.166   1.723  1.00  0.00     0.101 C 
ATOM     25  N   UNL     1      -2.729  -0.294   1.853  1.00  0.00    -0.192 NA
ENDBRANCH  19  24
ENDBRANCH  15  18
ENDBRANCH  13  14
ENDBRANCH   7  13
ENDBRANCH   4   6
ENDBRANCH   3   4
ENDBRANCH   2   3
ENDBRANCH   1   2
BRANCH   1  26
ATOM     26  O   UNL     1      -2.529  -3.186  -2.389  1.00  0.00    -0.374 OA
BRANCH  26  27
ATOM     27  C   UNL     1      -1.475  -3.681  -3.195  1.00  0.00     0.202 C 
BRANCH  27  28
ATOM     28  C   UNL     1      -1.341  -3.326  -4.676  1.00  0.00     0.261 C 
BRANCH  28  29
ATOM     29  O   UNL     1      -1.432  -1.924  -4.943  1.00  0.00    -0.460 OA
BRANCH  29  30
ATOM     30  C   UNL     1      -2.600  -1.570  -5.531  1.00  0.00     0.338 C 
ATOM     31  O   UNL     1      -3.500  -2.313  -5.884  1.00  0.00    -0.246 OA
BRANCH  30  32
ATOM     32  C   UNL     1      -2.758  -0.109  -5.478  1.00  0.00     0.060 A 
ATOM     33  C   UNL     1      -3.925   0.386  -4.879  1.00  0.00     0.016 A 
ATOM     34  C   UNL     1      -1.837   0.747  -6.081  1.00  0.00     0.016 A 
ATOM     35  C   UNL     1      -4.211   1.738  -4.932  1.00  0.00     0.010 A 
ATOM     36  C   UNL     1      -2.145   2.104  -6.170  1.00  0.00     0.010 A 
ATOM     37  C   UNL     1      -3.358   2.586  -5.643  1.00  0.00    -0.014 A 
BRANCH  37  38
ATOM     38  C   UNL     1      -3.885   3.904  -6.046  1.00  0.00     0.031 A 
ATOM     39  C   UNL     1      -4.473   4.035  -7.424  1.00  0.00     0.074 A 
ATOM     40  C   UNL     1      -3.929   4.917  -5.167  1.00  0.00     0.049 A 
ATOM     41  N   UNL     1      -4.978   5.085  -8.013  1.00  0.00    -0.248 NA
ATOM     42  C   UNL     1      -4.492   2.814  -8.246  1.00  0.00     0.031 C 
ATOM     43  C   UNL     1      -3.472   4.847  -3.779  1.00  0.00     0.029 A 
ATOM     44  N   UNL     1      -4.389   6.197  -5.309  1.00  0.00    -0.354 N 
ATOM     45  C   UNL     1      -5.364   4.655  -9.279  1.00  0.00     0.074 A 
ATOM     46  C   UNL     1      -5.001   3.259  -9.383  1.00  0.00     0.031 C 
ATOM     47  C   UNL     1      -3.669   6.042  -3.198  1.00  0.00     0.029 A 
ATOM     48  C   UNL     1      -4.218   6.969  -4.186  1.00  0.00     0.049 A 
ATOM     49  H   UNL     1      -4.804   6.533  -6.136  1.00  0.00     0.167 HD
ATOM     50  C   UNL     1      -5.972   5.366 -10.258  1.00  0.00     0.034 A 
ATOM     51  C   UNL     1      -4.449   8.282  -3.997  1.00  0.00     0.034 A 
ATOM     52  C   UNL     1      -6.315   6.760 -10.121  1.00  0.00     0.049 A 
ATOM     53  C   UNL     1      -5.024   9.081  -5.141  1.00  0.00     0.074 A 
ATOM     54  C   UNL     1      -6.931   7.590 -11.040  1.00  0.00     0.029 A 
ATOM     55  N   UNL     1      -6.059   7.534  -8.995  1.00  0.00    -0.354 N 
ATOM     56  N   UNL     1      -5.369   8.675  -6.343  1.00  0.00    -0.248 NA
ATOM     57  C   UNL     1      -5.249  10.511  -4.902  1.00  0.00     0.031 C 
ATOM     58  C   UNL     1      -6.964   8.881 -10.506  1.00  0.00     0.029 A 
ATOM     59  C   UNL     1      -6.465   8.840  -9.213  1.00  0.00     0.049 A 
ATOM     60  H   UNL     1      -5.649   7.202  -8.164  1.00  0.00     0.167 HD
ATOM     61  C   UNL     1      -5.886   9.796  -6.989  1.00  0.00     0.074 A 
ATOM     62  C   UNL     1      -5.818  10.886  -6.037  1.00  0.00     0.031 C 
ATOM     63  C   UNL     1      -6.377   9.915  -8.251  1.00  0.00     0.034 A 
BRANCH  50  64
ATOM     64  C   UNL     1      -6.231   4.668 -11.572  1.00  0.00     0.023 A 
ATOM     65  C   UNL     1      -7.088   3.558 -11.675  1.00  0.00     0.031 A 
ATOM     66  C   UNL     1      -5.579   5.104 -12.740  1.00  0.00     0.131 A 
ATOM     67  C   UNL     1      -7.216   2.884 -12.899  1.00  0.00     0.055 A 
ATOM     68  C   UNL     1      -5.779   4.482 -13.973  1.00  0.00     0.041 A 
ATOM     69  F   UNL     1      -4.723   6.138 -12.699  1.00  0.00    -0.206 F 
ATOM     70  C   UNL     1      -6.590   3.356 -14.055  1.00  0.00     0.022 A 
BRANCH  67  71
ATOM     71  S   UNL     1      -8.088   1.293 -12.928  1.00  0.00     0.124 S 
ATOM     72  O   UNL     1      -7.315   0.516 -11.961  1.00  0.00    -0.237 OA
ATOM     73  O   UNL     1      -9.437   1.665 -12.518  1.00  0.00    -0.237 OA
ATOM     74  O   UNL     1      -7.956   0.855 -14.316  1.00  0.00    -0.744 OA
ENDBRANCH  67  71
ENDBRANCH  50  64
BRANCH  51  75
ATOM     75  C   UNL     1      -4.095   8.931  -2.703  1.00  0.00     0.023 A 
ATOM     76  C   UNL     1      -5.071   9.551  -1.910  1.00  0.00     0.031 A 
ATOM     77  C   UNL     1      -2.758   8.985  -2.264  1.00  0.00     0.131 A 
ATOM     78  C   UNL     1      -4.692  10.242  -0.749  1.00  0.00     0.055 A 
ATOM     79  C   UNL     1      -2.395   9.618  -1.075  1.00  0.00     0.041 A 
ATOM     80  F   UNL     1      -1.781   8.412  -2.986  1.00  0.00    -0.206 F 
ATOM     81  C   UNL     1      -3.364  10.265  -0.317  1.00  0.00     0.022 A 
BRANCH  78  82
ATOM     82  S   UNL     1      -5.949  11.206   0.135  1.00  0.00     0.124 S 
ATOM     83  O   UNL     1      -6.419  12.107  -0.911  1.00  0.00    -0.237 OA
ATOM     84  O   UNL     1      -6.883  10.167   0.556  1.00  0.00    -0.237 OA
ATOM     85  O   UNL     1      -5.194  11.839   1.214  1.00  0.00    -0.744 OA
ENDBRANCH  78  82
ENDBRANCH  51  75
BRANCH  63  86
ATOM     86  C   UNL     1      -6.927  11.264  -8.649  1.00  0.00     0.023 A 
ATOM     87  C   UNL     1      -6.107  12.400  -8.748  1.00  0.00     0.031 A 
ATOM     88  C   UNL     1      -8.298  11.412  -8.928  1.00  0.00     0.131 A 
ATOM     89  C   UNL     1      -6.675  13.646  -9.052  1.00  0.00     0.055 A 
ATOM     90  C   UNL     1      -8.844  12.638  -9.306  1.00  0.00     0.041 A 
ATOM     91  F   UNL     1      -9.130  10.361  -8.845  1.00  0.00    -0.206 F 
ATOM     92  C   UNL     1      -8.033  13.768  -9.354  1.00  0.00     0.022 A 
BRANCH  89  93
ATOM     93  S   UNL     1      -5.633  15.126  -8.937  1.00  0.00     0.124 S 
ATOM     94  O   UNL     1      -5.177  15.067  -7.552  1.00  0.00    -0.237 OA
ATOM     95  O   UNL     1      -4.617  14.874  -9.953  1.00  0.00    -0.237 OA
ATOM     96  O   UNL     1      -6.556  16.219  -9.240  1.00  0.00    -0.744 OA
ENDBRANCH  89  93
ENDBRANCH  63  86
ENDBRANCH  37  38
ENDBRANCH  30  32
ENDBRANCH  29  30
ENDBRANCH  28  29
ENDBRANCH  27  28
ENDBRANCH  26  27
ENDBRANCH   1  26
TORSDOF 21
