REMARK SMILES O=C(OCCOCCOC(=O)[C@]12COc3ccccc3[C@H]1C[N@H+](CCO)C2)c1ccc(-c2c3nc(c(-c4cc(S(=O)(=O)[O-])ccc4F)c4ccc([nH]4)c(-c4cc(S(=O)(=O)[O-])ccc4F)c4nc(c(-c5cc(S(=O)(=O)[O-])ccc5F)c5ccc2[nH]5)C=C4)C=C3)cc1
REMARK SMILES IDX 6 1 5 2 4 3 3 4 2 5 1 6 28 7 29 8 90 9 30 10 89 11 31 12
REMARK SMILES IDX 32 13 33 14 83 15 34 16 88 17 82 18 84 19 35 20 87 21 81 22
REMARK SMILES IDX 80 23 36 25 68 26 48 27 67 28 49 29 52 30 66 31 85 32 50 33
REMARK SMILES IDX 51 34 65 36 86 37 53 38 37 39 38 40 46 41 39 42 45 43 47 44
REMARK SMILES IDX 44 45 40 46 41 47 42 48 43 49 69 50 70 51 78 52 71 53 77 54
REMARK SMILES IDX 79 55 76 56 72 57 73 58 74 59 75 60 54 61 55 62 63 63 56 64
REMARK SMILES IDX 62 65 64 66 61 67 57 68 58 69 59 70 60 71 7 72 8 73 9 74
REMARK SMILES IDX 10 75 11 76 12 77 13 78 21 79 27 80 14 81 20 82 22 83 23 84
REMARK SMILES IDX 15 85 19 86 16 88 18 89 17 90 24 91 25 92 26 93
REMARK H PARENT 84 24 52 35 23 87 26 94
REMARK Flexibility Score: inf
ROOT
ATOM      1  O   UNL     1       4.293   1.021  -0.961  1.00  0.00    -0.374 OA
ENDROOT
BRANCH   1   2
ATOM      2  C   UNL     1       4.987  -0.207  -0.732  1.00  0.00     0.202 C 
BRANCH   2   3
ATOM      3  C   UNL     1       4.484  -1.337   0.180  1.00  0.00     0.261 C 
BRANCH   3   4
ATOM      4  O   UNL     1       3.091  -1.330   0.466  1.00  0.00    -0.460 OA
BRANCH   4   5
ATOM      5  C   UNL     1       2.512  -0.771   1.554  1.00  0.00     0.338 C 
ATOM      6  O   UNL     1       1.407  -1.183   1.902  1.00  0.00    -0.246 OA
BRANCH   5   7
ATOM      7  C   UNL     1       3.072   0.454   2.210  1.00  0.00     0.060 A 
ATOM      8  C   UNL     1       2.167   1.219   2.965  1.00  0.00     0.016 A 
ATOM      9  C   UNL     1       4.388   0.913   2.111  1.00  0.00     0.016 A 
ATOM     10  C   UNL     1       2.565   2.416   3.562  1.00  0.00     0.010 A 
ATOM     11  C   UNL     1       4.782   2.125   2.652  1.00  0.00     0.010 A 
ATOM     12  C   UNL     1       3.876   2.870   3.393  1.00  0.00    -0.014 A 
BRANCH  12  13
ATOM     13  C   UNL     1       4.417   3.991   4.166  1.00  0.00     0.031 A 
ATOM     14  C   UNL     1       4.640   5.322   3.532  1.00  0.00     0.074 A 
ATOM     15  C   UNL     1       4.842   3.698   5.407  1.00  0.00     0.049 A 
ATOM     16  N   UNL     1       5.021   6.431   4.098  1.00  0.00    -0.248 NA
ATOM     17  C   UNL     1       4.437   5.421   2.077  1.00  0.00     0.031 C 
ATOM     18  C   UNL     1       4.789   2.358   6.005  1.00  0.00     0.029 A 
ATOM     19  N   UNL     1       5.414   4.472   6.373  1.00  0.00    -0.354 N 
ATOM     20  C   UNL     1       5.074   7.374   3.082  1.00  0.00     0.074 A 
ATOM     21  C   UNL     1       4.751   6.692   1.849  1.00  0.00     0.031 C 
ATOM     22  C   UNL     1       5.279   2.414   7.249  1.00  0.00     0.029 A 
ATOM     23  C   UNL     1       5.675   3.787   7.536  1.00  0.00     0.049 A 
ATOM     24  H   UNL     1       5.620   5.427   6.251  1.00  0.00     0.167 HD
ATOM     25  C   UNL     1       5.349   8.693   3.204  1.00  0.00     0.034 A 
ATOM     26  C   UNL     1       6.139   4.236   8.717  1.00  0.00     0.034 A 
ATOM     27  C   UNL     1       5.693   9.293   4.470  1.00  0.00     0.049 A 
ATOM     28  C   UNL     1       6.354   5.719   8.845  1.00  0.00     0.074 A 
ATOM     29  C   UNL     1       5.914  10.627   4.755  1.00  0.00     0.029 A 
ATOM     30  N   UNL     1       5.877   8.594   5.657  1.00  0.00    -0.354 N 
ATOM     31  N   UNL     1       6.230   6.648   7.924  1.00  0.00    -0.248 NA
ATOM     32  C   UNL     1       6.723   6.229  10.168  1.00  0.00     0.031 C 
ATOM     33  C   UNL     1       6.308  10.724   6.089  1.00  0.00     0.029 A 
ATOM     34  C   UNL     1       6.232   9.466   6.670  1.00  0.00     0.049 A 
ATOM     35  H   UNL     1       5.771   7.621   5.762  1.00  0.00     0.167 HD
ATOM     36  C   UNL     1       6.459   7.858   8.565  1.00  0.00     0.074 A 
ATOM     37  C   UNL     1       6.712   7.539   9.957  1.00  0.00     0.031 C 
ATOM     38  C   UNL     1       6.458   9.116   8.055  1.00  0.00     0.034 A 
BRANCH  25  39
ATOM     39  C   UNL     1       5.253   9.592   1.995  1.00  0.00     0.023 A 
ATOM     40  C   UNL     1       6.361  10.367   1.602  1.00  0.00     0.031 A 
ATOM     41  C   UNL     1       4.023   9.824   1.352  1.00  0.00     0.131 A 
ATOM     42  C   UNL     1       6.202  11.379   0.646  1.00  0.00     0.055 A 
ATOM     43  C   UNL     1       3.882  10.800   0.363  1.00  0.00     0.041 A 
ATOM     44  F   UNL     1       2.932   9.117   1.688  1.00  0.00    -0.206 F 
ATOM     45  C   UNL     1       4.971  11.595   0.020  1.00  0.00     0.022 A 
BRANCH  42  46
ATOM     46  S   UNL     1       7.562  12.511   0.245  1.00  0.00     0.124 S 
ATOM     47  O   UNL     1       7.663  12.361  -1.205  1.00  0.00    -0.237 OA
ATOM     48  O   UNL     1       7.035  13.793   0.704  1.00  0.00    -0.237 OA
ATOM     49  O   UNL     1       8.692  11.983   1.002  1.00  0.00    -0.744 OA
ENDBRANCH  42  46
ENDBRANCH  25  39
BRANCH  26  50
ATOM     50  C   UNL     1       6.236   3.287   9.861  1.00  0.00     0.023 A 
ATOM     51  C   UNL     1       7.090   2.169   9.809  1.00  0.00     0.031 A 
ATOM     52  C   UNL     1       5.356   3.393  10.951  1.00  0.00     0.131 A 
ATOM     53  C   UNL     1       6.999   1.175  10.794  1.00  0.00     0.055 A 
ATOM     54  C   UNL     1       5.320   2.438  11.968  1.00  0.00     0.041 A 
ATOM     55  F   UNL     1       4.494   4.419  11.027  1.00  0.00    -0.206 F 
ATOM     56  C   UNL     1       6.133   1.312  11.883  1.00  0.00     0.022 A 
BRANCH  53  57
ATOM     57  S   UNL     1       7.881  -0.401  10.609  1.00  0.00     0.124 S 
ATOM     58  O   UNL     1       8.780  -0.382  11.758  1.00  0.00    -0.237 OA
ATOM     59  O   UNL     1       6.788  -1.368  10.678  1.00  0.00    -0.237 OA
ATOM     60  O   UNL     1       8.520  -0.286   9.302  1.00  0.00    -0.744 OA
ENDBRANCH  53  57
ENDBRANCH  26  50
BRANCH  38  61
ATOM     61  C   UNL     1       6.710  10.265   8.998  1.00  0.00     0.023 A 
ATOM     62  C   UNL     1       5.726  11.261   9.150  1.00  0.00     0.031 A 
ATOM     63  C   UNL     1       7.960  10.462   9.608  1.00  0.00     0.131 A 
ATOM     64  C   UNL     1       6.025  12.431   9.853  1.00  0.00     0.055 A 
ATOM     65  C   UNL     1       8.231  11.602  10.363  1.00  0.00     0.041 A 
ATOM     66  F   UNL     1       8.936   9.550   9.475  1.00  0.00    -0.206 F 
ATOM     67  C   UNL     1       7.267  12.601  10.473  1.00  0.00     0.022 A 
BRANCH  64  68
ATOM     68  S   UNL     1       4.859  13.819   9.889  1.00  0.00     0.124 S 
ATOM     69  O   UNL     1       4.557  13.921  11.315  1.00  0.00    -0.237 OA
ATOM     70  O   UNL     1       5.662  14.909   9.342  1.00  0.00    -0.237 OA
ATOM     71  O   UNL     1       3.752  13.373   9.049  1.00  0.00    -0.744 OA
ENDBRANCH  64  68
ENDBRANCH  38  61
ENDBRANCH  12  13
ENDBRANCH   5   7
ENDBRANCH   4   5
ENDBRANCH   3   4
ENDBRANCH   2   3
ENDBRANCH   1   2
BRANCH   1  72
ATOM     72  C   UNL     1       2.894   1.048  -1.249  1.00  0.00     0.202 C 
BRANCH  72  73
ATOM     73  C   UNL     1       2.553   1.807  -2.553  1.00  0.00     0.261 C 
BRANCH  73  74
ATOM     74  O   UNL     1       2.632   0.919  -3.690  1.00  0.00    -0.463 OA
BRANCH  74  75
ATOM     75  C   UNL     1       3.637   1.129  -4.593  1.00  0.00     0.322 C 
ATOM     76  O   UNL     1       3.629   2.061  -5.387  1.00  0.00    -0.251 OA
BRANCH  75  77
ATOM     77  C   UNL     1       4.741   0.087  -4.452  1.00  0.00     0.162 C 
ATOM     78  C   UNL     1       5.885   0.814  -3.714  1.00  0.00     0.255 C 
ATOM     79  C   UNL     1       5.253  -0.621  -5.705  1.00  0.00     0.105 C 
ATOM     80  C   UNL     1       4.043  -1.149  -3.821  1.00  0.00     0.285 C 
ATOM     81  O   UNL     1       6.993   1.336  -4.460  1.00  0.00    -0.492 OA
ATOM     82  C   UNL     1       6.397   0.028  -6.404  1.00  0.00     0.004 A 
ATOM     83  C   UNL     1       5.719  -2.009  -5.184  1.00  0.00     0.272 C 
ATOM     84  N   UNL     1       4.933  -2.283  -3.986  1.00  0.00    -0.331 N 
ATOM     85  C   UNL     1       7.208   0.928  -5.732  1.00  0.00     0.123 A 
ATOM     86  C   UNL     1       6.726  -0.354  -7.715  1.00  0.00     0.008 A 
ATOM     87  H   UNL     1       5.555  -2.373  -3.182  1.00  0.00     0.348 HD
ATOM     88  C   UNL     1       8.333   1.460  -6.363  1.00  0.00     0.047 A 
ATOM     89  C   UNL     1       7.848   0.179  -8.346  1.00  0.00     0.001 A 
ATOM     90  C   UNL     1       8.651   1.093  -7.670  1.00  0.00     0.004 A 
BRANCH  84  91
ATOM     91  C   UNL     1       4.277  -3.599  -3.934  1.00  0.00     0.290 C 
BRANCH  91  92
ATOM     92  C   UNL     1       3.033  -3.858  -4.813  1.00  0.00     0.217 C 
BRANCH  92  93
ATOM     93  O   UNL     1       3.301  -3.704  -6.201  1.00  0.00    -0.391 OA
ATOM     94  H   UNL     1       3.580  -2.792  -6.378  1.00  0.00     0.210 HD
ENDBRANCH  92  93
ENDBRANCH  91  92
ENDBRANCH  84  91
ENDBRANCH  75  77
ENDBRANCH  74  75
ENDBRANCH  73  74
ENDBRANCH  72  73
ENDBRANCH   1  72
TORSDOF 20
