REMARK SMILES O=C(OCCOCCOC(=O)c1ccc(-c2c3nc(c(-c4cc(S(=O)(=O)[O-])ccc4F)c4ccc([nH]4)c(-c4cc(S(=O)(=O)[O-])ccc4F)c4nc(c(-c5cc(S(=O)(=O)[O-])ccc5F)c5ccc2[nH]5)C=C4)C=C3)cc1)C1=Cc2cc(S(F)(F)(F)(F)F)cc(Br)c2O[C@H]1C(F)(F)F
REMARK SMILES IDX 7 1 6 2 5 3 4 4 3 5 2 6 1 7 75 8 76 9 91 10 77 11 90 12
REMARK SMILES IDX 78 13 89 14 79 15 87 16 86 17 88 18 92 19 93 20 94 21 95 22
REMARK SMILES IDX 80 23 81 24 82 25 83 26 84 27 85 28 8 29 9 30 10 31 11 32
REMARK SMILES IDX 12 33 13 34 74 35 14 36 73 37 15 38 16 39 17 40 67 41 18 42
REMARK SMILES IDX 72 43 66 44 68 45 19 46 71 47 65 48 64 49 20 51 52 52 32 53
REMARK SMILES IDX 51 54 33 55 36 56 50 57 69 58 34 59 35 60 49 62 70 63 37 64
REMARK SMILES IDX 21 65 22 66 30 67 23 68 29 69 31 70 28 71 24 72 25 73 26 74
REMARK SMILES IDX 27 75 53 76 54 77 62 78 55 79 61 80 63 81 60 82 56 83 57 84
REMARK SMILES IDX 58 85 59 86 38 87 39 88 47 89 40 90 46 91 48 92 45 93 41 94
REMARK SMILES IDX 42 95 43 96 44 97
REMARK H PARENT 68 50 36 61
REMARK Flexibility Score: inf
ROOT
ATOM      1  C   UNL     1       3.021  -0.093   1.400  1.00  0.00     0.202 C 
ENDROOT
BRANCH   1   2
ATOM      2  O   UNL     1       4.441  -0.093   1.400  1.00  0.00    -0.374 OA
BRANCH   2   3
ATOM      3  C   UNL     1       4.914   1.046   0.696  1.00  0.00     0.202 C 
BRANCH   3   4
ATOM      4  C   UNL     1       4.407   1.003  -0.736  1.00  0.00     0.261 C 
BRANCH   4   5
ATOM      5  O   UNL     1       2.987   1.003  -0.736  1.00  0.00    -0.460 OA
BRANCH   5   6
ATOM      6  C   UNL     1       2.277  -0.043  -0.090  1.00  0.00     0.338 C 
ATOM      7  O   UNL     1       1.006  -0.043  -0.090  1.00  0.00    -0.246 OA
BRANCH   6   8
ATOM      8  C   UNL     1       3.037  -1.163   0.602  1.00  0.00     0.087 C 
ATOM      9  C   UNL     1       4.398  -1.163   0.602  1.00  0.00     0.027 C 
ATOM     10  C   UNL     1       2.277  -2.283   1.294  1.00  0.00     0.316 C 
ATOM     11  C   UNL     1       5.158  -0.043  -0.090  1.00  0.00     0.020 A 
ATOM     12  O   UNL     1       3.540   1.363   0.936  1.00  0.00    -0.474 OA
ATOM     13  C   UNL     1       6.199  -0.267  -0.976  1.00  0.00     0.036 A 
ATOM     14  C   UNL     1       4.708   1.183   0.149  1.00  0.00     0.142 A 
ATOM     15  C   UNL     1       6.898   0.906  -1.346  1.00  0.00     0.109 A 
ATOM     16  C   UNL     1       5.363   2.279  -0.357  1.00  0.00     0.062 A 
ATOM     17  C   UNL     1       6.436   2.134  -1.192  1.00  0.00     0.044 A 
ATOM     18  Br  UNL     1       4.751   4.078   0.124  1.00  0.00    -0.047 Br
BRANCH  10  19
ATOM     19  C   UNL     1       0.783  -2.047   1.148  1.00  0.00     0.430 C 
ATOM     20  F   UNL     1       0.263  -3.174   0.670  1.00  0.00    -0.167 F 
ATOM     21  F   UNL     1       0.291  -1.811   2.361  1.00  0.00    -0.167 F 
ATOM     22  F   UNL     1       0.472  -1.037   0.340  1.00  0.00    -0.167 F 
ENDBRANCH  10  19
BRANCH  15  23
ATOM     23  S   UNL     1       8.540   0.710  -2.083  1.00  0.00     0.310 S 
ATOM     24  F   UNL     1       9.245   0.675  -0.662  1.00  0.00    -0.094 F 
ATOM     25  F   UNL     1       8.711   2.276  -2.052  1.00  0.00    -0.094 F 
ATOM     26  F   UNL     1       9.949   0.541  -2.718  1.00  0.00    -0.094 F 
ATOM     27  F   UNL     1       8.409  -0.860  -1.976  1.00  0.00    -0.094 F 
ATOM     28  F   UNL     1       7.156   0.862  -1.334  1.00  0.00    -0.094 F 
ENDBRANCH  15  23
ENDBRANCH   6   8
ENDBRANCH   5   6
ENDBRANCH   4   5
ENDBRANCH   3   4
ENDBRANCH   2   3
ENDBRANCH   1   2
BRANCH   1  29
ATOM     29  C   UNL     1       2.514   1.169   2.079  1.00  0.00     0.261 C 
BRANCH  29  30
ATOM     30  O   UNL     1       2.987   2.308   1.375  1.00  0.00    -0.460 OA
BRANCH  30  31
ATOM     31  C   UNL     1       4.383   2.528   1.239  1.00  0.00     0.338 C 
ATOM     32  O   UNL     1       5.209   1.706   1.747  1.00  0.00    -0.246 OA
BRANCH  31  33
ATOM     33  C   UNL     1       4.890   3.748   0.486  1.00  0.00     0.060 A 
ATOM     34  C   UNL     1       5.839   3.695  -0.522  1.00  0.00     0.016 A 
ATOM     35  C   UNL     1       4.269   4.881   0.789  1.00  0.00     0.016 A 
ATOM     36  C   UNL     1       6.276   4.966  -0.964  1.00  0.00     0.010 A 
ATOM     37  C   UNL     1       4.660   6.068   0.217  1.00  0.00     0.010 A 
ATOM     38  C   UNL     1       5.633   6.098  -0.744  1.00  0.00    -0.014 A 
BRANCH  38  39
ATOM     39  C   UNL     1       5.956   7.367  -1.516  1.00  0.00     0.031 A 
ATOM     40  C   UNL     1       6.376   8.444  -0.734  1.00  0.00     0.074 A 
ATOM     41  C   UNL     1       5.700   7.450  -2.874  1.00  0.00     0.049 A 
ATOM     42  N   UNL     1       6.632   9.690  -1.135  1.00  0.00    -0.248 NA
ATOM     43  C   UNL     1       6.615   8.366   0.715  1.00  0.00     0.031 C 
ATOM     44  C   UNL     1       5.285   6.366  -3.672  1.00  0.00     0.029 A 
ATOM     45  N   UNL     1       5.796   8.559  -3.686  1.00  0.00    -0.354 N 
ATOM     46  C   UNL     1       7.031  10.434  -0.101  1.00  0.00     0.074 A 
ATOM     47  C   UNL     1       7.019   9.595   1.105  1.00  0.00     0.031 C 
ATOM     48  C   UNL     1       5.120   6.817  -4.943  1.00  0.00     0.029 A 
ATOM     49  C   UNL     1       5.431   8.190  -4.962  1.00  0.00     0.049 A 
ATOM     50  H   UNL     1       6.076   9.459  -3.403  1.00  0.00     0.167 HD
ATOM     51  C   UNL     1       7.405  11.779  -0.117  1.00  0.00     0.034 A 
ATOM     52  C   UNL     1       5.365   8.992  -6.091  1.00  0.00     0.034 A 
ATOM     53  C   UNL     1       7.381  12.569  -1.255  1.00  0.00     0.049 A 
ATOM     54  C   UNL     1       5.684  10.352  -6.095  1.00  0.00     0.074 A 
ATOM     55  C   UNL     1       7.762  13.925  -1.290  1.00  0.00     0.029 A 
ATOM     56  N   UNL     1       6.993  12.207  -2.526  1.00  0.00    -0.354 N 
ATOM     57  N   UNL     1       6.120  11.086  -5.070  1.00  0.00    -0.248 NA
ATOM     58  C   UNL     1       5.587  11.218  -7.277  1.00  0.00     0.031 C 
ATOM     59  C   UNL     1       7.597  14.376  -2.562  1.00  0.00     0.029 A 
ATOM     60  C   UNL     1       7.109  13.310  -3.342  1.00  0.00     0.049 A 
ATOM     61  H   UNL     1       6.685  11.314  -2.803  1.00  0.00     0.167 HD
ATOM     62  C   UNL     1       6.336  12.342  -5.463  1.00  0.00     0.074 A 
ATOM     63  C   UNL     1       5.989  12.447  -6.887  1.00  0.00     0.031 C 
ATOM     64  C   UNL     1       6.812  13.405  -4.693  1.00  0.00     0.034 A 
BRANCH  51  65
ATOM     65  C   UNL     1       7.865  12.411   1.186  1.00  0.00     0.023 A 
ATOM     66  C   UNL     1       8.876  11.821   1.927  1.00  0.00     0.031 A 
ATOM     67  C   UNL     1       7.183  13.449   1.655  1.00  0.00     0.131 A 
ATOM     68  C   UNL     1       8.901  12.222   3.284  1.00  0.00     0.055 A 
ATOM     69  C   UNL     1       7.356  13.872   2.951  1.00  0.00     0.041 A 
ATOM     70  F   UNL     1       6.324  14.086   0.864  1.00  0.00    -0.206 F 
ATOM     71  C   UNL     1       8.297  13.296   3.759  1.00  0.00     0.022 A 
BRANCH  68  72
ATOM     72  S   UNL     1       9.824  11.190   4.449  1.00  0.00     0.124 S 
ATOM     73  O   UNL     1       9.234   9.777   4.458  1.00  0.00    -0.237 OA
ATOM     74  O   UNL     1      11.293  11.127   4.022  1.00  0.00    -0.237 OA
ATOM     75  O   UNL     1       9.715  11.863   6.017  1.00  0.00    -0.744 OA
ENDBRANCH  68  72
ENDBRANCH  51  65
BRANCH  52  76
ATOM     76  C   UNL     1       4.922   8.355  -7.397  1.00  0.00     0.023 A 
ATOM     77  C   UNL     1       5.786   8.223  -8.472  1.00  0.00     0.031 A 
ATOM     78  C   UNL     1       3.710   7.812  -7.418  1.00  0.00     0.131 A 
ATOM     79  C   UNL     1       5.168   7.739  -9.649  1.00  0.00     0.055 A 
ATOM     80  C   UNL     1       3.221   7.234  -8.565  1.00  0.00     0.041 A 
ATOM     81  F   UNL     1       2.963   7.826  -6.317  1.00  0.00    -0.206 F 
ATOM     82  C   UNL     1       4.000   7.123  -9.683  1.00  0.00     0.022 A 
BRANCH  79  83
ATOM     83  S   UNL     1       6.038   7.982 -11.217  1.00  0.00     0.124 S 
ATOM     84  O   UNL     1       6.246   9.479 -11.459  1.00  0.00    -0.237 OA
ATOM     85  O   UNL     1       7.397   7.280 -11.160  1.00  0.00    -0.237 OA
ATOM     86  O   UNL     1       5.109   7.322 -12.492  1.00  0.00    -0.744 OA
ENDBRANCH  79  83
ENDBRANCH  52  76
BRANCH  64  87
ATOM     87  C   UNL     1       7.017  14.747  -5.377  1.00  0.00     0.023 A 
ATOM     88  C   UNL     1       5.978  15.475  -5.932  1.00  0.00     0.031 A 
ATOM     89  C   UNL     1       8.256  15.223  -5.352  1.00  0.00     0.131 A 
ATOM     90  C   UNL     1       6.403  16.584  -6.702  1.00  0.00     0.055 A 
ATOM     91  C   UNL     1       8.572  16.385  -6.014  1.00  0.00     0.041 A 
ATOM     92  F   UNL     1       9.200  14.569  -4.681  1.00  0.00    -0.206 F 
ATOM     93  C   UNL     1       7.605  17.126  -6.635  1.00  0.00     0.022 A 
BRANCH  90  94
ATOM     94  S   UNL     1       5.215  17.311  -7.859  1.00  0.00     0.124 S 
ATOM     95  O   UNL     1       4.786  16.254  -8.880  1.00  0.00    -0.237 OA
ATOM     96  O   UNL     1       3.989  17.803  -7.088  1.00  0.00    -0.237 OA
ATOM     97  O   UNL     1       5.944  18.626  -8.672  1.00  0.00    -0.744 OA
ENDBRANCH  90  94
ENDBRANCH  64  87
ENDBRANCH  38  39
ENDBRANCH  31  33
ENDBRANCH  30  31
ENDBRANCH  29  30
ENDBRANCH   1  29
TORSDOF 19
