REMARK SMILES Cc1ccc(S(=O)(=O)N2C[C@@H](CC(=O)OCCOCCOC(=O)c3ccc(-c4c5nc(c(-c6cc(S(=O)(=O)[O-])ccc6F)c6ccc([nH]6)c(-c6cc(S(=O)(=O)[O-])ccc6F)c6nc(c(-c7cc(S(=O)(=O)[O-])ccc7F)c7ccc4[nH]7)C=C6)C=C5)cc3)c3ccccc32)c(C)c1
REMARK SMILES IDX 18 1 17 2 16 3 15 4 13 5 14 6 12 7 11 8 9 9 10 10 92 11
REMARK SMILES IDX 87 12 91 13 88 14 90 15 89 16 6 17 7 18 8 19 5 20 1 21 2 22
REMARK SMILES IDX 3 23 95 24 4 25 93 26 94 27 19 28 20 29 21 30 22 31 23 32
REMARK SMILES IDX 24 33 25 34 86 35 26 36 85 37 27 38 28 39 29 40 79 41 30 42
REMARK SMILES IDX 84 43 78 44 80 45 31 46 83 47 77 48 76 49 32 51 64 52 44 53
REMARK SMILES IDX 63 54 45 55 48 56 62 57 81 58 46 59 47 60 61 62 82 63 49 64
REMARK SMILES IDX 33 65 34 66 42 67 35 68 41 69 43 70 40 71 36 72 37 73 38 74
REMARK SMILES IDX 39 75 65 76 66 77 74 78 67 79 73 80 75 81 72 82 68 83 69 84
REMARK SMILES IDX 70 85 71 86 50 87 51 88 59 89 52 90 58 91 60 92 57 93 53 94
REMARK SMILES IDX 54 95 55 96 56 97
REMARK H PARENT 80 50 48 61
REMARK Flexibility Score: inf
ROOT
ATOM      1  O   UNL     1      -2.901 -10.534   0.300  1.00  0.00    -0.374 OA
ENDROOT
BRANCH   1   2
ATOM      2  C   UNL     1      -1.563 -10.397   0.783  1.00  0.00     0.202 C 
BRANCH   2   3
ATOM      3  C   UNL     1      -0.525  -9.992  -0.271  1.00  0.00     0.261 C 
BRANCH   3   4
ATOM      4  O   UNL     1      -0.575  -8.572  -0.524  1.00  0.00    -0.463 OA
BRANCH   4   5
ATOM      5  C   UNL     1      -1.161  -8.143  -1.662  1.00  0.00     0.306 C 
ATOM      6  O   UNL     1      -1.575  -8.866  -2.558  1.00  0.00    -0.252 OA
BRANCH   5   7
ATOM      7  C   UNL     1      -1.240  -6.632  -1.715  1.00  0.00     0.133 C 
BRANCH   7   8
ATOM      8  C   UNL     1      -2.065  -5.939  -0.619  1.00  0.00     0.053 C 
ATOM      9  N   UNL     1      -2.368  -3.629   0.012  1.00  0.00    -0.265 N 
ATOM     10  C   UNL     1      -2.521  -4.537  -1.132  1.00  0.00     0.144 C 
ATOM     11  C   UNL     1      -1.614  -4.251   1.031  1.00  0.00     0.055 A 
ATOM     12  C   UNL     1      -1.386  -5.586   0.688  1.00  0.00    -0.018 A 
ATOM     13  C   UNL     1      -1.127  -3.696   2.205  1.00  0.00     0.027 A 
ATOM     14  C   UNL     1      -0.685  -6.395   1.570  1.00  0.00     0.006 A 
ATOM     15  C   UNL     1      -0.362  -4.497   3.049  1.00  0.00     0.002 A 
ATOM     16  C   UNL     1      -0.145  -5.839   2.732  1.00  0.00     0.000 A 
BRANCH   9  17
ATOM     17  S   UNL     1      -2.749  -2.012  -0.090  1.00  0.00     0.264 S 
ATOM     18  O   UNL     1      -3.365  -1.631   1.166  1.00  0.00    -0.201 OA
ATOM     19  O   UNL     1      -3.436  -1.805  -1.351  1.00  0.00    -0.201 OA
BRANCH  17  20
ATOM     20  C   UNL     1      -1.220  -1.084  -0.202  1.00  0.00     0.090 A 
ATOM     21  C   UNL     1       2.486   1.121  -0.002  1.00  0.00     0.044 C 
ATOM     22  C   UNL     1       1.204   0.346  -0.097  1.00  0.00    -0.051 A 
ATOM     23  C   UNL     1       1.210  -1.039  -0.263  1.00  0.00     0.005 A 
ATOM     24  C   UNL     1      -0.023   1.016  -0.028  1.00  0.00     0.008 A 
ATOM     25  C   UNL     1       0.008  -1.748  -0.331  1.00  0.00     0.023 A 
ATOM     26  C   UNL     1      -1.247   0.321  -0.077  1.00  0.00    -0.030 A 
ATOM     27  C   UNL     1      -2.500   1.153  -0.013  1.00  0.00     0.046 C 
ENDBRANCH  17  20
ENDBRANCH   9  17
ENDBRANCH   7   8
ENDBRANCH   5   7
ENDBRANCH   4   5
ENDBRANCH   3   4
ENDBRANCH   2   3
ENDBRANCH   1   2
BRANCH   1  28
ATOM     28  C   UNL     1      -3.662  -9.334   0.198  1.00  0.00     0.202 C 
BRANCH  28  29
ATOM     29  C   UNL     1      -4.377  -8.869   1.472  1.00  0.00     0.261 C 
BRANCH  29  30
ATOM     30  O   UNL     1      -3.450  -8.482   2.501  1.00  0.00    -0.460 OA
BRANCH  30  31
ATOM     31  C   UNL     1      -3.272  -9.411   3.471  1.00  0.00     0.338 C 
ATOM     32  O   UNL     1      -3.849 -10.484   3.567  1.00  0.00    -0.246 OA
BRANCH  31  33
ATOM     33  C   UNL     1      -2.124  -9.047   4.324  1.00  0.00     0.060 A 
ATOM     34  C   UNL     1      -1.169 -10.042   4.567  1.00  0.00     0.016 A 
ATOM     35  C   UNL     1      -2.003  -7.792   4.923  1.00  0.00     0.016 A 
ATOM     36  C   UNL     1      -0.117  -9.803   5.450  1.00  0.00     0.010 A 
ATOM     37  C   UNL     1      -0.941  -7.553   5.807  1.00  0.00     0.010 A 
ATOM     38  C   UNL     1      -0.012  -8.569   6.104  1.00  0.00    -0.014 A 
BRANCH  38  39
ATOM     39  C   UNL     1       0.976  -8.406   7.205  1.00  0.00     0.031 A 
ATOM     40  C   UNL     1       0.483  -8.382   8.629  1.00  0.00     0.074 A 
ATOM     41  C   UNL     1       2.297  -8.335   6.951  1.00  0.00     0.049 A 
ATOM     42  N   UNL     1       1.157  -8.230   9.740  1.00  0.00    -0.248 NA
ATOM     43  C   UNL     1      -0.966  -8.544   8.821  1.00  0.00     0.031 C 
ATOM     44  C   UNL     1       2.905  -8.397   5.622  1.00  0.00     0.029 A 
ATOM     45  N   UNL     1       3.367  -8.201   7.802  1.00  0.00    -0.354 N 
ATOM     46  C   UNL     1       0.214  -8.271  10.763  1.00  0.00     0.074 A 
ATOM     47  C   UNL     1      -1.081  -8.411  10.133  1.00  0.00     0.031 C 
ATOM     48  C   UNL     1       4.240  -8.306   5.749  1.00  0.00     0.029 A 
ATOM     49  C   UNL     1       4.582  -8.133   7.160  1.00  0.00     0.049 A 
ATOM     50  H   UNL     1       3.273  -8.157   8.781  1.00  0.00     0.167 HD
ATOM     51  C   UNL     1       0.411  -8.211  12.104  1.00  0.00     0.034 A 
ATOM     52  C   UNL     1       5.823  -7.931   7.649  1.00  0.00     0.034 A 
ATOM     53  C   UNL     1       1.708  -8.070  12.721  1.00  0.00     0.049 A 
ATOM     54  C   UNL     1       6.008  -7.775   9.141  1.00  0.00     0.074 A 
ATOM     55  C   UNL     1       2.018  -8.018  14.069  1.00  0.00     0.029 A 
ATOM     56  N   UNL     1       2.909  -7.945  12.034  1.00  0.00    -0.354 N 
ATOM     57  N   UNL     1       5.109  -7.822  10.097  1.00  0.00    -0.248 NA
ATOM     58  C   UNL     1       7.379  -7.546   9.620  1.00  0.00     0.031 C 
ATOM     59  C   UNL     1       3.389  -7.776  14.195  1.00  0.00     0.029 A 
ATOM     60  C   UNL     1       3.954  -7.775  12.930  1.00  0.00     0.049 A 
ATOM     61  H   UNL     1       3.004  -7.974  11.055  1.00  0.00     0.167 HD
ATOM     62  C   UNL     1       5.812  -7.666  11.290  1.00  0.00     0.074 A 
ATOM     63  C   UNL     1       7.209  -7.537  10.934  1.00  0.00     0.031 C 
ATOM     64  C   UNL     1       5.346  -7.638  12.566  1.00  0.00     0.034 A 
BRANCH  51  65
ATOM     65  C   UNL     1      -0.814  -8.246  12.989  1.00  0.00     0.023 A 
ATOM     66  C   UNL     1      -1.671  -9.360  13.030  1.00  0.00     0.031 A 
ATOM     67  C   UNL     1      -1.143  -7.135  13.786  1.00  0.00     0.131 A 
ATOM     68  C   UNL     1      -2.849  -9.310  13.790  1.00  0.00     0.055 A 
ATOM     69  C   UNL     1      -2.271  -7.125  14.608  1.00  0.00     0.041 A 
ATOM     70  F   UNL     1      -0.377  -6.033  13.771  1.00  0.00    -0.206 F 
ATOM     71  C   UNL     1      -3.141  -8.211  14.601  1.00  0.00     0.022 A 
BRANCH  68  72
ATOM     72  S   UNL     1      -4.071 -10.634  13.582  1.00  0.00     0.124 S 
ATOM     73  O   UNL     1      -4.341 -10.564  12.148  1.00  0.00    -0.237 OA
ATOM     74  O   UNL     1      -3.341 -11.811  14.038  1.00  0.00    -0.237 OA
ATOM     75  O   UNL     1      -5.179 -10.215  14.438  1.00  0.00    -0.744 OA
ENDBRANCH  68  72
ENDBRANCH  51  65
BRANCH  52  76
ATOM     76  C   UNL     1       6.993  -7.821   6.728  1.00  0.00     0.023 A 
ATOM     77  C   UNL     1       8.066  -8.724   6.798  1.00  0.00     0.031 A 
ATOM     78  C   UNL     1       7.085  -6.763   5.804  1.00  0.00     0.131 A 
ATOM     79  C   UNL     1       9.204  -8.524   5.999  1.00  0.00     0.055 A 
ATOM     80  C   UNL     1       8.191  -6.604   4.968  1.00  0.00     0.041 A 
ATOM     81  F   UNL     1       6.092  -5.865   5.698  1.00  0.00    -0.206 F 
ATOM     82  C   UNL     1       9.267  -7.480   5.073  1.00  0.00     0.022 A 
BRANCH  79  83
ATOM     83  S   UNL     1      10.648  -9.590   6.259  1.00  0.00     0.124 S 
ATOM     84  O   UNL     1      10.942  -9.351   7.667  1.00  0.00    -0.237 OA
ATOM     85  O   UNL     1      10.115 -10.907   5.928  1.00  0.00    -0.237 OA
ATOM     86  O   UNL     1      11.633  -9.064   5.316  1.00  0.00    -0.744 OA
ENDBRANCH  79  83
ENDBRANCH  52  76
BRANCH  64  87
ATOM     87  C   UNL     1       6.365  -7.516  13.676  1.00  0.00     0.023 A 
ATOM     88  C   UNL     1       7.160  -6.368  13.836  1.00  0.00     0.031 A 
ATOM     89  C   UNL     1       6.546  -8.574  14.587  1.00  0.00     0.131 A 
ATOM     90  C   UNL     1       8.139  -6.328  14.842  1.00  0.00     0.055 A 
ATOM     91  C   UNL     1       7.472  -8.500  15.628  1.00  0.00     0.041 A 
ATOM     92  F   UNL     1       5.820  -9.698  14.482  1.00  0.00    -0.206 F 
ATOM     93  C   UNL     1       8.286  -7.379  15.751  1.00  0.00     0.022 A 
BRANCH  90  94
ATOM     94  S   UNL     1       9.295  -4.930  14.880  1.00  0.00     0.124 S 
ATOM     95  O   UNL     1       9.890  -4.993  13.549  1.00  0.00    -0.237 OA
ATOM     96  O   UNL     1       8.407  -3.798  15.127  1.00  0.00    -0.237 OA
ATOM     97  O   UNL     1      10.198  -5.261  15.980  1.00  0.00    -0.744 OA
ENDBRANCH  90  94
ENDBRANCH  64  87
ENDBRANCH  38  39
ENDBRANCH  31  33
ENDBRANCH  30  31
ENDBRANCH  29  30
ENDBRANCH  28  29
ENDBRANCH   1  28
TORSDOF 20
