REMARK SMILES CC(C)(C)[NH2+]Cc1ccn(CC(C)(C)C(=O)OCCOCCOC(=O)c2ccc(-c3c4nc(c(-c5cc(S(=O)(=O)[O-])ccc5F)c5ccc([nH]5)c(-c5cc(S(=O)(=O)[O-])ccc5F)c5nc(c(-c6cc(S(=O)(=O)[O-])ccc6F)c6ccc3[nH]6)C=C5)C=C4)cc2)c1
REMARK SMILES IDX 19 1 18 2 17 3 15 4 16 5 12 6 13 7 14 8 11 9 10 10 7 11 8 12
REMARK SMILES IDX 89 13 9 14 6 15 5 16 2 19 1 20 3 21 4 22 20 23 21 24 22 25
REMARK SMILES IDX 23 26 24 27 25 28 26 29 27 30 88 31 28 32 87 33 29 34 30 35
REMARK SMILES IDX 31 36 81 37 32 38 86 39 80 40 82 41 33 42 85 43 79 44 78 45
REMARK SMILES IDX 34 47 66 48 46 49 65 50 47 51 50 52 64 53 83 54 48 55 49 56
REMARK SMILES IDX 63 58 84 59 51 60 35 61 36 62 44 63 37 64 43 65 45 66 42 67
REMARK SMILES IDX 38 68 39 69 40 70 41 71 67 72 68 73 76 74 69 75 75 76 77 77
REMARK SMILES IDX 74 78 70 79 71 80 72 81 73 82 52 83 53 84 61 85 54 86 60 87
REMARK SMILES IDX 62 88 59 89 55 90 56 91 57 92 58 93
REMARK H PARENT 5 17 5 18 82 46 50 57
REMARK Flexibility Score: inf
ROOT
ATOM      1  C   UNL     1       5.765  -5.760  -5.437  1.00  0.00     0.202 C 
ENDROOT
BRANCH   1   2
ATOM      2  C   UNL     1       6.478  -5.804  -4.089  1.00  0.00     0.261 C 
BRANCH   2   3
ATOM      3  O   UNL     1       5.730  -6.538  -3.109  1.00  0.00    -0.463 OA
BRANCH   3   4
ATOM      4  C   UNL     1       5.524  -5.870  -1.945  1.00  0.00     0.313 C 
ATOM      5  O   UNL     1       6.055  -4.800  -1.675  1.00  0.00    -0.252 OA
BRANCH   4   6
ATOM      6  C   UNL     1       4.569  -6.597  -0.991  1.00  0.00     0.080 C 
ATOM      7  C   UNL     1       5.300  -6.665   0.362  1.00  0.00     0.025 C 
ATOM      8  C   UNL     1       4.255  -8.046  -1.413  1.00  0.00     0.025 C 
BRANCH   6   9
ATOM      9  C   UNL     1       3.218  -5.844  -0.873  1.00  0.00     0.139 C 
BRANCH   9  10
ATOM     10  N   UNL     1       3.256  -4.393  -0.886  1.00  0.00    -0.353 N 
ATOM     11  C   UNL     1       2.828  -2.280  -1.467  1.00  0.00     0.024 A 
ATOM     12  C   UNL     1       3.670  -2.288  -0.321  1.00  0.00     0.029 A 
ATOM     13  C   UNL     1       2.645  -3.604  -1.827  1.00  0.00     0.095 A 
ATOM     14  C   UNL     1       3.825  -3.599   0.069  1.00  0.00     0.086 A 
BRANCH  11  15
ATOM     15  C   UNL     1       2.213  -1.077  -2.095  1.00  0.00     0.299 C 
BRANCH  15  16
ATOM     16  N   UNL     1       0.753  -1.121  -1.971  1.00  0.00    -0.338 N 
ATOM     17  H   UNL     1       0.383  -0.360  -2.540  1.00  0.00     0.347 HD
ATOM     18  H   UNL     1       0.513  -2.069  -2.262  1.00  0.00     0.347 HD
BRANCH  16  19
ATOM     19  C   UNL     1       0.142  -0.998  -0.633  1.00  0.00     0.088 C 
ATOM     20  C   UNL     1       0.667   0.216   0.149  1.00  0.00     0.078 C 
ATOM     21  C   UNL     1       0.262  -2.264   0.238  1.00  0.00     0.078 C 
ATOM     22  C   UNL     1      -1.363  -0.794  -0.902  1.00  0.00     0.078 C 
ENDBRANCH  16  19
ENDBRANCH  15  16
ENDBRANCH  11  15
ENDBRANCH   9  10
ENDBRANCH   6   9
ENDBRANCH   4   6
ENDBRANCH   3   4
ENDBRANCH   2   3
ENDBRANCH   1   2
BRANCH   1  23
ATOM     23  O   UNL     1       4.416  -5.299  -5.481  1.00  0.00    -0.374 OA
BRANCH  23  24
ATOM     24  C   UNL     1       3.396  -5.974  -4.754  1.00  0.00     0.202 C 
BRANCH  24  25
ATOM     25  C   UNL     1       2.972  -7.379  -5.169  1.00  0.00     0.261 C 
BRANCH  25  26
ATOM     26  O   UNL     1       4.034  -8.321  -5.159  1.00  0.00    -0.460 OA
BRANCH  26  27
ATOM     27  C   UNL     1       4.537  -8.488  -6.401  1.00  0.00     0.338 C 
ATOM     28  O   UNL     1       4.392  -7.750  -7.362  1.00  0.00    -0.246 OA
BRANCH  27  29
ATOM     29  C   UNL     1       5.192  -9.780  -6.527  1.00  0.00     0.060 A 
ATOM     30  C   UNL     1       6.031  -9.908  -7.635  1.00  0.00     0.016 A 
ATOM     31  C   UNL     1       4.618 -10.874  -5.868  1.00  0.00     0.016 A 
ATOM     32  C   UNL     1       6.126 -11.139  -8.230  1.00  0.00     0.010 A 
ATOM     33  C   UNL     1       4.684 -12.101  -6.486  1.00  0.00     0.010 A 
ATOM     34  C   UNL     1       5.398 -12.205  -7.686  1.00  0.00    -0.014 A 
BRANCH  34  35
ATOM     35  C   UNL     1       5.612 -13.511  -8.302  1.00  0.00     0.031 A 
ATOM     36  C   UNL     1       6.904 -14.112  -7.699  1.00  0.00     0.074 A 
ATOM     37  C   UNL     1       4.724 -13.851  -9.293  1.00  0.00     0.049 A 
ATOM     38  N   UNL     1       7.791 -14.885  -8.235  1.00  0.00    -0.248 NA
ATOM     39  C   UNL     1       7.358 -13.686  -6.332  1.00  0.00     0.031 C 
ATOM     40  C   UNL     1       3.521 -13.066  -9.692  1.00  0.00     0.029 A 
ATOM     41  N   UNL     1       4.636 -14.903 -10.177  1.00  0.00    -0.354 N 
ATOM     42  C   UNL     1       8.677 -15.284  -7.206  1.00  0.00     0.074 A 
ATOM     43  C   UNL     1       8.483 -14.371  -6.130  1.00  0.00     0.031 C 
ATOM     44  C   UNL     1       2.901 -13.617 -10.768  1.00  0.00     0.029 A 
ATOM     45  C   UNL     1       3.599 -14.825 -11.163  1.00  0.00     0.049 A 
ATOM     46  H   UNL     1       5.254 -15.669 -10.134  1.00  0.00     0.167 HD
ATOM     47  C   UNL     1       9.346 -16.472  -7.239  1.00  0.00     0.034 A 
ATOM     48  C   UNL     1       3.363 -15.669 -12.226  1.00  0.00     0.034 A 
ATOM     49  C   UNL     1       9.052 -17.128  -8.472  1.00  0.00     0.049 A 
ATOM     50  C   UNL     1       4.276 -16.789 -11.956  1.00  0.00     0.074 A 
ATOM     51  C   UNL     1       9.354 -16.815  -9.770  1.00  0.00     0.029 A 
ATOM     52  N   UNL     1       8.012 -18.034  -8.450  1.00  0.00    -0.354 N 
ATOM     53  N   UNL     1       4.093 -17.679 -11.031  1.00  0.00    -0.248 NA
ATOM     54  C   UNL     1       5.528 -16.882 -12.718  1.00  0.00     0.031 C 
ATOM     55  C   UNL     1       8.145 -17.097 -10.433  1.00  0.00     0.029 A 
ATOM     56  C   UNL     1       7.294 -17.837  -9.598  1.00  0.00     0.049 A 
ATOM     57  H   UNL     1       7.823 -18.694  -7.744  1.00  0.00     0.167 HD
ATOM     58  C   UNL     1       5.347 -18.209 -10.882  1.00  0.00     0.074 A 
ATOM     59  C   UNL     1       6.046 -17.957 -12.128  1.00  0.00     0.031 C 
ATOM     60  C   UNL     1       5.906 -18.247  -9.642  1.00  0.00     0.034 A 
BRANCH  47  61
ATOM     61  C   UNL     1      10.012 -17.307  -6.175  1.00  0.00     0.023 A 
ATOM     62  C   UNL     1      10.633 -18.487  -6.651  1.00  0.00     0.031 A 
ATOM     63  C   UNL     1       9.774 -17.244  -4.797  1.00  0.00     0.131 A 
ATOM     64  C   UNL     1      10.775 -19.613  -5.839  1.00  0.00     0.055 A 
ATOM     65  C   UNL     1      10.021 -18.342  -3.959  1.00  0.00     0.041 A 
ATOM     66  F   UNL     1       9.221 -16.170  -4.220  1.00  0.00    -0.206 F 
ATOM     67  C   UNL     1      10.470 -19.552  -4.487  1.00  0.00     0.022 A 
BRANCH  64  68
ATOM     68  S   UNL     1      11.121 -21.194  -6.661  1.00  0.00     0.124 S 
ATOM     69  O   UNL     1      10.023 -21.280  -7.618  1.00  0.00    -0.237 OA
ATOM     70  O   UNL     1      12.445 -20.958  -7.229  1.00  0.00    -0.237 OA
ATOM     71  O   UNL     1      11.075 -22.160  -5.566  1.00  0.00    -0.744 OA
ENDBRANCH  64  68
ENDBRANCH  47  61
BRANCH  48  72
ATOM     72  C   UNL     1       2.553 -15.825 -13.520  1.00  0.00     0.023 A 
ATOM     73  C   UNL     1       1.534 -14.991 -14.017  1.00  0.00     0.031 A 
ATOM     74  C   UNL     1       2.902 -16.902 -14.409  1.00  0.00     0.131 A 
ATOM     75  C   UNL     1       1.008 -15.206 -15.335  1.00  0.00     0.055 A 
ATOM     76  C   UNL     1       2.465 -17.040 -15.724  1.00  0.00     0.041 A 
ATOM     77  F   UNL     1       3.705 -17.909 -14.041  1.00  0.00    -0.206 F 
ATOM     78  C   UNL     1       1.518 -16.176 -16.203  1.00  0.00     0.022 A 
BRANCH  75  79
ATOM     79  S   UNL     1      -0.380 -14.230 -16.001  1.00  0.00     0.124 S 
ATOM     80  O   UNL     1      -1.534 -15.004 -15.559  1.00  0.00    -0.237 OA
ATOM     81  O   UNL     1      -0.198 -12.927 -15.372  1.00  0.00    -0.237 OA
ATOM     82  O   UNL     1      -0.141 -14.250 -17.445  1.00  0.00    -0.744 OA
ENDBRANCH  75  79
ENDBRANCH  48  72
BRANCH  60  83
ATOM     83  C   UNL     1       4.906 -18.282  -8.479  1.00  0.00     0.023 A 
ATOM     84  C   UNL     1       3.847 -19.216  -8.479  1.00  0.00     0.031 A 
ATOM     85  C   UNL     1       4.888 -17.353  -7.423  1.00  0.00     0.131 A 
ATOM     86  C   UNL     1       2.824 -19.169  -7.509  1.00  0.00     0.055 A 
ATOM     87  C   UNL     1       3.870 -17.298  -6.457  1.00  0.00     0.041 A 
ATOM     88  F   UNL     1       5.859 -16.454  -7.283  1.00  0.00    -0.206 F 
ATOM     89  C   UNL     1       2.825 -18.207  -6.500  1.00  0.00     0.022 A 
BRANCH  86  90
ATOM     90  S   UNL     1       1.490 -20.399  -7.558  1.00  0.00     0.124 S 
ATOM     91  O   UNL     1       0.762 -20.039  -8.769  1.00  0.00    -0.237 OA
ATOM     92  O   UNL     1       2.225 -21.660  -7.602  1.00  0.00    -0.237 OA
ATOM     93  O   UNL     1       0.760 -20.164  -6.311  1.00  0.00    -0.744 OA
ENDBRANCH  86  90
ENDBRANCH  60  83
ENDBRANCH  34  35
ENDBRANCH  27  29
ENDBRANCH  26  27
ENDBRANCH  25  26
ENDBRANCH  24  25
ENDBRANCH  23  24
ENDBRANCH   1  23
TORSDOF 22
