REMARK SMILES O=C(Cc1cccn(C(F)F)c1=O)OCCOCCOC(=O)c1ccc(-c2c3nc(c(-c4cc(S(=O)(=O)[O-])ccc4F)c4ccc([nH]4)c(-c4cc(S(=O)(=O)[O-])ccc4F)c4nc(c(-c5cc(S(=O)(=O)[O-])ccc5F)c5ccc2[nH]5)C=C4)C=C3)cc1
REMARK SMILES IDX 18 1 17 2 16 3 15 4 14 5 2 6 1 7 3 8 4 9 5 10 12 11 6 12
REMARK SMILES IDX 8 13 13 14 7 15 9 16 10 17 11 18 19 19 20 20 21 21 22 22
REMARK SMILES IDX 23 23 24 24 85 25 25 26 84 27 26 28 27 29 28 30 78 31 29 32
REMARK SMILES IDX 83 33 77 34 79 35 30 36 82 37 76 38 75 39 31 41 63 42 43 43
REMARK SMILES IDX 62 44 44 45 47 46 61 47 80 48 45 49 46 50 60 52 81 53 48 54
REMARK SMILES IDX 32 55 33 56 41 57 34 58 40 59 42 60 39 61 35 62 36 63 37 64
REMARK SMILES IDX 38 65 64 66 65 67 73 68 66 69 72 70 74 71 71 72 67 73 68 74
REMARK SMILES IDX 69 75 70 76 49 77 50 78 58 79 51 80 57 81 59 82 56 83 52 84
REMARK SMILES IDX 53 85 54 86 55 87
REMARK H PARENT 79 40 47 51
REMARK Flexibility Score: inf
ROOT
ATOM      1  C   UNL     1       2.981   0.912  -2.232  1.00  0.00     0.202 C 
ENDROOT
BRANCH   1   2
ATOM      2  O   UNL     1       4.185   1.120  -1.484  1.00  0.00    -0.374 OA
BRANCH   2   3
ATOM      3  C   UNL     1       4.875  -0.039  -1.035  1.00  0.00     0.202 C 
BRANCH   3   4
ATOM      4  C   UNL     1       4.339  -0.712   0.222  1.00  0.00     0.261 C 
BRANCH   4   5
ATOM      5  O   UNL     1       2.914  -0.878   0.257  1.00  0.00    -0.463 OA
BRANCH   5   6
ATOM      6  C   UNL     1       2.038  -0.064   0.894  1.00  0.00     0.310 C 
ATOM      7  O   UNL     1       0.838  -0.343   0.900  1.00  0.00    -0.252 OA
BRANCH   6   8
ATOM      8  C   UNL     1       2.505   1.280   1.439  1.00  0.00     0.164 C 
BRANCH   8   9
ATOM      9  C   UNL     1       3.499   1.334   2.561  1.00  0.00     0.029 A 
ATOM     10  C   UNL     1       4.234   2.438   2.792  1.00  0.00     0.011 A 
ATOM     11  C   UNL     1       3.817   0.090   3.339  1.00  0.00     0.258 A 
ATOM     12  C   UNL     1       5.332   2.425   3.723  1.00  0.00     0.019 A 
ATOM     13  N   UNL     1       5.030   0.099   4.003  1.00  0.00    -0.258 N 
ATOM     14  O   UNL     1       3.086  -0.890   3.273  1.00  0.00    -0.269 OA
ATOM     15  C   UNL     1       5.734   1.262   4.247  1.00  0.00     0.095 A 
BRANCH  13  16
ATOM     16  C   UNL     1       5.524  -1.163   4.493  1.00  0.00     0.451 C 
ATOM     17  F   UNL     1       6.872  -1.219   4.312  1.00  0.00    -0.185 F 
ATOM     18  F   UNL     1       5.311  -1.247   5.829  1.00  0.00    -0.185 F 
ENDBRANCH  13  16
ENDBRANCH   8   9
ENDBRANCH   6   8
ENDBRANCH   5   6
ENDBRANCH   4   5
ENDBRANCH   3   4
ENDBRANCH   2   3
ENDBRANCH   1   2
BRANCH   1  19
ATOM     19  C   UNL     1       3.114   0.303  -3.634  1.00  0.00     0.261 C 
BRANCH  19  20
ATOM     20  O   UNL     1       3.381  -1.109  -3.579  1.00  0.00    -0.460 OA
BRANCH  20  21
ATOM     21  C   UNL     1       4.610  -1.496  -4.003  1.00  0.00     0.338 C 
ATOM     22  O   UNL     1       5.483  -0.779  -4.465  1.00  0.00    -0.246 OA
BRANCH  21  23
ATOM     23  C   UNL     1       4.835  -2.895  -3.583  1.00  0.00     0.060 A 
ATOM     24  C   UNL     1       3.888  -3.886  -3.845  1.00  0.00     0.016 A 
ATOM     25  C   UNL     1       6.032  -3.209  -2.924  1.00  0.00     0.016 A 
ATOM     26  C   UNL     1       4.163  -5.205  -3.481  1.00  0.00     0.010 A 
ATOM     27  C   UNL     1       6.304  -4.528  -2.560  1.00  0.00     0.010 A 
ATOM     28  C   UNL     1       5.383  -5.538  -2.864  1.00  0.00    -0.014 A 
BRANCH  28  29
ATOM     29  C   UNL     1       5.768  -6.964  -2.731  1.00  0.00     0.031 A 
ATOM     30  C   UNL     1       5.735  -7.678  -1.417  1.00  0.00     0.074 A 
ATOM     31  C   UNL     1       6.164  -7.604  -3.849  1.00  0.00     0.049 A 
ATOM     32  N   UNL     1       5.940  -8.945  -1.174  1.00  0.00    -0.248 NA
ATOM     33  C   UNL     1       5.445  -6.872  -0.223  1.00  0.00     0.031 C 
ATOM     34  C   UNL     1       6.280  -6.974  -5.165  1.00  0.00     0.029 A 
ATOM     35  N   UNL     1       6.530  -8.907  -4.068  1.00  0.00    -0.354 N 
ATOM     36  C   UNL     1       5.782  -9.102   0.197  1.00  0.00     0.074 A 
ATOM     37  C   UNL     1       5.518  -7.785   0.739  1.00  0.00     0.031 C 
ATOM     38  C   UNL     1       6.650  -7.898  -6.061  1.00  0.00     0.029 A 
ATOM     39  C   UNL     1       6.835  -9.177  -5.382  1.00  0.00     0.049 A 
ATOM     40  H   UNL     1       6.570  -9.584  -3.354  1.00  0.00     0.167 HD
ATOM     41  C   UNL     1       5.833 -10.246   0.920  1.00  0.00     0.034 A 
ATOM     42  C   UNL     1       7.211 -10.326  -5.979  1.00  0.00     0.034 A 
ATOM     43  C   UNL     1       6.114 -11.542   0.347  1.00  0.00     0.049 A 
ATOM     44  C   UNL     1       7.272 -11.582  -5.150  1.00  0.00     0.074 A 
ATOM     45  C   UNL     1       6.139 -12.769   0.987  1.00  0.00     0.029 A 
ATOM     46  N   UNL     1       6.426 -11.783  -0.985  1.00  0.00    -0.354 N 
ATOM     47  N   UNL     1       7.004 -11.738  -3.874  1.00  0.00    -0.248 NA
ATOM     48  C   UNL     1       7.663 -12.821  -5.834  1.00  0.00     0.031 C 
ATOM     49  C   UNL     1       6.545 -13.735   0.065  1.00  0.00     0.029 A 
ATOM     50  C   UNL     1       6.681 -13.133  -1.176  1.00  0.00     0.049 A 
ATOM     51  H   UNL     1       6.460 -11.097  -1.690  1.00  0.00     0.167 HD
ATOM     52  C   UNL     1       7.167 -13.094  -3.609  1.00  0.00     0.074 A 
ATOM     53  C   UNL     1       7.533 -13.718  -4.864  1.00  0.00     0.031 C 
ATOM     54  C   UNL     1       7.029 -13.756  -2.433  1.00  0.00     0.034 A 
BRANCH  41  55
ATOM     55  C   UNL     1       5.558 -10.188   2.404  1.00  0.00     0.023 A 
ATOM     56  C   UNL     1       6.536 -10.617   3.322  1.00  0.00     0.031 A 
ATOM     57  C   UNL     1       4.280  -9.870   2.897  1.00  0.00     0.131 A 
ATOM     58  C   UNL     1       6.206 -10.761   4.676  1.00  0.00     0.055 A 
ATOM     59  C   UNL     1       3.970  -9.970   4.254  1.00  0.00     0.041 A 
ATOM     60  F   UNL     1       3.309  -9.464   2.063  1.00  0.00    -0.206 F 
ATOM     61  C   UNL     1       4.931 -10.432   5.148  1.00  0.00     0.022 A 
BRANCH  58  62
ATOM     62  S   UNL     1       7.389 -11.456   5.863  1.00  0.00     0.124 S 
ATOM     63  O   UNL     1       7.507 -10.374   6.838  1.00  0.00    -0.237 OA
ATOM     64  O   UNL     1       6.686 -12.646   6.334  1.00  0.00    -0.237 OA
ATOM     65  O   UNL     1       8.584 -11.703   5.064  1.00  0.00    -0.744 OA
ENDBRANCH  58  62
ENDBRANCH  41  55
BRANCH  42  66
ATOM     66  C   UNL     1       7.470 -10.324  -7.449  1.00  0.00     0.023 A 
ATOM     67  C   UNL     1       8.480  -9.513  -8.001  1.00  0.00     0.031 A 
ATOM     68  C   UNL     1       6.631 -11.025  -8.331  1.00  0.00     0.131 A 
ATOM     69  C   UNL     1       8.573  -9.363  -9.390  1.00  0.00     0.055 A 
ATOM     70  C   UNL     1       6.779 -10.934  -9.716  1.00  0.00     0.041 A 
ATOM     71  F   UNL     1       5.641 -11.796  -7.855  1.00  0.00    -0.206 F 
ATOM     72  C   UNL     1       7.741 -10.084 -10.252  1.00  0.00     0.022 A 
BRANCH  69  73
ATOM     73  S   UNL     1       9.673  -8.116 -10.117  1.00  0.00     0.124 S 
ATOM     74  O   UNL     1      10.549  -8.932 -10.951  1.00  0.00    -0.237 OA
ATOM     75  O   UNL     1       8.726  -7.268 -10.837  1.00  0.00    -0.237 OA
ATOM     76  O   UNL     1      10.303  -7.495  -8.957  1.00  0.00    -0.744 OA
ENDBRANCH  69  73
ENDBRANCH  42  66
BRANCH  54  77
ATOM     77  C   UNL     1       7.261 -15.250  -2.408  1.00  0.00     0.023 A 
ATOM     78  C   UNL     1       6.221 -16.113  -2.011  1.00  0.00     0.031 A 
ATOM     79  C   UNL     1       8.539 -15.800  -2.609  1.00  0.00     0.131 A 
ATOM     80  C   UNL     1       6.490 -17.467  -1.772  1.00  0.00     0.055 A 
ATOM     81  C   UNL     1       8.788 -17.161  -2.427  1.00  0.00     0.041 A 
ATOM     82  F   UNL     1       9.568 -15.019  -2.977  1.00  0.00    -0.206 F 
ATOM     83  C   UNL     1       7.765 -17.997  -1.989  1.00  0.00     0.022 A 
BRANCH  80  84
ATOM     84  S   UNL     1       5.225 -18.563  -1.073  1.00  0.00     0.124 S 
ATOM     85  O   UNL     1       5.106 -19.587  -2.109  1.00  0.00    -0.237 OA
ATOM     86  O   UNL     1       5.855 -19.004   0.169  1.00  0.00    -0.237 OA
ATOM     87  O   UNL     1       4.059 -17.701  -0.914  1.00  0.00    -0.744 OA
ENDBRANCH  80  84
ENDBRANCH  54  77
ENDBRANCH  28  29
ENDBRANCH  21  23
ENDBRANCH  20  21
ENDBRANCH  19  20
ENDBRANCH   1  19
TORSDOF 19
