REMARK SMILES CCOC(=O)[C@@H](/C=N/c1ccnn1C1CCCCC1)C(=O)OCCOCCOC(=O)c1ccc(-c2c3nc(c(-c4cc(S(=O)(=O)[O-])ccc4F)c4ccc([nH]4)c(-c4cc(S(=O)(=O)[O-])ccc4F)c4nc(c(-c5cc(S(=O)(=O)[O-])ccc5F)c5ccc2[nH]5)C=C4)C=C3)cc1
REMARK SMILES IDX 25 1 24 2 23 3 22 4 20 5 21 6 6 7 4 8 5 9 3 10 2 11 1 12
REMARK SMILES IDX 7 13 8 14 9 15 10 16 13 17 11 18 12 19 14 20 15 21 19 22
REMARK SMILES IDX 16 23 18 24 17 25 26 26 27 27 28 28 29 29 30 30 31 31 32 32
REMARK SMILES IDX 93 33 33 34 92 35 34 36 35 37 36 38 86 39 37 40 91 41 85 42
REMARK SMILES IDX 87 43 38 44 90 45 84 46 83 47 39 49 71 50 51 51 70 52 52 53
REMARK SMILES IDX 55 54 69 55 88 56 53 57 54 58 68 60 89 61 56 62 40 63 41 64
REMARK SMILES IDX 49 65 42 66 48 67 50 68 47 69 43 70 44 71 45 72 46 73 72 74
REMARK SMILES IDX 73 75 81 76 74 77 80 78 82 79 79 80 75 81 76 82 77 83 78 84
REMARK SMILES IDX 57 85 58 86 66 87 59 88 65 89 67 90 64 91 60 92 61 93 62 94
REMARK SMILES IDX 63 95
REMARK H PARENT 87 48 55 59
REMARK Flexibility Score: inf
ROOT
ATOM      1  O   UNL     1       2.692  -0.553   7.354  1.00  0.00    -0.374 OA
ENDROOT
BRANCH   1   2
ATOM      2  C   UNL     1       1.362  -0.043   7.363  1.00  0.00     0.202 C 
BRANCH   2   3
ATOM      3  C   UNL     1       1.111   1.316   6.719  1.00  0.00     0.261 C 
BRANCH   3   4
ATOM      4  O   UNL     1       1.434   1.358   5.321  1.00  0.00    -0.462 OA
BRANCH   4   5
ATOM      5  C   UNL     1       2.587   2.013   5.010  1.00  0.00     0.325 C 
ATOM      6  O   UNL     1       3.381   2.466   5.829  1.00  0.00    -0.251 OA
BRANCH   5   7
ATOM      7  C   UNL     1       2.764   2.206   3.535  1.00  0.00     0.250 C 
BRANCH   7   8
ATOM      8  C   UNL     1       2.406   1.006   2.724  1.00  0.00     0.325 C 
ATOM      9  O   UNL     1       3.161   0.050   2.591  1.00  0.00    -0.251 OA
BRANCH   8  10
ATOM     10  O   UNL     1       1.178   1.114   2.154  1.00  0.00    -0.465 OA
BRANCH  10  11
ATOM     11  C   UNL     1       0.752   0.006   1.346  1.00  0.00     0.229 C 
ATOM     12  C   UNL     1       1.043   0.291  -0.110  1.00  0.00     0.049 C 
ENDBRANCH  10  11
ENDBRANCH   8  10
ENDBRANCH   7   8
BRANCH   7  13
ATOM     13  C   UNL     1       2.135   3.489   3.086  1.00  0.00     0.113 C 
ATOM     14  N   UNL     1       1.421   4.145   3.933  1.00  0.00    -0.240 NA
BRANCH  14  15
ATOM     15  C   UNL     1       0.954   5.363   3.610  1.00  0.00     0.150 A 
ATOM     16  C   UNL     1       0.407   5.921   2.477  1.00  0.00     0.070 A 
ATOM     17  N   UNL     1       0.904   6.356   4.572  1.00  0.00    -0.245 N 
ATOM     18  C   UNL     1       0.060   7.231   2.844  1.00  0.00     0.137 A 
ATOM     19  N   UNL     1       0.379   7.515   4.109  1.00  0.00    -0.179 NA
BRANCH  17  20
ATOM     20  C   UNL     1       1.368   6.275   5.961  1.00  0.00     0.110 C 
ATOM     21  C   UNL     1       0.622   5.205   6.779  1.00  0.00     0.027 C 
ATOM     22  C   UNL     1       2.895   6.104   6.056  1.00  0.00     0.027 C 
ATOM     23  C   UNL     1       1.126   5.123   8.220  1.00  0.00     0.002 C 
ATOM     24  C   UNL     1       3.371   6.031   7.506  1.00  0.00     0.002 C 
ATOM     25  C   UNL     1       2.640   4.949   8.293  1.00  0.00     0.000 C 
ENDBRANCH  17  20
ENDBRANCH  14  15
ENDBRANCH   7  13
ENDBRANCH   5   7
ENDBRANCH   4   5
ENDBRANCH   3   4
ENDBRANCH   2   3
ENDBRANCH   1   2
BRANCH   1  26
ATOM     26  C   UNL     1       3.300  -0.941   6.126  1.00  0.00     0.202 C 
BRANCH  26  27
ATOM     27  C   UNL     1       2.704  -2.102   5.347  1.00  0.00     0.261 C 
BRANCH  27  28
ATOM     28  O   UNL     1       1.347  -1.885   4.989  1.00  0.00    -0.460 OA
BRANCH  28  29
ATOM     29  C   UNL     1       0.468  -2.653   5.684  1.00  0.00     0.338 C 
ATOM     30  O   UNL     1       0.635  -3.144   6.780  1.00  0.00    -0.246 OA
BRANCH  29  31
ATOM     31  C   UNL     1      -0.678  -2.942   4.813  1.00  0.00     0.060 A 
ATOM     32  C   UNL     1      -1.623  -3.844   5.287  1.00  0.00     0.016 A 
ATOM     33  C   UNL     1      -0.635  -2.562   3.466  1.00  0.00     0.016 A 
ATOM     34  C   UNL     1      -2.368  -4.539   4.360  1.00  0.00     0.010 A 
ATOM     35  C   UNL     1      -1.371  -3.254   2.539  1.00  0.00     0.010 A 
ATOM     36  C   UNL     1      -2.155  -4.303   2.992  1.00  0.00    -0.014 A 
BRANCH  36  37
ATOM     37  C   UNL     1      -2.911  -5.077   2.034  1.00  0.00     0.031 A 
ATOM     38  C   UNL     1      -4.344  -4.740   2.097  1.00  0.00     0.074 A 
ATOM     39  C   UNL     1      -2.372  -5.941   1.153  1.00  0.00     0.049 A 
ATOM     40  N   UNL     1      -5.254  -5.417   2.711  1.00  0.00    -0.248 NA
ATOM     41  C   UNL     1      -4.769  -3.390   1.694  1.00  0.00     0.031 C 
ATOM     42  C   UNL     1      -0.963  -6.194   0.855  1.00  0.00     0.029 A 
ATOM     43  N   UNL     1      -3.015  -6.752   0.270  1.00  0.00    -0.354 N 
ATOM     44  C   UNL     1      -6.428  -4.715   2.504  1.00  0.00     0.074 A 
ATOM     45  C   UNL     1      -6.030  -3.386   2.129  1.00  0.00     0.031 C 
ATOM     46  C   UNL     1      -0.869  -6.927  -0.282  1.00  0.00     0.029 A 
ATOM     47  C   UNL     1      -2.206  -7.301  -0.722  1.00  0.00     0.049 A 
ATOM     48  H   UNL     1      -3.980  -6.938   0.328  1.00  0.00     0.167 HD
ATOM     49  C   UNL     1      -7.599  -5.388   2.348  1.00  0.00     0.034 A 
ATOM     50  C   UNL     1      -2.622  -7.969  -1.837  1.00  0.00     0.034 A 
ATOM     51  C   UNL     1      -7.478  -6.749   2.839  1.00  0.00     0.049 A 
ATOM     52  C   UNL     1      -3.977  -8.504  -1.528  1.00  0.00     0.074 A 
ATOM     53  C   UNL     1      -7.113  -7.306   4.052  1.00  0.00     0.029 A 
ATOM     54  N   UNL     1      -7.337  -7.763   1.914  1.00  0.00    -0.354 N 
ATOM     55  N   UNL     1      -4.180  -9.428  -0.628  1.00  0.00    -0.248 NA
ATOM     56  C   UNL     1      -5.130  -7.658  -1.806  1.00  0.00     0.031 C 
ATOM     57  C   UNL     1      -6.300  -8.429   3.713  1.00  0.00     0.029 A 
ATOM     58  C   UNL     1      -6.296  -8.566   2.323  1.00  0.00     0.049 A 
ATOM     59  H   UNL     1      -7.883  -7.891   1.105  1.00  0.00     0.167 HD
ATOM     60  C   UNL     1      -5.285  -8.995   0.090  1.00  0.00     0.074 A 
ATOM     61  C   UNL     1      -5.883  -7.947  -0.739  1.00  0.00     0.031 C 
ATOM     62  C   UNL     1      -5.439  -9.308   1.413  1.00  0.00     0.034 A 
BRANCH  49  63
ATOM     63  C   UNL     1      -8.678  -4.968   1.377  1.00  0.00     0.023 A 
ATOM     64  C   UNL     1      -9.814  -5.791   1.311  1.00  0.00     0.031 A 
ATOM     65  C   UNL     1      -8.540  -4.025   0.330  1.00  0.00     0.131 A 
ATOM     66  C   UNL     1     -10.663  -5.756   0.194  1.00  0.00     0.055 A 
ATOM     67  C   UNL     1      -9.429  -3.946  -0.744  1.00  0.00     0.041 A 
ATOM     68  F   UNL     1      -7.502  -3.190   0.223  1.00  0.00    -0.206 F 
ATOM     69  C   UNL     1     -10.477  -4.841  -0.837  1.00  0.00     0.022 A 
BRANCH  66  70
ATOM     70  S   UNL     1     -11.898  -7.065   0.030  1.00  0.00     0.124 S 
ATOM     71  O   UNL     1     -11.065  -8.259   0.119  1.00  0.00    -0.237 OA
ATOM     72  O   UNL     1     -12.767  -6.798   1.171  1.00  0.00    -0.237 OA
ATOM     73  O   UNL     1     -12.490  -6.808  -1.280  1.00  0.00    -0.744 OA
ENDBRANCH  66  70
ENDBRANCH  49  63
BRANCH  50  74
ATOM     74  C   UNL     1      -2.088  -7.833  -3.229  1.00  0.00     0.023 A 
ATOM     75  C   UNL     1      -2.400  -8.733  -4.279  1.00  0.00     0.031 A 
ATOM     76  C   UNL     1      -1.445  -6.633  -3.608  1.00  0.00     0.131 A 
ATOM     77  C   UNL     1      -2.073  -8.411  -5.622  1.00  0.00     0.055 A 
ATOM     78  C   UNL     1      -1.131  -6.320  -4.932  1.00  0.00     0.041 A 
ATOM     79  F   UNL     1      -1.178  -5.672  -2.710  1.00  0.00    -0.206 F 
ATOM     80  C   UNL     1      -1.453  -7.203  -5.947  1.00  0.00     0.022 A 
BRANCH  77  81
ATOM     81  S   UNL     1      -2.526  -9.520  -7.003  1.00  0.00     0.124 S 
ATOM     82  O   UNL     1      -1.638 -10.658  -6.793  1.00  0.00    -0.237 OA
ATOM     83  O   UNL     1      -3.947  -9.752  -6.771  1.00  0.00    -0.237 OA
ATOM     84  O   UNL     1      -2.226  -8.723  -8.195  1.00  0.00    -0.744 OA
ENDBRANCH  77  81
ENDBRANCH  50  74
BRANCH  62  85
ATOM     85  C   UNL     1      -4.530 -10.371   2.012  1.00  0.00     0.023 A 
ATOM     86  C   UNL     1      -3.115 -10.364   1.956  1.00  0.00     0.031 A 
ATOM     87  C   UNL     1      -5.138 -11.406   2.745  1.00  0.00     0.131 A 
ATOM     88  C   UNL     1      -2.373 -11.384   2.587  1.00  0.00     0.055 A 
ATOM     89  C   UNL     1      -4.401 -12.397   3.392  1.00  0.00     0.041 A 
ATOM     90  F   UNL     1      -6.475 -11.463   2.864  1.00  0.00    -0.206 F 
ATOM     91  C   UNL     1      -3.014 -12.397   3.306  1.00  0.00     0.022 A 
BRANCH  88  92
ATOM     92  S   UNL     1      -0.556 -11.444   2.446  1.00  0.00     0.124 S 
ATOM     93  O   UNL     1      -0.312 -11.179   1.033  1.00  0.00    -0.237 OA
ATOM     94  O   UNL     1      -0.133 -10.397   3.373  1.00  0.00    -0.237 OA
ATOM     95  O   UNL     1      -0.227 -12.804   2.876  1.00  0.00    -0.744 OA
ENDBRANCH  88  92
ENDBRANCH  62  85
ENDBRANCH  36  37
ENDBRANCH  29  31
ENDBRANCH  28  29
ENDBRANCH  27  28
ENDBRANCH  26  27
ENDBRANCH   1  26
TORSDOF 23
