REMARK SMILES CC[C@@](C)([NH2+]Cc1ccc(C(N)=O)cc1F)C(=O)OCCOCCOC(=O)c1ccc(-c2c3nc(c(-c4cc(S(=O)(=O)[O-])ccc4F)c4ccc([nH]4)c(-c4cc(S(=O)(=O)[O-])ccc4F)c4nc(c(-c5cc(S(=O)(=O)[O-])ccc5F)c5ccc2[nH]5)C=C4)C=C3)cc1
REMARK SMILES IDX 21 1 20 2 19 3 17 4 18 5 3 6 4 7 2 8 1 9 5 10 6 13 7 14 8 15
REMARK SMILES IDX 15 16 9 17 14 18 16 19 10 20 11 21 12 22 13 23 22 26 23 27
REMARK SMILES IDX 24 28 25 29 26 30 27 31 28 32 29 33 90 34 30 35 89 36 31 37
REMARK SMILES IDX 32 38 33 39 83 40 34 41 88 42 82 43 84 44 35 45 87 46 81 47
REMARK SMILES IDX 80 48 36 50 68 51 48 52 67 53 49 54 52 55 66 56 85 57 50 58
REMARK SMILES IDX 51 59 65 61 86 62 53 63 37 64 38 65 46 66 39 67 45 68 47 69
REMARK SMILES IDX 44 70 40 71 41 72 42 73 43 74 69 75 70 76 78 77 71 78 77 79
REMARK SMILES IDX 79 80 76 81 72 82 73 83 74 84 75 85 54 86 55 87 63 88 56 89
REMARK SMILES IDX 62 90 64 91 61 92 57 93 58 94 59 95 60 96
REMARK H PARENT 5 11 5 12 12 24 12 25 84 49 52 60
REMARK Flexibility Score: inf
ROOT
ATOM      1  C   UNL     1       5.287  -0.471   2.932  1.00  0.00     0.202 C 
ENDROOT
BRANCH   1   2
ATOM      2  C   UNL     1       4.599   0.821   2.487  1.00  0.00     0.261 C 
BRANCH   2   3
ATOM      3  O   UNL     1       3.195   0.734   2.764  1.00  0.00    -0.459 OA
BRANCH   3   4
ATOM      4  C   UNL     1       2.353   0.984   1.736  1.00  0.00     0.367 C 
ATOM      5  O   UNL     1       2.713   1.491   0.676  1.00  0.00    -0.245 OA
BRANCH   4   6
ATOM      6  C   UNL     1       0.880   0.573   2.006  1.00  0.00     0.191 C 
ATOM      7  C   UNL     1       0.027   1.837   1.814  1.00  0.00     0.092 C 
BRANCH   6   8
ATOM      8  C   UNL     1       0.445  -0.511   0.962  1.00  0.00     0.077 C 
ATOM      9  C   UNL     1       0.653  -0.208  -0.518  1.00  0.00     0.011 C 
ENDBRANCH   6   8
BRANCH   6  10
ATOM     10  N   UNL     1       0.590  -0.135   3.302  1.00  0.00    -0.329 N 
ATOM     11  H   UNL     1       1.018  -1.058   3.223  1.00  0.00     0.347 HD
ATOM     12  H   UNL     1      -0.425  -0.058   3.361  1.00  0.00     0.347 HD
BRANCH  10  13
ATOM     13  C   UNL     1       1.011   0.401   4.601  1.00  0.00     0.301 C 
BRANCH  13  14
ATOM     14  C   UNL     1       0.448   1.751   4.931  1.00  0.00     0.042 A 
ATOM     15  C   UNL     1      -0.937   1.964   4.987  1.00  0.00     0.013 A 
ATOM     16  C   UNL     1       1.302   2.844   5.087  1.00  0.00     0.132 A 
ATOM     17  C   UNL     1      -1.447   3.263   5.050  1.00  0.00     0.014 A 
ATOM     18  C   UNL     1       0.805   4.138   5.163  1.00  0.00     0.053 A 
ATOM     19  F   UNL     1       2.630   2.662   5.087  1.00  0.00    -0.206 F 
ATOM     20  C   UNL     1      -0.575   4.361   5.090  1.00  0.00     0.042 A 
BRANCH  20  21
ATOM     21  C   UNL     1      -1.038   5.772   4.976  1.00  0.00     0.248 C 
ATOM     22  N   UNL     1      -2.375   6.017   4.841  1.00  0.00    -0.366 N 
ATOM     23  O   UNL     1      -0.246   6.706   4.957  1.00  0.00    -0.270 OA
ATOM     24  H   UNL     1      -3.017   5.271   4.856  1.00  0.00     0.159 HD
ATOM     25  H   UNL     1      -2.697   6.941   4.729  1.00  0.00     0.159 HD
ENDBRANCH  20  21
ENDBRANCH  13  14
ENDBRANCH  10  13
ENDBRANCH   6  10
ENDBRANCH   4   6
ENDBRANCH   3   4
ENDBRANCH   2   3
ENDBRANCH   1   2
BRANCH   1  26
ATOM     26  O   UNL     1       4.878  -1.661   2.252  1.00  0.00    -0.374 OA
BRANCH  26  27
ATOM     27  C   UNL     1       3.608  -2.213   2.601  1.00  0.00     0.202 C 
BRANCH  27  28
ATOM     28  C   UNL     1       3.520  -3.007   3.908  1.00  0.00     0.261 C 
BRANCH  28  29
ATOM     29  O   UNL     1       3.785  -2.202   5.070  1.00  0.00    -0.460 OA
BRANCH  29  30
ATOM     30  C   UNL     1       4.988  -2.443   5.644  1.00  0.00     0.338 C 
ATOM     31  O   UNL     1       5.793  -3.307   5.319  1.00  0.00    -0.246 OA
BRANCH  30  32
ATOM     32  C   UNL     1       5.312  -1.402   6.636  1.00  0.00     0.060 A 
ATOM     33  C   UNL     1       6.582  -0.818   6.548  1.00  0.00     0.016 A 
ATOM     34  C   UNL     1       4.451  -1.075   7.687  1.00  0.00     0.016 A 
ATOM     35  C   UNL     1       7.029   0.032   7.553  1.00  0.00     0.010 A 
ATOM     36  C   UNL     1       4.906  -0.224   8.703  1.00  0.00     0.010 A 
ATOM     37  C   UNL     1       6.216   0.288   8.665  1.00  0.00    -0.014 A 
BRANCH  37  38
ATOM     38  C   UNL     1       6.837   0.910   9.862  1.00  0.00     0.031 A 
ATOM     39  C   UNL     1       7.295   0.011  10.981  1.00  0.00     0.074 A 
ATOM     40  C   UNL     1       7.088   2.231   9.904  1.00  0.00     0.049 A 
ATOM     41  N   UNL     1       7.901   0.322  12.098  1.00  0.00    -0.248 NA
ATOM     42  C   UNL     1       7.045  -1.431  10.817  1.00  0.00     0.031 C 
ATOM     43  C   UNL     1       6.749   3.188   8.852  1.00  0.00     0.029 A 
ATOM     44  N   UNL     1       7.709   2.992  10.864  1.00  0.00    -0.354 N 
ATOM     45  C   UNL     1       8.107  -0.881  12.764  1.00  0.00     0.074 A 
ATOM     46  C   UNL     1       7.531  -1.925  11.946  1.00  0.00     0.031 C 
ATOM     47  C   UNL     1       7.178   4.409   9.218  1.00  0.00     0.029 A 
ATOM     48  C   UNL     1       7.793   4.327  10.542  1.00  0.00     0.049 A 
ATOM     49  H   UNL     1       8.060   2.618  11.704  1.00  0.00     0.167 HD
ATOM     50  C   UNL     1       8.736  -1.098  13.943  1.00  0.00     0.034 A 
ATOM     51  C   UNL     1       8.298   5.364  11.242  1.00  0.00     0.034 A 
ATOM     52  C   UNL     1       9.322  -0.057  14.744  1.00  0.00     0.049 A 
ATOM     53  C   UNL     1       8.912   5.109  12.596  1.00  0.00     0.074 A 
ATOM     54  C   UNL     1       9.994  -0.176  15.947  1.00  0.00     0.029 A 
ATOM     55  N   UNL     1       9.305   1.293  14.425  1.00  0.00    -0.354 N 
ATOM     56  N   UNL     1       9.075   3.967  13.223  1.00  0.00    -0.248 NA
ATOM     57  C   UNL     1       9.404   6.278  13.340  1.00  0.00     0.031 C 
ATOM     58  C   UNL     1      10.330   1.107  16.387  1.00  0.00     0.029 A 
ATOM     59  C   UNL     1       9.924   2.021  15.427  1.00  0.00     0.049 A 
ATOM     60  H   UNL     1       8.911   1.676  13.609  1.00  0.00     0.167 HD
ATOM     61  C   UNL     1       9.703   4.280  14.426  1.00  0.00     0.074 A 
ATOM     62  C   UNL     1       9.894   5.715  14.437  1.00  0.00     0.031 C 
ATOM     63  C   UNL     1      10.092   3.453  15.427  1.00  0.00     0.034 A 
BRANCH  50  64
ATOM     64  C   UNL     1       8.795  -2.510  14.460  1.00  0.00     0.023 A 
ATOM     65  C   UNL     1       9.619  -3.478  13.864  1.00  0.00     0.031 A 
ATOM     66  C   UNL     1       8.045  -2.877  15.590  1.00  0.00     0.131 A 
ATOM     67  C   UNL     1       9.653  -4.779  14.388  1.00  0.00     0.055 A 
ATOM     68  C   UNL     1       8.124  -4.156  16.139  1.00  0.00     0.041 A 
ATOM     69  F   UNL     1       7.228  -1.991  16.183  1.00  0.00    -0.206 F 
ATOM     70  C   UNL     1       8.930  -5.117  15.536  1.00  0.00     0.022 A 
BRANCH  67  71
ATOM     71  S   UNL     1      10.617  -6.047  13.521  1.00  0.00     0.124 S 
ATOM     72  O   UNL     1       9.867  -6.185  12.275  1.00  0.00    -0.237 OA
ATOM     73  O   UNL     1      11.932  -5.427  13.409  1.00  0.00    -0.237 OA
ATOM     74  O   UNL     1      10.548  -7.201  14.415  1.00  0.00    -0.744 OA
ENDBRANCH  67  71
ENDBRANCH  50  64
BRANCH  51  75
ATOM     75  C   UNL     1       8.206   6.748  10.697  1.00  0.00     0.023 A 
ATOM     76  C   UNL     1       9.353   7.464  10.321  1.00  0.00     0.031 A 
ATOM     77  C   UNL     1       6.957   7.381  10.565  1.00  0.00     0.131 A 
ATOM     78  C   UNL     1       9.230   8.782   9.852  1.00  0.00     0.055 A 
ATOM     79  C   UNL     1       6.837   8.676  10.060  1.00  0.00     0.041 A 
ATOM     80  F   UNL     1       5.831   6.739  10.914  1.00  0.00    -0.206 F 
ATOM     81  C   UNL     1       7.979   9.387   9.706  1.00  0.00     0.022 A 
BRANCH  78  82
ATOM     82  S   UNL     1      10.736   9.717   9.468  1.00  0.00     0.124 S 
ATOM     83  O   UNL     1      11.377   9.798  10.776  1.00  0.00    -0.237 OA
ATOM     84  O   UNL     1      11.388   8.857   8.485  1.00  0.00    -0.237 OA
ATOM     85  O   UNL     1      10.227  10.982   8.943  1.00  0.00    -0.744 OA
ENDBRANCH  78  82
ENDBRANCH  51  75
BRANCH  63  86
ATOM     86  C   UNL     1      10.780   4.065  16.616  1.00  0.00     0.023 A 
ATOM     87  C   UNL     1      10.061   4.786  17.583  1.00  0.00     0.031 A 
ATOM     88  C   UNL     1      12.153   3.851  16.825  1.00  0.00     0.131 A 
ATOM     89  C   UNL     1      10.724   5.281  18.715  1.00  0.00     0.055 A 
ATOM     90  C   UNL     1      12.800   4.312  17.971  1.00  0.00     0.041 A 
ATOM     91  F   UNL     1      12.879   3.159  15.932  1.00  0.00    -0.206 F 
ATOM     92  C   UNL     1      12.085   5.033  18.924  1.00  0.00     0.022 A 
BRANCH  89  93
ATOM     93  S   UNL     1       9.787   6.260  19.920  1.00  0.00     0.124 S 
ATOM     94  O   UNL     1       9.480   7.465  19.156  1.00  0.00    -0.237 OA
ATOM     95  O   UNL     1       8.653   5.392  20.223  1.00  0.00    -0.237 OA
ATOM     96  O   UNL     1      10.732   6.446  21.020  1.00  0.00    -0.744 OA
ENDBRANCH  89  93
ENDBRANCH  63  86
ENDBRANCH  37  38
ENDBRANCH  30  32
ENDBRANCH  29  30
ENDBRANCH  28  29
ENDBRANCH  27  28
ENDBRANCH  26  27
ENDBRANCH   1  26
TORSDOF 22
