REMARK SMILES Cc1cnn([C@H]2CC[C@@]([NH3+])(C(=O)OCCOCCOC(=O)c3ccc(-c4c5nc(c(-c6cc(S(=O)(=O)[O-])ccc6F)c6ccc([nH]6)c(-c6cc(S(=O)(=O)[O-])ccc6F)c6nc(c(-c7cc(S(=O)(=O)[O-])ccc7F)c7ccc4[nH]7)C=C6)C=C5)cc3)C2)c1
REMARK SMILES IDX 17 1 16 2 15 3 14 4 13 5 11 6 12 7 9 8 6 9 7 10 85 11 8 12
REMARK SMILES IDX 5 13 1 14 2 15 3 16 86 17 4 18 10 19 18 23 19 24 20 25 21 26
REMARK SMILES IDX 22 27 23 28 84 29 24 30 83 31 25 32 26 33 27 34 77 35 28 36
REMARK SMILES IDX 82 37 76 38 78 39 29 40 81 41 75 42 74 43 30 45 62 46 42 47
REMARK SMILES IDX 61 48 43 49 46 50 60 51 79 52 44 53 45 54 59 56 80 57 47 58
REMARK SMILES IDX 31 59 32 60 40 61 33 62 39 63 41 64 38 65 34 66 35 67 36 68
REMARK SMILES IDX 37 69 63 70 64 71 72 72 65 73 71 74 73 75 70 76 66 77 67 78
REMARK SMILES IDX 68 79 69 80 48 81 49 82 57 83 50 84 56 85 58 86 55 87 51 88
REMARK SMILES IDX 52 89 53 90 54 91
REMARK H PARENT 10 20 10 21 10 22 78 44 46 55
REMARK Flexibility Score: inf
ROOT
ATOM      1  C   UNL     1      -1.924   2.919   7.509  1.00  0.00     0.202 C 
ENDROOT
BRANCH   1   2
ATOM      2  O   UNL     1      -1.336   2.949   8.807  1.00  0.00    -0.374 OA
BRANCH   2   3
ATOM      3  C   UNL     1      -1.151   4.278   9.301  1.00  0.00     0.202 C 
BRANCH   3   4
ATOM      4  C   UNL     1       0.039   5.003   8.667  1.00  0.00     0.261 C 
BRANCH   4   5
ATOM      5  O   UNL     1      -0.029   4.998   7.223  1.00  0.00    -0.459 OA
BRANCH   5   6
ATOM      6  C   UNL     1       0.818   4.133   6.591  1.00  0.00     0.368 C 
ATOM      7  O   UNL     1       1.702   3.496   7.157  1.00  0.00    -0.245 OA
BRANCH   6   8
ATOM      8  C   UNL     1       0.644   4.133   5.037  1.00  0.00     0.194 C 
ATOM      9  C   UNL     1       0.042   1.869   4.202  1.00  0.00     0.114 C 
ATOM     10  C   UNL     1      -1.129   2.821   3.898  1.00  0.00     0.034 C 
ATOM     11  C   UNL     1       1.219   2.838   4.414  1.00  0.00     0.108 C 
ATOM     12  C   UNL     1      -0.799   4.191   4.508  1.00  0.00     0.083 C 
BRANCH   9  13
ATOM     13  N   UNL     1      -0.247   0.884   5.236  1.00  0.00    -0.269 N 
ATOM     14  C   UNL     1      -0.301  -0.515   8.596  1.00  0.00     0.048 C 
ATOM     15  C   UNL     1      -0.423  -0.171   7.161  1.00  0.00    -0.013 A 
ATOM     16  C   UNL     1      -1.482  -0.484   6.284  1.00  0.00     0.138 A 
ATOM     17  C   UNL     1       0.426   0.603   6.391  1.00  0.00     0.112 A 
ATOM     18  N   UNL     1      -1.355   0.122   5.101  1.00  0.00    -0.181 NA
ENDBRANCH   9  13
BRANCH   8  19
ATOM     19  N   UNL     1       1.395   5.313   4.545  1.00  0.00    -0.343 N 
ATOM     20  H   UNL     1       1.008   6.160   4.961  1.00  0.00     0.345 HD
ATOM     21  H   UNL     1       1.317   5.367   3.529  1.00  0.00     0.345 HD
ATOM     22  H   UNL     1       2.377   5.224   4.806  1.00  0.00     0.345 HD
ENDBRANCH   8  19
ENDBRANCH   6   8
ENDBRANCH   5   6
ENDBRANCH   4   5
ENDBRANCH   3   4
ENDBRANCH   2   3
ENDBRANCH   1   2
BRANCH   1  23
ATOM     23  C   UNL     1      -3.166   2.049   7.422  1.00  0.00     0.261 C 
BRANCH  23  24
ATOM     24  O   UNL     1      -4.293   2.890   7.583  1.00  0.00    -0.460 OA
BRANCH  24  25
ATOM     25  C   UNL     1      -4.363   3.557   8.754  1.00  0.00     0.338 C 
ATOM     26  O   UNL     1      -3.943   3.241   9.850  1.00  0.00    -0.246 OA
BRANCH  25  27
ATOM     27  C   UNL     1      -5.138   4.743   8.419  1.00  0.00     0.060 A 
ATOM     28  C   UNL     1      -6.294   4.865   9.167  1.00  0.00     0.016 A 
ATOM     29  C   UNL     1      -4.958   5.345   7.154  1.00  0.00     0.016 A 
ATOM     30  C   UNL     1      -7.396   5.327   8.502  1.00  0.00     0.010 A 
ATOM     31  C   UNL     1      -6.066   5.816   6.497  1.00  0.00     0.010 A 
ATOM     32  C   UNL     1      -7.286   5.703   7.149  1.00  0.00    -0.014 A 
BRANCH  32  33
ATOM     33  C   UNL     1      -8.499   6.164   6.524  1.00  0.00     0.031 A 
ATOM     34  C   UNL     1      -8.901   7.459   7.095  1.00  0.00     0.074 A 
ATOM     35  C   UNL     1      -9.197   5.504   5.588  1.00  0.00     0.049 A 
ATOM     36  N   UNL     1      -9.742   7.629   8.056  1.00  0.00    -0.248 NA
ATOM     37  C   UNL     1      -8.068   8.632   6.798  1.00  0.00     0.031 C 
ATOM     38  C   UNL     1      -8.823   4.347   4.781  1.00  0.00     0.029 A 
ATOM     39  N   UNL     1     -10.435   5.813   5.127  1.00  0.00    -0.354 N 
ATOM     40  C   UNL     1      -9.726   8.987   8.316  1.00  0.00     0.074 A 
ATOM     41  C   UNL     1      -8.523   9.490   7.712  1.00  0.00     0.031 C 
ATOM     42  C   UNL     1      -9.722   4.204   3.775  1.00  0.00     0.029 A 
ATOM     43  C   UNL     1     -10.797   5.171   3.953  1.00  0.00     0.049 A 
ATOM     44  H   UNL     1     -11.031   6.445   5.591  1.00  0.00     0.167 HD
ATOM     45  C   UNL     1     -10.848   9.610   8.760  1.00  0.00     0.034 A 
ATOM     46  C   UNL     1     -11.858   5.503   3.166  1.00  0.00     0.034 A 
ATOM     47  C   UNL     1     -11.805   8.648   9.272  1.00  0.00     0.049 A 
ATOM     48  C   UNL     1     -12.835   6.209   4.044  1.00  0.00     0.074 A 
ATOM     49  C   UNL     1     -11.774   7.700  10.280  1.00  0.00     0.029 A 
ATOM     50  N   UNL     1     -12.857   8.286   8.458  1.00  0.00    -0.354 N 
ATOM     51  N   UNL     1     -13.463   5.619   5.026  1.00  0.00    -0.248 NA
ATOM     52  C   UNL     1     -12.725   7.658   4.173  1.00  0.00     0.031 C 
ATOM     53  C   UNL     1     -12.470   6.573   9.750  1.00  0.00     0.029 A 
ATOM     54  C   UNL     1     -12.960   6.915   8.488  1.00  0.00     0.049 A 
ATOM     55  H   UNL     1     -13.432   8.899   7.946  1.00  0.00     0.167 HD
ATOM     56  C   UNL     1     -13.434   6.526   6.077  1.00  0.00     0.074 A 
ATOM     57  C   UNL     1     -13.041   7.796   5.465  1.00  0.00     0.031 C 
ATOM     58  C   UNL     1     -13.444   6.110   7.379  1.00  0.00     0.034 A 
BRANCH  45  59
ATOM     59  C   UNL     1     -11.240  11.006   8.346  1.00  0.00     0.023 A 
ATOM     60  C   UNL     1     -12.450  11.495   8.863  1.00  0.00     0.031 A 
ATOM     61  C   UNL     1     -10.680  11.748   7.279  1.00  0.00     0.131 A 
ATOM     62  C   UNL     1     -13.107  12.573   8.252  1.00  0.00     0.055 A 
ATOM     63  C   UNL     1     -11.304  12.864   6.720  1.00  0.00     0.041 A 
ATOM     64  F   UNL     1      -9.556  11.396   6.647  1.00  0.00    -0.206 F 
ATOM     65  C   UNL     1     -12.544  13.261   7.181  1.00  0.00     0.022 A 
BRANCH  62  66
ATOM     66  S   UNL     1     -14.800  12.935   8.768  1.00  0.00     0.124 S 
ATOM     67  O   UNL     1     -15.450  11.646   8.559  1.00  0.00    -0.237 OA
ATOM     68  O   UNL     1     -14.608  13.344  10.155  1.00  0.00    -0.237 OA
ATOM     69  O   UNL     1     -15.210  13.999   7.855  1.00  0.00    -0.744 OA
ENDBRANCH  62  66
ENDBRANCH  45  59
BRANCH  46  70
ATOM     70  C   UNL     1     -11.853   5.622   1.677  1.00  0.00     0.023 A 
ATOM     71  C   UNL     1     -13.038   5.757   0.918  1.00  0.00     0.031 A 
ATOM     72  C   UNL     1     -10.639   5.860   0.991  1.00  0.00     0.131 A 
ATOM     73  C   UNL     1     -12.974   6.117  -0.452  1.00  0.00     0.055 A 
ATOM     74  C   UNL     1     -10.583   6.215  -0.358  1.00  0.00     0.041 A 
ATOM     75  F   UNL     1      -9.459   5.846   1.629  1.00  0.00    -0.206 F 
ATOM     76  C   UNL     1     -11.752   6.356  -1.084  1.00  0.00     0.022 A 
BRANCH  73  77
ATOM     77  S   UNL     1     -14.496   6.379  -1.422  1.00  0.00     0.124 S 
ATOM     78  O   UNL     1     -14.986   5.018  -1.601  1.00  0.00    -0.237 OA
ATOM     79  O   UNL     1     -15.283   7.244  -0.550  1.00  0.00    -0.237 OA
ATOM     80  O   UNL     1     -14.014   7.024  -2.645  1.00  0.00    -0.744 OA
ENDBRANCH  73  77
ENDBRANCH  46  70
BRANCH  58  81
ATOM     81  C   UNL     1     -13.799   4.664   7.677  1.00  0.00     0.023 A 
ATOM     82  C   UNL     1     -13.146   3.531   7.137  1.00  0.00     0.031 A 
ATOM     83  C   UNL     1     -14.795   4.437   8.645  1.00  0.00     0.131 A 
ATOM     84  C   UNL     1     -13.513   2.236   7.561  1.00  0.00     0.055 A 
ATOM     85  C   UNL     1     -15.137   3.158   9.079  1.00  0.00     0.041 A 
ATOM     86  F   UNL     1     -15.440   5.470   9.214  1.00  0.00    -0.206 F 
ATOM     87  C   UNL     1     -14.502   2.051   8.532  1.00  0.00     0.022 A 
BRANCH  84  88
ATOM     88  S   UNL     1     -12.737   0.756   6.832  1.00  0.00     0.124 S 
ATOM     89  O   UNL     1     -12.719   1.045   5.403  1.00  0.00    -0.237 OA
ATOM     90  O   UNL     1     -11.436   0.726   7.495  1.00  0.00    -0.237 OA
ATOM     91  O   UNL     1     -13.642  -0.328   7.223  1.00  0.00    -0.744 OA
ENDBRANCH  84  88
ENDBRANCH  58  81
ENDBRANCH  32  33
ENDBRANCH  25  27
ENDBRANCH  24  25
ENDBRANCH  23  24
ENDBRANCH   1  23
TORSDOF 19
