REMARK SMILES Cc1ccc(C(=O)OCCOCCOC(=O)c2ccc(-c3c4nc(c(-c5cc(S(=O)(=O)[O-])ccc5F)c5ccc([nH]5)c(-c5cc(S(=O)(=O)[O-])ccc5F)c5nc(c(-c6cc(S(=O)(=O)[O-])ccc6F)c6ccc3[nH]6)C=C5)C=C4)cc2)cc1N1C(=O)/C(=C\c2nc3ccccc3n2C)SC1=S
REMARK SMILES IDX 12 1 11 2 10 3 9 4 8 5 6 6 7 7 5 8 1 9 2 10 3 11 81 12 4 13
REMARK SMILES IDX 80 14 82 15 83 16 98 17 84 18 85 19 97 20 99 21 86 22 87 23
REMARK SMILES IDX 88 24 95 25 89 26 94 27 96 28 90 29 93 30 91 31 92 32 13 33
REMARK SMILES IDX 14 34 15 35 16 36 17 37 18 38 79 39 19 40 78 41 20 42 21 43
REMARK SMILES IDX 22 44 72 45 23 46 77 47 71 48 73 49 24 50 76 51 70 52 69 53
REMARK SMILES IDX 25 55 57 56 37 57 56 58 38 59 41 60 55 61 74 62 39 63 40 64
REMARK SMILES IDX 54 66 75 67 42 68 26 69 27 70 35 71 28 72 34 73 36 74 33 75
REMARK SMILES IDX 29 76 30 77 31 78 32 79 58 80 59 81 67 82 60 83 66 84 68 85
REMARK SMILES IDX 65 86 61 87 62 88 63 89 64 90 43 91 44 92 52 93 45 94 51 95
REMARK SMILES IDX 53 96 50 97 46 98 47 99 48 100 49 101
REMARK H PARENT 73 54 41 65
REMARK Flexibility Score: inf
ROOT
ATOM      1  C   UNL     1      -3.591  -1.027  -3.824  1.00  0.00     0.202 C 
ENDROOT
BRANCH   1   2
ATOM      2  O   UNL     1      -3.767  -0.397  -2.579  1.00  0.00    -0.374 OA
BRANCH   2   3
ATOM      3  C   UNL     1      -3.636   1.020  -2.588  1.00  0.00     0.202 C 
BRANCH   3   4
ATOM      4  C   UNL     1      -3.962   1.431  -1.194  1.00  0.00     0.261 C 
BRANCH   4   5
ATOM      5  O   UNL     1      -2.884   1.154  -0.296  1.00  0.00    -0.460 OA
BRANCH   5   6
ATOM      6  C   UNL     1      -2.551  -0.121   0.026  1.00  0.00     0.338 C 
ATOM      7  O   UNL     1      -3.264  -1.098   0.114  1.00  0.00    -0.246 OA
BRANCH   6   8
ATOM      8  C   UNL     1      -1.070  -0.136   0.088  1.00  0.00     0.062 A 
ATOM      9  C   UNL     1       3.243  -0.145   0.002  1.00  0.00     0.046 C 
ATOM     10  C   UNL     1       1.745  -0.072  -0.009  1.00  0.00    -0.027 A 
ATOM     11  C   UNL     1       1.036  -1.295   0.068  1.00  0.00     0.006 A 
ATOM     12  C   UNL     1       1.018   1.130  -0.036  1.00  0.00     0.054 A 
ATOM     13  C   UNL     1      -0.362  -1.330   0.135  1.00  0.00     0.016 A 
ATOM     14  C   UNL     1      -0.373   1.068  -0.004  1.00  0.00     0.042 A 
BRANCH  12  15
ATOM     15  N   UNL     1       1.580   2.438   0.019  1.00  0.00    -0.261 N 
ATOM     16  C   UNL     1       1.123   3.299   1.019  1.00  0.00     0.270 C 
ATOM     17  C   UNL     1       2.301   3.032  -0.998  1.00  0.00     0.152 C 
ATOM     18  O   UNL     1       0.190   3.086   1.781  1.00  0.00    -0.268 OA
ATOM     19  C   UNL     1       1.858   4.594   0.959  1.00  0.00     0.084 C 
ATOM     20  S   UNL     1       2.670   4.713  -0.559  1.00  0.00    -0.054 SA
ATOM     21  S   UNL     1       2.775   2.406  -2.478  1.00  0.00    -0.051 S 
ATOM     22  C   UNL     1       1.923   5.526   1.927  1.00  0.00     0.068 C 
BRANCH  22  23
ATOM     23  C   UNL     1       1.391   5.269   3.219  1.00  0.00     0.134 A 
ATOM     24  N   UNL     1       1.395   4.134   3.889  1.00  0.00    -0.229 NA
ATOM     25  N   UNL     1       0.732   6.233   3.954  1.00  0.00    -0.328 N 
ATOM     26  C   UNL     1       0.401   4.263   4.824  1.00  0.00     0.089 A 
ATOM     27  C   UNL     1      -0.037   5.582   4.896  1.00  0.00     0.068 A 
ATOM     28  C   UNL     1       0.839   7.661   3.797  1.00  0.00     0.152 C 
ATOM     29  C   UNL     1      -0.193   3.284   5.632  1.00  0.00     0.030 A 
ATOM     30  C   UNL     1      -1.052   5.988   5.771  1.00  0.00     0.028 A 
ATOM     31  C   UNL     1      -1.228   3.664   6.493  1.00  0.00     0.002 A 
ATOM     32  C   UNL     1      -1.640   4.995   6.566  1.00  0.00     0.002 A 
ENDBRANCH  22  23
ENDBRANCH  12  15
ENDBRANCH   6   8
ENDBRANCH   5   6
ENDBRANCH   4   5
ENDBRANCH   3   4
ENDBRANCH   2   3
ENDBRANCH   1   2
BRANCH   1  33
ATOM     33  C   UNL     1      -4.640  -0.585  -4.850  1.00  0.00     0.261 C 
BRANCH  33  34
ATOM     34  O   UNL     1      -5.960  -0.928  -4.370  1.00  0.00    -0.460 OA
BRANCH  34  35
ATOM     35  C   UNL     1      -6.738   0.113  -3.955  1.00  0.00     0.338 C 
ATOM     36  O   UNL     1      -7.029   1.082  -4.635  1.00  0.00    -0.246 OA
BRANCH  35  37
ATOM     37  C   UNL     1      -7.072  -0.040  -2.506  1.00  0.00     0.060 A 
ATOM     38  C   UNL     1      -7.597   1.042  -1.770  1.00  0.00     0.016 A 
ATOM     39  C   UNL     1      -6.605  -1.167  -1.835  1.00  0.00     0.016 A 
ATOM     40  C   UNL     1      -7.512   1.054  -0.364  1.00  0.00     0.010 A 
ATOM     41  C   UNL     1      -6.441  -1.109  -0.467  1.00  0.00     0.010 A 
ATOM     42  C   UNL     1      -6.853   0.009   0.282  1.00  0.00    -0.014 A 
BRANCH  42  43
ATOM     43  C   UNL     1      -6.357   0.010   1.668  1.00  0.00     0.031 A 
ATOM     44  C   UNL     1      -6.737  -1.115   2.554  1.00  0.00     0.074 A 
ATOM     45  C   UNL     1      -5.293   0.781   2.011  1.00  0.00     0.049 A 
ATOM     46  N   UNL     1      -6.437  -1.190   3.802  1.00  0.00    -0.248 NA
ATOM     47  C   UNL     1      -7.535  -2.258   2.114  1.00  0.00     0.031 C 
ATOM     48  C   UNL     1      -4.275   0.529   3.034  1.00  0.00     0.029 A 
ATOM     49  N   UNL     1      -4.887   2.008   1.484  1.00  0.00    -0.354 N 
ATOM     50  C   UNL     1      -6.588  -2.502   4.185  1.00  0.00     0.074 A 
ATOM     51  C   UNL     1      -7.431  -3.072   3.168  1.00  0.00     0.031 C 
ATOM     52  C   UNL     1      -3.573   1.654   3.263  1.00  0.00     0.029 A 
ATOM     53  C   UNL     1      -4.189   2.708   2.481  1.00  0.00     0.049 A 
ATOM     54  H   UNL     1      -5.061   2.328   0.569  1.00  0.00     0.167 HD
ATOM     55  C   UNL     1      -5.833  -2.959   5.226  1.00  0.00     0.034 A 
ATOM     56  C   UNL     1      -4.618   3.929   2.889  1.00  0.00     0.034 A 
ATOM     57  C   UNL     1      -5.111  -1.842   5.867  1.00  0.00     0.049 A 
ATOM     58  C   UNL     1      -5.066   3.780   4.316  1.00  0.00     0.074 A 
ATOM     59  C   UNL     1      -3.775  -1.487   5.956  1.00  0.00     0.029 A 
ATOM     60  N   UNL     1      -5.832  -0.723   6.294  1.00  0.00    -0.354 N 
ATOM     61  N   UNL     1      -5.372   2.617   4.832  1.00  0.00    -0.248 NA
ATOM     62  C   UNL     1      -5.076   4.846   5.308  1.00  0.00     0.031 C 
ATOM     63  C   UNL     1      -3.712  -0.111   6.333  1.00  0.00     0.029 A 
ATOM     64  C   UNL     1      -5.005   0.361   6.515  1.00  0.00     0.049 A 
ATOM     65  H   UNL     1      -6.808  -0.709   6.421  1.00  0.00     0.167 HD
ATOM     66  C   UNL     1      -5.446   2.719   6.183  1.00  0.00     0.074 A 
ATOM     67  C   UNL     1      -5.326   4.150   6.434  1.00  0.00     0.031 C 
ATOM     68  C   UNL     1      -5.550   1.627   6.997  1.00  0.00     0.034 A 
BRANCH  55  69
ATOM     69  C   UNL     1      -5.543  -4.422   5.552  1.00  0.00     0.023 A 
ATOM     70  C   UNL     1      -4.590  -4.713   6.556  1.00  0.00     0.031 A 
ATOM     71  C   UNL     1      -6.077  -5.562   4.911  1.00  0.00     0.131 A 
ATOM     72  C   UNL     1      -4.193  -6.035   6.850  1.00  0.00     0.055 A 
ATOM     73  C   UNL     1      -5.697  -6.878   5.215  1.00  0.00     0.041 A 
ATOM     74  F   UNL     1      -6.993  -5.494   3.944  1.00  0.00    -0.206 F 
ATOM     75  C   UNL     1      -4.745  -7.123   6.184  1.00  0.00     0.022 A 
BRANCH  72  76
ATOM     76  S   UNL     1      -2.925  -6.323   8.113  1.00  0.00     0.124 S 
ATOM     77  O   UNL     1      -1.750  -5.696   7.517  1.00  0.00    -0.237 OA
ATOM     78  O   UNL     1      -3.492  -5.660   9.281  1.00  0.00    -0.237 OA
ATOM     79  O   UNL     1      -2.863  -7.782   8.205  1.00  0.00    -0.744 OA
ENDBRANCH  72  76
ENDBRANCH  55  69
BRANCH  56  80
ATOM     80  C   UNL     1      -5.185   4.705   1.737  1.00  0.00     0.023 A 
ATOM     81  C   UNL     1      -4.261   5.052   0.710  1.00  0.00     0.031 A 
ATOM     82  C   UNL     1      -6.538   4.611   1.378  1.00  0.00     0.131 A 
ATOM     83  C   UNL     1      -4.669   5.125  -0.635  1.00  0.00     0.055 A 
ATOM     84  C   UNL     1      -6.944   4.715   0.036  1.00  0.00     0.041 A 
ATOM     85  F   UNL     1      -7.462   4.258   2.284  1.00  0.00    -0.206 F 
ATOM     86  C   UNL     1      -6.007   4.925  -0.979  1.00  0.00     0.022 A 
BRANCH  83  87
ATOM     87  S   UNL     1      -3.400   5.164  -1.956  1.00  0.00     0.124 S 
ATOM     88  O   UNL     1      -3.121   6.591  -2.074  1.00  0.00    -0.237 OA
ATOM     89  O   UNL     1      -2.314   4.352  -1.411  1.00  0.00    -0.237 OA
ATOM     90  O   UNL     1      -4.082   4.555  -3.097  1.00  0.00    -0.744 OA
ENDBRANCH  83  87
ENDBRANCH  56  80
BRANCH  68  91
ATOM     91  C   UNL     1      -6.128   1.698   8.379  1.00  0.00     0.023 A 
ATOM     92  C   UNL     1      -6.869   2.805   8.806  1.00  0.00     0.031 A 
ATOM     93  C   UNL     1      -6.079   0.602   9.268  1.00  0.00     0.131 A 
ATOM     94  C   UNL     1      -7.415   2.857  10.090  1.00  0.00     0.055 A 
ATOM     95  C   UNL     1      -6.728   0.608  10.504  1.00  0.00     0.041 A 
ATOM     96  F   UNL     1      -5.422  -0.528   8.970  1.00  0.00    -0.206 F 
ATOM     97  C   UNL     1      -7.382   1.753  10.935  1.00  0.00     0.022 A 
BRANCH  94  98
ATOM     98  S   UNL     1      -8.060   4.449  10.647  1.00  0.00     0.124 S 
ATOM     99  O   UNL     1      -6.869   5.293  10.574  1.00  0.00    -0.237 OA
ATOM    100  O   UNL     1      -9.096   4.736   9.660  1.00  0.00    -0.237 OA
ATOM    101  O   UNL     1      -8.543   4.170  11.997  1.00  0.00    -0.744 OA
ENDBRANCH  94  98
ENDBRANCH  68  91
ENDBRANCH  42  43
ENDBRANCH  35  37
ENDBRANCH  34  35
ENDBRANCH  33  34
ENDBRANCH   1  33
TORSDOF 19
