REMARK SMILES C[C@H](C(=O)OCCOCCOC(=O)c1ccc(-c2c3nc(c(-c4cc(S(=O)(=O)[O-])ccc4F)c4ccc([nH]4)c(-c4cc(S(=O)(=O)[O-])ccc4F)c4nc(c(-c5cc(S(=O)(=O)[O-])ccc5F)c5ccc2[nH]5)C=C4)C=C3)cc1)N1C(=O)C[C@@H](N2C(=O)/C(=C/c3ccccc3)SC2=S)C1=O
REMARK SMILES IDX 8 1 7 2 6 3 5 4 3 5 4 6 2 7 1 8 77 9 78 10 96 11 79 12 80 13
REMARK SMILES IDX 81 14 97 15 82 16 83 17 94 18 84 19 85 20 93 21 95 22 86 23
REMARK SMILES IDX 87 24 88 25 92 26 89 27 91 28 90 29 9 30 10 31 11 32 12 33
REMARK SMILES IDX 13 34 14 35 15 36 76 37 16 38 75 39 17 40 18 41 19 42 69 43
REMARK SMILES IDX 20 44 74 45 68 46 70 47 21 48 73 49 67 50 66 51 22 53 54 54
REMARK SMILES IDX 34 55 53 56 35 57 38 58 52 59 71 60 36 61 37 62 51 64 72 65
REMARK SMILES IDX 39 66 23 67 24 68 32 69 25 70 31 71 33 72 30 73 26 74 27 75
REMARK SMILES IDX 28 76 29 77 55 78 56 79 64 80 57 81 63 82 65 83 62 84 58 85
REMARK SMILES IDX 59 86 60 87 61 88 40 89 41 90 49 91 42 92 48 93 50 94 47 95
REMARK SMILES IDX 43 96 44 97 45 98 46 99
REMARK H PARENT 70 52 38 63
REMARK Flexibility Score: inf
ROOT
ATOM      1  O   UNL     1       1.815  -2.178   1.476  1.00  0.00    -0.374 OA
ENDROOT
BRANCH   1   2
ATOM      2  C   UNL     1       1.324  -1.163   2.351  1.00  0.00     0.202 C 
BRANCH   2   3
ATOM      3  C   UNL     1       1.447   0.276   1.839  1.00  0.00     0.261 C 
BRANCH   3   4
ATOM      4  O   UNL     1       0.652   0.504   0.657  1.00  0.00    -0.462 OA
BRANCH   4   5
ATOM      5  C   UNL     1       1.352   0.878  -0.451  1.00  0.00     0.329 C 
ATOM      6  O   UNL     1       2.563   1.075  -0.476  1.00  0.00    -0.250 OA
BRANCH   5   7
ATOM      7  C   UNL     1       0.491   0.988  -1.713  1.00  0.00     0.200 C 
ATOM      8  C   UNL     1       1.097   0.102  -2.805  1.00  0.00     0.044 C 
BRANCH   7   9
ATOM      9  N   UNL     1      -0.951   0.782  -1.544  1.00  0.00    -0.267 N 
ATOM     10  C   UNL     1      -1.795   1.834  -1.325  1.00  0.00     0.232 C 
ATOM     11  C   UNL     1      -1.619  -0.406  -1.638  1.00  0.00     0.253 C 
ATOM     12  O   UNL     1      -1.465   2.995  -1.136  1.00  0.00    -0.274 OA
ATOM     13  C   UNL     1      -3.221   1.369  -1.358  1.00  0.00     0.136 C 
ATOM     14  C   UNL     1      -3.111  -0.133  -1.550  1.00  0.00     0.191 C 
ATOM     15  O   UNL     1      -1.142  -1.512  -1.851  1.00  0.00    -0.272 OA
BRANCH  14  16
ATOM     16  N   UNL     1      -3.779  -0.663  -2.755  1.00  0.00    -0.280 N 
ATOM     17  C   UNL     1      -3.370  -0.225  -4.004  1.00  0.00     0.266 C 
ATOM     18  C   UNL     1      -4.806  -1.585  -2.745  1.00  0.00     0.149 C 
ATOM     19  O   UNL     1      -2.502   0.613  -4.212  1.00  0.00    -0.268 OA
ATOM     20  C   UNL     1      -4.128  -0.910  -5.082  1.00  0.00     0.081 C 
ATOM     21  S   UNL     1      -5.295  -1.960  -4.396  1.00  0.00    -0.054 SA
ATOM     22  S   UNL     1      -5.564  -2.267  -1.427  1.00  0.00    -0.052 S 
ATOM     23  C   UNL     1      -3.856  -0.693  -6.377  1.00  0.00     0.029 C 
BRANCH  23  24
ATOM     24  C   UNL     1      -4.547  -1.276  -7.533  1.00  0.00    -0.024 A 
ATOM     25  C   UNL     1      -3.831  -2.058  -8.448  1.00  0.00     0.008 A 
ATOM     26  C   UNL     1      -5.897  -1.003  -7.779  1.00  0.00     0.008 A 
ATOM     27  C   UNL     1      -4.463  -2.571  -9.585  1.00  0.00     0.001 A 
ATOM     28  C   UNL     1      -6.527  -1.516  -8.916  1.00  0.00     0.001 A 
ATOM     29  C   UNL     1      -5.810  -2.299  -9.818  1.00  0.00     0.000 A 
ENDBRANCH  23  24
ENDBRANCH  14  16
ENDBRANCH   7   9
ENDBRANCH   5   7
ENDBRANCH   4   5
ENDBRANCH   3   4
ENDBRANCH   2   3
ENDBRANCH   1   2
BRANCH   1  30
ATOM     30  C   UNL     1       0.989  -2.532   0.364  1.00  0.00     0.202 C 
BRANCH  30  31
ATOM     31  C   UNL     1      -0.257  -3.364   0.690  1.00  0.00     0.261 C 
BRANCH  31  32
ATOM     32  O   UNL     1      -1.227  -2.604   1.440  1.00  0.00    -0.460 OA
BRANCH  32  33
ATOM     33  C   UNL     1      -1.595  -3.178   2.611  1.00  0.00     0.338 C 
ATOM     34  O   UNL     1      -1.291  -4.295   3.010  1.00  0.00    -0.246 OA
BRANCH  33  35
ATOM     35  C   UNL     1      -2.278  -2.197   3.472  1.00  0.00     0.060 A 
ATOM     36  C   UNL     1      -1.713  -1.946   4.729  1.00  0.00     0.016 A 
ATOM     37  C   UNL     1      -3.496  -1.617   3.113  1.00  0.00     0.016 A 
ATOM     38  C   UNL     1      -2.393  -1.161   5.656  1.00  0.00     0.010 A 
ATOM     39  C   UNL     1      -4.181  -0.830   4.049  1.00  0.00     0.010 A 
ATOM     40  C   UNL     1      -3.652  -0.633   5.340  1.00  0.00    -0.014 A 
BRANCH  40  41
ATOM     41  C   UNL     1      -4.471  -0.025   6.420  1.00  0.00     0.031 A 
ATOM     42  C   UNL     1      -5.543  -0.854   7.078  1.00  0.00     0.074 A 
ATOM     43  C   UNL     1      -4.223   1.224   6.855  1.00  0.00     0.049 A 
ATOM     44  N   UNL     1      -6.368  -0.534   8.041  1.00  0.00    -0.248 NA
ATOM     45  C   UNL     1      -5.702  -2.229   6.580  1.00  0.00     0.031 C 
ATOM     46  C   UNL     1      -3.178   2.105   6.337  1.00  0.00     0.029 A 
ATOM     47  N   UNL     1      -4.831   1.966   7.838  1.00  0.00    -0.354 N 
ATOM     48  C   UNL     1      -7.146  -1.665   8.267  1.00  0.00     0.074 A 
ATOM     49  C   UNL     1      -6.718  -2.665   7.311  1.00  0.00     0.031 C 
ATOM     50  C   UNL     1      -3.219   3.271   7.006  1.00  0.00     0.029 A 
ATOM     51  C   UNL     1      -4.314   3.233   7.974  1.00  0.00     0.049 A 
ATOM     52  H   UNL     1      -5.569   1.623   8.392  1.00  0.00     0.167 HD
ATOM     53  C   UNL     1      -8.121  -1.857   9.190  1.00  0.00     0.034 A 
ATOM     54  C   UNL     1      -4.693   4.250   8.775  1.00  0.00     0.034 A 
ATOM     55  C   UNL     1      -8.545  -0.851  10.134  1.00  0.00     0.049 A 
ATOM     56  C   UNL     1      -5.842   4.044   9.732  1.00  0.00     0.074 A 
ATOM     57  C   UNL     1      -9.509  -0.948  11.123  1.00  0.00     0.029 A 
ATOM     58  N   UNL     1      -8.042   0.442  10.198  1.00  0.00    -0.354 N 
ATOM     59  N   UNL     1      -6.564   2.967   9.939  1.00  0.00    -0.248 NA
ATOM     60  C   UNL     1      -6.223   5.191  10.568  1.00  0.00     0.031 C 
ATOM     61  C   UNL     1      -9.638   0.304  11.736  1.00  0.00     0.029 A 
ATOM     62  C   UNL     1      -8.702   1.163  11.183  1.00  0.00     0.049 A 
ATOM     63  H   UNL     1      -7.321   0.795   9.628  1.00  0.00     0.167 HD
ATOM     64  C   UNL     1      -7.462   3.300  10.950  1.00  0.00     0.074 A 
ATOM     65  C   UNL     1      -7.184   4.673  11.317  1.00  0.00     0.031 C 
ATOM     66  C   UNL     1      -8.425   2.537  11.530  1.00  0.00     0.034 A 
BRANCH  53  67
ATOM     67  C   UNL     1      -8.831  -3.189   9.181  1.00  0.00     0.023 A 
ATOM     68  C   UNL     1      -8.165  -4.389   9.490  1.00  0.00     0.031 A 
ATOM     69  C   UNL     1     -10.190  -3.263   8.828  1.00  0.00     0.131 A 
ATOM     70  C   UNL     1      -8.841  -5.614   9.375  1.00  0.00     0.055 A 
ATOM     71  C   UNL     1     -10.877  -4.477   8.787  1.00  0.00     0.041 A 
ATOM     72  F   UNL     1     -10.871  -2.153   8.501  1.00  0.00    -0.206 F 
ATOM     73  C   UNL     1     -10.198  -5.664   9.048  1.00  0.00     0.022 A 
BRANCH  70  74
ATOM     74  S   UNL     1      -7.888  -7.150   9.524  1.00  0.00     0.124 S 
ATOM     75  O   UNL     1      -6.893  -6.983   8.467  1.00  0.00    -0.237 OA
ATOM     76  O   UNL     1      -7.386  -7.078  10.891  1.00  0.00    -0.237 OA
ATOM     77  O   UNL     1      -8.879  -8.194   9.276  1.00  0.00    -0.744 OA
ENDBRANCH  70  74
ENDBRANCH  53  67
BRANCH  54  78
ATOM     78  C   UNL     1      -4.014   5.575   8.684  1.00  0.00     0.023 A 
ATOM     79  C   UNL     1      -3.296   6.102   9.770  1.00  0.00     0.031 A 
ATOM     80  C   UNL     1      -4.125   6.360   7.523  1.00  0.00     0.131 A 
ATOM     81  C   UNL     1      -2.755   7.395   9.687  1.00  0.00     0.055 A 
ATOM     82  C   UNL     1      -3.542   7.625   7.428  1.00  0.00     0.041 A 
ATOM     83  F   UNL     1      -4.803   5.904   6.457  1.00  0.00    -0.206 F 
ATOM     84  C   UNL     1      -2.863   8.154   8.520  1.00  0.00     0.022 A 
BRANCH  81  85
ATOM     85  S   UNL     1      -1.975   8.107  11.163  1.00  0.00     0.124 S 
ATOM     86  O   UNL     1      -3.068   8.063  12.127  1.00  0.00    -0.237 OA
ATOM     87  O   UNL     1      -0.873   7.180  11.398  1.00  0.00    -0.237 OA
ATOM     88  O   UNL     1      -1.580   9.444  10.726  1.00  0.00    -0.744 OA
ENDBRANCH  81  85
ENDBRANCH  54  78
BRANCH  66  89
ATOM     89  C   UNL     1      -9.216   3.165  12.652  1.00  0.00     0.023 A 
ATOM     90  C   UNL     1     -10.107   4.228  12.427  1.00  0.00     0.031 A 
ATOM     91  C   UNL     1      -9.065   2.696  13.970  1.00  0.00     0.131 A 
ATOM     92  C   UNL     1     -10.774   4.823  13.510  1.00  0.00     0.055 A 
ATOM     93  C   UNL     1      -9.774   3.254  15.035  1.00  0.00     0.041 A 
ATOM     94  F   UNL     1      -8.227   1.683  14.243  1.00  0.00    -0.206 F 
ATOM     95  C   UNL     1     -10.625   4.332  14.810  1.00  0.00     0.022 A 
BRANCH  92  96
ATOM     96  S   UNL     1     -11.776   6.306  13.210  1.00  0.00     0.124 S 
ATOM     97  O   UNL     1     -10.795   7.225  12.642  1.00  0.00    -0.237 OA
ATOM     98  O   UNL     1     -12.796   5.813  12.290  1.00  0.00    -0.237 OA
ATOM     99  O   UNL     1     -12.264   6.665  14.540  1.00  0.00    -0.744 OA
ENDBRANCH  92  96
ENDBRANCH  66  89
ENDBRANCH  40  41
ENDBRANCH  33  35
ENDBRANCH  32  33
ENDBRANCH  31  32
ENDBRANCH  30  31
ENDBRANCH   1  30
TORSDOF 20
