REMARK SMILES CC1(C)[C@H](C(=O)OCCOCCOC(=O)c2ccc(-c3c4nc(c(-c5cc(S(=O)(=O)[O-])ccc5F)c5ccc([nH]5)c(-c5cc(S(=O)(=O)[O-])ccc5F)c5nc(c(-c6cc(S(=O)(=O)[O-])ccc6F)c6ccc3[nH]6)C=C5)C=C4)cc2)[C@@H]1c1nc2ccc(F)cc2s1
REMARK SMILES IDX 11 1 10 2 9 3 8 4 7 5 5 6 6 7 4 8 1 9 2 10 3 11 79 12 80 13
REMARK SMILES IDX 81 14 89 15 82 16 88 17 83 18 87 19 84 20 85 21 86 22 12 23
REMARK SMILES IDX 13 24 14 25 15 26 16 27 17 28 78 29 18 30 77 31 19 32 20 33
REMARK SMILES IDX 21 34 71 35 22 36 76 37 70 38 72 39 23 40 75 41 69 42 68 43
REMARK SMILES IDX 24 45 56 46 36 47 55 48 37 49 40 50 54 51 73 52 38 53 39 54
REMARK SMILES IDX 53 56 74 57 41 58 25 59 26 60 34 61 27 62 33 63 35 64 32 65
REMARK SMILES IDX 28 66 29 67 30 68 31 69 57 70 58 71 66 72 59 73 65 74 67 75
REMARK SMILES IDX 64 76 60 77 61 78 62 79 63 80 42 81 43 82 51 83 44 84 50 85
REMARK SMILES IDX 52 86 49 87 45 88 46 89 47 90 48 91
REMARK H PARENT 72 44 40 55
REMARK Flexibility Score: inf
ROOT
ATOM      1  C   UNL     1      -0.795   0.891  -3.853  1.00  0.00     0.202 C 
ENDROOT
BRANCH   1   2
ATOM      2  O   UNL     1      -2.017   1.513  -4.253  1.00  0.00    -0.374 OA
BRANCH   2   3
ATOM      3  C   UNL     1      -2.417   2.696  -3.559  1.00  0.00     0.202 C 
BRANCH   3   4
ATOM      4  C   UNL     1      -3.020   2.489  -2.168  1.00  0.00     0.261 C 
BRANCH   4   5
ATOM      5  O   UNL     1      -2.100   1.807  -1.303  1.00  0.00    -0.463 OA
BRANCH   5   6
ATOM      6  C   UNL     1      -2.519   0.606  -0.839  1.00  0.00     0.310 C 
ATOM      7  O   UNL     1      -3.636   0.128  -0.987  1.00  0.00    -0.252 OA
BRANCH   6   8
ATOM      8  C   UNL     1      -1.455  -0.210  -0.200  1.00  0.00     0.116 C 
ATOM      9  C   UNL     1       0.952  -1.045   0.180  1.00  0.00     0.013 C 
ATOM     10  C   UNL     1      -0.021   0.118   0.211  1.00  0.00    -0.011 C 
ATOM     11  C   UNL     1       0.650   1.405  -0.195  1.00  0.00     0.013 C 
ATOM     12  C   UNL     1      -1.120   0.051   1.257  1.00  0.00     0.070 C 
BRANCH  12  13
ATOM     13  C   UNL     1      -1.798   1.234   1.950  1.00  0.00     0.098 A 
ATOM     14  N   UNL     1      -3.042   1.092   2.343  1.00  0.00    -0.241 NA
ATOM     15  S   UNL     1      -1.087   2.753   2.256  1.00  0.00    -0.118 S 
ATOM     16  C   UNL     1      -3.542   2.320   2.738  1.00  0.00     0.082 A 
ATOM     17  C   UNL     1      -2.607   3.358   2.783  1.00  0.00     0.057 A 
ATOM     18  C   UNL     1      -4.883   2.596   3.072  1.00  0.00     0.033 A 
ATOM     19  C   UNL     1      -2.952   4.655   3.189  1.00  0.00     0.060 A 
ATOM     20  C   UNL     1      -5.246   3.892   3.450  1.00  0.00     0.041 A 
ATOM     21  C   UNL     1      -4.286   4.892   3.513  1.00  0.00     0.124 A 
ATOM     22  F   UNL     1      -4.653   6.123   3.890  1.00  0.00    -0.207 F 
ENDBRANCH  12  13
ENDBRANCH   6   8
ENDBRANCH   5   6
ENDBRANCH   4   5
ENDBRANCH   3   4
ENDBRANCH   2   3
ENDBRANCH   1   2
BRANCH   1  23
ATOM     23  C   UNL     1       0.508   1.597  -4.245  1.00  0.00     0.261 C 
BRANCH  23  24
ATOM     24  O   UNL     1       0.674   2.860  -3.575  1.00  0.00    -0.460 OA
BRANCH  24  25
ATOM     25  C   UNL     1       0.692   3.934  -4.405  1.00  0.00     0.338 C 
ATOM     26  O   UNL     1       0.667   3.912  -5.625  1.00  0.00    -0.246 OA
BRANCH  25  27
ATOM     27  C   UNL     1       0.564   5.189  -3.638  1.00  0.00     0.060 A 
ATOM     28  C   UNL     1      -0.421   6.093  -4.056  1.00  0.00     0.016 A 
ATOM     29  C   UNL     1       1.439   5.526  -2.602  1.00  0.00     0.016 A 
ATOM     30  C   UNL     1      -0.493   7.362  -3.487  1.00  0.00     0.010 A 
ATOM     31  C   UNL     1       1.369   6.806  -2.035  1.00  0.00     0.010 A 
ATOM     32  C   UNL     1       0.430   7.744  -2.505  1.00  0.00    -0.014 A 
BRANCH  32  33
ATOM     33  C   UNL     1       0.507   9.175  -2.113  1.00  0.00     0.031 A 
ATOM     34  C   UNL     1       1.544  10.053  -2.765  1.00  0.00     0.074 A 
ATOM     35  C   UNL     1      -0.376   9.703  -1.247  1.00  0.00     0.049 A 
ATOM     36  N   UNL     1       1.766  11.333  -2.612  1.00  0.00    -0.248 NA
ATOM     37  C   UNL     1       2.451   9.394  -3.717  1.00  0.00     0.031 C 
ATOM     38  C   UNL     1      -1.449   8.964  -0.582  1.00  0.00     0.029 A 
ATOM     39  N   UNL     1      -0.515  10.987  -0.784  1.00  0.00    -0.354 N 
ATOM     40  C   UNL     1       2.832  11.636  -3.453  1.00  0.00     0.074 A 
ATOM     41  C   UNL     1       3.240  10.395  -4.076  1.00  0.00     0.031 C 
ATOM     42  C   UNL     1      -2.136   9.810   0.206  1.00  0.00     0.029 A 
ATOM     43  C   UNL     1      -1.538  11.141   0.122  1.00  0.00     0.049 A 
ATOM     44  H   UNL     1       0.065  11.729  -1.073  1.00  0.00     0.167 HD
ATOM     45  C   UNL     1       3.409  12.840  -3.695  1.00  0.00     0.034 A 
ATOM     46  C   UNL     1      -1.936  12.229   0.812  1.00  0.00     0.034 A 
ATOM     47  C   UNL     1       3.003  14.069  -3.058  1.00  0.00     0.049 A 
ATOM     48  C   UNL     1      -1.227  13.543   0.587  1.00  0.00     0.074 A 
ATOM     49  C   UNL     1       3.510  15.344  -3.240  1.00  0.00     0.029 A 
ATOM     50  N   UNL     1       1.999  14.176  -2.104  1.00  0.00    -0.354 N 
ATOM     51  N   UNL     1      -0.232  13.819  -0.225  1.00  0.00    -0.248 NA
ATOM     52  C   UNL     1      -1.704  14.695   1.365  1.00  0.00     0.031 C 
ATOM     53  C   UNL     1       2.860  16.208  -2.350  1.00  0.00     0.029 A 
ATOM     54  C   UNL     1       1.896  15.487  -1.664  1.00  0.00     0.049 A 
ATOM     55  H   UNL     1       1.441  13.430  -1.787  1.00  0.00     0.167 HD
ATOM     56  C   UNL     1       0.014  15.182  -0.075  1.00  0.00     0.074 A 
ATOM     57  C   UNL     1      -0.945  15.673   0.893  1.00  0.00     0.031 C 
ATOM     58  C   UNL     1       0.945  15.960  -0.685  1.00  0.00     0.034 A 
BRANCH  45  59
ATOM     59  C   UNL     1       4.574  12.865  -4.654  1.00  0.00     0.023 A 
ATOM     60  C   UNL     1       4.420  12.544  -6.015  1.00  0.00     0.031 A 
ATOM     61  C   UNL     1       5.865  13.180  -4.194  1.00  0.00     0.131 A 
ATOM     62  C   UNL     1       5.547  12.475  -6.849  1.00  0.00     0.055 A 
ATOM     63  C   UNL     1       6.971  13.183  -5.046  1.00  0.00     0.041 A 
ATOM     64  F   UNL     1       6.077  13.472  -2.901  1.00  0.00    -0.206 F 
ATOM     65  C   UNL     1       6.817  12.815  -6.380  1.00  0.00     0.022 A 
BRANCH  62  66
ATOM     66  S   UNL     1       5.349  11.799  -8.521  1.00  0.00     0.124 S 
ATOM     67  O   UNL     1       4.821  10.466  -8.239  1.00  0.00    -0.237 OA
ATOM     68  O   UNL     1       4.418  12.739  -9.134  1.00  0.00    -0.237 OA
ATOM     69  O   UNL     1       6.706  11.821  -9.062  1.00  0.00    -0.744 OA
ENDBRANCH  62  66
ENDBRANCH  45  59
BRANCH  46  70
ATOM     70  C   UNL     1      -3.038  12.127   1.811  1.00  0.00     0.023 A 
ATOM     71  C   UNL     1      -4.244  12.826   1.643  1.00  0.00     0.031 A 
ATOM     72  C   UNL     1      -2.873  11.368   2.985  1.00  0.00     0.131 A 
ATOM     73  C   UNL     1      -5.219  12.790   2.652  1.00  0.00     0.055 A 
ATOM     74  C   UNL     1      -3.867  11.296   3.962  1.00  0.00     0.041 A 
ATOM     75  F   UNL     1      -1.739  10.682   3.195  1.00  0.00    -0.206 F 
ATOM     76  C   UNL     1      -5.043  12.021   3.804  1.00  0.00     0.022 A 
BRANCH  73  77
ATOM     77  S   UNL     1      -6.693  13.834   2.474  1.00  0.00     0.124 S 
ATOM     78  O   UNL     1      -6.104  15.163   2.357  1.00  0.00    -0.237 OA
ATOM     79  O   UNL     1      -7.302  13.293   1.264  1.00  0.00    -0.237 OA
ATOM     80  O   UNL     1      -7.436  13.587   3.707  1.00  0.00    -0.744 OA
ENDBRANCH  73  77
ENDBRANCH  46  70
BRANCH  58  81
ATOM     81  C   UNL     1       0.939  17.431  -0.345  1.00  0.00     0.023 A 
ATOM     82  C   UNL     1       1.287  17.896   0.935  1.00  0.00     0.031 A 
ATOM     83  C   UNL     1       0.562  18.379  -1.313  1.00  0.00     0.131 A 
ATOM     84  C   UNL     1       1.198  19.266   1.230  1.00  0.00     0.055 A 
ATOM     85  C   UNL     1       0.531  19.746  -1.031  1.00  0.00     0.041 A 
ATOM     86  F   UNL     1       0.219  17.991  -2.552  1.00  0.00    -0.206 F 
ATOM     87  C   UNL     1       0.837  20.195   0.250  1.00  0.00     0.022 A 
BRANCH  84  88
ATOM     88  S   UNL     1       1.474  19.810   2.938  1.00  0.00     0.124 S 
ATOM     89  O   UNL     1       0.466  19.048   3.667  1.00  0.00    -0.237 OA
ATOM     90  O   UNL     1       2.860  19.419   3.170  1.00  0.00    -0.237 OA
ATOM     91  O   UNL     1       1.240  21.252   2.881  1.00  0.00    -0.744 OA
ENDBRANCH  84  88
ENDBRANCH  58  81
ENDBRANCH  32  33
ENDBRANCH  25  27
ENDBRANCH  24  25
ENDBRANCH  23  24
ENDBRANCH   1  23
TORSDOF 18
