REMARK SMILES COc1c[nH]c(C[N@H+]2CCC[C@@H](c3ccc(C(=O)OCCOCCOC(=O)c4ccc(-c5c6nc(c(-c7cc(S(=O)(=O)[O-])ccc7F)c7ccc([nH]7)c(-c7cc(S(=O)(=O)[O-])ccc7F)c7nc(c(-c8cc(S(=O)(=O)[O-])ccc8F)c8ccc5[nH]8)C=C7)C=C6)cc4)cc3)C2)cc1=O
REMARK SMILES IDX 21 1 20 2 19 3 17 4 18 5 16 6 13 7 14 8 92 9 15 10 91 11
REMARK SMILES IDX 12 12 8 13 9 14 93 15 10 17 11 18 7 19 6 20 3 21 4 22 95 23
REMARK SMILES IDX 5 24 94 25 96 26 2 28 1 29 22 30 23 31 24 32 25 33 26 34
REMARK SMILES IDX 27 35 28 36 29 37 90 38 30 39 89 40 31 41 32 42 33 43 83 44
REMARK SMILES IDX 34 45 88 46 82 47 84 48 35 49 87 50 81 51 80 52 36 54 68 55
REMARK SMILES IDX 48 56 67 57 49 58 52 59 66 60 85 61 50 62 51 63 65 65 86 66
REMARK SMILES IDX 53 67 37 68 38 69 46 70 39 71 45 72 47 73 44 74 40 75 41 76
REMARK SMILES IDX 42 77 43 78 69 79 70 80 78 81 71 82 77 83 79 84 76 85 72 86
REMARK SMILES IDX 73 87 74 88 75 89 54 90 55 91 63 92 56 93 62 94 64 95 61 96
REMARK SMILES IDX 57 97 58 98 59 99 60 100
REMARK H PARENT 8 16 5 27 84 53 52 64
REMARK Flexibility Score: inf
ROOT
ATOM      1  C   UNL     1      -8.358   7.902  -2.359  1.00  0.00     0.202 C 
ENDROOT
BRANCH   1   2
ATOM      2  C   UNL     1      -7.976   7.846  -0.876  1.00  0.00     0.261 C 
BRANCH   2   3
ATOM      3  O   UNL     1      -6.624   8.274  -0.658  1.00  0.00    -0.460 OA
BRANCH   3   4
ATOM      4  C   UNL     1      -5.768   7.274  -0.344  1.00  0.00     0.338 C 
ATOM      5  O   UNL     1      -6.050   6.111  -0.096  1.00  0.00    -0.246 OA
BRANCH   4   6
ATOM      6  C   UNL     1      -4.371   7.722  -0.515  1.00  0.00     0.060 A 
ATOM      7  C   UNL     1      -1.637   8.319  -0.666  1.00  0.00    -0.039 A 
ATOM      8  C   UNL     1      -2.131   7.099  -1.160  1.00  0.00     0.005 A 
ATOM      9  C   UNL     1      -2.550   9.281  -0.205  1.00  0.00     0.005 A 
ATOM     10  C   UNL     1      -3.482   6.793  -1.061  1.00  0.00     0.016 A 
ATOM     11  C   UNL     1      -3.919   8.990  -0.140  1.00  0.00     0.016 A 
BRANCH   7  12
ATOM     12  C   UNL     1      -0.138   8.496  -0.428  1.00  0.00     0.074 C 
ATOM     13  N   UNL     1       1.702   7.332   0.917  1.00  0.00    -0.329 N 
ATOM     14  C   UNL     1       2.476   7.152  -0.317  1.00  0.00     0.262 C 
ATOM     15  C   UNL     1       0.268   7.452   0.641  1.00  0.00     0.270 C 
ATOM     16  H   UNL     1       2.008   8.212   1.331  1.00  0.00     0.348 HD
ATOM     17  C   UNL     1       2.195   8.267  -1.331  1.00  0.00     0.062 C 
ATOM     18  C   UNL     1       0.712   8.330  -1.694  1.00  0.00     0.020 C 
BRANCH  13  19
ATOM     19  C   UNL     1       1.983   6.273   1.920  1.00  0.00     0.317 C 
BRANCH  19  20
ATOM     20  C   UNL     1       1.698   4.829   1.497  1.00  0.00     0.074 A 
ATOM     21  C   UNL     1       0.932   2.326   0.344  1.00  0.00     0.182 A 
ATOM     22  C   UNL     1       0.044   3.245   0.746  1.00  0.00     0.133 A 
ATOM     23  C   UNL     1       2.375   2.622   0.665  1.00  0.00     0.223 A 
ATOM     24  N   UNL     1       0.384   4.408   1.380  1.00  0.00    -0.357 N 
ATOM     25  C   UNL     1       2.698   3.975   1.209  1.00  0.00     0.083 A 
ATOM     26  O   UNL     1       3.286   1.823   0.469  1.00  0.00    -0.286 OA
ATOM     27  H   UNL     1      -0.330   4.966   1.766  1.00  0.00     0.166 HD
BRANCH  21  28
ATOM     28  O   UNL     1       0.520   1.236  -0.398  1.00  0.00    -0.491 OA
ATOM     29  C   UNL     1       1.026  -0.007   0.069  1.00  0.00     0.278 C 
ENDBRANCH  21  28
ENDBRANCH  19  20
ENDBRANCH  13  19
ENDBRANCH   7  12
ENDBRANCH   4   6
ENDBRANCH   3   4
ENDBRANCH   2   3
ENDBRANCH   1   2
BRANCH   1  30
ATOM     30  O   UNL     1      -7.568   7.140  -3.271  1.00  0.00    -0.374 OA
BRANCH  30  31
ATOM     31  C   UNL     1      -6.309   7.684  -3.671  1.00  0.00     0.202 C 
BRANCH  31  32
ATOM     32  C   UNL     1      -6.313   8.877  -4.636  1.00  0.00     0.261 C 
BRANCH  32  33
ATOM     33  O   UNL     1      -6.861  10.068  -4.045  1.00  0.00    -0.460 OA
BRANCH  33  34
ATOM     34  C   UNL     1      -8.052  10.466  -4.557  1.00  0.00     0.338 C 
ATOM     35  O   UNL     1      -8.660   9.958  -5.488  1.00  0.00    -0.246 OA
BRANCH  34  36
ATOM     36  C   UNL     1      -8.634  11.504  -3.687  1.00  0.00     0.060 A 
ATOM     37  C   UNL     1      -9.875  11.243  -3.091  1.00  0.00     0.016 A 
ATOM     38  C   UNL     1      -7.994  12.727  -3.489  1.00  0.00     0.016 A 
ATOM     39  C   UNL     1     -10.488  12.213  -2.300  1.00  0.00     0.010 A 
ATOM     40  C   UNL     1      -8.618  13.705  -2.708  1.00  0.00     0.010 A 
ATOM     41  C   UNL     1      -9.874  13.460  -2.123  1.00  0.00    -0.014 A 
BRANCH  41  42
ATOM     42  C   UNL     1     -10.585  14.549  -1.411  1.00  0.00     0.031 A 
ATOM     43  C   UNL     1     -11.242  15.638  -2.211  1.00  0.00     0.074 A 
ATOM     44  C   UNL     1     -10.638  14.567  -0.067  1.00  0.00     0.049 A 
ATOM     45  N   UNL     1     -11.818  16.737  -1.801  1.00  0.00    -0.248 NA
ATOM     46  C   UNL     1     -11.242  15.462  -3.671  1.00  0.00     0.031 C 
ATOM     47  C   UNL     1     -10.088  13.535   0.811  1.00  0.00     0.029 A 
ATOM     48  N   UNL     1     -11.167  15.495   0.795  1.00  0.00    -0.354 N 
ATOM     49  C   UNL     1     -12.245  17.392  -2.951  1.00  0.00     0.074 A 
ATOM     50  C   UNL     1     -11.827  16.580  -4.075  1.00  0.00     0.031 C 
ATOM     51  C   UNL     1     -10.296  13.895   2.089  1.00  0.00     0.029 A 
ATOM     52  C   UNL     1     -10.944  15.205   2.121  1.00  0.00     0.049 A 
ATOM     53  H   UNL     1     -11.660  16.292   0.493  1.00  0.00     0.167 HD
ATOM     54  C   UNL     1     -12.926  18.560  -3.056  1.00  0.00     0.034 A 
ATOM     55  C   UNL     1     -11.195  15.932   3.228  1.00  0.00     0.034 A 
ATOM     56  C   UNL     1     -13.319  19.362  -1.922  1.00  0.00     0.049 A 
ATOM     57  C   UNL     1     -11.843  17.289   3.081  1.00  0.00     0.074 A 
ATOM     58  C   UNL     1     -14.029  20.550  -1.912  1.00  0.00     0.029 A 
ATOM     59  N   UNL     1     -13.018  19.070  -0.598  1.00  0.00    -0.354 N 
ATOM     60  N   UNL     1     -12.250  17.897   1.989  1.00  0.00    -0.248 NA
ATOM     61  C   UNL     1     -12.062  18.059   4.313  1.00  0.00     0.031 C 
ATOM     62  C   UNL     1     -14.083  21.018  -0.595  1.00  0.00     0.029 A 
ATOM     63  C   UNL     1     -13.484  20.080   0.231  1.00  0.00     0.049 A 
ATOM     64  H   UNL     1     -12.543  18.264  -0.292  1.00  0.00     0.167 HD
ATOM     65  C   UNL     1     -12.795  19.108   2.409  1.00  0.00     0.074 A 
ATOM     66  C   UNL     1     -12.680  19.137   3.852  1.00  0.00     0.031 C 
ATOM     67  C   UNL     1     -13.345  20.105   1.669  1.00  0.00     0.034 A 
BRANCH  54  68
ATOM     68  C   UNL     1     -13.235  19.062  -4.446  1.00  0.00     0.023 A 
ATOM     69  C   UNL     1     -14.069  18.349  -5.323  1.00  0.00     0.031 A 
ATOM     70  C   UNL     1     -12.662  20.260  -4.910  1.00  0.00     0.131 A 
ATOM     71  C   UNL     1     -14.249  18.800  -6.640  1.00  0.00     0.055 A 
ATOM     72  C   UNL     1     -12.912  20.747  -6.194  1.00  0.00     0.041 A 
ATOM     73  F   UNL     1     -11.837  20.973  -4.126  1.00  0.00    -0.206 F 
ATOM     74  C   UNL     1     -13.697  20.008  -7.074  1.00  0.00     0.022 A 
BRANCH  71  75
ATOM     75  S   UNL     1     -15.088  17.709  -7.822  1.00  0.00     0.124 S 
ATOM     76  O   UNL     1     -14.256  16.510  -7.757  1.00  0.00    -0.237 OA
ATOM     77  O   UNL     1     -16.424  17.593  -7.250  1.00  0.00    -0.237 OA
ATOM     78  O   UNL     1     -15.009  18.445  -9.082  1.00  0.00    -0.744 OA
ENDBRANCH  71  75
ENDBRANCH  54  68
BRANCH  55  79
ATOM     79  C   UNL     1     -10.784  15.431   4.572  1.00  0.00     0.023 A 
ATOM     80  C   UNL     1     -11.735  15.179   5.573  1.00  0.00     0.031 A 
ATOM     81  C   UNL     1      -9.426  15.249   4.893  1.00  0.00     0.131 A 
ATOM     82  C   UNL     1     -11.314  14.803   6.859  1.00  0.00     0.055 A 
ATOM     83  C   UNL     1      -9.016  14.819   6.155  1.00  0.00     0.041 A 
ATOM     84  F   UNL     1      -8.474  15.481   3.975  1.00  0.00    -0.206 F 
ATOM     85  C   UNL     1      -9.963  14.606   7.152  1.00  0.00     0.022 A 
BRANCH  82  86
ATOM     86  S   UNL     1     -12.557  14.665   8.172  1.00  0.00     0.124 S 
ATOM     87  O   UNL     1     -13.126  16.007   8.183  1.00  0.00    -0.237 OA
ATOM     88  O   UNL     1     -13.420  13.605   7.661  1.00  0.00    -0.237 OA
ATOM     89  O   UNL     1     -11.768  14.310   9.350  1.00  0.00    -0.744 OA
ENDBRANCH  82  86
ENDBRANCH  55  79
BRANCH  67  90
ATOM     90  C   UNL     1     -13.893  21.299   2.415  1.00  0.00     0.023 A 
ATOM     91  C   UNL     1     -13.052  22.187   3.107  1.00  0.00     0.031 A 
ATOM     92  C   UNL     1     -15.276  21.555   2.424  1.00  0.00     0.131 A 
ATOM     93  C   UNL     1     -13.605  23.266   3.815  1.00  0.00     0.055 A 
ATOM     94  C   UNL     1     -15.815  22.664   3.078  1.00  0.00     0.041 A 
ATOM     95  F   UNL     1     -16.127  20.738   1.783  1.00  0.00    -0.206 F 
ATOM     96  C   UNL     1     -14.979  23.521   3.788  1.00  0.00     0.022 A 
BRANCH  93  97
ATOM     97  S   UNL     1     -12.513  24.291   4.838  1.00  0.00     0.124 S 
ATOM     98  O   UNL     1     -11.980  23.315   5.783  1.00  0.00    -0.237 OA
ATOM     99  O   UNL     1     -11.565  24.813   3.858  1.00  0.00    -0.237 OA
ATOM    100  O   UNL     1     -13.416  25.285   5.415  1.00  0.00    -0.744 OA
ENDBRANCH  93  97
ENDBRANCH  67  90
ENDBRANCH  41  42
ENDBRANCH  34  36
ENDBRANCH  33  34
ENDBRANCH  32  33
ENDBRANCH  31  32
ENDBRANCH  30  31
ENDBRANCH   1  30
TORSDOF 21
