REMARK SMILES CC(=O)[C@H]1CCC[N@@H+](CC(C)(C)C(=O)OCCOCCOC(=O)c2ccc(-c3c4nc(c(-c5cc(S(=O)(=O)[O-])ccc5F)c5ccc([nH]5)c(-c5cc(S(=O)(=O)[O-])ccc5F)c5nc(c(-c6cc(S(=O)(=O)[O-])ccc6F)c6ccc3[nH]6)C=C5)C=C4)cc2)C1
REMARK SMILES IDX 18 1 17 2 16 3 15 4 13 5 14 6 10 7 11 8 12 9 9 10 8 11 4 12
REMARK SMILES IDX 5 13 87 14 6 15 7 16 2 18 1 19 3 20 19 21 20 22 21 23 22 24
REMARK SMILES IDX 23 25 24 26 25 27 86 28 26 29 85 30 27 31 28 32 29 33 79 34
REMARK SMILES IDX 30 35 84 36 78 37 80 38 31 39 83 40 77 41 76 42 32 44 64 45
REMARK SMILES IDX 44 46 63 47 45 48 48 49 62 50 81 51 46 52 47 53 61 55 82 56
REMARK SMILES IDX 49 57 33 58 34 59 42 60 35 61 41 62 43 63 40 64 36 65 37 66
REMARK SMILES IDX 38 67 39 68 65 69 66 70 74 71 67 72 73 73 75 74 72 75 68 76
REMARK SMILES IDX 69 77 70 78 71 79 50 80 51 81 59 82 52 83 58 84 60 85 57 86
REMARK SMILES IDX 53 87 54 88 55 89 56 90
REMARK H PARENT 8 17 80 43 48 54
REMARK Flexibility Score: inf
ROOT
ATOM      1  O   UNL     1      -3.797   2.723   6.255  1.00  0.00    -0.374 OA
ENDROOT
BRANCH   1   2
ATOM      2  C   UNL     1      -3.239   2.381   7.519  1.00  0.00     0.202 C 
BRANCH   2   3
ATOM      3  C   UNL     1      -1.712   2.425   7.690  1.00  0.00     0.261 C 
BRANCH   3   4
ATOM      4  O   UNL     1      -1.088   3.461   6.920  1.00  0.00    -0.463 OA
BRANCH   4   5
ATOM      5  C   UNL     1      -0.246   3.041   5.940  1.00  0.00     0.317 C 
ATOM      6  O   UNL     1       0.113   1.875   5.806  1.00  0.00    -0.251 OA
BRANCH   5   7
ATOM      7  C   UNL     1       0.223   4.174   5.016  1.00  0.00     0.111 C 
ATOM      8  C   UNL     1       1.768   4.152   5.051  1.00  0.00     0.029 C 
ATOM      9  C   UNL     1      -0.168   5.583   5.532  1.00  0.00     0.029 C 
BRANCH   7  10
ATOM     10  C   UNL     1      -0.398   4.034   3.568  1.00  0.00     0.280 C 
BRANCH  10  11
ATOM     11  N   UNL     1      -0.332   2.820   2.722  1.00  0.00    -0.333 N 
ATOM     12  C   UNL     1       1.162   0.935   1.911  1.00  0.00     0.111 C 
ATOM     13  C   UNL     1       0.096  -0.065   2.365  1.00  0.00     0.023 C 
ATOM     14  C   UNL     1       0.998   2.226   2.710  1.00  0.00     0.273 C 
ATOM     15  C   UNL     1      -1.288   0.553   2.212  1.00  0.00     0.062 C 
ATOM     16  C   UNL     1      -1.417   1.866   2.992  1.00  0.00     0.262 C 
ATOM     17  H   UNL     1      -0.499   3.124   1.763  1.00  0.00     0.348 HD
BRANCH  12  18
ATOM     18  C   UNL     1       2.566   0.346   2.093  1.00  0.00     0.138 C 
ATOM     19  C   UNL     1       3.682   1.244   2.584  1.00  0.00     0.088 C 
ATOM     20  O   UNL     1       2.811  -0.825   1.791  1.00  0.00    -0.299 OA
ENDBRANCH  12  18
ENDBRANCH  10  11
ENDBRANCH   7  10
ENDBRANCH   5   7
ENDBRANCH   4   5
ENDBRANCH   3   4
ENDBRANCH   2   3
ENDBRANCH   1   2
BRANCH   1  21
ATOM     21  C   UNL     1      -3.639   4.058   5.781  1.00  0.00     0.202 C 
BRANCH  21  22
ATOM     22  C   UNL     1      -4.056   5.247   6.660  1.00  0.00     0.261 C 
BRANCH  22  23
ATOM     23  O   UNL     1      -3.327   5.328   7.898  1.00  0.00    -0.460 OA
BRANCH  23  24
ATOM     24  C   UNL     1      -4.106   5.272   9.010  1.00  0.00     0.338 C 
ATOM     25  O   UNL     1      -5.321   5.215   9.051  1.00  0.00    -0.246 OA
BRANCH  24  26
ATOM     26  C   UNL     1      -3.264   5.064  10.202  1.00  0.00     0.060 A 
ATOM     27  C   UNL     1      -3.458   3.885  10.933  1.00  0.00     0.016 A 
ATOM     28  C   UNL     1      -2.384   6.048  10.654  1.00  0.00     0.016 A 
ATOM     29  C   UNL     1      -2.796   3.697  12.142  1.00  0.00     0.010 A 
ATOM     30  C   UNL     1      -1.733   5.865  11.878  1.00  0.00     0.010 A 
ATOM     31  C   UNL     1      -1.964   4.706  12.642  1.00  0.00    -0.014 A 
BRANCH  31  32
ATOM     32  C   UNL     1      -1.496   4.620  14.046  1.00  0.00     0.031 A 
ATOM     33  C   UNL     1      -2.244   5.388  15.101  1.00  0.00     0.074 A 
ATOM     34  C   UNL     1      -0.461   3.829  14.380  1.00  0.00     0.049 A 
ATOM     35  N   UNL     1      -2.001   5.497  16.381  1.00  0.00    -0.248 NA
ATOM     36  C   UNL     1      -3.427   6.134  14.646  1.00  0.00     0.031 C 
ATOM     37  C   UNL     1       0.290   2.987  13.449  1.00  0.00     0.029 A 
ATOM     38  N   UNL     1       0.135   3.604  15.594  1.00  0.00    -0.354 N 
ATOM     39  C   UNL     1      -2.997   6.327  16.885  1.00  0.00     0.074 A 
ATOM     40  C   UNL     1      -3.821   6.724  15.764  1.00  0.00     0.031 C 
ATOM     41  C   UNL     1       1.253   2.341  14.128  1.00  0.00     0.029 A 
ATOM     42  C   UNL     1       1.216   2.758  15.529  1.00  0.00     0.049 A 
ATOM     43  H   UNL     1      -0.181   4.011  16.433  1.00  0.00     0.167 HD
ATOM     44  C   UNL     1      -3.208   6.713  18.168  1.00  0.00     0.034 A 
ATOM     45  C   UNL     1       2.090   2.386  16.486  1.00  0.00     0.034 A 
ATOM     46  C   UNL     1      -2.363   6.316  19.268  1.00  0.00     0.049 A 
ATOM     47  C   UNL     1       1.901   2.917  17.888  1.00  0.00     0.074 A 
ATOM     48  C   UNL     1      -2.478   6.646  20.607  1.00  0.00     0.029 A 
ATOM     49  N   UNL     1      -1.237   5.509  19.155  1.00  0.00    -0.354 N 
ATOM     50  N   UNL     1       0.962   3.710  18.354  1.00  0.00    -0.248 NA
ATOM     51  C   UNL     1       2.886   2.498  18.893  1.00  0.00     0.031 C 
ATOM     52  C   UNL     1      -1.381   6.107  21.287  1.00  0.00     0.029 A 
ATOM     53  C   UNL     1      -0.628   5.362  20.392  1.00  0.00     0.049 A 
ATOM     54  H   UNL     1      -0.918   5.100  18.318  1.00  0.00     0.167 HD
ATOM     55  C   UNL     1       1.225   3.852  19.715  1.00  0.00     0.074 A 
ATOM     56  C   UNL     1       2.401   3.055  19.993  1.00  0.00     0.031 C 
ATOM     57  C   UNL     1       0.552   4.571  20.651  1.00  0.00     0.034 A 
BRANCH  44  58
ATOM     58  C   UNL     1      -4.359   7.656  18.428  1.00  0.00     0.023 A 
ATOM     59  C   UNL     1      -5.693   7.288  18.178  1.00  0.00     0.031 A 
ATOM     60  C   UNL     1      -4.115   8.960  18.896  1.00  0.00     0.131 A 
ATOM     61  C   UNL     1      -6.720   8.233  18.324  1.00  0.00     0.055 A 
ATOM     62  C   UNL     1      -5.150   9.868  19.122  1.00  0.00     0.041 A 
ATOM     63  F   UNL     1      -2.861   9.380  19.127  1.00  0.00    -0.206 F 
ATOM     64  C   UNL     1      -6.461   9.513  18.820  1.00  0.00     0.022 A 
BRANCH  61  65
ATOM     65  S   UNL     1      -8.375   7.817  17.708  1.00  0.00     0.124 S 
ATOM     66  O   UNL     1      -8.101   7.525  16.302  1.00  0.00    -0.237 OA
ATOM     67  O   UNL     1      -8.743   6.676  18.538  1.00  0.00    -0.237 OA
ATOM     68  O   UNL     1      -9.145   9.037  17.944  1.00  0.00    -0.744 OA
ENDBRANCH  61  65
ENDBRANCH  44  58
BRANCH  45  69
ATOM     69  C   UNL     1       3.246   1.503  16.155  1.00  0.00     0.023 A 
ATOM     70  C   UNL     1       3.391   0.242  16.754  1.00  0.00     0.031 A 
ATOM     71  C   UNL     1       4.255   1.934  15.275  1.00  0.00     0.131 A 
ATOM     72  C   UNL     1       4.541  -0.523  16.503  1.00  0.00     0.055 A 
ATOM     73  C   UNL     1       5.369   1.144  14.984  1.00  0.00     0.041 A 
ATOM     74  F   UNL     1       4.170   3.134  14.678  1.00  0.00    -0.206 F 
ATOM     75  C   UNL     1       5.523  -0.088  15.611  1.00  0.00     0.022 A 
BRANCH  72  76
ATOM     76  S   UNL     1       4.782  -2.059  17.438  1.00  0.00     0.124 S 
ATOM     77  O   UNL     1       4.755  -1.576  18.814  1.00  0.00    -0.237 OA
ATOM     78  O   UNL     1       3.634  -2.854  17.014  1.00  0.00    -0.237 OA
ATOM     79  O   UNL     1       6.079  -2.542  16.970  1.00  0.00    -0.744 OA
ENDBRANCH  72  76
ENDBRANCH  45  69
BRANCH  57  80
ATOM     80  C   UNL     1       1.048   4.480  22.075  1.00  0.00     0.023 A 
ATOM     81  C   UNL     1       2.303   4.985  22.460  1.00  0.00     0.031 A 
ATOM     82  C   UNL     1       0.252   3.871  23.062  1.00  0.00     0.131 A 
ATOM     83  C   UNL     1       2.749   4.819  23.780  1.00  0.00     0.055 A 
ATOM     84  C   UNL     1       0.672   3.770  24.389  1.00  0.00     0.041 A 
ATOM     85  F   UNL     1      -0.955   3.369  22.753  1.00  0.00    -0.206 F 
ATOM     86  C   UNL     1       1.933   4.232  24.751  1.00  0.00     0.022 A 
BRANCH  83  87
ATOM     87  S   UNL     1       4.452   5.289  24.190  1.00  0.00     0.124 S 
ATOM     88  O   UNL     1       5.224   4.467  23.264  1.00  0.00    -0.237 OA
ATOM     89  O   UNL     1       4.453   6.724  23.922  1.00  0.00    -0.237 OA
ATOM     90  O   UNL     1       4.580   4.923  25.599  1.00  0.00    -0.744 OA
ENDBRANCH  83  87
ENDBRANCH  57  80
ENDBRANCH  31  32
ENDBRANCH  24  26
ENDBRANCH  23  24
ENDBRANCH  22  23
ENDBRANCH  21  22
ENDBRANCH   1  21
TORSDOF 20
