REMARK SMILES O=C(OCCOCCOC(=O)[C@@H]1C[NH2+]CCN1C(=O)N[C@H]1CCOC1)c1ccc(-c2c3nc(c(-c4cc(S(=O)(=O)[O-])ccc4F)c4ccc([nH]4)c(-c4cc(S(=O)(=O)[O-])ccc4F)c4nc(c(-c5cc(S(=O)(=O)[O-])ccc5F)c5ccc2[nH]5)C=C4)C=C3)cc1
REMARK SMILES IDX 5 1 4 2 3 3 2 4 1 5 26 6 27 7 88 8 28 9 87 10 29 11 30 12
REMARK SMILES IDX 31 13 81 14 32 15 86 16 80 17 82 18 33 19 85 20 79 21 78 22
REMARK SMILES IDX 34 24 66 25 46 26 65 27 47 28 50 29 64 30 83 31 48 32 49 33
REMARK SMILES IDX 63 35 84 36 51 37 35 38 36 39 44 40 37 41 43 42 45 43 42 44
REMARK SMILES IDX 38 45 39 46 40 47 41 48 67 49 68 50 76 51 69 52 75 53 77 54
REMARK SMILES IDX 74 55 70 56 71 57 72 58 73 59 52 60 53 61 61 62 54 63 60 64
REMARK SMILES IDX 62 65 59 66 55 67 56 68 57 69 58 70 6 71 7 72 8 73 9 74
REMARK SMILES IDX 10 75 11 76 12 77 13 78 17 79 14 80 16 81 15 82 18 85 19 86
REMARK SMILES IDX 20 87 21 89 22 90 25 91 23 92 24 93
REMARK H PARENT 82 23 50 34 14 83 14 84 20 88
REMARK Flexibility Score: inf
ROOT
ATOM      1  C   UNL     1       4.822   0.623  -0.737  1.00  0.00     0.202 C 
ENDROOT
BRANCH   1   2
ATOM      2  C   UNL     1       4.909  -0.085   0.662  1.00  0.00     0.261 C 
BRANCH   2   3
ATOM      3  O   UNL     1       3.711  -0.075   1.512  1.00  0.00    -0.460 OA
BRANCH   3   4
ATOM      4  C   UNL     1       2.863   0.958   1.783  1.00  0.00     0.338 C 
ATOM      5  O   UNL     1       1.743   0.756   2.241  1.00  0.00    -0.246 OA
BRANCH   4   6
ATOM      6  C   UNL     1       3.293   2.330   1.433  1.00  0.00     0.060 A 
ATOM      7  C   UNL     1       4.648   2.628   1.403  1.00  0.00     0.016 A 
ATOM      8  C   UNL     1       2.354   3.258   0.949  1.00  0.00     0.016 A 
ATOM      9  C   UNL     1       5.087   3.640   0.583  1.00  0.00     0.010 A 
ATOM     10  C   UNL     1       2.800   4.418   0.310  1.00  0.00     0.010 A 
ATOM     11  C   UNL     1       4.171   4.570   0.082  1.00  0.00    -0.014 A 
BRANCH  11  12
ATOM     12  C   UNL     1       4.810   5.822  -0.343  1.00  0.00     0.031 A 
ATOM     13  C   UNL     1       5.505   6.564   0.765  1.00  0.00     0.074 A 
ATOM     14  C   UNL     1       5.022   6.082  -1.643  1.00  0.00     0.049 A 
ATOM     15  N   UNL     1       6.449   7.456   0.697  1.00  0.00    -0.248 NA
ATOM     16  C   UNL     1       5.190   6.121   2.141  1.00  0.00     0.031 C 
ATOM     17  C   UNL     1       4.541   5.272  -2.765  1.00  0.00     0.029 A 
ATOM     18  N   UNL     1       5.747   7.078  -2.236  1.00  0.00    -0.354 N 
ATOM     19  C   UNL     1       6.896   7.609   2.004  1.00  0.00     0.074 A 
ATOM     20  C   UNL     1       6.151   6.698   2.837  1.00  0.00     0.031 C 
ATOM     21  C   UNL     1       4.969   5.825  -3.916  1.00  0.00     0.029 A 
ATOM     22  C   UNL     1       5.727   7.036  -3.610  1.00  0.00     0.049 A 
ATOM     23  H   UNL     1       6.238   7.762  -1.726  1.00  0.00     0.167 HD
ATOM     24  C   UNL     1       7.820   8.477   2.471  1.00  0.00     0.034 A 
ATOM     25  C   UNL     1       6.245   7.914  -4.493  1.00  0.00     0.034 A 
ATOM     26  C   UNL     1       8.362   9.509   1.635  1.00  0.00     0.049 A 
ATOM     27  C   UNL     1       7.032   9.072  -3.916  1.00  0.00     0.074 A 
ATOM     28  C   UNL     1       9.090  10.624   1.990  1.00  0.00     0.029 A 
ATOM     29  N   UNL     1       8.157   9.576   0.258  1.00  0.00    -0.354 N 
ATOM     30  N   UNL     1       7.391   9.282  -2.666  1.00  0.00    -0.248 NA
ATOM     31  C   UNL     1       7.474  10.110  -4.850  1.00  0.00     0.031 C 
ATOM     32  C   UNL     1       9.248  11.410   0.842  1.00  0.00     0.029 A 
ATOM     33  C   UNL     1       8.704  10.739  -0.246  1.00  0.00     0.049 A 
ATOM     34  H   UNL     1       7.691   8.894  -0.277  1.00  0.00     0.167 HD
ATOM     35  C   UNL     1       8.120  10.466  -2.668  1.00  0.00     0.074 A 
ATOM     36  C   UNL     1       8.163  10.911  -4.050  1.00  0.00     0.031 C 
ATOM     37  C   UNL     1       8.703  11.133  -1.637  1.00  0.00     0.034 A 
BRANCH  24  38
ATOM     38  C   UNL     1       8.068   8.436   3.955  1.00  0.00     0.023 A 
ATOM     39  C   UNL     1       8.692   7.331   4.567  1.00  0.00     0.031 A 
ATOM     40  C   UNL     1       7.504   9.421   4.783  1.00  0.00     0.131 A 
ATOM     41  C   UNL     1       8.667   7.205   5.966  1.00  0.00     0.055 A 
ATOM     42  C   UNL     1       7.547   9.324   6.174  1.00  0.00     0.041 A 
ATOM     43  F   UNL     1       6.842  10.460   4.252  1.00  0.00    -0.206 F 
ATOM     44  C   UNL     1       8.117   8.204   6.774  1.00  0.00     0.022 A 
BRANCH  41  45
ATOM     45  S   UNL     1       9.198   5.636   6.713  1.00  0.00     0.124 S 
ATOM     46  O   UNL     1       8.243   4.694   6.133  1.00  0.00    -0.237 OA
ATOM     47  O   UNL     1      10.575   5.514   6.251  1.00  0.00    -0.237 OA
ATOM     48  O   UNL     1       9.040   5.868   8.147  1.00  0.00    -0.744 OA
ENDBRANCH  41  45
ENDBRANCH  24  38
BRANCH  25  49
ATOM     49  C   UNL     1       5.953   7.814  -5.957  1.00  0.00     0.023 A 
ATOM     50  C   UNL     1       6.970   7.780  -6.926  1.00  0.00     0.031 A 
ATOM     51  C   UNL     1       4.621   7.850  -6.419  1.00  0.00     0.131 A 
ATOM     52  C   UNL     1       6.643   7.829  -8.294  1.00  0.00     0.055 A 
ATOM     53  C   UNL     1       4.299   7.843  -7.778  1.00  0.00     0.041 A 
ATOM     54  F   UNL     1       3.599   7.906  -5.549  1.00  0.00    -0.206 F 
ATOM     55  C   UNL     1       5.315   7.848  -8.725  1.00  0.00     0.022 A 
BRANCH  52  56
ATOM     56  S   UNL     1       7.981   7.979  -9.513  1.00  0.00     0.124 S 
ATOM     57  O   UNL     1       8.668   9.181  -9.054  1.00  0.00    -0.237 OA
ATOM     58  O   UNL     1       8.696   6.720  -9.334  1.00  0.00    -0.237 OA
ATOM     59  O   UNL     1       7.270   8.114 -10.784  1.00  0.00    -0.744 OA
ENDBRANCH  52  56
ENDBRANCH  25  49
BRANCH  37  60
ATOM     60  C   UNL     1       9.459  12.386  -1.984  1.00  0.00     0.023 A 
ATOM     61  C   UNL     1       8.803  13.538  -2.444  1.00  0.00     0.031 A 
ATOM     62  C   UNL     1      10.854  12.429  -1.819  1.00  0.00     0.131 A 
ATOM     63  C   UNL     1       9.551  14.675  -2.774  1.00  0.00     0.055 A 
ATOM     64  C   UNL     1      11.585  13.584  -2.085  1.00  0.00     0.041 A 
ATOM     65  F   UNL     1      11.524  11.352  -1.378  1.00  0.00    -0.206 F 
ATOM     66  C   UNL     1      10.935  14.712  -2.578  1.00  0.00     0.022 A 
BRANCH  63  67
ATOM     67  S   UNL     1       8.701  16.076  -3.545  1.00  0.00     0.124 S 
ATOM     68  O   UNL     1       8.136  15.465  -4.744  1.00  0.00    -0.237 OA
ATOM     69  O   UNL     1       7.743  16.465  -2.516  1.00  0.00    -0.237 OA
ATOM     70  O   UNL     1       9.776  17.037  -3.787  1.00  0.00    -0.744 OA
ENDBRANCH  63  67
ENDBRANCH  37  60
ENDBRANCH  11  12
ENDBRANCH   4   6
ENDBRANCH   3   4
ENDBRANCH   2   3
ENDBRANCH   1   2
BRANCH   1  71
ATOM     71  O   UNL     1       3.479   1.089  -0.995  1.00  0.00    -0.374 OA
BRANCH  71  72
ATOM     72  C   UNL     1       2.779   0.952  -2.252  1.00  0.00     0.202 C 
BRANCH  72  73
ATOM     73  C   UNL     1       2.080  -0.619  -2.679  1.00  0.00     0.261 C 
BRANCH  73  74
ATOM     74  O   UNL     1       3.265  -2.264  -2.973  1.00  0.00    -0.462 OA
BRANCH  74  75
ATOM     75  C   UNL     1       4.547  -2.769  -3.372  1.00  0.00     0.334 C 
ATOM     76  O   UNL     1       5.479  -2.159  -3.898  1.00  0.00    -0.250 OA
BRANCH  75  77
ATOM     77  C   UNL     1       4.716  -4.144  -2.837  1.00  0.00     0.252 C 
ATOM     78  C   UNL     1       6.106  -4.653  -3.311  1.00  0.00     0.298 C 
ATOM     79  N   UNL     1       3.630  -5.120  -2.977  1.00  0.00    -0.300 N 
ATOM     80  N   UNL     1       6.488  -5.951  -2.727  1.00  0.00    -0.343 N 
ATOM     81  C   UNL     1       4.030  -6.399  -2.366  1.00  0.00     0.183 C 
ATOM     82  C   UNL     1       5.382  -6.899  -2.932  1.00  0.00     0.282 C 
ATOM     83  H   UNL     1       6.666  -5.840  -1.729  1.00  0.00     0.346 HD
ATOM     84  H   UNL     1       7.335  -6.300  -3.176  1.00  0.00     0.346 HD
BRANCH  79  85
ATOM     85  C   UNL     1       2.492  -5.086  -3.745  1.00  0.00     0.318 C 
ATOM     86  O   UNL     1       1.826  -6.112  -3.928  1.00  0.00    -0.249 OA
ATOM     87  N   UNL     1       1.994  -3.977  -4.360  1.00  0.00    -0.333 N 
ATOM     88  H   UNL     1       1.799  -4.102  -5.316  1.00  0.00     0.165 HD
BRANCH  87  89
ATOM     89  C   UNL     1       1.688  -2.594  -3.845  1.00  0.00     0.112 C 
ATOM     90  C   UNL     1       1.777  -2.723  -1.907  1.00  0.00     0.056 C 
ATOM     91  C   UNL     1       2.994  -1.216  -4.462  1.00  0.00     0.185 C 
ATOM     92  C   UNL     1       3.277  -1.599  -1.308  1.00  0.00     0.162 C 
ATOM     93  O   UNL     1       3.975  -0.681  -2.885  1.00  0.00    -0.379 OA
ENDBRANCH  87  89
ENDBRANCH  79  85
ENDBRANCH  75  77
ENDBRANCH  74  75
ENDBRANCH  73  74
ENDBRANCH  72  73
ENDBRANCH  71  72
ENDBRANCH   1  71
TORSDOF 19
