REMARK SMILES Cc1ccc([C@@H](C)Nc2ccccc2C(=O)OCCOCCOC(=O)c2ccc(-c3c4nc(c(-c5cc(S(=O)(=O)[O-])ccc5F)c5ccc([nH]5)c(-c5cc(S(=O)(=O)[O-])ccc5F)c5nc(c(-c6cc(S(=O)(=O)[O-])ccc6F)c6ccc3[nH]6)C=C5)C=C4)cc2)cc1F
REMARK SMILES IDX 20 1 19 2 18 3 17 4 15 5 16 6 14 7 9 8 10 9 11 10 13 11
REMARK SMILES IDX 12 12 8 13 6 15 7 16 5 17 1 18 2 19 3 20 90 21 4 22 89 23
REMARK SMILES IDX 91 24 21 25 22 26 23 27 24 28 25 29 26 30 27 31 88 32 28 33
REMARK SMILES IDX 87 34 29 35 30 36 31 37 81 38 32 39 86 40 80 41 82 42 33 43
REMARK SMILES IDX 85 44 79 45 78 46 34 48 66 49 46 50 65 51 47 52 50 53 64 54
REMARK SMILES IDX 83 55 48 56 49 57 63 59 84 60 51 61 35 62 36 63 44 64 37 65
REMARK SMILES IDX 43 66 45 67 42 68 38 69 39 70 40 71 41 72 67 73 68 74 76 75
REMARK SMILES IDX 69 76 75 77 77 78 74 79 70 80 71 81 72 82 73 83 52 84 53 85
REMARK SMILES IDX 61 86 54 87 60 88 62 89 59 90 55 91 56 92 57 93 58 94
REMARK H PARENT 8 14 82 47 50 58
REMARK Flexibility Score: inf
ROOT
ATOM      1  O   UNL     1      -7.744  -3.654  -1.475  1.00  0.00    -0.374 OA
ENDROOT
BRANCH   1   2
ATOM      2  C   UNL     1      -6.706  -2.885  -2.099  1.00  0.00     0.202 C 
BRANCH   2   3
ATOM      3  C   UNL     1      -6.363  -1.565  -1.410  1.00  0.00     0.261 C 
BRANCH   3   4
ATOM      4  O   UNL     1      -5.616  -1.845  -0.212  1.00  0.00    -0.460 OA
BRANCH   4   5
ATOM      5  C   UNL     1      -5.807  -1.008   0.831  1.00  0.00     0.340 C 
ATOM      6  O   UNL     1      -6.468   0.016   0.834  1.00  0.00    -0.246 OA
BRANCH   5   7
ATOM      7  C   UNL     1      -5.300  -1.662   2.057  1.00  0.00     0.083 A 
ATOM      8  C   UNL     1      -3.971  -2.052   2.304  1.00  0.00     0.049 A 
ATOM      9  C   UNL     1      -3.735  -2.669   3.557  1.00  0.00     0.026 A 
ATOM     10  C   UNL     1      -4.746  -2.910   4.496  1.00  0.00     0.002 A 
ATOM     11  C   UNL     1      -6.322  -1.905   3.007  1.00  0.00     0.018 A 
ATOM     12  C   UNL     1      -6.048  -2.531   4.218  1.00  0.00     0.001 A 
BRANCH   8  13
ATOM     13  N   UNL     1      -2.842  -1.847   1.533  1.00  0.00    -0.378 N 
ATOM     14  H   UNL     1      -2.009  -2.208   1.915  1.00  0.00     0.161 HD
BRANCH  13  15
ATOM     15  C   UNL     1      -2.687  -1.186   0.246  1.00  0.00     0.106 C 
ATOM     16  C   UNL     1      -2.598  -2.220  -0.875  1.00  0.00     0.036 C 
BRANCH  15  17
ATOM     17  C   UNL     1      -1.429  -0.330   0.280  1.00  0.00    -0.023 A 
ATOM     18  C   UNL     1       2.107   2.137   0.026  1.00  0.00     0.047 C 
ATOM     19  C   UNL     1       0.872   1.303   0.162  1.00  0.00    -0.015 A 
ATOM     20  C   UNL     1      -0.403   1.877   0.143  1.00  0.00     0.007 A 
ATOM     21  C   UNL     1       0.981  -0.083   0.277  1.00  0.00     0.126 A 
ATOM     22  C   UNL     1      -1.541   1.068   0.209  1.00  0.00     0.006 A 
ATOM     23  C   UNL     1      -0.146  -0.896   0.340  1.00  0.00     0.045 A 
ATOM     24  F   UNL     1       2.193  -0.654   0.314  1.00  0.00    -0.207 F 
ENDBRANCH  15  17
ENDBRANCH  13  15
ENDBRANCH   8  13
ENDBRANCH   5   7
ENDBRANCH   4   5
ENDBRANCH   3   4
ENDBRANCH   2   3
ENDBRANCH   1   2
BRANCH   1  25
ATOM     25  C   UNL     1      -7.582  -4.067  -0.121  1.00  0.00     0.202 C 
BRANCH  25  26
ATOM     26  C   UNL     1      -6.680  -5.270   0.155  1.00  0.00     0.261 C 
BRANCH  26  27
ATOM     27  O   UNL     1      -5.327  -5.049  -0.230  1.00  0.00    -0.460 OA
BRANCH  27  28
ATOM     28  C   UNL     1      -5.068  -5.547  -1.460  1.00  0.00     0.338 C 
ATOM     29  O   UNL     1      -5.864  -6.076  -2.216  1.00  0.00    -0.246 OA
BRANCH  28  30
ATOM     30  C   UNL     1      -3.645  -5.430  -1.778  1.00  0.00     0.060 A 
ATOM     31  C   UNL     1      -3.312  -5.244  -3.125  1.00  0.00     0.016 A 
ATOM     32  C   UNL     1      -2.736  -5.918  -0.840  1.00  0.00     0.016 A 
ATOM     33  C   UNL     1      -2.166  -5.840  -3.613  1.00  0.00     0.010 A 
ATOM     34  C   UNL     1      -1.583  -6.490  -1.321  1.00  0.00     0.010 A 
ATOM     35  C   UNL     1      -1.407  -6.580  -2.713  1.00  0.00    -0.014 A 
BRANCH  35  36
ATOM     36  C   UNL     1      -0.701  -7.776  -3.138  1.00  0.00     0.031 A 
ATOM     37  C   UNL     1       0.700  -7.741  -3.550  1.00  0.00     0.074 A 
ATOM     38  C   UNL     1      -1.374  -8.943  -3.017  1.00  0.00     0.049 A 
ATOM     39  N   UNL     1       1.278  -8.697  -4.191  1.00  0.00    -0.248 NA
ATOM     40  C   UNL     1       1.548  -6.585  -3.312  1.00  0.00     0.031 C 
ATOM     41  C   UNL     1      -0.821 -10.286  -2.945  1.00  0.00     0.029 A 
ATOM     42  N   UNL     1      -2.759  -9.141  -3.107  1.00  0.00    -0.354 N 
ATOM     43  C   UNL     1       2.626  -8.428  -4.178  1.00  0.00     0.074 A 
ATOM     44  C   UNL     1       2.727  -7.054  -3.730  1.00  0.00     0.031 C 
ATOM     45  C   UNL     1      -1.795 -11.163  -3.235  1.00  0.00     0.029 A 
ATOM     46  C   UNL     1      -2.941 -10.397  -3.702  1.00  0.00     0.049 A 
ATOM     47  H   UNL     1      -3.464  -8.521  -2.811  1.00  0.00     0.167 HD
ATOM     48  C   UNL     1       3.503  -9.454  -4.381  1.00  0.00     0.034 A 
ATOM     49  C   UNL     1      -3.573 -10.574  -4.899  1.00  0.00     0.034 A 
ATOM     50  C   UNL     1       2.805 -10.697  -4.734  1.00  0.00     0.049 A 
ATOM     51  C   UNL     1      -2.692 -11.212  -5.959  1.00  0.00     0.074 A 
ATOM     52  C   UNL     1       2.447 -11.833  -4.024  1.00  0.00     0.029 A 
ATOM     53  N   UNL     1       2.088 -10.755  -5.920  1.00  0.00    -0.354 N 
ATOM     54  N   UNL     1      -1.440 -11.533  -5.787  1.00  0.00    -0.248 NA
ATOM     55  C   UNL     1      -3.132 -11.417  -7.340  1.00  0.00     0.031 C 
ATOM     56  C   UNL     1       1.503 -12.569  -4.796  1.00  0.00     0.029 A 
ATOM     57  C   UNL     1       1.296 -11.892  -5.983  1.00  0.00     0.049 A 
ATOM     58  H   UNL     1       2.135 -10.074  -6.630  1.00  0.00     0.167 HD
ATOM     59  C   UNL     1      -0.885 -11.865  -6.993  1.00  0.00     0.074 A 
ATOM     60  C   UNL     1      -1.990 -11.801  -7.932  1.00  0.00     0.031 C 
ATOM     61  C   UNL     1       0.449 -12.105  -7.150  1.00  0.00     0.034 A 
BRANCH  48  62
ATOM     62  C   UNL     1       4.958  -9.376  -3.958  1.00  0.00     0.023 A 
ATOM     63  C   UNL     1       5.660  -8.165  -3.787  1.00  0.00     0.031 A 
ATOM     64  C   UNL     1       5.679 -10.537  -3.610  1.00  0.00     0.131 A 
ATOM     65  C   UNL     1       6.914  -8.114  -3.152  1.00  0.00     0.055 A 
ATOM     66  C   UNL     1       6.961 -10.495  -3.043  1.00  0.00     0.041 A 
ATOM     67  F   UNL     1       5.162 -11.764  -3.766  1.00  0.00    -0.206 F 
ATOM     68  C   UNL     1       7.571  -9.279  -2.775  1.00  0.00     0.022 A 
BRANCH  65  69
ATOM     69  S   UNL     1       7.659  -6.522  -2.689  1.00  0.00     0.124 S 
ATOM     70  O   UNL     1       7.922  -6.705  -1.262  1.00  0.00    -0.237 OA
ATOM     71  O   UNL     1       8.844  -6.471  -3.540  1.00  0.00    -0.237 OA
ATOM     72  O   UNL     1       6.617  -5.546  -2.997  1.00  0.00    -0.744 OA
ENDBRANCH  65  69
ENDBRANCH  48  62
BRANCH  49  73
ATOM     73  C   UNL     1      -4.620  -9.564  -5.214  1.00  0.00     0.023 A 
ATOM     74  C   UNL     1      -4.329  -8.462  -6.034  1.00  0.00     0.031 A 
ATOM     75  C   UNL     1      -5.805  -9.535  -4.453  1.00  0.00     0.131 A 
ATOM     76  C   UNL     1      -5.176  -7.343  -6.022  1.00  0.00     0.055 A 
ATOM     77  C   UNL     1      -6.640  -8.417  -4.440  1.00  0.00     0.041 A 
ATOM     78  F   UNL     1      -6.118 -10.564  -3.647  1.00  0.00    -0.206 F 
ATOM     79  C   UNL     1      -6.314  -7.305  -5.211  1.00  0.00     0.022 A 
BRANCH  76  80
ATOM     80  S   UNL     1      -4.726  -5.849  -6.950  1.00  0.00     0.124 S 
ATOM     81  O   UNL     1      -5.577  -5.968  -8.129  1.00  0.00    -0.237 OA
ATOM     82  O   UNL     1      -5.076  -4.771  -6.028  1.00  0.00    -0.237 OA
ATOM     83  O   UNL     1      -3.295  -6.019  -7.172  1.00  0.00    -0.744 OA
ENDBRANCH  76  80
ENDBRANCH  49  73
BRANCH  61  84
ATOM     84  C   UNL     1       1.075 -12.533  -8.452  1.00  0.00     0.023 A 
ATOM     85  C   UNL     1       2.390 -12.129  -8.767  1.00  0.00     0.031 A 
ATOM     86  C   UNL     1       0.473 -13.444  -9.336  1.00  0.00     0.131 A 
ATOM     87  C   UNL     1       3.036 -12.589  -9.920  1.00  0.00     0.055 A 
ATOM     88  C   UNL     1       1.099 -13.867 -10.514  1.00  0.00     0.041 A 
ATOM     89  F   UNL     1      -0.720 -13.996  -9.061  1.00  0.00    -0.206 F 
ATOM     90  C   UNL     1       2.388 -13.440 -10.811  1.00  0.00     0.022 A 
BRANCH  87  91
ATOM     91  S   UNL     1       4.768 -12.163 -10.248  1.00  0.00     0.124 S 
ATOM     92  O   UNL     1       5.384 -13.483 -10.370  1.00  0.00    -0.237 OA
ATOM     93  O   UNL     1       4.659 -11.409 -11.494  1.00  0.00    -0.237 OA
ATOM     94  O   UNL     1       5.168 -11.392  -9.078  1.00  0.00    -0.744 OA
ENDBRANCH  87  91
ENDBRANCH  61  84
ENDBRANCH  35  36
ENDBRANCH  28  30
ENDBRANCH  27  28
ENDBRANCH  26  27
ENDBRANCH  25  26
ENDBRANCH   1  25
TORSDOF 20
