REMARK SMILES C[C@H]([NH2+]C1C(C)(C)C1(C)C)[C@H](C)C(=O)OCCOCCOC(=O)c1ccc(-c2c3nc(c(-c4cc(S(=O)(=O)[O-])ccc4F)c4ccc([nH]4)c(-c4cc(S(=O)(=O)[O-])ccc4F)c4nc(c(-c5cc(S(=O)(=O)[O-])ccc5F)c5ccc2[nH]5)C=C4)C=C3)cc1
REMARK SMILES IDX 18 1 17 2 16 3 15 4 13 5 14 6 11 7 12 8 2 9 1 10 3 11 4 14
REMARK SMILES IDX 5 15 8 16 6 17 7 18 9 19 10 20 19 21 20 22 21 23 22 24 23 25
REMARK SMILES IDX 24 26 25 27 86 28 26 29 85 30 27 31 28 32 29 33 79 34 30 35
REMARK SMILES IDX 84 36 78 37 80 38 31 39 83 40 77 41 76 42 32 44 64 45 44 46
REMARK SMILES IDX 63 47 45 48 48 49 62 50 81 51 46 52 47 53 61 55 82 56 49 57
REMARK SMILES IDX 33 58 34 59 42 60 35 61 41 62 43 63 40 64 36 65 37 66 38 67
REMARK SMILES IDX 39 68 65 69 66 70 74 71 67 72 73 73 75 74 72 75 68 76 69 77
REMARK SMILES IDX 70 78 71 79 50 80 51 81 59 82 52 83 58 84 60 85 57 86 53 87
REMARK SMILES IDX 54 88 55 89 56 90
REMARK H PARENT 3 12 3 13 80 43 48 54
REMARK Flexibility Score: inf
ROOT
ATOM      1  O   UNL     1      -0.916   5.755  -1.282  1.00  0.00    -0.374 OA
ENDROOT
BRANCH   1   2
ATOM      2  C   UNL     1      -0.765   6.236   0.034  1.00  0.00     0.202 C 
BRANCH   2   3
ATOM      3  C   UNL     1      -0.626   5.333   1.293  1.00  0.00     0.261 C 
BRANCH   3   4
ATOM      4  O   UNL     1       0.045   4.052   1.320  1.00  0.00    -0.463 OA
BRANCH   4   5
ATOM      5  C   UNL     1      -0.665   3.118   0.655  1.00  0.00     0.314 C 
ATOM      6  O   UNL     1      -1.515   3.471  -0.146  1.00  0.00    -0.252 OA
BRANCH   5   7
ATOM      7  C   UNL     1      -0.367   1.645   0.888  1.00  0.00     0.154 C 
ATOM      8  C   UNL     1       1.072   1.352   1.334  1.00  0.00     0.026 C 
BRANCH   7   9
ATOM      9  C   UNL     1      -1.445   0.805   1.689  1.00  0.00     0.193 C 
ATOM     10  C   UNL     1      -1.717  -0.567   1.052  1.00  0.00     0.076 C 
BRANCH   9  11
ATOM     11  N   UNL     1      -2.725   1.290   2.207  1.00  0.00    -0.340 N 
ATOM     12  H   UNL     1      -2.453   2.020   2.865  1.00  0.00     0.346 HD
ATOM     13  H   UNL     1      -3.123   0.368   2.389  1.00  0.00     0.346 HD
BRANCH  11  14
ATOM     14  C   UNL     1      -3.938   1.857   1.546  1.00  0.00     0.195 C 
ATOM     15  C   UNL     1      -3.934   3.433   1.325  1.00  0.00     0.028 C 
ATOM     16  C   UNL     1      -4.135   2.257   0.163  1.00  0.00     0.028 C 
ATOM     17  C   UNL     1      -4.966   4.524   1.032  1.00  0.00     0.018 C 
ATOM     18  C   UNL     1      -3.276   3.873   2.654  1.00  0.00     0.018 C 
ATOM     19  C   UNL     1      -3.222   1.872  -0.977  1.00  0.00     0.018 C 
ATOM     20  C   UNL     1      -5.556   2.119  -0.398  1.00  0.00     0.018 C 
ENDBRANCH  11  14
ENDBRANCH   9  11
ENDBRANCH   7   9
ENDBRANCH   5   7
ENDBRANCH   4   5
ENDBRANCH   3   4
ENDBRANCH   2   3
ENDBRANCH   1   2
BRANCH   1  21
ATOM     21  C   UNL     1       0.102   5.013  -1.929  1.00  0.00     0.202 C 
BRANCH  21  22
ATOM     22  C   UNL     1       1.599   5.152  -1.607  1.00  0.00     0.261 C 
BRANCH  22  23
ATOM     23  O   UNL     1       1.941   5.452  -0.251  1.00  0.00    -0.460 OA
BRANCH  23  24
ATOM     24  C   UNL     1       2.296   6.748  -0.038  1.00  0.00     0.338 C 
ATOM     25  O   UNL     1       2.390   7.621  -0.875  1.00  0.00    -0.246 OA
BRANCH  24  26
ATOM     26  C   UNL     1       2.301   7.023   1.416  1.00  0.00     0.060 A 
ATOM     27  C   UNL     1       1.496   8.074   1.885  1.00  0.00     0.016 A 
ATOM     28  C   UNL     1       3.103   6.296   2.296  1.00  0.00     0.016 A 
ATOM     29  C   UNL     1       1.530   8.441   3.224  1.00  0.00     0.010 A 
ATOM     30  C   UNL     1       3.182   6.702   3.633  1.00  0.00     0.010 A 
ATOM     31  C   UNL     1       2.440   7.812   4.080  1.00  0.00    -0.014 A 
BRANCH  31  32
ATOM     32  C   UNL     1       2.855   8.562   5.289  1.00  0.00     0.031 A 
ATOM     33  C   UNL     1       4.029   9.498   5.141  1.00  0.00     0.074 A 
ATOM     34  C   UNL     1       2.161   8.501   6.438  1.00  0.00     0.049 A 
ATOM     35  N   UNL     1       4.580  10.291   6.020  1.00  0.00    -0.248 NA
ATOM     36  C   UNL     1       4.662   9.545   3.811  1.00  0.00     0.031 C 
ATOM     37  C   UNL     1       0.967   7.689   6.664  1.00  0.00     0.029 A 
ATOM     38  N   UNL     1       2.361   9.148   7.630  1.00  0.00    -0.354 N 
ATOM     39  C   UNL     1       5.621  10.928   5.351  1.00  0.00     0.074 A 
ATOM     40  C   UNL     1       5.650  10.400   4.007  1.00  0.00     0.031 C 
ATOM     41  C   UNL     1       0.546   7.880   7.928  1.00  0.00     0.029 A 
ATOM     42  C   UNL     1       1.457   8.802   8.606  1.00  0.00     0.049 A 
ATOM     43  H   UNL     1       3.085   9.800   7.774  1.00  0.00     0.167 HD
ATOM     44  C   UNL     1       6.473  11.873   5.815  1.00  0.00     0.034 A 
ATOM     45  C   UNL     1       1.392   9.175   9.901  1.00  0.00     0.034 A 
ATOM     46  C   UNL     1       6.439  12.375   7.165  1.00  0.00     0.049 A 
ATOM     47  C   UNL     1       2.409  10.168  10.420  1.00  0.00     0.074 A 
ATOM     48  C   UNL     1       7.258  13.321   7.753  1.00  0.00     0.029 A 
ATOM     49  N   UNL     1       5.541  11.961   8.142  1.00  0.00    -0.354 N 
ATOM     50  N   UNL     1       3.395  10.759   9.782  1.00  0.00    -0.248 NA
ATOM     51  C   UNL     1       2.289  10.560  11.830  1.00  0.00     0.031 C 
ATOM     52  C   UNL     1       6.909  13.420   9.104  1.00  0.00     0.029 A 
ATOM     53  C   UNL     1       5.807  12.612   9.336  1.00  0.00     0.049 A 
ATOM     54  H   UNL     1       4.822  11.303   8.006  1.00  0.00     0.167 HD
ATOM     55  C   UNL     1       3.982  11.626  10.704  1.00  0.00     0.074 A 
ATOM     56  C   UNL     1       3.226  11.490  11.932  1.00  0.00     0.031 C 
ATOM     57  C   UNL     1       5.043  12.462  10.553  1.00  0.00     0.034 A 
BRANCH  44  58
ATOM     58  C   UNL     1       7.548  12.361   4.875  1.00  0.00     0.023 A 
ATOM     59  C   UNL     1       7.248  13.056   3.689  1.00  0.00     0.031 A 
ATOM     60  C   UNL     1       8.900  12.094   5.155  1.00  0.00     0.131 A 
ATOM     61  C   UNL     1       8.278  13.404   2.802  1.00  0.00     0.055 A 
ATOM     62  C   UNL     1       9.926  12.515   4.309  1.00  0.00     0.041 A 
ATOM     63  F   UNL     1       9.246  11.404   6.254  1.00  0.00    -0.206 F 
ATOM     64  C   UNL     1       9.617  13.164   3.117  1.00  0.00     0.022 A 
BRANCH  61  65
ATOM     65  S   UNL     1       7.837  14.050   1.164  1.00  0.00     0.124 S 
ATOM     66  O   UNL     1       7.043  12.952   0.619  1.00  0.00    -0.237 OA
ATOM     67  O   UNL     1       7.106  15.268   1.492  1.00  0.00    -0.237 OA
ATOM     68  O   UNL     1       9.132  14.254   0.517  1.00  0.00    -0.744 OA
ENDBRANCH  61  65
ENDBRANCH  44  58
BRANCH  45  69
ATOM     69  C   UNL     1       0.366   8.590  10.816  1.00  0.00     0.023 A 
ATOM     70  C   UNL     1      -0.576   9.396  11.475  1.00  0.00     0.031 A 
ATOM     71  C   UNL     1       0.371   7.214  11.111  1.00  0.00     0.131 A 
ATOM     72  C   UNL     1      -1.429   8.834  12.439  1.00  0.00     0.055 A 
ATOM     73  C   UNL     1      -0.522   6.649  12.023  1.00  0.00     0.041 A 
ATOM     74  F   UNL     1       1.253   6.395  10.516  1.00  0.00    -0.206 F 
ATOM     75  C   UNL     1      -1.417   7.463  12.706  1.00  0.00     0.022 A 
BRANCH  72  76
ATOM     76  S   UNL     1      -2.476   9.939  13.426  1.00  0.00     0.124 S 
ATOM     77  O   UNL     1      -1.488  10.834  14.017  1.00  0.00    -0.237 OA
ATOM     78  O   UNL     1      -3.343  10.522  12.408  1.00  0.00    -0.237 OA
ATOM     79  O   UNL     1      -3.139   9.033  14.362  1.00  0.00    -0.744 OA
ENDBRANCH  72  76
ENDBRANCH  45  69
BRANCH  57  80
ATOM     80  C   UNL     1       5.397  13.345  11.729  1.00  0.00     0.023 A 
ATOM     81  C   UNL     1       5.816  12.814  12.961  1.00  0.00     0.031 A 
ATOM     82  C   UNL     1       5.279  14.743  11.620  1.00  0.00     0.131 A 
ATOM     83  C   UNL     1       6.013  13.666  14.058  1.00  0.00     0.055 A 
ATOM     84  C   UNL     1       5.558  15.591  12.692  1.00  0.00     0.041 A 
ATOM     85  F   UNL     1       4.884  15.309  10.469  1.00  0.00    -0.206 F 
ATOM     86  C   UNL     1       5.906  15.053  13.926  1.00  0.00     0.022 A 
BRANCH  83  87
ATOM     87  S   UNL     1       6.262  12.927  15.696  1.00  0.00     0.124 S 
ATOM     88  O   UNL     1       5.098  12.054  15.814  1.00  0.00    -0.237 OA
ATOM     89  O   UNL     1       7.548  12.256  15.541  1.00  0.00    -0.237 OA
ATOM     90  O   UNL     1       6.267  14.080  16.594  1.00  0.00    -0.744 OA
ENDBRANCH  83  87
ENDBRANCH  57  80
ENDBRANCH  31  32
ENDBRANCH  24  26
ENDBRANCH  23  24
ENDBRANCH  22  23
ENDBRANCH  21  22
ENDBRANCH   1  21
TORSDOF 20
