REMARK SMILES CSc1nc(N)cc(Nc2cccc(C(=O)OCCOCCOC(=O)c3ccc(-c4c5nc(c(-c6cc(S(=O)(=O)[O-])ccc6F)c6ccc([nH]6)c(-c6cc(S(=O)(=O)[O-])ccc6F)c6nc(c(-c7cc(S(=O)(=O)[O-])ccc7F)c7ccc4[nH]7)C=C6)C=C5)cc3)c2)n1
REMARK SMILES IDX 20 1 19 2 18 3 17 4 15 5 16 6 14 7 10 8 11 9 89 10 12 11
REMARK SMILES IDX 13 12 9 13 8 15 3 16 4 17 90 18 5 19 7 20 2 21 1 22 6 23
REMARK SMILES IDX 21 26 22 27 23 28 24 29 25 30 26 31 27 32 88 33 28 34 87 35
REMARK SMILES IDX 29 36 30 37 31 38 81 39 32 40 86 41 80 42 82 43 33 44 85 45
REMARK SMILES IDX 79 46 78 47 34 49 66 50 46 51 65 52 47 53 50 54 64 55 83 56
REMARK SMILES IDX 48 57 49 58 63 60 84 61 51 62 35 63 36 64 44 65 37 66 43 67
REMARK SMILES IDX 45 68 42 69 38 70 39 71 40 72 41 73 67 74 68 75 76 76 69 77
REMARK SMILES IDX 75 78 77 79 74 80 70 81 71 82 72 83 73 84 52 85 53 86 61 87
REMARK SMILES IDX 54 88 60 89 62 90 59 91 55 92 56 93 57 94 58 95
REMARK H PARENT 9 14 6 24 6 25 82 48 50 59
REMARK Flexibility Score: inf
ROOT
ATOM      1  O   UNL     1       6.957   3.505  -1.810  1.00  0.00    -0.374 OA
ENDROOT
BRANCH   1   2
ATOM      2  C   UNL     1       6.823   2.625  -0.692  1.00  0.00     0.202 C 
BRANCH   2   3
ATOM      3  C   UNL     1       5.402   2.333  -0.195  1.00  0.00     0.261 C 
BRANCH   3   4
ATOM      4  O   UNL     1       4.625   1.657  -1.196  1.00  0.00    -0.460 OA
BRANCH   4   5
ATOM      5  C   UNL     1       3.631   2.386  -1.757  1.00  0.00     0.338 C 
ATOM      6  O   UNL     1       3.229   3.483  -1.401  1.00  0.00    -0.246 OA
BRANCH   5   7
ATOM      7  C   UNL     1       3.205   1.746  -3.023  1.00  0.00     0.062 A 
ATOM      8  C   UNL     1       2.722  -0.222  -4.365  1.00  0.00     0.040 A 
ATOM      9  C   UNL     1       2.401   0.619  -5.441  1.00  0.00     0.026 A 
ATOM     10  C   UNL     1       3.167   0.357  -3.170  1.00  0.00     0.041 A 
ATOM     11  C   UNL     1       2.474   2.009  -5.310  1.00  0.00     0.003 A 
ATOM     12  C   UNL     1       2.856   2.572  -4.095  1.00  0.00     0.016 A 
BRANCH   8  13
ATOM     13  N   UNL     1       2.457  -1.603  -4.461  1.00  0.00    -0.340 N 
ATOM     14  H   UNL     1       2.714  -2.050  -5.300  1.00  0.00     0.168 HD
BRANCH  13  15
ATOM     15  C   UNL     1       1.857  -2.404  -3.466  1.00  0.00     0.137 A 
ATOM     16  C   UNL     1       0.858  -2.611  -1.409  1.00  0.00     0.191 A 
ATOM     17  N   UNL     1       0.637  -3.922  -1.559  1.00  0.00    -0.206 NA
ATOM     18  N   UNL     1       1.442  -1.835  -2.325  1.00  0.00    -0.205 NA
ATOM     19  C   UNL     1       1.086  -4.479  -2.686  1.00  0.00     0.130 A 
ATOM     20  C   UNL     1       1.711  -3.758  -3.679  1.00  0.00     0.093 A 
BRANCH  16  21
ATOM     21  S   UNL     1       0.293  -1.860   0.100  1.00  0.00    -0.090 SA
ATOM     22  C   UNL     1       1.056  -0.222  -0.045  1.00  0.00     0.094 C 
ENDBRANCH  16  21
BRANCH  19  23
ATOM     23  N   UNL     1       0.819  -5.827  -2.853  1.00  0.00    -0.383 N 
ATOM     24  H   UNL     1       0.371  -6.332  -2.136  1.00  0.00     0.158 HD
ATOM     25  H   UNL     1       1.077  -6.280  -3.688  1.00  0.00     0.158 HD
ENDBRANCH  19  23
ENDBRANCH  13  15
ENDBRANCH   8  13
ENDBRANCH   5   7
ENDBRANCH   4   5
ENDBRANCH   3   4
ENDBRANCH   2   3
ENDBRANCH   1   2
BRANCH   1  26
ATOM     26  C   UNL     1       6.669   2.980  -3.104  1.00  0.00     0.202 C 
BRANCH  26  27
ATOM     27  C   UNL     1       7.709   2.072  -3.773  1.00  0.00     0.261 C 
BRANCH  27  28
ATOM     28  O   UNL     1       8.024   0.902  -3.004  1.00  0.00    -0.460 OA
BRANCH  28  29
ATOM     29  C   UNL     1       9.220   0.973  -2.369  1.00  0.00     0.338 C 
ATOM     30  O   UNL     1      10.033   1.881  -2.441  1.00  0.00    -0.246 OA
BRANCH  29  31
ATOM     31  C   UNL     1       9.359  -0.134  -1.405  1.00  0.00     0.060 A 
ATOM     32  C   UNL     1       9.695   0.209  -0.091  1.00  0.00     0.016 A 
ATOM     33  C   UNL     1       9.253  -1.474  -1.785  1.00  0.00     0.016 A 
ATOM     34  C   UNL     1       9.990  -0.787   0.833  1.00  0.00     0.010 A 
ATOM     35  C   UNL     1       9.548  -2.476  -0.850  1.00  0.00     0.010 A 
ATOM     36  C   UNL     1       9.957  -2.136   0.452  1.00  0.00    -0.014 A 
BRANCH  36  37
ATOM     37  C   UNL     1      10.462  -3.157   1.405  1.00  0.00     0.031 A 
ATOM     38  C   UNL     1      11.825  -3.762   1.196  1.00  0.00     0.074 A 
ATOM     39  C   UNL     1       9.741  -3.473   2.497  1.00  0.00     0.049 A 
ATOM     40  N   UNL     1      12.480  -4.612   1.944  1.00  0.00    -0.248 NA
ATOM     41  C   UNL     1      12.543  -3.356  -0.022  1.00  0.00     0.031 C 
ATOM     42  C   UNL     1       8.422  -2.927   2.819  1.00  0.00     0.029 A 
ATOM     43  N   UNL     1      10.021  -4.312   3.545  1.00  0.00    -0.354 N 
ATOM     44  C   UNL     1      13.688  -4.841   1.294  1.00  0.00     0.074 A 
ATOM     45  C   UNL     1      13.650  -4.078   0.064  1.00  0.00     0.031 C 
ATOM     46  C   UNL     1       8.016  -3.432   3.995  1.00  0.00     0.029 A 
ATOM     47  C   UNL     1       9.025  -4.365   4.491  1.00  0.00     0.049 A 
ATOM     48  H   UNL     1      10.857  -4.829   3.613  1.00  0.00     0.167 HD
ATOM     49  C   UNL     1      14.736  -5.605   1.693  1.00  0.00     0.034 A 
ATOM     50  C   UNL     1       8.932  -5.090   5.623  1.00  0.00     0.034 A 
ATOM     51  C   UNL     1      14.752  -6.370   2.919  1.00  0.00     0.049 A 
ATOM     52  C   UNL     1      10.084  -5.985   6.011  1.00  0.00     0.074 A 
ATOM     53  C   UNL     1      15.765  -7.164   3.428  1.00  0.00     0.029 A 
ATOM     54  N   UNL     1      13.700  -6.448   3.825  1.00  0.00    -0.354 N 
ATOM     55  N   UNL     1      11.229  -6.175   5.396  1.00  0.00    -0.248 NA
ATOM     56  C   UNL     1       9.933  -6.747   7.255  1.00  0.00     0.031 C 
ATOM     57  C   UNL     1      15.297  -7.787   4.590  1.00  0.00     0.029 A 
ATOM     58  C   UNL     1      14.027  -7.308   4.866  1.00  0.00     0.049 A 
ATOM     59  H   UNL     1      12.847  -5.964   3.741  1.00  0.00     0.167 HD
ATOM     60  C   UNL     1      11.947  -7.060   6.199  1.00  0.00     0.074 A 
ATOM     61  C   UNL     1      11.116  -7.333   7.354  1.00  0.00     0.031 C 
ATOM     62  C   UNL     1      13.180  -7.598   6.001  1.00  0.00     0.034 A 
BRANCH  49  63
ATOM     63  C   UNL     1      15.930  -5.692   0.767  1.00  0.00     0.023 A 
ATOM     64  C   UNL     1      16.705  -4.564   0.442  1.00  0.00     0.031 A 
ATOM     65  C   UNL     1      16.288  -6.922   0.186  1.00  0.00     0.131 A 
ATOM     66  C   UNL     1      17.751  -4.676  -0.488  1.00  0.00     0.055 A 
ATOM     67  C   UNL     1      17.381  -7.042  -0.674  1.00  0.00     0.041 A 
ATOM     68  F   UNL     1      15.572  -8.030   0.435  1.00  0.00    -0.206 F 
ATOM     69  C   UNL     1      18.112  -5.912  -1.027  1.00  0.00     0.022 A 
BRANCH  66  70
ATOM     70  S   UNL     1      18.537  -3.159  -1.099  1.00  0.00     0.124 S 
ATOM     71  O   UNL     1      17.394  -2.433  -1.647  1.00  0.00    -0.237 OA
ATOM     72  O   UNL     1      19.128  -2.601   0.112  1.00  0.00    -0.237 OA
ATOM     73  O   UNL     1      19.492  -3.644  -2.093  1.00  0.00    -0.744 OA
ENDBRANCH  66  70
ENDBRANCH  49  63
BRANCH  50  74
ATOM     74  C   UNL     1       7.699  -5.029   6.462  1.00  0.00     0.023 A 
ATOM     75  C   UNL     1       7.741  -4.580   7.792  1.00  0.00     0.031 A 
ATOM     76  C   UNL     1       6.464  -5.477   5.959  1.00  0.00     0.131 A 
ATOM     77  C   UNL     1       6.586  -4.639   8.588  1.00  0.00     0.055 A 
ATOM     78  C   UNL     1       5.304  -5.474   6.734  1.00  0.00     0.041 A 
ATOM     79  F   UNL     1       6.367  -5.921   4.695  1.00  0.00    -0.206 F 
ATOM     80  C   UNL     1       5.365  -5.067   8.063  1.00  0.00     0.022 A 
BRANCH  77  81
ATOM     81  S   UNL     1       6.725  -4.243  10.352  1.00  0.00     0.124 S 
ATOM     82  O   UNL     1       7.731  -5.202  10.794  1.00  0.00    -0.237 OA
ATOM     83  O   UNL     1       7.143  -2.845  10.316  1.00  0.00    -0.237 OA
ATOM     84  O   UNL     1       5.375  -4.475  10.860  1.00  0.00    -0.744 OA
ENDBRANCH  77  81
ENDBRANCH  50  74
BRANCH  62  85
ATOM     85  C   UNL     1      13.704  -8.514   7.086  1.00  0.00     0.023 A 
ATOM     86  C   UNL     1      13.046  -9.711   7.424  1.00  0.00     0.031 A 
ATOM     87  C   UNL     1      14.839  -8.155   7.835  1.00  0.00     0.131 A 
ATOM     88  C   UNL     1      13.464 -10.449   8.541  1.00  0.00     0.055 A 
ATOM     89  C   UNL     1      15.303  -8.941   8.892  1.00  0.00     0.041 A 
ATOM     90  F   UNL     1      15.510  -7.025   7.564  1.00  0.00    -0.206 F 
ATOM     91  C   UNL     1      14.600 -10.082   9.266  1.00  0.00     0.022 A 
BRANCH  88  92
ATOM     92  S   UNL     1      12.407 -11.800   9.132  1.00  0.00     0.124 S 
ATOM     93  O   UNL     1      11.127 -11.124   9.314  1.00  0.00    -0.237 OA
ATOM     94  O   UNL     1      12.473 -12.752   8.028  1.00  0.00    -0.237 OA
ATOM     95  O   UNL     1      13.061 -12.233  10.365  1.00  0.00    -0.744 OA
ENDBRANCH  88  92
ENDBRANCH  62  85
ENDBRANCH  36  37
ENDBRANCH  29  31
ENDBRANCH  28  29
ENDBRANCH  27  28
ENDBRANCH  26  27
ENDBRANCH   1  26
TORSDOF 21
