REMARK SMILES O=C(OCCOCCOC(=O)[C@@H]1CC2(CC[NH2+]CC2)C[N@@H+]1Cc1cccc2nonc12)c1ccc(-c2c3nc(c(-c4cc(S(=O)(=O)[O-])ccc4F)c4ccc([nH]4)c(-c4cc(S(=O)(=O)[O-])ccc4F)c4nc(c(-c5cc(S(=O)(=O)[O-])ccc5F)c5ccc2[nH]5)C=C4)C=C3)cc1
REMARK SMILES IDX 5 1 4 2 3 3 2 4 1 5 32 6 33 7 94 8 34 9 93 10 35 11 36 12
REMARK SMILES IDX 37 13 87 14 38 15 92 16 86 17 88 18 39 19 91 20 85 21 84 22
REMARK SMILES IDX 40 24 72 25 52 26 71 27 53 28 56 29 70 30 89 31 54 32 55 33
REMARK SMILES IDX 69 35 90 36 57 37 41 38 42 39 50 40 43 41 49 42 51 43 48 44
REMARK SMILES IDX 44 45 45 46 46 47 47 48 73 49 74 50 82 51 75 52 81 53 83 54
REMARK SMILES IDX 80 55 76 56 77 57 78 58 79 59 58 60 59 61 67 62 60 63 66 64
REMARK SMILES IDX 68 65 65 66 61 67 62 68 63 69 64 70 6 71 7 72 8 73 9 74
REMARK SMILES IDX 10 75 11 76 12 77 13 78 21 79 14 80 20 81 15 83 19 84 16 85
REMARK SMILES IDX 18 86 17 87 22 90 23 91 24 92 31 93 25 94 27 95 30 96 26 97
REMARK SMILES IDX 28 98 29 99
REMARK H PARENT 88 23 56 34 21 82 17 88 17 89
REMARK Flexibility Score: inf
ROOT
ATOM      1  C   UNL     1       4.657   0.130  -0.204  1.00  0.00     0.202 C 
ENDROOT
BRANCH   1   2
ATOM      2  C   UNL     1       4.053  -0.956  -1.091  1.00  0.00     0.261 C 
BRANCH   2   3
ATOM      3  O   UNL     1       2.688  -1.240  -0.749  1.00  0.00    -0.460 OA
BRANCH   3   4
ATOM      4  C   UNL     1       2.402  -2.529  -0.418  1.00  0.00     0.338 C 
ATOM      5  O   UNL     1       1.744  -3.266  -1.137  1.00  0.00    -0.246 OA
BRANCH   4   6
ATOM      6  C   UNL     1       2.649  -2.829   1.017  1.00  0.00     0.060 A 
ATOM      7  C   UNL     1       1.572  -3.172   1.840  1.00  0.00     0.016 A 
ATOM      8  C   UNL     1       3.916  -2.706   1.579  1.00  0.00     0.016 A 
ATOM      9  C   UNL     1       1.765  -3.326   3.223  1.00  0.00     0.010 A 
ATOM     10  C   UNL     1       4.084  -2.777   2.960  1.00  0.00     0.010 A 
ATOM     11  C   UNL     1       3.023  -3.099   3.814  1.00  0.00    -0.014 A 
BRANCH  11  12
ATOM     12  C   UNL     1       3.293  -3.378   5.255  1.00  0.00     0.031 A 
ATOM     13  C   UNL     1       4.722  -3.261   5.735  1.00  0.00     0.074 A 
ATOM     14  C   UNL     1       2.334  -3.334   6.203  1.00  0.00     0.049 A 
ATOM     15  N   UNL     1       5.282  -2.182   6.214  1.00  0.00    -0.248 NA
ATOM     16  C   UNL     1       5.673  -4.334   5.427  1.00  0.00     0.031 C 
ATOM     17  C   UNL     1       1.461  -2.174   6.409  1.00  0.00     0.029 A 
ATOM     18  N   UNL     1       2.169  -4.099   7.337  1.00  0.00    -0.354 N 
ATOM     19  C   UNL     1       6.656  -2.410   6.236  1.00  0.00     0.074 A 
ATOM     20  C   UNL     1       6.844  -3.748   5.710  1.00  0.00     0.031 C 
ATOM     21  C   UNL     1       0.968  -2.228   7.663  1.00  0.00     0.029 A 
ATOM     22  C   UNL     1       1.376  -3.479   8.302  1.00  0.00     0.049 A 
ATOM     23  H   UNL     1       2.569  -4.990   7.454  1.00  0.00     0.167 HD
ATOM     24  C   UNL     1       7.604  -1.538   6.686  1.00  0.00     0.034 A 
ATOM     25  C   UNL     1       1.503  -3.677   9.644  1.00  0.00     0.034 A 
ATOM     26  C   UNL     1       7.148  -0.342   7.335  1.00  0.00     0.049 A 
ATOM     27  C   UNL     1       2.713  -2.826   9.943  1.00  0.00     0.074 A 
ATOM     28  C   UNL     1       7.169   1.025   7.166  1.00  0.00     0.029 A 
ATOM     29  N   UNL     1       6.668  -0.458   8.617  1.00  0.00    -0.354 N 
ATOM     30  N   UNL     1       2.750  -1.530  10.112  1.00  0.00    -0.248 NA
ATOM     31  C   UNL     1       4.010  -3.450   9.686  1.00  0.00     0.031 C 
ATOM     32  C   UNL     1       6.180   1.542   8.082  1.00  0.00     0.029 A 
ATOM     33  C   UNL     1       5.654   0.453   8.769  1.00  0.00     0.049 A 
ATOM     34  H   UNL     1       6.994  -1.083   9.304  1.00  0.00     0.167 HD
ATOM     35  C   UNL     1       4.040  -1.141   9.732  1.00  0.00     0.074 A 
ATOM     36  C   UNL     1       4.749  -2.377   9.470  1.00  0.00     0.031 C 
ATOM     37  C   UNL     1       4.438   0.148   9.499  1.00  0.00     0.034 A 
BRANCH  24  38
ATOM     38  C   UNL     1       9.049  -1.884   6.743  1.00  0.00     0.023 A 
ATOM     39  C   UNL     1       9.909  -1.797   5.638  1.00  0.00     0.031 A 
ATOM     40  C   UNL     1       9.595  -2.196   8.001  1.00  0.00     0.131 A 
ATOM     41  C   UNL     1      11.287  -2.001   5.829  1.00  0.00     0.055 A 
ATOM     42  C   UNL     1      10.961  -2.383   8.186  1.00  0.00     0.041 A 
ATOM     43  F   UNL     1       8.796  -2.302   9.077  1.00  0.00    -0.206 F 
ATOM     44  C   UNL     1      11.816  -2.279   7.097  1.00  0.00     0.022 A 
BRANCH  41  45
ATOM     45  S   UNL     1      12.468  -1.898   4.453  1.00  0.00     0.124 S 
ATOM     46  O   UNL     1      13.346  -0.813   4.882  1.00  0.00    -0.237 OA
ATOM     47  O   UNL     1      13.067  -3.231   4.469  1.00  0.00    -0.237 OA
ATOM     48  O   UNL     1      11.628  -1.607   3.296  1.00  0.00    -0.744 OA
ENDBRANCH  41  45
ENDBRANCH  24  38
BRANCH  25  49
ATOM     49  C   UNL     1       1.362  -5.101  10.108  1.00  0.00     0.023 A 
ATOM     50  C   UNL     1       2.355  -5.855  10.753  1.00  0.00     0.031 A 
ATOM     51  C   UNL     1       0.144  -5.763   9.840  1.00  0.00     0.131 A 
ATOM     52  C   UNL     1       2.187  -7.237  10.949  1.00  0.00     0.055 A 
ATOM     53  C   UNL     1      -0.049  -7.123  10.102  1.00  0.00     0.041 A 
ATOM     54  F   UNL     1      -0.889  -5.091   9.304  1.00  0.00    -0.206 F 
ATOM     55  C   UNL     1       0.989  -7.877  10.632  1.00  0.00     0.022 A 
BRANCH  52  56
ATOM     56  S   UNL     1       3.565  -8.255  11.553  1.00  0.00     0.124 S 
ATOM     57  O   UNL     1       2.919  -9.095  12.558  1.00  0.00    -0.237 OA
ATOM     58  O   UNL     1       3.974  -8.937  10.328  1.00  0.00    -0.237 OA
ATOM     59  O   UNL     1       4.510  -7.272  12.070  1.00  0.00    -0.744 OA
ENDBRANCH  52  56
ENDBRANCH  25  49
BRANCH  37  60
ATOM     60  C   UNL     1       3.476   1.238   9.886  1.00  0.00     0.023 A 
ATOM     61  C   UNL     1       2.982   2.185   8.965  1.00  0.00     0.031 A 
ATOM     62  C   UNL     1       3.099   1.382  11.233  1.00  0.00     0.131 A 
ATOM     63  C   UNL     1       2.154   3.233   9.403  1.00  0.00     0.055 A 
ATOM     64  C   UNL     1       2.244   2.401  11.657  1.00  0.00     0.041 A 
ATOM     65  F   UNL     1       3.595   0.560  12.173  1.00  0.00    -0.206 F 
ATOM     66  C   UNL     1       1.772   3.334  10.743  1.00  0.00     0.022 A 
BRANCH  63  67
ATOM     67  S   UNL     1       1.610   4.571   8.301  1.00  0.00     0.124 S 
ATOM     68  O   UNL     1       0.159   4.402   8.293  1.00  0.00    -0.237 OA
ATOM     69  O   UNL     1       2.092   5.762   8.999  1.00  0.00    -0.237 OA
ATOM     70  O   UNL     1       2.286   4.294   7.042  1.00  0.00    -0.744 OA
ENDBRANCH  63  67
ENDBRANCH  37  60
ENDBRANCH  11  12
ENDBRANCH   4   6
ENDBRANCH   3   4
ENDBRANCH   2   3
ENDBRANCH   1   2
BRANCH   1  71
ATOM     71  O   UNL     1       4.291   0.038   1.156  1.00  0.00    -0.374 OA
BRANCH  71  72
ATOM     72  C   UNL     1       3.025   0.538   1.589  1.00  0.00     0.202 C 
BRANCH  72  73
ATOM     73  C   UNL     1       2.365   1.702   0.841  1.00  0.00     0.261 C 
BRANCH  73  74
ATOM     74  O   UNL     1       3.121   2.884   0.510  1.00  0.00    -0.459 OA
BRANCH  74  75
ATOM     75  C   UNL     1       4.258   3.170   1.190  1.00  0.00     0.365 C 
ATOM     76  O   UNL     1       4.803   2.431   1.991  1.00  0.00    -0.245 OA
BRANCH  75  77
ATOM     77  C   UNL     1       4.814   4.516   0.767  1.00  0.00     0.296 C 
ATOM     78  C   UNL     1       6.181   4.298   0.113  1.00  0.00     0.091 C 
ATOM     79  N   UNL     1       5.075   5.456   1.860  1.00  0.00    -0.319 N 
ATOM     80  C   UNL     1       7.235   4.585   1.207  1.00  0.00     0.036 C 
ATOM     81  C   UNL     1       6.498   5.568   2.143  1.00  0.00     0.270 C 
ATOM     82  H   UNL     1       4.801   6.363   1.483  1.00  0.00     0.349 HD
ATOM     83  C   UNL     1       8.502   5.224   0.600  1.00  0.00     0.074 C 
ATOM     84  C   UNL     1       7.717   3.326   1.976  1.00  0.00     0.074 C 
ATOM     85  C   UNL     1       9.302   4.227  -0.242  1.00  0.00     0.261 C 
ATOM     86  C   UNL     1       8.533   2.367   1.106  1.00  0.00     0.261 C 
ATOM     87  N   UNL     1       9.690   3.038   0.506  1.00  0.00    -0.346 N 
ATOM     88  H   UNL     1      10.334   3.311   1.248  1.00  0.00     0.346 HD
ATOM     89  H   UNL     1      10.132   2.386  -0.143  1.00  0.00     0.346 HD
BRANCH  79  90
ATOM     90  C   UNL     1       4.094   5.643   2.939  1.00  0.00     0.302 C 
BRANCH  90  91
ATOM     91  C   UNL     1       3.820   4.457   3.825  1.00  0.00     0.038 A 
ATOM     92  C   UNL     1       4.846   3.808   4.547  1.00  0.00     0.012 A 
ATOM     93  C   UNL     1       2.571   3.786   3.938  1.00  0.00     0.144 A 
ATOM     94  C   UNL     1       4.699   2.537   5.151  1.00  0.00     0.003 A 
ATOM     95  C   UNL     1       2.419   2.497   4.622  1.00  0.00     0.135 A 
ATOM     96  N   UNL     1       1.380   4.107   3.405  1.00  0.00    -0.049 NA
ATOM     97  C   UNL     1       3.495   1.825   5.215  1.00  0.00     0.034 A 
ATOM     98  N   UNL     1       1.149   2.090   4.482  1.00  0.00    -0.050 NA
ATOM     99  O   UNL     1       0.500   3.128   3.840  1.00  0.00    -0.243 OA
ENDBRANCH  90  91
ENDBRANCH  79  90
ENDBRANCH  75  77
ENDBRANCH  74  75
ENDBRANCH  73  74
ENDBRANCH  72  73
ENDBRANCH  71  72
ENDBRANCH   1  71
TORSDOF 19
