REMARK SMILES N#Cc1ccc(/C=C/C(=O)N[C@H]2C=C[C@H](C(=O)OCCOCCOC(=O)c3ccc(-c4c5nc(c(-c6cc(S(=O)(=O)[O-])ccc6F)c6ccc([nH]6)c(-c6cc(S(=O)(=O)[O-])ccc6F)c6nc(c(-c7cc(S(=O)(=O)[O-])ccc7F)c7ccc4[nH]7)C=C6)C=C5)cc3)C2)cc1
REMARK SMILES IDX 20 1 19 2 18 3 16 4 17 5 15 6 12 7 13 8 90 9 14 10 11 11
REMARK SMILES IDX 9 12 10 13 8 15 7 16 6 17 3 18 4 19 92 20 5 21 91 22 2 23
REMARK SMILES IDX 1 24 21 25 22 26 23 27 24 28 25 29 26 30 27 31 28 32 89 33
REMARK SMILES IDX 29 34 88 35 30 36 31 37 32 38 82 39 33 40 87 41 81 42 83 43
REMARK SMILES IDX 34 44 86 45 80 46 79 47 35 49 67 50 47 51 66 52 48 53 51 54
REMARK SMILES IDX 65 55 84 56 49 57 50 58 64 60 85 61 52 62 36 63 37 64 45 65
REMARK SMILES IDX 38 66 44 67 46 68 43 69 39 70 40 71 41 72 42 73 68 74 69 75
REMARK SMILES IDX 77 76 70 77 76 78 78 79 75 80 71 81 72 82 73 83 74 84 53 85
REMARK SMILES IDX 54 86 62 87 55 88 61 89 63 90 60 91 56 92 57 93 58 94 59 95
REMARK H PARENT 11 14 83 48 51 59
REMARK Flexibility Score: inf
ROOT
ATOM      1  C   UNL     1       1.023  -3.923   2.293  1.00  0.00     0.202 C 
ENDROOT
BRANCH   1   2
ATOM      2  C   UNL     1       1.983  -4.609   1.311  1.00  0.00     0.261 C 
BRANCH   2   3
ATOM      3  O   UNL     1       3.356  -4.519   1.732  1.00  0.00    -0.463 OA
BRANCH   3   4
ATOM      4  C   UNL     1       4.213  -3.947   0.839  1.00  0.00     0.312 C 
ATOM      5  O   UNL     1       3.925  -3.653  -0.316  1.00  0.00    -0.252 OA
BRANCH   4   6
ATOM      6  C   UNL     1       5.524  -3.544   1.526  1.00  0.00     0.124 C 
ATOM      7  C   UNL     1       6.177  -1.616   0.239  1.00  0.00     0.106 C 
ATOM      8  C   UNL     1       7.166  -2.717   0.040  1.00  0.00    -0.006 C 
ATOM      9  C   UNL     1       5.599  -2.014   1.596  1.00  0.00     0.048 C 
ATOM     10  C   UNL     1       6.752  -3.817   0.696  1.00  0.00    -0.014 C 
BRANCH   7  11
ATOM     11  N   UNL     1       6.713  -0.288   0.238  1.00  0.00    -0.346 N 
ATOM     12  C   UNL     1       6.058   0.909   0.195  1.00  0.00     0.244 C 
ATOM     13  O   UNL     1       6.734   1.941   0.241  1.00  0.00    -0.270 OA
ATOM     14  H   UNL     1       7.695  -0.230   0.273  1.00  0.00     0.164 HD
BRANCH  12  15
ATOM     15  C   UNL     1       4.561   1.065   0.160  1.00  0.00     0.072 C 
ATOM     16  C   UNL     1       3.608   0.163  -0.117  1.00  0.00     0.014 C 
BRANCH  16  17
ATOM     17  C   UNL     1       2.138   0.292  -0.100  1.00  0.00    -0.025 A 
ATOM     18  C   UNL     1      -0.687   0.288  -0.064  1.00  0.00     0.052 A 
ATOM     19  C   UNL     1       0.028   1.488   0.033  1.00  0.00     0.020 A 
ATOM     20  C   UNL     1       0.007  -0.911  -0.193  1.00  0.00     0.020 A 
ATOM     21  C   UNL     1       1.433   1.491   0.017  1.00  0.00     0.009 A 
ATOM     22  C   UNL     1       1.402  -0.903  -0.218  1.00  0.00     0.009 A 
BRANCH  18  23
ATOM     23  C   UNL     1      -2.122   0.282  -0.040  1.00  0.00     0.099 C 
ATOM     24  N   UNL     1      -3.280   0.278  -0.035  1.00  0.00    -0.192 NA
ENDBRANCH  18  23
ENDBRANCH  16  17
ENDBRANCH  12  15
ENDBRANCH   7  11
ENDBRANCH   4   6
ENDBRANCH   3   4
ENDBRANCH   2   3
ENDBRANCH   1   2
BRANCH   1  25
ATOM     25  O   UNL     1       1.249  -2.562   2.650  1.00  0.00    -0.374 OA
BRANCH  25  26
ATOM     26  C   UNL     1       2.430  -2.236   3.372  1.00  0.00     0.202 C 
BRANCH  26  27
ATOM     27  C   UNL     1       2.621  -2.702   4.821  1.00  0.00     0.261 C 
BRANCH  27  28
ATOM     28  O   UNL     1       2.467  -4.114   5.007  1.00  0.00    -0.460 OA
BRANCH  28  29
ATOM     29  C   UNL     1       1.272  -4.462   5.553  1.00  0.00     0.338 C 
ATOM     30  O   UNL     1       0.372  -3.709   5.882  1.00  0.00    -0.246 OA
BRANCH  29  31
ATOM     31  C   UNL     1       1.117  -5.925   5.506  1.00  0.00     0.060 A 
ATOM     32  C   UNL     1       0.024  -6.445   4.800  1.00  0.00     0.016 A 
ATOM     33  C   UNL     1       1.983  -6.766   6.204  1.00  0.00     0.016 A 
ATOM     34  C   UNL     1      -0.229  -7.812   4.818  1.00  0.00     0.010 A 
ATOM     35  C   UNL     1       1.720  -8.137   6.231  1.00  0.00     0.010 A 
ATOM     36  C   UNL     1       0.595  -8.661   5.566  1.00  0.00    -0.014 A 
BRANCH  36  37
ATOM     37  C   UNL     1       0.199 -10.074   5.769  1.00  0.00     0.031 A 
ATOM     38  C   UNL     1      -0.376 -10.490   7.093  1.00  0.00     0.074 A 
ATOM     39  C   UNL     1       0.331 -10.968   4.774  1.00  0.00     0.049 A 
ATOM     40  N   UNL     1      -0.741 -11.675   7.506  1.00  0.00    -0.248 NA
ATOM     41  C   UNL     1      -0.547  -9.422   8.088  1.00  0.00     0.031 C 
ATOM     42  C   UNL     1       0.818 -10.666   3.429  1.00  0.00     0.029 A 
ATOM     43  N   UNL     1       0.062 -12.312   4.743  1.00  0.00    -0.354 N 
ATOM     44  C   UNL     1      -1.171 -11.502   8.818  1.00  0.00     0.074 A 
ATOM     45  C   UNL     1      -0.972 -10.104   9.140  1.00  0.00     0.031 C 
ATOM     46  C   UNL     1       0.802 -11.793   2.699  1.00  0.00     0.029 A 
ATOM     47  C   UNL     1       0.356 -12.903   3.538  1.00  0.00     0.049 A 
ATOM     48  H   UNL     1      -0.306 -12.806   5.510  1.00  0.00     0.167 HD
ATOM     49  C   UNL     1      -1.689 -12.424   9.668  1.00  0.00     0.034 A 
ATOM     50  C   UNL     1       0.291 -14.195   3.163  1.00  0.00     0.034 A 
ATOM     51  C   UNL     1      -1.861 -13.816   9.328  1.00  0.00     0.049 A 
ATOM     52  C   UNL     1      -0.178 -15.224   4.162  1.00  0.00     0.074 A 
ATOM     53  C   UNL     1      -2.397 -14.832  10.099  1.00  0.00     0.029 A 
ATOM     54  N   UNL     1      -1.477 -14.396   8.124  1.00  0.00    -0.354 N 
ATOM     55  N   UNL     1      -0.592 -15.052   5.397  1.00  0.00    -0.248 NA
ATOM     56  C   UNL     1      -0.191 -16.621   3.712  1.00  0.00     0.031 C 
ATOM     57  C   UNL     1      -2.240 -16.038   9.407  1.00  0.00     0.029 A 
ATOM     58  C   UNL     1      -1.713 -15.763   8.155  1.00  0.00     0.049 A 
ATOM     59  H   UNL     1      -1.094 -13.908   7.360  1.00  0.00     0.167 HD
ATOM     60  C   UNL     1      -0.955 -16.317   5.856  1.00  0.00     0.074 A 
ATOM     61  C   UNL     1      -0.715 -17.237   4.762  1.00  0.00     0.031 C 
ATOM     62  C   UNL     1      -1.453 -16.680   7.067  1.00  0.00     0.034 A 
BRANCH  49  63
ATOM     63  C   UNL     1      -2.031 -11.959  11.067  1.00  0.00     0.023 A 
ATOM     64  C   UNL     1      -2.962 -10.933  11.303  1.00  0.00     0.031 A 
ATOM     65  C   UNL     1      -1.363 -12.504  12.179  1.00  0.00     0.131 A 
ATOM     66  C   UNL     1      -3.114 -10.409  12.596  1.00  0.00     0.055 A 
ATOM     67  C   UNL     1      -1.601 -12.052  13.478  1.00  0.00     0.041 A 
ATOM     68  F   UNL     1      -0.443 -13.469  12.020  1.00  0.00    -0.206 F 
ATOM     69  C   UNL     1      -2.463 -10.982  13.691  1.00  0.00     0.022 A 
BRANCH  66  70
ATOM     70  S   UNL     1      -4.001  -8.838  12.789  1.00  0.00     0.124 S 
ATOM     71  O   UNL     1      -3.267  -7.972  11.869  1.00  0.00    -0.237 OA
ATOM     72  O   UNL     1      -5.358  -9.191  12.390  1.00  0.00    -0.237 OA
ATOM     73  O   UNL     1      -3.827  -8.518  14.204  1.00  0.00    -0.744 OA
ENDBRANCH  66  70
ENDBRANCH  49  63
BRANCH  50  74
ATOM     74  C   UNL     1       0.686 -14.596   1.784  1.00  0.00     0.023 A 
ATOM     75  C   UNL     1      -0.254 -15.157   0.907  1.00  0.00     0.031 A 
ATOM     76  C   UNL     1       2.009 -14.452   1.331  1.00  0.00     0.131 A 
ATOM     77  C   UNL     1       0.148 -15.588  -0.366  1.00  0.00     0.055 A 
ATOM     78  C   UNL     1       2.392 -14.827   0.042  1.00  0.00     0.041 A 
ATOM     79  F   UNL     1       2.949 -13.925   2.132  1.00  0.00    -0.206 F 
ATOM     80  C   UNL     1       1.460 -15.410  -0.811  1.00  0.00     0.022 A 
BRANCH  77  81
ATOM     81  S   UNL     1      -1.054 -16.463  -1.402  1.00  0.00     0.124 S 
ATOM     82  O   UNL     1      -1.383 -17.612  -0.566  1.00  0.00    -0.237 OA
ATOM     83  O   UNL     1      -2.104 -15.462  -1.560  1.00  0.00    -0.237 OA
ATOM     84  O   UNL     1      -0.298 -16.767  -2.615  1.00  0.00    -0.744 OA
ENDBRANCH  77  81
ENDBRANCH  50  74
BRANCH  62  85
ATOM     85  C   UNL     1      -1.823 -18.135   7.256  1.00  0.00     0.023 A 
ATOM     86  C   UNL     1      -0.864 -19.162   7.211  1.00  0.00     0.031 A 
ATOM     87  C   UNL     1      -3.164 -18.498   7.476  1.00  0.00     0.131 A 
ATOM     88  C   UNL     1      -1.267 -20.502   7.320  1.00  0.00     0.055 A 
ATOM     89  C   UNL     1      -3.549 -19.827   7.663  1.00  0.00     0.041 A 
ATOM     90  F   UNL     1      -4.128 -17.564   7.519  1.00  0.00    -0.206 F 
ATOM     91  C   UNL     1      -2.599 -20.839   7.570  1.00  0.00     0.022 A 
BRANCH  88  92
ATOM     92  S   UNL     1      -0.046 -21.807   7.009  1.00  0.00     0.124 S 
ATOM     93  O   UNL     1       0.405 -21.483   5.659  1.00  0.00    -0.237 OA
ATOM     94  O   UNL     1       0.926 -21.587   8.075  1.00  0.00    -0.237 OA
ATOM     95  O   UNL     1      -0.823 -23.039   7.123  1.00  0.00    -0.744 OA
ENDBRANCH  88  92
ENDBRANCH  62  85
ENDBRANCH  36  37
ENDBRANCH  29  31
ENDBRANCH  28  29
ENDBRANCH  27  28
ENDBRANCH  26  27
ENDBRANCH  25  26
ENDBRANCH   1  25
TORSDOF 21
