REMARK SMILES C=C(C)C(=O)OCC[C@@H](C(C)=O)C(=O)OCCOCCOC(=O)c1ccc(-c2c3nc(c(-c4cc(S(=O)(=O)[O-])ccc4F)c4ccc([nH]4)c(-c4cc(S(=O)(=O)[O-])ccc4F)c4nc(c(-c5cc(S(=O)(=O)[O-])ccc5F)c5ccc2[nH]5)C=C4)C=C3)cc1
REMARK SMILES IDX 17 1 16 2 15 3 13 4 14 5 9 6 8 7 7 8 6 9 4 10 5 11 2 12 1 13
REMARK SMILES IDX 3 14 10 15 11 16 12 17 18 18 19 19 20 20 21 21 22 22 23 23
REMARK SMILES IDX 24 24 25 25 86 26 26 27 85 28 27 29 28 30 29 31 79 32 30 33
REMARK SMILES IDX 84 34 78 35 80 36 31 37 83 38 77 39 76 40 32 42 64 43 44 44
REMARK SMILES IDX 63 45 45 46 48 47 62 48 81 49 46 50 47 51 61 53 82 54 49 55
REMARK SMILES IDX 33 56 34 57 42 58 35 59 41 60 43 61 40 62 36 63 37 64 38 65
REMARK SMILES IDX 39 66 65 67 66 68 74 69 67 70 73 71 75 72 72 73 68 74 69 75
REMARK SMILES IDX 70 76 71 77 50 78 51 79 59 80 52 81 58 82 60 83 57 84 53 85
REMARK SMILES IDX 54 86 55 87 56 88
REMARK H PARENT 80 41 48 52
REMARK Flexibility Score: inf
ROOT
ATOM      1  C   UNL     1       4.897  -6.785   0.187  1.00  0.00     0.202 C 
ENDROOT
BRANCH   1   2
ATOM      2  C   UNL     1       5.560  -5.731   1.079  1.00  0.00     0.261 C 
BRANCH   2   3
ATOM      3  O   UNL     1       4.662  -5.050   1.972  1.00  0.00    -0.463 OA
BRANCH   3   4
ATOM      4  C   UNL     1       4.363  -3.771   1.617  1.00  0.00     0.316 C 
ATOM      5  O   UNL     1       4.738  -3.223   0.586  1.00  0.00    -0.251 OA
BRANCH   4   6
ATOM      6  C   UNL     1       3.573  -3.036   2.670  1.00  0.00     0.169 C 
BRANCH   6   7
ATOM      7  C   UNL     1       2.355  -3.831   3.181  1.00  0.00     0.065 C 
BRANCH   7   8
ATOM      8  C   UNL     1       1.185  -2.949   3.631  1.00  0.00     0.234 C 
BRANCH   8   9
ATOM      9  O   UNL     1       0.529  -2.353   2.495  1.00  0.00    -0.462 OA
BRANCH   9  10
ATOM     10  C   UNL     1       0.856  -1.069   2.211  1.00  0.00     0.333 C 
ATOM     11  O   UNL     1       1.684  -0.379   2.788  1.00  0.00    -0.247 OA
BRANCH  10  12
ATOM     12  C   UNL     1       0.101  -0.622   1.019  1.00  0.00     0.027 C 
ATOM     13  C   UNL     1       0.784   0.009   0.051  1.00  0.00     0.020 C 
ATOM     14  C   UNL     1      -1.374  -0.846   1.005  1.00  0.00     0.051 C 
ENDBRANCH  10  12
ENDBRANCH   9  10
ENDBRANCH   8   9
ENDBRANCH   7   8
ENDBRANCH   6   7
BRANCH   6  15
ATOM     15  C   UNL     1       4.439  -2.563   3.824  1.00  0.00     0.144 C 
ATOM     16  C   UNL     1       5.899  -2.280   3.572  1.00  0.00     0.088 C 
ATOM     17  O   UNL     1       3.948  -2.307   4.927  1.00  0.00    -0.299 OA
ENDBRANCH   6  15
ENDBRANCH   4   6
ENDBRANCH   3   4
ENDBRANCH   2   3
ENDBRANCH   1   2
BRANCH   1  18
ATOM     18  O   UNL     1       3.800  -6.401  -0.632  1.00  0.00    -0.374 OA
BRANCH  18  19
ATOM     19  C   UNL     1       2.561  -6.092  -0.004  1.00  0.00     0.202 C 
BRANCH  19  20
ATOM     20  C   UNL     1       1.806  -7.198   0.750  1.00  0.00     0.261 C 
BRANCH  20  21
ATOM     21  O   UNL     1       2.550  -7.788   1.831  1.00  0.00    -0.460 OA
BRANCH  21  22
ATOM     22  C   UNL     1       2.864  -9.096   1.633  1.00  0.00     0.338 C 
ATOM     23  O   UNL     1       2.547  -9.784   0.677  1.00  0.00    -0.246 OA
BRANCH  22  24
ATOM     24  C   UNL     1       3.833  -9.568   2.639  1.00  0.00     0.060 A 
ATOM     25  C   UNL     1       5.065 -10.035   2.166  1.00  0.00     0.016 A 
ATOM     26  C   UNL     1       3.503  -9.682   3.991  1.00  0.00     0.016 A 
ATOM     27  C   UNL     1       5.949 -10.669   3.031  1.00  0.00     0.010 A 
ATOM     28  C   UNL     1       4.396 -10.325   4.861  1.00  0.00     0.010 A 
ATOM     29  C   UNL     1       5.606 -10.857   4.377  1.00  0.00    -0.014 A 
BRANCH  29  30
ATOM     30  C   UNL     1       6.476 -11.722   5.216  1.00  0.00     0.031 A 
ATOM     31  C   UNL     1       6.050 -13.134   5.520  1.00  0.00     0.074 A 
ATOM     32  C   UNL     1       7.683 -11.279   5.614  1.00  0.00     0.049 A 
ATOM     33  N   UNL     1       6.691 -14.073   6.168  1.00  0.00    -0.248 NA
ATOM     34  C   UNL     1       4.726 -13.541   5.029  1.00  0.00     0.031 C 
ATOM     35  C   UNL     1       8.219  -9.946   5.341  1.00  0.00     0.029 A 
ATOM     36  N   UNL     1       8.683 -11.905   6.315  1.00  0.00    -0.354 N 
ATOM     37  C   UNL     1       5.852 -15.184   6.161  1.00  0.00     0.074 A 
ATOM     38  C   UNL     1       4.636 -14.782   5.484  1.00  0.00     0.031 C 
ATOM     39  C   UNL     1       9.458  -9.860   5.853  1.00  0.00     0.029 A 
ATOM     40  C   UNL     1       9.788 -11.114   6.526  1.00  0.00     0.049 A 
ATOM     41  H   UNL     1       8.615 -12.833   6.636  1.00  0.00     0.167 HD
ATOM     42  C   UNL     1       6.081 -16.425   6.659  1.00  0.00     0.034 A 
ATOM     43  C   UNL     1      10.929 -11.367   7.197  1.00  0.00     0.034 A 
ATOM     44  C   UNL     1       7.297 -16.805   7.340  1.00  0.00     0.049 A 
ATOM     45  C   UNL     1      11.125 -12.730   7.814  1.00  0.00     0.074 A 
ATOM     46  C   UNL     1       7.639 -18.038   7.869  1.00  0.00     0.029 A 
ATOM     47  N   UNL     1       8.365 -15.956   7.601  1.00  0.00    -0.354 N 
ATOM     48  N   UNL     1      10.330 -13.776   7.782  1.00  0.00    -0.248 NA
ATOM     49  C   UNL     1      12.379 -12.949   8.545  1.00  0.00     0.031 C 
ATOM     50  C   UNL     1       8.870 -17.912   8.523  1.00  0.00     0.029 A 
ATOM     51  C   UNL     1       9.345 -16.626   8.321  1.00  0.00     0.049 A 
ATOM     52  H   UNL     1       8.420 -15.015   7.317  1.00  0.00     0.167 HD
ATOM     53  C   UNL     1      11.003 -14.784   8.469  1.00  0.00     0.074 A 
ATOM     54  C   UNL     1      12.278 -14.228   8.872  1.00  0.00     0.031 C 
ATOM     55  C   UNL     1      10.604 -16.054   8.743  1.00  0.00     0.034 A 
BRANCH  42  56
ATOM     56  C   UNL     1       4.970 -17.444   6.532  1.00  0.00     0.023 A 
ATOM     57  C   UNL     1       4.508 -17.892   5.282  1.00  0.00     0.031 A 
ATOM     58  C   UNL     1       4.351 -17.963   7.684  1.00  0.00     0.131 A 
ATOM     59  C   UNL     1       3.417 -18.773   5.211  1.00  0.00     0.055 A 
ATOM     60  C   UNL     1       3.322 -18.904   7.609  1.00  0.00     0.041 A 
ATOM     61  F   UNL     1       4.729 -17.557   8.906  1.00  0.00    -0.206 F 
ATOM     62  C   UNL     1       2.839 -19.304   6.366  1.00  0.00     0.022 A 
BRANCH  59  63
ATOM     63  S   UNL     1       2.668 -19.101   3.592  1.00  0.00     0.124 S 
ATOM     64  O   UNL     1       2.314 -17.753   3.152  1.00  0.00    -0.237 OA
ATOM     65  O   UNL     1       3.756 -19.745   2.866  1.00  0.00    -0.237 OA
ATOM     66  O   UNL     1       1.532 -19.963   3.908  1.00  0.00    -0.744 OA
ENDBRANCH  59  63
ENDBRANCH  42  56
BRANCH  43  67
ATOM     67  C   UNL     1      11.964 -10.303   7.356  1.00  0.00     0.023 A 
ATOM     68  C   UNL     1      13.262 -10.464   6.847  1.00  0.00     0.031 A 
ATOM     69  C   UNL     1      11.681  -9.127   8.075  1.00  0.00     0.131 A 
ATOM     70  C   UNL     1      14.241  -9.492   7.106  1.00  0.00     0.055 A 
ATOM     71  C   UNL     1      12.640  -8.134   8.277  1.00  0.00     0.041 A 
ATOM     72  F   UNL     1      10.457  -8.923   8.588  1.00  0.00    -0.206 F 
ATOM     73  C   UNL     1      13.934  -8.320   7.803  1.00  0.00     0.022 A 
BRANCH  70  74
ATOM     74  S   UNL     1      15.952  -9.824   6.603  1.00  0.00     0.124 S 
ATOM     75  O   UNL     1      16.233 -11.068   7.310  1.00  0.00    -0.237 OA
ATOM     76  O   UNL     1      15.825  -9.924   5.153  1.00  0.00    -0.237 OA
ATOM     77  O   UNL     1      16.681  -8.652   7.083  1.00  0.00    -0.744 OA
ENDBRANCH  70  74
ENDBRANCH  43  67
BRANCH  55  78
ATOM     78  C   UNL     1      11.582 -16.930   9.495  1.00  0.00     0.023 A 
ATOM     79  C   UNL     1      12.001 -16.617  10.800  1.00  0.00     0.031 A 
ATOM     80  C   UNL     1      12.140 -18.066   8.881  1.00  0.00     0.131 A 
ATOM     81  C   UNL     1      13.009 -17.375  11.414  1.00  0.00     0.055 A 
ATOM     82  C   UNL     1      13.084 -18.865   9.529  1.00  0.00     0.041 A 
ATOM     83  F   UNL     1      11.785 -18.415   7.634  1.00  0.00    -0.206 F 
ATOM     84  C   UNL     1      13.539 -18.509  10.795  1.00  0.00     0.022 A 
BRANCH  81  85
ATOM     85  S   UNL     1      13.720 -16.774  12.972  1.00  0.00     0.124 S 
ATOM     86  O   UNL     1      14.164 -15.434  12.603  1.00  0.00    -0.237 OA
ATOM     87  O   UNL     1      12.581 -16.842  13.881  1.00  0.00    -0.237 OA
ATOM     88  O   UNL     1      14.792 -17.728  13.250  1.00  0.00    -0.744 OA
ENDBRANCH  81  85
ENDBRANCH  55  78
ENDBRANCH  29  30
ENDBRANCH  22  24
ENDBRANCH  21  22
ENDBRANCH  20  21
ENDBRANCH  19  20
ENDBRANCH  18  19
ENDBRANCH   1  18
TORSDOF 23
