REMARK SMILES COc1ccc(-c2ccc(C(=O)NCc3ccc(C(=O)OCCOCCOC(=O)c4ccc(-c5c6nc(c(-c7cc(S(=O)(=O)[O-])ccc7F)c7ccc([nH]7)c(-c7cc(S(=O)(=O)[O-])ccc7F)c7nc(c(-c8cc(S(=O)(=O)[O-])ccc8F)c8ccc5[nH]8)C=C7)C=C6)cc4)cc3)o2)c([N+](=O)[O-])c1
REMARK SMILES IDX 23 1 22 2 21 3 19 4 20 5 18 6 15 7 16 8 94 9 17 10 93 11
REMARK SMILES IDX 14 12 13 13 11 14 12 15 10 17 7 18 8 19 95 20 9 21 6 22 3 23
REMARK SMILES IDX 4 24 100 25 5 26 96 27 2 28 1 29 97 30 98 31 99 32 24 33
REMARK SMILES IDX 25 34 26 35 27 36 28 37 29 38 30 39 31 40 92 41 32 42 91 43
REMARK SMILES IDX 33 44 34 45 35 46 85 47 36 48 90 49 84 50 86 51 37 52 89 53
REMARK SMILES IDX 83 54 82 55 38 57 70 58 50 59 69 60 51 61 54 62 68 63 87 64
REMARK SMILES IDX 52 65 53 66 67 68 88 69 55 70 39 71 40 72 48 73 41 74 47 75
REMARK SMILES IDX 49 76 46 77 42 78 43 79 44 80 45 81 71 82 72 83 80 84 73 85
REMARK SMILES IDX 79 86 81 87 78 88 74 89 75 90 76 91 77 92 56 93 57 94 65 95
REMARK SMILES IDX 58 96 64 97 66 98 63 99 59 100 60 101 61 102 62 103
REMARK H PARENT 13 16 86 56 54 67
REMARK Flexibility Score: inf
ROOT
ATOM      1  C   UNL     1       2.889 -17.461   5.061  1.00  0.00     0.202 C 
ENDROOT
BRANCH   1   2
ATOM      2  C   UNL     1       1.590 -17.135   4.320  1.00  0.00     0.261 C 
BRANCH   2   3
ATOM      3  O   UNL     1       1.831 -16.263   3.204  1.00  0.00    -0.460 OA
BRANCH   3   4
ATOM      4  C   UNL     1       1.365 -15.003   3.356  1.00  0.00     0.338 C 
ATOM      5  O   UNL     1       0.668 -14.582   4.269  1.00  0.00    -0.246 OA
BRANCH   4   6
ATOM      6  C   UNL     1       1.957 -14.108   2.338  1.00  0.00     0.060 A 
ATOM      7  C   UNL     1       3.011 -12.253   0.502  1.00  0.00    -0.029 A 
ATOM      8  C   UNL     1       2.711 -11.870   1.815  1.00  0.00     0.006 A 
ATOM      9  C   UNL     1       2.809 -13.595   0.132  1.00  0.00     0.006 A 
ATOM     10  C   UNL     1       2.186 -12.784   2.723  1.00  0.00     0.016 A 
ATOM     11  C   UNL     1       2.294 -14.523   1.047  1.00  0.00     0.016 A 
BRANCH   7  12
ATOM     12  C   UNL     1       3.459 -11.233  -0.516  1.00  0.00     0.152 C 
BRANCH  12  13
ATOM     13  N   UNL     1       2.317 -10.651  -1.186  1.00  0.00    -0.345 N 
ATOM     14  C   UNL     1       1.698  -9.428  -1.115  1.00  0.00     0.287 C 
ATOM     15  O   UNL     1       0.760  -9.272  -1.904  1.00  0.00    -0.266 OA
ATOM     16  H   UNL     1       1.894 -11.262  -1.831  1.00  0.00     0.164 HD
BRANCH  14  17
ATOM     17  C   UNL     1       2.107  -8.386  -0.187  1.00  0.00     0.192 A 
ATOM     18  C   UNL     1       2.037  -6.298   0.564  1.00  0.00     0.142 A 
ATOM     19  C   UNL     1       2.893  -6.973   1.398  1.00  0.00     0.052 A 
ATOM     20  O   UNL     1       1.527  -7.144  -0.368  1.00  0.00    -0.451 OA
ATOM     21  C   UNL     1       2.959  -8.296   0.901  1.00  0.00     0.057 A 
BRANCH  18  22
ATOM     22  C   UNL     1       1.609  -4.915   0.485  1.00  0.00     0.095 A 
ATOM     23  C   UNL     1       0.719  -2.229   0.604  1.00  0.00     0.125 A 
ATOM     24  C   UNL     1      -0.168  -3.284   0.826  1.00  0.00     0.047 A 
ATOM     25  C   UNL     1       2.051  -2.506   0.310  1.00  0.00     0.132 A 
ATOM     26  C   UNL     1       0.266  -4.613   0.753  1.00  0.00     0.023 A 
ATOM     27  C   UNL     1       2.487  -3.844   0.248  1.00  0.00     0.284 A 
BRANCH  23  28
ATOM     28  O   UNL     1       0.186  -0.979   0.748  1.00  0.00    -0.497 OA
ATOM     29  C   UNL     1       0.833   0.064   0.027  1.00  0.00     0.278 C 
ENDBRANCH  23  28
BRANCH  27  30
ATOM     30  N   UNL     1       3.898  -4.068  -0.063  1.00  0.00     0.063 N 
ATOM     31  O   UNL     1       4.196  -4.998  -0.822  1.00  0.00    -0.258 OA
ATOM     32  O   UNL     1       4.713  -3.273   0.429  1.00  0.00    -0.258 OA
ENDBRANCH  27  30
ENDBRANCH  18  22
ENDBRANCH  14  17
ENDBRANCH  12  13
ENDBRANCH   7  12
ENDBRANCH   4   6
ENDBRANCH   3   4
ENDBRANCH   2   3
ENDBRANCH   1   2
BRANCH   1  33
ATOM     33  O   UNL     1       3.558 -16.359   5.678  1.00  0.00    -0.374 OA
BRANCH  33  34
ATOM     34  C   UNL     1       4.391 -15.554   4.843  1.00  0.00     0.202 C 
BRANCH  34  35
ATOM     35  C   UNL     1       5.773 -16.119   4.491  1.00  0.00     0.261 C 
BRANCH  35  36
ATOM     36  O   UNL     1       5.690 -17.257   3.614  1.00  0.00    -0.460 OA
BRANCH  36  37
ATOM     37  C   UNL     1       5.977 -18.446   4.197  1.00  0.00     0.338 C 
ATOM     38  O   UNL     1       6.350 -18.626   5.349  1.00  0.00    -0.246 OA
BRANCH  37  39
ATOM     39  C   UNL     1       5.590 -19.551   3.300  1.00  0.00     0.060 A 
ATOM     40  C   UNL     1       4.771 -20.559   3.826  1.00  0.00     0.016 A 
ATOM     41  C   UNL     1       6.063 -19.634   1.989  1.00  0.00     0.016 A 
ATOM     42  C   UNL     1       4.458 -21.678   3.056  1.00  0.00     0.010 A 
ATOM     43  C   UNL     1       5.755 -20.762   1.222  1.00  0.00     0.010 A 
ATOM     44  C   UNL     1       4.979 -21.804   1.762  1.00  0.00    -0.014 A 
BRANCH  44  45
ATOM     45  C   UNL     1       4.837 -23.087   1.029  1.00  0.00     0.031 A 
ATOM     46  C   UNL     1       6.010 -24.028   0.982  1.00  0.00     0.074 A 
ATOM     47  C   UNL     1       3.680 -23.414   0.426  1.00  0.00     0.049 A 
ATOM     48  N   UNL     1       6.146 -25.158   0.337  1.00  0.00    -0.248 NA
ATOM     49  C   UNL     1       7.192 -23.634   1.764  1.00  0.00     0.031 C 
ATOM     50  C   UNL     1       2.461 -22.608   0.449  1.00  0.00     0.029 A 
ATOM     51  N   UNL     1       3.346 -24.509  -0.331  1.00  0.00    -0.354 N 
ATOM     52  C   UNL     1       7.430 -25.608   0.627  1.00  0.00     0.074 A 
ATOM     53  C   UNL     1       8.043 -24.606   1.474  1.00  0.00     0.031 C 
ATOM     54  C   UNL     1       1.514 -23.231  -0.274  1.00  0.00     0.029 A 
ATOM     55  C   UNL     1       2.072 -24.454  -0.847  1.00  0.00     0.049 A 
ATOM     56  H   UNL     1       3.960 -25.262  -0.490  1.00  0.00     0.167 HD
ATOM     57  C   UNL     1       8.037 -26.753   0.228  1.00  0.00     0.034 A 
ATOM     58  C   UNL     1       1.442 -25.280  -1.707  1.00  0.00     0.034 A 
ATOM     59  C   UNL     1       7.412 -27.735  -0.626  1.00  0.00     0.049 A 
ATOM     60  C   UNL     1       2.170 -26.503  -2.214  1.00  0.00     0.074 A 
ATOM     61  C   UNL     1       7.930 -28.934  -1.083  1.00  0.00     0.029 A 
ATOM     62  N   UNL     1       6.136 -27.625  -1.164  1.00  0.00    -0.354 N 
ATOM     63  N   UNL     1       3.385 -26.918  -1.936  1.00  0.00    -0.248 NA
ATOM     64  C   UNL     1       1.439 -27.371  -3.147  1.00  0.00     0.031 C 
ATOM     65  C   UNL     1       7.000 -29.510  -1.955  1.00  0.00     0.029 A 
ATOM     66  C   UNL     1       5.865 -28.716  -1.976  1.00  0.00     0.049 A 
ATOM     67  H   UNL     1       5.515 -26.881  -0.995  1.00  0.00     0.167 HD
ATOM     68  C   UNL     1       3.547 -28.115  -2.630  1.00  0.00     0.074 A 
ATOM     69  C   UNL     1       2.304 -28.358  -3.332  1.00  0.00     0.031 C 
ATOM     70  C   UNL     1       4.622 -28.944  -2.677  1.00  0.00     0.034 A 
BRANCH  57  71
ATOM     71  C   UNL     1       9.465 -26.971   0.668  1.00  0.00     0.023 A 
ATOM     72  C   UNL     1       9.812 -27.110   2.024  1.00  0.00     0.031 A 
ATOM     73  C   UNL     1      10.501 -27.011  -0.282  1.00  0.00     0.131 A 
ATOM     74  C   UNL     1      11.162 -27.207   2.395  1.00  0.00     0.055 A 
ATOM     75  C   UNL     1      11.835 -27.192   0.088  1.00  0.00     0.041 A 
ATOM     76  F   UNL     1      10.236 -26.859  -1.589  1.00  0.00    -0.206 F 
ATOM     77  C   UNL     1      12.174 -27.276   1.435  1.00  0.00     0.022 A 
BRANCH  74  78
ATOM     78  S   UNL     1      11.588 -27.091   4.155  1.00  0.00     0.124 S 
ATOM     79  O   UNL     1      11.022 -25.792   4.510  1.00  0.00    -0.237 OA
ATOM     80  O   UNL     1      10.918 -28.257   4.719  1.00  0.00    -0.237 OA
ATOM     81  O   UNL     1      13.049 -27.148   4.158  1.00  0.00    -0.744 OA
ENDBRANCH  74  78
ENDBRANCH  57  71
BRANCH  58  82
ATOM     82  C   UNL     1       0.064 -24.966  -2.184  1.00  0.00     0.023 A 
ATOM     83  C   UNL     1      -1.013 -25.822  -1.909  1.00  0.00     0.031 A 
ATOM     84  C   UNL     1      -0.184 -23.828  -2.974  1.00  0.00     0.131 A 
ATOM     85  C   UNL     1      -2.278 -25.554  -2.457  1.00  0.00     0.055 A 
ATOM     86  C   UNL     1      -1.456 -23.536  -3.470  1.00  0.00     0.041 A 
ATOM     87  F   UNL     1       0.811 -22.977  -3.271  1.00  0.00    -0.206 F 
ATOM     88  C   UNL     1      -2.509 -24.410  -3.223  1.00  0.00     0.022 A 
BRANCH  85  89
ATOM     89  S   UNL     1      -3.599 -26.776  -2.228  1.00  0.00     0.124 S 
ATOM     90  O   UNL     1      -3.008 -27.966  -2.828  1.00  0.00    -0.237 OA
ATOM     91  O   UNL     1      -3.747 -26.793  -0.777  1.00  0.00    -0.237 OA
ATOM     92  O   UNL     1      -4.725 -26.199  -2.961  1.00  0.00    -0.744 OA
ENDBRANCH  85  89
ENDBRANCH  58  82
BRANCH  70  93
ATOM     93  C   UNL     1       4.476 -30.221  -3.471  1.00  0.00     0.023 A 
ATOM     94  C   UNL     1       4.324 -30.217  -4.869  1.00  0.00     0.031 A 
ATOM     95  C   UNL     1       4.487 -31.464  -2.812  1.00  0.00     0.131 A 
ATOM     96  C   UNL     1       4.133 -31.427  -5.554  1.00  0.00     0.055 A 
ATOM     97  C   UNL     1       4.360 -32.667  -3.506  1.00  0.00     0.041 A 
ATOM     98  F   UNL     1       4.626 -31.529  -1.478  1.00  0.00    -0.206 F 
ATOM     99  C   UNL     1       4.168 -32.653  -4.885  1.00  0.00     0.022 A 
BRANCH  96 100
ATOM    100  S   UNL     1       3.743 -31.374  -7.325  1.00  0.00     0.124 S 
ATOM    101  O   UNL     1       2.529 -30.563  -7.345  1.00  0.00    -0.237 OA
ATOM    102  O   UNL     1       4.935 -30.750  -7.889  1.00  0.00    -0.237 OA
ATOM    103  O   UNL     1       3.555 -32.780  -7.678  1.00  0.00    -0.744 OA
ENDBRANCH  96 100
ENDBRANCH  70  93
ENDBRANCH  44  45
ENDBRANCH  37  39
ENDBRANCH  36  37
ENDBRANCH  35  36
ENDBRANCH  34  35
ENDBRANCH  33  34
ENDBRANCH   1  33
TORSDOF 23
