REMARK SMILES C[C@@H]1C(C(=O)OCCOCCOC(=O)c2ccc(-c3c4nc(c(-c5cc(S(=O)(=O)[O-])ccc5F)c5ccc([nH]5)c(-c5cc(S(=O)(=O)[O-])ccc5F)c5nc(c(-c6cc(S(=O)(=O)[O-])ccc6F)c6ccc3[nH]6)C=C5)C=C4)cc2)=NC2=C1C(=O)C[C@H](c1ccccc1)C2
REMARK SMILES IDX 10 1 9 2 8 3 7 4 6 5 4 6 5 7 3 8 1 9 2 10 80 11 78 12 79 13
REMARK SMILES IDX 81 14 91 15 82 16 83 17 84 18 85 19 86 20 90 21 87 22 89 23
REMARK SMILES IDX 88 24 11 25 12 26 13 27 14 28 15 29 16 30 77 31 17 32 76 33
REMARK SMILES IDX 18 34 19 35 20 36 70 37 21 38 75 39 69 40 71 41 22 42 74 43
REMARK SMILES IDX 68 44 67 45 23 47 55 48 35 49 54 50 36 51 39 52 53 53 72 54
REMARK SMILES IDX 37 55 38 56 52 58 73 59 40 60 24 61 25 62 33 63 26 64 32 65
REMARK SMILES IDX 34 66 31 67 27 68 28 69 29 70 30 71 56 72 57 73 65 74 58 75
REMARK SMILES IDX 64 76 66 77 63 78 59 79 60 80 61 81 62 82 41 83 42 84 50 85
REMARK SMILES IDX 43 86 49 87 51 88 48 89 44 90 45 91 46 92 47 93
REMARK H PARENT 71 46 39 57
REMARK Flexibility Score: inf
ROOT
ATOM      1  C   UNL     1      -2.809   1.188   0.439  1.00  0.00     0.202 C 
ENDROOT
BRANCH   1   2
ATOM      2  O   UNL     1      -3.059   1.909  -0.765  1.00  0.00    -0.374 OA
BRANCH   2   3
ATOM      3  C   UNL     1      -2.564   1.262  -1.934  1.00  0.00     0.202 C 
BRANCH   3   4
ATOM      4  C   UNL     1      -1.072   1.547  -2.153  1.00  0.00     0.261 C 
BRANCH   4   5
ATOM      5  O   UNL     1      -0.289   1.139  -1.003  1.00  0.00    -0.459 OA
BRANCH   5   6
ATOM      6  C   UNL     1       0.273   2.120  -0.255  1.00  0.00     0.353 C 
ATOM      7  O   UNL     1       0.436   3.282  -0.574  1.00  0.00    -0.245 OA
BRANCH   6   8
ATOM      8  C   UNL     1       0.516   1.607   1.169  1.00  0.00     0.133 C 
ATOM      9  C   UNL     1       2.273  -0.100   1.423  1.00  0.00     0.020 C 
ATOM     10  C   UNL     1       0.763   0.137   1.429  1.00  0.00     0.078 C 
ATOM     11  C   UNL     1       0.249   0.224   2.821  1.00  0.00     0.026 C 
ATOM     12  N   UNL     1       0.475   2.371   2.237  1.00  0.00    -0.249 NA
ATOM     13  C   UNL     1       0.310   1.475   3.271  1.00  0.00     0.049 C 
ATOM     14  C   UNL     1      -0.649  -0.699   3.521  1.00  0.00     0.161 C 
ATOM     15  C   UNL     1      -0.212   1.826   4.632  1.00  0.00     0.065 C 
ATOM     16  O   UNL     1      -0.508  -1.908   3.360  1.00  0.00    -0.294 OA
ATOM     17  C   UNL     1      -1.796  -0.099   4.368  1.00  0.00     0.089 C 
ATOM     18  C   UNL     1      -1.702   1.437   4.701  1.00  0.00     0.033 C 
BRANCH  18  19
ATOM     19  C   UNL     1      -2.598   2.406   3.902  1.00  0.00    -0.044 A 
ATOM     20  C   UNL     1      -2.092   3.612   3.369  1.00  0.00     0.004 A 
ATOM     21  C   UNL     1      -3.956   2.154   3.676  1.00  0.00     0.004 A 
ATOM     22  C   UNL     1      -2.818   4.402   2.477  1.00  0.00     0.000 A 
ATOM     23  C   UNL     1      -4.704   2.966   2.800  1.00  0.00     0.000 A 
ATOM     24  C   UNL     1      -4.117   4.054   2.158  1.00  0.00     0.000 A 
ENDBRANCH  18  19
ENDBRANCH   6   8
ENDBRANCH   5   6
ENDBRANCH   4   5
ENDBRANCH   3   4
ENDBRANCH   2   3
ENDBRANCH   1   2
BRANCH   1  25
ATOM     25  C   UNL     1      -4.050   0.501   0.963  1.00  0.00     0.261 C 
BRANCH  25  26
ATOM     26  O   UNL     1      -4.104  -0.779   0.379  1.00  0.00    -0.460 OA
BRANCH  26  27
ATOM     27  C   UNL     1      -4.753  -0.934  -0.793  1.00  0.00     0.338 C 
ATOM     28  O   UNL     1      -5.367  -0.124  -1.432  1.00  0.00    -0.246 OA
BRANCH  27  29
ATOM     29  C   UNL     1      -4.639  -2.382  -1.029  1.00  0.00     0.060 A 
ATOM     30  C   UNL     1      -5.671  -2.986  -1.737  1.00  0.00     0.016 A 
ATOM     31  C   UNL     1      -3.715  -3.116  -0.262  1.00  0.00     0.016 A 
ATOM     32  C   UNL     1      -5.937  -4.309  -1.463  1.00  0.00     0.010 A 
ATOM     33  C   UNL     1      -4.030  -4.400   0.070  1.00  0.00     0.010 A 
ATOM     34  C   UNL     1      -5.183  -4.954  -0.475  1.00  0.00    -0.014 A 
BRANCH  34  35
ATOM     35  C   UNL     1      -5.464  -6.330  -0.143  1.00  0.00     0.031 A 
ATOM     36  C   UNL     1      -4.794  -7.221  -1.115  1.00  0.00     0.074 A 
ATOM     37  C   UNL     1      -6.074  -6.703   0.996  1.00  0.00     0.049 A 
ATOM     38  N   UNL     1      -5.301  -7.684  -2.212  1.00  0.00    -0.248 NA
ATOM     39  C   UNL     1      -3.318  -7.298  -1.069  1.00  0.00     0.031 C 
ATOM     40  C   UNL     1      -6.492  -5.883   2.133  1.00  0.00     0.029 A 
ATOM     41  N   UNL     1      -6.387  -7.958   1.404  1.00  0.00    -0.354 N 
ATOM     42  C   UNL     1      -4.256  -8.383  -2.795  1.00  0.00     0.074 A 
ATOM     43  C   UNL     1      -3.065  -7.772  -2.289  1.00  0.00     0.031 C 
ATOM     44  C   UNL     1      -6.802  -6.690   3.179  1.00  0.00     0.029 A 
ATOM     45  C   UNL     1      -6.726  -8.078   2.750  1.00  0.00     0.049 A 
ATOM     46  H   UNL     1      -6.377  -8.729   0.792  1.00  0.00     0.167 HD
ATOM     47  C   UNL     1      -4.445  -9.649  -3.259  1.00  0.00     0.034 A 
ATOM     48  C   UNL     1      -6.852  -9.250   3.440  1.00  0.00     0.034 A 
ATOM     49  C   UNL     1      -5.865  -9.923  -3.399  1.00  0.00     0.049 A 
ATOM     50  C   UNL     1      -7.053 -10.315   2.414  1.00  0.00     0.074 A 
ATOM     51  C   UNL     1      -6.902  -9.322  -4.088  1.00  0.00     0.029 A 
ATOM     52  N   UNL     1      -6.465 -10.686  -2.418  1.00  0.00    -0.354 N 
ATOM     53  N   UNL     1      -8.107 -10.368   1.643  1.00  0.00    -0.248 NA
ATOM     54  C   UNL     1      -5.866 -10.967   1.874  1.00  0.00     0.031 C 
ATOM     55  C   UNL     1      -8.017  -9.369  -3.199  1.00  0.00     0.029 A 
ATOM     56  C   UNL     1      -7.649 -10.088  -2.059  1.00  0.00     0.049 A 
ATOM     57  H   UNL     1      -6.105 -11.521  -2.039  1.00  0.00     0.167 HD
ATOM     58  C   UNL     1      -7.619 -10.658   0.375  1.00  0.00     0.074 A 
ATOM     59  C   UNL     1      -6.238 -11.090   0.595  1.00  0.00     0.031 C 
ATOM     60  C   UNL     1      -8.267 -10.220  -0.748  1.00  0.00     0.034 A 
BRANCH  47  61
ATOM     61  C   UNL     1      -3.414 -10.761  -3.140  1.00  0.00     0.023 A 
ATOM     62  C   UNL     1      -3.806 -12.020  -3.623  1.00  0.00     0.031 A 
ATOM     63  C   UNL     1      -2.218 -10.753  -2.377  1.00  0.00     0.131 A 
ATOM     64  C   UNL     1      -3.124 -13.187  -3.241  1.00  0.00     0.055 A 
ATOM     65  C   UNL     1      -1.514 -11.912  -2.044  1.00  0.00     0.041 A 
ATOM     66  F   UNL     1      -1.680  -9.655  -1.841  1.00  0.00    -0.206 F 
ATOM     67  C   UNL     1      -1.985 -13.144  -2.445  1.00  0.00     0.022 A 
BRANCH  64  68
ATOM     68  S   UNL     1      -3.862 -14.778  -3.671  1.00  0.00     0.124 S 
ATOM     69  O   UNL     1      -5.192 -14.647  -3.087  1.00  0.00    -0.237 OA
ATOM     70  O   UNL     1      -3.790 -14.754  -5.128  1.00  0.00    -0.237 OA
ATOM     71  O   UNL     1      -2.982 -15.744  -3.018  1.00  0.00    -0.744 OA
ENDBRANCH  64  68
ENDBRANCH  47  61
BRANCH  48  72
ATOM     72  C   UNL     1      -6.396  -9.539   4.838  1.00  0.00     0.023 A 
ATOM     73  C   UNL     1      -6.840 -10.650   5.597  1.00  0.00     0.031 A 
ATOM     74  C   UNL     1      -5.291  -8.829   5.360  1.00  0.00     0.131 A 
ATOM     75  C   UNL     1      -6.188 -10.998   6.810  1.00  0.00     0.055 A 
ATOM     76  C   UNL     1      -4.650  -9.180   6.551  1.00  0.00     0.041 A 
ATOM     77  F   UNL     1      -4.736  -7.813   4.681  1.00  0.00    -0.206 F 
ATOM     78  C   UNL     1      -5.091 -10.272   7.278  1.00  0.00     0.022 A 
BRANCH  75  79
ATOM     79  S   UNL     1      -6.712 -12.454   7.785  1.00  0.00     0.124 S 
ATOM     80  O   UNL     1      -8.051 -12.074   8.220  1.00  0.00    -0.237 OA
ATOM     81  O   UNL     1      -6.627 -13.534   6.809  1.00  0.00    -0.237 OA
ATOM     82  O   UNL     1      -5.719 -12.524   8.859  1.00  0.00    -0.744 OA
ENDBRANCH  75  79
ENDBRANCH  48  72
BRANCH  60  83
ATOM     83  C   UNL     1      -9.681  -9.681  -0.597  1.00  0.00     0.023 A 
ATOM     84  C   UNL     1     -10.065  -8.570   0.194  1.00  0.00     0.031 A 
ATOM     85  C   UNL     1     -10.669 -10.277  -1.401  1.00  0.00     0.131 A 
ATOM     86  C   UNL     1     -11.400  -8.109   0.161  1.00  0.00     0.055 A 
ATOM     87  C   UNL     1     -11.979  -9.803  -1.448  1.00  0.00     0.041 A 
ATOM     88  F   UNL     1     -10.364 -11.320  -2.190  1.00  0.00    -0.206 F 
ATOM     89  C   UNL     1     -12.351  -8.721  -0.663  1.00  0.00     0.022 A 
BRANCH  86  90
ATOM     90  S   UNL     1     -11.944  -6.716   1.208  1.00  0.00     0.124 S 
ATOM     91  O   UNL     1     -11.400  -7.045   2.521  1.00  0.00    -0.237 OA
ATOM     92  O   UNL     1     -11.345  -5.565   0.538  1.00  0.00    -0.237 OA
ATOM     93  O   UNL     1     -13.405  -6.775   1.122  1.00  0.00    -0.744 OA
ENDBRANCH  86  90
ENDBRANCH  60  83
ENDBRANCH  34  35
ENDBRANCH  27  29
ENDBRANCH  26  27
ENDBRANCH  25  26
ENDBRANCH   1  25
TORSDOF 18
