REMARK SMILES CC(C)n1ccc(C[C@@H](C(=O)OCCOCCOC(=O)c2ccc(-c3c4nc(c(-c5cc(S(=O)(=O)[O-])ccc5F)c5ccc([nH]5)c(-c5cc(S(=O)(=O)[O-])ccc5F)c5nc(c(-c6cc(S(=O)(=O)[O-])ccc6F)c6ccc3[nH]6)C=C5)C=C4)cc2)c2cccc(Cl)c2)n1
REMARK SMILES IDX 15 1 14 2 13 3 12 4 10 5 11 6 9 7 8 8 7 9 4 10 5 11 91 12
REMARK SMILES IDX 6 13 2 14 1 15 3 16 84 17 85 18 90 19 86 20 88 21 87 22
REMARK SMILES IDX 89 23 16 24 17 25 18 26 19 27 20 28 21 29 22 30 83 31 23 32
REMARK SMILES IDX 82 33 24 34 25 35 26 36 76 37 27 38 81 39 75 40 77 41 28 42
REMARK SMILES IDX 80 43 74 44 73 45 29 47 61 48 41 49 60 50 42 51 45 52 59 53
REMARK SMILES IDX 78 54 43 55 44 56 58 58 79 59 46 60 30 61 31 62 39 63 32 64
REMARK SMILES IDX 38 65 40 66 37 67 33 68 34 69 35 70 36 71 62 72 63 73 71 74
REMARK SMILES IDX 64 75 70 76 72 77 69 78 65 79 66 80 67 81 68 82 47 83 48 84
REMARK SMILES IDX 56 85 49 86 55 87 57 88 54 89 50 90 51 91 52 92 53 93
REMARK H PARENT 77 46 45 57
REMARK Flexibility Score: inf
ROOT
ATOM      1  O   UNL     1      -7.406  -2.610   1.023  1.00  0.00    -0.374 OA
ENDROOT
BRANCH   1   2
ATOM      2  C   UNL     1      -6.239  -3.274   0.526  1.00  0.00     0.202 C 
BRANCH   2   3
ATOM      3  C   UNL     1      -5.685  -2.685  -0.774  1.00  0.00     0.261 C 
BRANCH   3   4
ATOM      4  O   UNL     1      -5.083  -1.411  -0.478  1.00  0.00    -0.463 OA
BRANCH   4   5
ATOM      5  C   UNL     1      -5.432  -0.330  -1.204  1.00  0.00     0.313 C 
ATOM      6  O   UNL     1      -6.111  -0.388  -2.225  1.00  0.00    -0.252 OA
BRANCH   5   7
ATOM      7  C   UNL     1      -4.974   0.994  -0.563  1.00  0.00     0.135 C 
BRANCH   7   8
ATOM      8  C   UNL     1      -4.134   0.927   0.744  1.00  0.00     0.078 C 
BRANCH   8   9
ATOM      9  C   UNL     1      -2.897   0.066   0.785  1.00  0.00     0.064 A 
ATOM     10  N   UNL     1      -0.837  -0.448   0.979  1.00  0.00    -0.270 N 
ATOM     11  C   UNL     1      -1.498  -1.620   1.187  1.00  0.00     0.109 A 
ATOM     12  N   UNL     1      -1.663   0.589   0.682  1.00  0.00    -0.178 NA
ATOM     13  C   UNL     1      -2.826  -1.308   1.111  1.00  0.00     0.045 A 
BRANCH  10  14
ATOM     14  C   UNL     1       0.609  -0.290   1.088  1.00  0.00     0.101 C 
ATOM     15  C   UNL     1       1.213   0.262  -0.197  1.00  0.00     0.033 C 
ATOM     16  C   UNL     1       1.009   0.521   2.319  1.00  0.00     0.033 C 
ENDBRANCH  10  14
ENDBRANCH   8   9
ENDBRANCH   7   8
BRANCH   7  17
ATOM     17  C   UNL     1      -6.182   1.939  -0.319  1.00  0.00    -0.032 A 
ATOM     18  C   UNL     1      -5.970   3.322  -0.196  1.00  0.00     0.005 A 
ATOM     19  C   UNL     1      -7.502   1.470  -0.154  1.00  0.00     0.025 A 
ATOM     20  C   UNL     1      -7.026   4.194   0.101  1.00  0.00     0.002 A 
ATOM     21  C   UNL     1      -8.550   2.340   0.162  1.00  0.00     0.041 A 
ATOM     22  C   UNL     1      -8.316   3.702   0.292  1.00  0.00     0.020 A 
ATOM     23  Cl  UNL     1     -10.137   1.718   0.407  1.00  0.00    -0.084 Cl
ENDBRANCH   7  17
ENDBRANCH   5   7
ENDBRANCH   4   5
ENDBRANCH   3   4
ENDBRANCH   2   3
ENDBRANCH   1   2
BRANCH   1  24
ATOM     24  C   UNL     1      -7.220  -1.378   1.713  1.00  0.00     0.202 C 
BRANCH  24  25
ATOM     25  C   UNL     1      -6.867  -1.465   3.186  1.00  0.00     0.261 C 
BRANCH  25  26
ATOM     26  O   UNL     1      -5.527  -1.902   3.337  1.00  0.00    -0.460 OA
BRANCH  26  27
ATOM     27  C   UNL     1      -5.366  -3.208   3.656  1.00  0.00     0.338 C 
ATOM     28  O   UNL     1      -6.184  -4.093   3.587  1.00  0.00    -0.246 OA
BRANCH  27  29
ATOM     29  C   UNL     1      -4.019  -3.328   4.233  1.00  0.00     0.060 A 
ATOM     30  C   UNL     1      -3.717  -4.518   4.891  1.00  0.00     0.016 A 
ATOM     31  C   UNL     1      -3.197  -2.193   4.332  1.00  0.00     0.016 A 
ATOM     32  C   UNL     1      -2.717  -4.491   5.837  1.00  0.00     0.010 A 
ATOM     33  C   UNL     1      -2.193  -2.172   5.257  1.00  0.00     0.010 A 
ATOM     34  C   UNL     1      -2.046  -3.284   6.072  1.00  0.00    -0.014 A 
BRANCH  34  35
ATOM     35  C   UNL     1      -1.065  -3.212   7.128  1.00  0.00     0.031 A 
ATOM     36  C   UNL     1       0.157  -3.948   6.756  1.00  0.00     0.074 A 
ATOM     37  C   UNL     1      -1.240  -2.449   8.225  1.00  0.00     0.049 A 
ATOM     38  N   UNL     1       0.489  -5.131   7.147  1.00  0.00    -0.248 NA
ATOM     39  C   UNL     1       0.940  -3.462   5.604  1.00  0.00     0.031 C 
ATOM     40  C   UNL     1      -2.325  -1.511   8.524  1.00  0.00     0.029 A 
ATOM     41  N   UNL     1      -0.417  -2.297   9.294  1.00  0.00    -0.354 N 
ATOM     42  C   UNL     1       1.702  -5.383   6.526  1.00  0.00     0.074 A 
ATOM     43  C   UNL     1       1.752  -4.499   5.397  1.00  0.00     0.031 C 
ATOM     44  C   UNL     1      -1.975  -0.736   9.579  1.00  0.00     0.029 A 
ATOM     45  C   UNL     1      -0.705  -1.205  10.113  1.00  0.00     0.049 A 
ATOM     46  H   UNL     1       0.328  -2.913   9.478  1.00  0.00     0.167 HD
ATOM     47  C   UNL     1       2.691  -6.024   7.204  1.00  0.00     0.034 A 
ATOM     48  C   UNL     1       0.082  -0.711  11.113  1.00  0.00     0.034 A 
ATOM     49  C   UNL     1       2.148  -6.704   8.366  1.00  0.00     0.049 A 
ATOM     50  C   UNL     1       1.003  -1.814  11.503  1.00  0.00     0.074 A 
ATOM     51  C   UNL     1       1.170  -7.664   8.549  1.00  0.00     0.029 A 
ATOM     52  N   UNL     1       2.315  -6.104   9.597  1.00  0.00    -0.354 N 
ATOM     53  N   UNL     1       0.586  -2.916  12.066  1.00  0.00    -0.248 NA
ATOM     54  C   UNL     1       2.265  -1.931  10.785  1.00  0.00     0.031 C 
ATOM     55  C   UNL     1       0.469  -7.260   9.724  1.00  0.00     0.029 A 
ATOM     56  C   UNL     1       1.114  -6.146  10.266  1.00  0.00     0.049 A 
ATOM     57  H   UNL     1       3.151  -5.713   9.938  1.00  0.00     0.167 HD
ATOM     58  C   UNL     1       1.266  -3.935  11.414  1.00  0.00     0.074 A 
ATOM     59  C   UNL     1       2.349  -3.263  10.694  1.00  0.00     0.031 C 
ATOM     60  C   UNL     1       0.706  -5.174  11.267  1.00  0.00     0.034 A 
BRANCH  47  61
ATOM     61  C   UNL     1       4.160  -5.674   7.085  1.00  0.00     0.023 A 
ATOM     62  C   UNL     1       5.042  -6.401   7.904  1.00  0.00     0.031 A 
ATOM     63  C   UNL     1       4.708  -4.523   6.469  1.00  0.00     0.131 A 
ATOM     64  C   UNL     1       6.330  -5.918   8.184  1.00  0.00     0.055 A 
ATOM     65  C   UNL     1       6.012  -4.081   6.702  1.00  0.00     0.041 A 
ATOM     66  F   UNL     1       4.008  -3.705   5.676  1.00  0.00    -0.206 F 
ATOM     67  C   UNL     1       6.821  -4.759   7.593  1.00  0.00     0.022 A 
BRANCH  64  68
ATOM     68  S   UNL     1       7.280  -6.743   9.481  1.00  0.00     0.124 S 
ATOM     69  O   UNL     1       6.355  -6.670  10.607  1.00  0.00    -0.237 OA
ATOM     70  O   UNL     1       7.489  -8.065   8.900  1.00  0.00    -0.237 OA
ATOM     71  O   UNL     1       8.477  -5.915   9.598  1.00  0.00    -0.744 OA
ENDBRANCH  64  68
ENDBRANCH  47  61
BRANCH  48  72
ATOM     72  C   UNL     1       0.333   0.723  11.464  1.00  0.00     0.023 A 
ATOM     73  C   UNL     1       0.906   1.141  12.690  1.00  0.00     0.031 A 
ATOM     74  C   UNL     1       0.240   1.704  10.451  1.00  0.00     0.131 A 
ATOM     75  C   UNL     1       1.355   2.478  12.855  1.00  0.00     0.055 A 
ATOM     76  C   UNL     1       0.690   3.017  10.618  1.00  0.00     0.041 A 
ATOM     77  F   UNL     1      -0.211   1.397   9.225  1.00  0.00    -0.206 F 
ATOM     78  C   UNL     1       1.259   3.407  11.817  1.00  0.00     0.022 A 
BRANCH  75  79
ATOM     79  S   UNL     1       2.153   3.027  14.406  1.00  0.00     0.124 S 
ATOM     80  O   UNL     1       1.054   2.964  15.362  1.00  0.00    -0.237 OA
ATOM     81  O   UNL     1       3.221   2.048  14.576  1.00  0.00    -0.237 OA
ATOM     82  O   UNL     1       2.615   4.381  14.094  1.00  0.00    -0.744 OA
ENDBRANCH  75  79
ENDBRANCH  48  72
BRANCH  60  83
ATOM     83  C   UNL     1      -0.531  -5.504  12.088  1.00  0.00     0.023 A 
ATOM     84  C   UNL     1      -1.752  -4.785  12.069  1.00  0.00     0.031 A 
ATOM     85  C   UNL     1      -0.484  -6.678  12.860  1.00  0.00     0.131 A 
ATOM     86  C   UNL     1      -2.854  -5.245  12.822  1.00  0.00     0.055 A 
ATOM     87  C   UNL     1      -1.582  -7.142  13.580  1.00  0.00     0.041 A 
ATOM     88  F   UNL     1       0.636  -7.418  12.903  1.00  0.00    -0.206 F 
ATOM     89  C   UNL     1      -2.770  -6.423  13.571  1.00  0.00     0.022 A 
BRANCH  86  90
ATOM     90  S   UNL     1      -4.415  -4.303  12.877  1.00  0.00     0.124 S 
ATOM     91  O   UNL     1      -3.978  -2.927  13.082  1.00  0.00    -0.237 OA
ATOM     92  O   UNL     1      -5.007  -4.597  11.575  1.00  0.00    -0.237 OA
ATOM     93  O   UNL     1      -5.127  -4.891  14.014  1.00  0.00    -0.744 OA
ENDBRANCH  86  90
ENDBRANCH  60  83
ENDBRANCH  34  35
ENDBRANCH  27  29
ENDBRANCH  26  27
ENDBRANCH  25  26
ENDBRANCH  24  25
ENDBRANCH   1  24
TORSDOF 21
