REMARK SMILES Cc1nc(-c2ccc(S(=O)(=O)N3CC[NH2+][C@H](C(=O)OCCOCCOC(=O)c4ccc(-c5c6nc(c(-c7cc(S(=O)(=O)[O-])ccc7F)c7ccc([nH]7)c(-c7cc(S(=O)(=O)[O-])ccc7F)c7nc(c(-c8cc(S(=O)(=O)[O-])ccc8F)c8ccc5[nH]8)C=C7)C=C6)cc4)C3)s2)cs1
REMARK SMILES IDX 22 1 21 2 20 3 19 4 17 5 18 6 16 7 12 8 13 9 91 10 14 11
REMARK SMILES IDX 15 12 9 15 10 16 11 17 8 18 5 19 6 20 92 21 7 22 4 23 1 24
REMARK SMILES IDX 2 25 3 26 94 27 93 28 23 29 24 30 25 31 26 32 27 33 28 34
REMARK SMILES IDX 29 35 90 36 30 37 89 38 31 39 32 40 33 41 83 42 34 43 88 44
REMARK SMILES IDX 82 45 84 46 35 47 87 48 81 49 80 50 36 52 68 53 48 54 67 55
REMARK SMILES IDX 49 56 52 57 66 58 85 59 50 60 51 61 65 63 86 64 53 65 37 66
REMARK SMILES IDX 38 67 46 68 39 69 45 70 47 71 44 72 40 73 41 74 42 75 43 76
REMARK SMILES IDX 69 77 70 78 78 79 71 80 77 81 79 82 76 83 72 84 73 85 74 86
REMARK SMILES IDX 75 87 54 88 55 89 63 90 56 91 62 92 64 93 61 94 57 95 58 96
REMARK SMILES IDX 59 97 60 98
REMARK H PARENT 15 13 15 14 84 51 52 62
REMARK Flexibility Score: inf
ROOT
ATOM      1  O   UNL     1       4.454  -5.144  -6.684  1.00  0.00    -0.374 OA
ENDROOT
BRANCH   1   2
ATOM      2  C   UNL     1       5.786  -4.682  -6.476  1.00  0.00     0.202 C 
BRANCH   2   3
ATOM      3  C   UNL     1       6.128  -4.013  -5.142  1.00  0.00     0.261 C 
BRANCH   3   4
ATOM      4  O   UNL     1       5.889  -4.870  -4.009  1.00  0.00    -0.459 OA
BRANCH   4   5
ATOM      5  C   UNL     1       4.987  -4.372  -3.126  1.00  0.00     0.366 C 
ATOM      6  O   UNL     1       4.472  -3.259  -3.197  1.00  0.00    -0.245 OA
BRANCH   5   7
ATOM      7  C   UNL     1       4.623  -5.330  -2.010  1.00  0.00     0.308 C 
ATOM      8  N   UNL     1       5.150  -6.077   0.237  1.00  0.00    -0.185 NA
ATOM      9  C   UNL     1       4.389  -7.341   0.033  1.00  0.00     0.164 C 
ATOM     10  C   UNL     1       5.756  -5.560  -1.020  1.00  0.00     0.180 C 
ATOM     11  C   UNL     1       3.494  -7.335  -1.234  1.00  0.00     0.278 C 
ATOM     12  N   UNL     1       4.001  -6.621  -2.430  1.00  0.00    -0.332 N 
ATOM     13  H   UNL     1       3.228  -6.435  -3.068  1.00  0.00     0.347 HD
ATOM     14  H   UNL     1       4.699  -7.198  -2.900  1.00  0.00     0.347 HD
BRANCH   8  15
ATOM     15  S   UNL     1       4.674  -4.944   1.412  1.00  0.00     0.253 S 
ATOM     16  O   UNL     1       5.784  -4.024   1.566  1.00  0.00    -0.206 OA
ATOM     17  O   UNL     1       4.131  -5.671   2.536  1.00  0.00    -0.206 OA
BRANCH  15  18
ATOM     18  C   UNL     1       3.296  -3.936   0.846  1.00  0.00     0.135 A 
ATOM     19  C   UNL     1       1.807  -1.978   0.523  1.00  0.00     0.055 A 
ATOM     20  C   UNL     1       1.325  -3.107  -0.098  1.00  0.00     0.023 A 
ATOM     21  S   UNL     1       3.313  -2.261   1.268  1.00  0.00    -0.121 S 
ATOM     22  C   UNL     1       2.141  -4.237   0.148  1.00  0.00     0.034 A 
BRANCH  19  23
ATOM     23  C   UNL     1       1.001  -0.718   0.528  1.00  0.00     0.091 A 
ATOM     24  C   UNL     1      -2.349   0.625   0.016  1.00  0.00     0.079 C 
ATOM     25  C   UNL     1      -0.904   0.389   0.280  1.00  0.00     0.090 A 
ATOM     26  N   UNL     1      -0.327  -0.778   0.128  1.00  0.00    -0.241 NA
ATOM     27  S   UNL     1       0.127   1.650   0.822  1.00  0.00    -0.127 S 
ATOM     28  C   UNL     1       1.429   0.528   0.932  1.00  0.00     0.096 A 
ENDBRANCH  19  23
ENDBRANCH  15  18
ENDBRANCH   8  15
ENDBRANCH   5   7
ENDBRANCH   4   5
ENDBRANCH   3   4
ENDBRANCH   2   3
ENDBRANCH   1   2
BRANCH   1  29
ATOM     29  C   UNL     1       3.942  -6.161  -5.829  1.00  0.00     0.202 C 
BRANCH  29  30
ATOM     30  C   UNL     1       4.578  -7.560  -5.876  1.00  0.00     0.261 C 
BRANCH  30  31
ATOM     31  O   UNL     1       6.005  -7.571  -5.685  1.00  0.00    -0.460 OA
BRANCH  31  32
ATOM     32  C   UNL     1       6.699  -7.933  -6.798  1.00  0.00     0.338 C 
ATOM     33  O   UNL     1       6.229  -8.304  -7.861  1.00  0.00    -0.246 OA
BRANCH  32  34
ATOM     34  C   UNL     1       8.137  -7.638  -6.648  1.00  0.00     0.060 A 
ATOM     35  C   UNL     1       8.713  -6.788  -7.603  1.00  0.00     0.016 A 
ATOM     36  C   UNL     1       8.932  -8.272  -5.692  1.00  0.00     0.016 A 
ATOM     37  C   UNL     1      10.092  -6.617  -7.645  1.00  0.00     0.010 A 
ATOM     38  C   UNL     1      10.324  -8.109  -5.745  1.00  0.00     0.010 A 
ATOM     39  C   UNL     1      10.910  -7.320  -6.752  1.00  0.00    -0.014 A 
BRANCH  39  40
ATOM     40  C   UNL     1      12.367  -7.375  -7.033  1.00  0.00     0.031 A 
ATOM     41  C   UNL     1      12.909  -8.558  -7.793  1.00  0.00     0.074 A 
ATOM     42  C   UNL     1      13.171  -6.347  -6.709  1.00  0.00     0.049 A 
ATOM     43  N   UNL     1      14.125  -8.792  -8.212  1.00  0.00    -0.248 NA
ATOM     44  C   UNL     1      11.943  -9.616  -8.126  1.00  0.00     0.031 C 
ATOM     45  C   UNL     1      12.747  -5.130  -6.019  1.00  0.00     0.029 A 
ATOM     46  N   UNL     1      14.512  -6.158  -6.932  1.00  0.00    -0.354 N 
ATOM     47  C   UNL     1      14.071 -10.021  -8.864  1.00  0.00     0.074 A 
ATOM     48  C   UNL     1      12.712 -10.501  -8.742  1.00  0.00     0.031 C 
ATOM     49  C   UNL     1      13.809  -4.318  -5.876  1.00  0.00     0.029 A 
ATOM     50  C   UNL     1      14.991  -4.967  -6.441  1.00  0.00     0.049 A 
ATOM     51  H   UNL     1      15.078  -6.814  -7.399  1.00  0.00     0.167 HD
ATOM     52  C   UNL     1      15.061 -10.680  -9.516  1.00  0.00     0.034 A 
ATOM     53  C   UNL     1      16.242  -4.464  -6.440  1.00  0.00     0.034 A 
ATOM     54  C   UNL     1      16.415 -10.194  -9.617  1.00  0.00     0.049 A 
ATOM     55  C   UNL     1      17.345  -5.251  -7.107  1.00  0.00     0.074 A 
ATOM     56  C   UNL     1      17.498 -10.778 -10.251  1.00  0.00     0.029 A 
ATOM     57  N   UNL     1      16.876  -9.008  -9.059  1.00  0.00    -0.354 N 
ATOM     58  N   UNL     1      17.278  -6.408  -7.726  1.00  0.00    -0.248 NA
ATOM     59  C   UNL     1      18.686  -4.655  -7.088  1.00  0.00     0.031 C 
ATOM     60  C   UNL     1      18.625  -9.981 -10.019  1.00  0.00     0.029 A 
ATOM     61  C   UNL     1      18.232  -8.859  -9.306  1.00  0.00     0.049 A 
ATOM     62  H   UNL     1      16.320  -8.367  -8.560  1.00  0.00     0.167 HD
ATOM     63  C   UNL     1      18.565  -6.662  -8.196  1.00  0.00     0.074 A 
ATOM     64  C   UNL     1      19.379  -5.529  -7.802  1.00  0.00     0.031 C 
ATOM     65  C   UNL     1      19.033  -7.729  -8.893  1.00  0.00     0.034 A 
BRANCH  52  66
ATOM     66  C   UNL     1      14.715 -12.023 -10.117  1.00  0.00     0.023 A 
ATOM     67  C   UNL     1      13.781 -12.150 -11.161  1.00  0.00     0.031 A 
ATOM     68  C   UNL     1      15.297 -13.197  -9.608  1.00  0.00     0.131 A 
ATOM     69  C   UNL     1      13.403 -13.425 -11.611  1.00  0.00     0.055 A 
ATOM     70  C   UNL     1      14.975 -14.458 -10.114  1.00  0.00     0.041 A 
ATOM     71  F   UNL     1      16.176 -13.141  -8.595  1.00  0.00    -0.206 F 
ATOM     72  C   UNL     1      14.011 -14.579 -11.111  1.00  0.00     0.022 A 
BRANCH  69  73
ATOM     73  S   UNL     1      12.000 -13.564 -12.752  1.00  0.00     0.124 S 
ATOM     74  O   UNL     1      10.929 -12.939 -11.980  1.00  0.00    -0.237 OA
ATOM     75  O   UNL     1      12.466 -12.820 -13.917  1.00  0.00    -0.237 OA
ATOM     76  O   UNL     1      11.857 -15.005 -12.948  1.00  0.00    -0.744 OA
ENDBRANCH  69  73
ENDBRANCH  52  66
BRANCH  53  77
ATOM     77  C   UNL     1      16.535  -3.167  -5.764  1.00  0.00     0.023 A 
ATOM     78  C   UNL     1      16.992  -2.053  -6.485  1.00  0.00     0.031 A 
ATOM     79  C   UNL     1      16.410  -3.044  -4.369  1.00  0.00     0.131 A 
ATOM     80  C   UNL     1      17.351  -0.879  -5.804  1.00  0.00     0.055 A 
ATOM     81  C   UNL     1      16.720  -1.858  -3.701  1.00  0.00     0.041 A 
ATOM     82  F   UNL     1      15.976  -4.079  -3.632  1.00  0.00    -0.206 F 
ATOM     83  C   UNL     1      17.207  -0.770  -4.419  1.00  0.00     0.022 A 
BRANCH  80  84
ATOM     84  S   UNL     1      18.088   0.484  -6.747  1.00  0.00     0.124 S 
ATOM     85  O   UNL     1      19.255  -0.160  -7.339  1.00  0.00    -0.237 OA
ATOM     86  O   UNL     1      17.011   0.832  -7.668  1.00  0.00    -0.237 OA
ATOM     87  O   UNL     1      18.379   1.487  -5.725  1.00  0.00    -0.744 OA
ENDBRANCH  80  84
ENDBRANCH  53  77
BRANCH  65  88
ATOM     88  C   UNL     1      20.485  -7.693  -9.306  1.00  0.00     0.023 A 
ATOM     89  C   UNL     1      21.525  -7.743  -8.362  1.00  0.00     0.031 A 
ATOM     90  C   UNL     1      20.831  -7.584 -10.665  1.00  0.00     0.131 A 
ATOM     91  C   UNL     1      22.858  -7.618  -8.782  1.00  0.00     0.055 A 
ATOM     92  C   UNL     1      22.161  -7.524 -11.083  1.00  0.00     0.041 A 
ATOM     93  F   UNL     1      19.879  -7.532 -11.611  1.00  0.00    -0.206 F 
ATOM     94  C   UNL     1      23.183  -7.525 -10.138  1.00  0.00     0.022 A 
BRANCH  91  95
ATOM     95  S   UNL     1      24.157  -7.473  -7.525  1.00  0.00     0.124 S 
ATOM     96  O   UNL     1      23.711  -6.314  -6.759  1.00  0.00    -0.237 OA
ATOM     97  O   UNL     1      24.074  -8.760  -6.841  1.00  0.00    -0.237 OA
ATOM     98  O   UNL     1      25.373  -7.267  -8.310  1.00  0.00    -0.744 OA
ENDBRANCH  91  95
ENDBRANCH  65  88
ENDBRANCH  39  40
ENDBRANCH  32  34
ENDBRANCH  31  32
ENDBRANCH  30  31
ENDBRANCH  29  30
ENDBRANCH   1  29
TORSDOF 20
