REMARK SMILES CCN(CC)C(=O)[C@@H]1CC=CC[C@H]1C(=O)Nc1ccc(C(=O)OCCOCCOC(=O)c2ccc(-c3c4nc(c(-c5cc(S(=O)(=O)[O-])ccc5F)c5ccc([nH]5)c(-c5cc(S(=O)(=O)[O-])ccc5F)c5nc(c(-c6cc(S(=O)(=O)[O-])ccc6F)c6ccc3[nH]6)C=C5)C=C4)cc2)cc1
REMARK SMILES IDX 25 1 24 2 23 3 21 4 22 5 20 6 17 7 18 8 96 9 19 10 95 11
REMARK SMILES IDX 16 12 14 13 15 14 13 16 8 17 9 18 10 19 12 20 11 21 6 22
REMARK SMILES IDX 3 23 7 24 2 25 1 26 4 27 5 28 26 29 27 30 28 31 29 32 30 33
REMARK SMILES IDX 31 34 32 35 33 36 94 37 34 38 93 39 35 40 36 41 37 42 87 43
REMARK SMILES IDX 38 44 92 45 86 46 88 47 39 48 91 49 85 50 84 51 40 53 72 54
REMARK SMILES IDX 52 55 71 56 53 57 56 58 70 59 89 60 54 61 55 62 69 64 90 65
REMARK SMILES IDX 57 66 41 67 42 68 50 69 43 70 49 71 51 72 48 73 44 74 45 75
REMARK SMILES IDX 46 76 47 77 73 78 74 79 82 80 75 81 81 82 83 83 80 84 76 85
REMARK SMILES IDX 77 86 78 87 79 88 58 89 59 90 67 91 60 92 66 93 68 94 65 95
REMARK SMILES IDX 61 96 62 97 63 98 64 99
REMARK H PARENT 16 15 88 52 56 63
REMARK Flexibility Score: inf
ROOT
ATOM      1  C   UNL     1       2.520  -2.685   3.616  1.00  0.00     0.202 C 
ENDROOT
BRANCH   1   2
ATOM      2  C   UNL     1       3.291  -2.698   2.293  1.00  0.00     0.261 C 
BRANCH   2   3
ATOM      3  O   UNL     1       2.928  -1.570   1.487  1.00  0.00    -0.460 OA
BRANCH   3   4
ATOM      4  C   UNL     1       2.196  -1.858   0.385  1.00  0.00     0.338 C 
ATOM      5  O   UNL     1       2.002  -2.961  -0.097  1.00  0.00    -0.246 OA
BRANCH   4   6
ATOM      6  C   UNL     1       1.544  -0.628  -0.134  1.00  0.00     0.060 A 
ATOM      7  C   UNL     1       0.425   1.609  -1.359  1.00  0.00     0.041 A 
ATOM      8  C   UNL     1      -0.051   0.341  -1.684  1.00  0.00     0.027 A 
ATOM      9  C   UNL     1       1.281   1.764  -0.275  1.00  0.00     0.027 A 
ATOM     10  C   UNL     1       0.526  -0.779  -1.084  1.00  0.00     0.018 A 
ATOM     11  C   UNL     1       1.876   0.652   0.319  1.00  0.00     0.018 A 
BRANCH   7  12
ATOM     12  N   UNL     1       0.078   2.676  -2.189  1.00  0.00    -0.326 N 
ATOM     13  C   UNL     1       0.895   3.500  -2.921  1.00  0.00     0.228 C 
ATOM     14  O   UNL     1       0.336   4.316  -3.669  1.00  0.00    -0.274 OA
ATOM     15  H   UNL     1      -0.886   2.862  -2.259  1.00  0.00     0.169 HD
BRANCH  13  16
ATOM     16  C   UNL     1       2.432   3.353  -3.000  1.00  0.00     0.095 C 
ATOM     17  C   UNL     1       3.299   3.794  -1.787  1.00  0.00     0.095 C 
ATOM     18  C   UNL     1       4.781   3.662  -2.150  1.00  0.00     0.041 C 
ATOM     19  C   UNL     1       5.127   2.316  -2.717  1.00  0.00    -0.030 C 
ATOM     20  C   UNL     1       2.810   1.968  -3.572  1.00  0.00     0.041 C 
ATOM     21  C   UNL     1       4.232   1.552  -3.354  1.00  0.00    -0.030 C 
BRANCH  17  22
ATOM     22  C   UNL     1       2.718   5.089  -1.179  1.00  0.00     0.226 C 
ATOM     23  N   UNL     1       3.396   6.288  -1.042  1.00  0.00    -0.343 N 
ATOM     24  O   UNL     1       1.539   5.038  -0.793  1.00  0.00    -0.275 OA
BRANCH  23  25
ATOM     25  C   UNL     1       2.577   7.455  -0.672  1.00  0.00     0.116 C 
ATOM     26  C   UNL     1       1.722   7.942  -1.835  1.00  0.00     0.027 C 
ENDBRANCH  23  25
BRANCH  23  27
ATOM     27  C   UNL     1       4.839   6.460  -0.890  1.00  0.00     0.116 C 
ATOM     28  C   UNL     1       5.320   5.974   0.469  1.00  0.00     0.027 C 
ENDBRANCH  23  27
ENDBRANCH  17  22
ENDBRANCH  13  16
ENDBRANCH   7  12
ENDBRANCH   4   6
ENDBRANCH   3   4
ENDBRANCH   2   3
ENDBRANCH   1   2
BRANCH   1  29
ATOM     29  O   UNL     1       1.095  -2.753   3.525  1.00  0.00    -0.374 OA
BRANCH  29  30
ATOM     30  C   UNL     1       0.396  -1.543   3.232  1.00  0.00     0.202 C 
BRANCH  30  31
ATOM     31  C   UNL     1       0.205  -0.536   4.371  1.00  0.00     0.261 C 
BRANCH  31  32
ATOM     32  O   UNL     1       1.448   0.009   4.843  1.00  0.00    -0.460 OA
BRANCH  32  33
ATOM     33  C   UNL     1       1.847  -0.480   6.045  1.00  0.00     0.338 C 
ATOM     34  O   UNL     1       1.241  -1.265   6.752  1.00  0.00    -0.246 OA
BRANCH  33  35
ATOM     35  C   UNL     1       3.240  -0.075   6.317  1.00  0.00     0.060 A 
ATOM     36  C   UNL     1       4.144  -1.084   6.671  1.00  0.00     0.016 A 
ATOM     37  C   UNL     1       3.639   1.264   6.301  1.00  0.00     0.016 A 
ATOM     38  C   UNL     1       5.438  -0.754   7.067  1.00  0.00     0.010 A 
ATOM     39  C   UNL     1       4.938   1.593   6.705  1.00  0.00     0.010 A 
ATOM     40  C   UNL     1       5.830   0.590   7.126  1.00  0.00    -0.014 A 
BRANCH  40  41
ATOM     41  C   UNL     1       7.115   0.946   7.779  1.00  0.00     0.031 A 
ATOM     42  C   UNL     1       7.093   1.467   9.190  1.00  0.00     0.074 A 
ATOM     43  C   UNL     1       8.284   0.770   7.139  1.00  0.00     0.049 A 
ATOM     44  N   UNL     1       8.084   1.869   9.944  1.00  0.00    -0.248 NA
ATOM     45  C   UNL     1       5.773   1.549   9.833  1.00  0.00     0.031 C 
ATOM     46  C   UNL     1       8.433   0.225   5.790  1.00  0.00     0.029 A 
ATOM     47  N   UNL     1       9.570   1.032   7.540  1.00  0.00    -0.354 N 
ATOM     48  C   UNL     1       7.508   2.257  11.150  1.00  0.00     0.074 A 
ATOM     49  C   UNL     1       6.077   2.084  11.005  1.00  0.00     0.031 C 
ATOM     50  C   UNL     1       9.739   0.196   5.474  1.00  0.00     0.029 A 
ATOM     51  C   UNL     1      10.514   0.757   6.579  1.00  0.00     0.049 A 
ATOM     52  H   UNL     1       9.795   1.384   8.431  1.00  0.00     0.167 HD
ATOM     53  C   UNL     1       8.117   2.704  12.277  1.00  0.00     0.034 A 
ATOM     54  C   UNL     1      11.847   0.958   6.583  1.00  0.00     0.034 A 
ATOM     55  C   UNL     1       9.544   2.882  12.399  1.00  0.00     0.049 A 
ATOM     56  C   UNL     1      12.496   1.546   7.813  1.00  0.00     0.074 A 
ATOM     57  C   UNL     1      10.269   3.319  13.494  1.00  0.00     0.029 A 
ATOM     58  N   UNL     1      10.465   2.646  11.385  1.00  0.00    -0.354 N 
ATOM     59  N   UNL     1      11.942   1.908   8.948  1.00  0.00    -0.248 NA
ATOM     60  C   UNL     1      13.950   1.743   7.764  1.00  0.00     0.031 C 
ATOM     61  C   UNL     1      11.613   3.422  13.119  1.00  0.00     0.029 A 
ATOM     62  C   UNL     1      11.745   2.964  11.817  1.00  0.00     0.049 A 
ATOM     63  H   UNL     1      10.242   2.303  10.490  1.00  0.00     0.167 HD
ATOM     64  C   UNL     1      12.988   2.342   9.760  1.00  0.00     0.074 A 
ATOM     65  C   UNL     1      14.203   2.187   8.987  1.00  0.00     0.031 C 
ATOM     66  C   UNL     1      12.949   2.818  11.032  1.00  0.00     0.034 A 
BRANCH  53  67
ATOM     67  C   UNL     1       7.228   3.084  13.439  1.00  0.00     0.023 A 
ATOM     68  C   UNL     1       6.405   2.142  14.083  1.00  0.00     0.031 A 
ATOM     69  C   UNL     1       7.169   4.417  13.882  1.00  0.00     0.131 A 
ATOM     70  C   UNL     1       5.502   2.561  15.072  1.00  0.00     0.055 A 
ATOM     71  C   UNL     1       6.332   4.811  14.928  1.00  0.00     0.041 A 
ATOM     72  F   UNL     1       7.912   5.367  13.292  1.00  0.00    -0.206 F 
ATOM     73  C   UNL     1       5.478   3.884  15.517  1.00  0.00     0.022 A 
BRANCH  70  74
ATOM     74  S   UNL     1       4.245   1.387  15.650  1.00  0.00     0.124 S 
ATOM     75  O   UNL     1       3.577   1.031  14.400  1.00  0.00    -0.237 OA
ATOM     76  O   UNL     1       5.051   0.340  16.265  1.00  0.00    -0.237 OA
ATOM     77  O   UNL     1       3.437   2.179  16.575  1.00  0.00    -0.744 OA
ENDBRANCH  70  74
ENDBRANCH  53  67
BRANCH  54  78
ATOM     78  C   UNL     1      12.660   0.634   5.376  1.00  0.00     0.023 A 
ATOM     79  C   UNL     1      13.655  -0.356   5.413  1.00  0.00     0.031 A 
ATOM     80  C   UNL     1      12.483   1.345   4.175  1.00  0.00     0.131 A 
ATOM     81  C   UNL     1      14.461  -0.579   4.286  1.00  0.00     0.055 A 
ATOM     82  C   UNL     1      13.251   1.083   3.040  1.00  0.00     0.041 A 
ATOM     83  F   UNL     1      11.546   2.304   4.085  1.00  0.00    -0.206 F 
ATOM     84  C   UNL     1      14.257   0.123   3.096  1.00  0.00     0.022 A 
BRANCH  81  85
ATOM     85  S   UNL     1      15.839  -1.750   4.421  1.00  0.00     0.124 S 
ATOM     86  O   UNL     1      16.626  -1.159   5.497  1.00  0.00    -0.237 OA
ATOM     87  O   UNL     1      15.148  -2.995   4.740  1.00  0.00    -0.237 OA
ATOM     88  O   UNL     1      16.456  -1.704   3.097  1.00  0.00    -0.744 OA
ENDBRANCH  81  85
ENDBRANCH  54  78
BRANCH  66  89
ATOM     89  C   UNL     1      14.271   3.157  11.682  1.00  0.00     0.023 A 
ATOM     90  C   UNL     1      15.081   4.208  11.218  1.00  0.00     0.031 A 
ATOM     91  C   UNL     1      14.731   2.405  12.779  1.00  0.00     0.131 A 
ATOM     92  C   UNL     1      16.333   4.440  11.809  1.00  0.00     0.055 A 
ATOM     93  C   UNL     1      15.947   2.683  13.405  1.00  0.00     0.041 A 
ATOM     94  F   UNL     1      14.002   1.387  13.264  1.00  0.00    -0.206 F 
ATOM     95  C   UNL     1      16.763   3.696  12.911  1.00  0.00     0.022 A 
BRANCH  92  96
ATOM     96  S   UNL     1      17.442   5.662  11.053  1.00  0.00     0.124 S 
ATOM     97  O   UNL     1      17.577   5.148   9.694  1.00  0.00    -0.237 OA
ATOM     98  O   UNL     1      16.683   6.900  11.193  1.00  0.00    -0.237 OA
ATOM     99  O   UNL     1      18.651   5.580  11.870  1.00  0.00    -0.744 OA
ENDBRANCH  92  96
ENDBRANCH  66  89
ENDBRANCH  40  41
ENDBRANCH  33  35
ENDBRANCH  32  33
ENDBRANCH  31  32
ENDBRANCH  30  31
ENDBRANCH  29  30
ENDBRANCH   1  29
TORSDOF 22
