REMARK SMILES COc1cccc(/C=C(/CC(=O)OCCOCCOC(=O)c2ccc(-c3c4nc(c(-c5cc(S(=O)(=O)[O-])ccc5F)c5ccc([nH]5)c(-c5cc(S(=O)(=O)[O-])ccc5F)c5nc(c(-c6cc(S(=O)(=O)[O-])ccc6F)c6ccc3[nH]6)C=C5)C=C4)cc2)c2nc3ccccc3o2)c1
REMARK SMILES IDX 16 1 15 2 14 3 13 4 11 5 12 6 10 7 9 8 8 9 7 10 3 11 4 12
REMARK SMILES IDX 94 13 5 14 6 15 2 16 1 17 85 18 86 19 93 20 87 21 92 22
REMARK SMILES IDX 88 23 91 24 89 25 90 26 17 27 18 28 19 29 20 30 21 31 22 32
REMARK SMILES IDX 23 33 84 34 24 35 83 36 25 37 26 38 27 39 77 40 28 41 82 42
REMARK SMILES IDX 76 43 78 44 29 45 81 46 75 47 74 48 30 50 62 51 42 52 61 53
REMARK SMILES IDX 43 54 46 55 60 56 79 57 44 58 45 59 59 61 80 62 47 63 31 64
REMARK SMILES IDX 32 65 40 66 33 67 39 68 41 69 38 70 34 71 35 72 36 73 37 74
REMARK SMILES IDX 63 75 64 76 72 77 65 78 71 79 73 80 70 81 66 82 67 83 68 84
REMARK SMILES IDX 69 85 48 86 49 87 57 88 50 89 56 90 58 91 55 92 51 93 52 94
REMARK SMILES IDX 53 95 54 96
REMARK H PARENT 78 49 46 60
REMARK Flexibility Score: inf
ROOT
ATOM      1  O   UNL     1       7.097   9.058   0.288  1.00  0.00    -0.374 OA
ENDROOT
BRANCH   1   2
ATOM      2  C   UNL     1       7.418   8.049  -0.661  1.00  0.00     0.202 C 
BRANCH   2   3
ATOM      3  C   UNL     1       7.626   6.601  -0.190  1.00  0.00     0.261 C 
BRANCH   3   4
ATOM      4  O   UNL     1       6.574   6.051   0.641  1.00  0.00    -0.463 OA
BRANCH   4   5
ATOM      5  C   UNL     1       6.971   5.649   1.880  1.00  0.00     0.310 C 
ATOM      6  O   UNL     1       8.126   5.732   2.294  1.00  0.00    -0.252 OA
BRANCH   5   7
ATOM      7  C   UNL     1       5.902   4.968   2.730  1.00  0.00     0.163 C 
BRANCH   7   8
ATOM      8  C   UNL     1       4.408   5.213   2.493  1.00  0.00     0.026 C 
ATOM      9  C   UNL     1       3.761   4.282   1.743  1.00  0.00     0.018 C 
BRANCH   9  10
ATOM     10  C   UNL     1       2.378   4.007   1.264  1.00  0.00    -0.021 A 
ATOM     11  C   UNL     1       0.822   2.342   0.335  1.00  0.00     0.119 A 
ATOM     12  C   UNL     1      -0.159   3.324   0.231  1.00  0.00     0.046 A 
ATOM     13  C   UNL     1       2.075   2.681   0.863  1.00  0.00     0.054 A 
ATOM     14  C   UNL     1       0.118   4.633   0.609  1.00  0.00     0.004 A 
ATOM     15  C   UNL     1       1.390   4.975   1.079  1.00  0.00     0.008 A 
BRANCH  11  16
ATOM     16  O   UNL     1       0.442   1.126  -0.158  1.00  0.00    -0.497 OA
ATOM     17  C   UNL     1       1.227  -0.007   0.178  1.00  0.00     0.278 C 
ENDBRANCH  11  16
ENDBRANCH   9  10
BRANCH   8  18
ATOM     18  C   UNL     1       3.772   6.359   3.107  1.00  0.00     0.223 A 
ATOM     19  N   UNL     1       4.441   7.443   3.507  1.00  0.00    -0.210 NA
ATOM     20  O   UNL     1       2.405   6.541   3.275  1.00  0.00    -0.436 OA
ATOM     21  C   UNL     1       3.495   8.434   3.615  1.00  0.00     0.110 A 
ATOM     22  C   UNL     1       2.240   7.882   3.472  1.00  0.00     0.155 A 
ATOM     23  C   UNL     1       3.623   9.830   3.694  1.00  0.00     0.032 A 
ATOM     24  C   UNL     1       1.057   8.610   3.420  1.00  0.00     0.049 A 
ATOM     25  C   UNL     1       2.463  10.606   3.552  1.00  0.00     0.003 A 
ATOM     26  C   UNL     1       1.204  10.005   3.427  1.00  0.00     0.004 A 
ENDBRANCH   8  18
ENDBRANCH   7   8
ENDBRANCH   5   7
ENDBRANCH   4   5
ENDBRANCH   3   4
ENDBRANCH   2   3
ENDBRANCH   1   2
BRANCH   1  27
ATOM     27  C   UNL     1       5.981   8.842   1.135  1.00  0.00     0.202 C 
BRANCH  27  28
ATOM     28  C   UNL     1       4.584   8.660   0.524  1.00  0.00     0.261 C 
BRANCH  28  29
ATOM     29  O   UNL     1       4.535   8.124  -0.784  1.00  0.00    -0.460 OA
BRANCH  29  30
ATOM     30  C   UNL     1       4.266   9.039  -1.737  1.00  0.00     0.338 C 
ATOM     31  O   UNL     1       4.109  10.241  -1.618  1.00  0.00    -0.246 OA
BRANCH  30  32
ATOM     32  C   UNL     1       4.288   8.310  -2.999  1.00  0.00     0.060 A 
ATOM     33  C   UNL     1       5.325   8.580  -3.894  1.00  0.00     0.016 A 
ATOM     34  C   UNL     1       3.301   7.358  -3.268  1.00  0.00     0.016 A 
ATOM     35  C   UNL     1       5.351   7.917  -5.109  1.00  0.00     0.010 A 
ATOM     36  C   UNL     1       3.331   6.694  -4.485  1.00  0.00     0.010 A 
ATOM     37  C   UNL     1       4.335   7.001  -5.418  1.00  0.00    -0.014 A 
BRANCH  37  38
ATOM     38  C   UNL     1       4.231   6.474  -6.789  1.00  0.00     0.031 A 
ATOM     39  C   UNL     1       3.198   7.071  -7.697  1.00  0.00     0.074 A 
ATOM     40  C   UNL     1       5.057   5.497  -7.194  1.00  0.00     0.049 A 
ATOM     41  N   UNL     1       2.869   6.731  -8.913  1.00  0.00    -0.248 NA
ATOM     42  C   UNL     1       2.422   8.199  -7.153  1.00  0.00     0.031 C 
ATOM     43  C   UNL     1       6.114   4.899  -6.378  1.00  0.00     0.029 A 
ATOM     44  N   UNL     1       5.132   4.833  -8.386  1.00  0.00    -0.354 N 
ATOM     45  C   UNL     1       1.844   7.595  -9.279  1.00  0.00     0.074 A 
ATOM     46  C   UNL     1       1.575   8.445  -8.140  1.00  0.00     0.031 C 
ATOM     47  C   UNL     1       6.733   3.949  -7.098  1.00  0.00     0.029 A 
ATOM     48  C   UNL     1       6.081   3.839  -8.400  1.00  0.00     0.049 A 
ATOM     49  H   UNL     1       4.562   5.046  -9.160  1.00  0.00     0.167 HD
ATOM     50  C   UNL     1       1.199   7.671 -10.467  1.00  0.00     0.034 A 
ATOM     51  C   UNL     1       6.360   2.927  -9.351  1.00  0.00     0.034 A 
ATOM     52  C   UNL     1       1.490   6.792 -11.571  1.00  0.00     0.049 A 
ATOM     53  C   UNL     1       5.564   2.970 -10.633  1.00  0.00     0.074 A 
ATOM     54  C   UNL     1       0.916   6.767 -12.828  1.00  0.00     0.029 A 
ATOM     55  N   UNL     1       2.431   5.768 -11.541  1.00  0.00    -0.354 N 
ATOM     56  N   UNL     1       4.598   3.794 -10.977  1.00  0.00    -0.248 NA
ATOM     57  C   UNL     1       5.895   1.971 -11.655  1.00  0.00     0.031 C 
ATOM     58  C   UNL     1       1.448   5.679 -13.526  1.00  0.00     0.029 A 
ATOM     59  C   UNL     1       2.426   5.083 -12.744  1.00  0.00     0.049 A 
ATOM     60  H   UNL     1       3.014   5.560 -10.776  1.00  0.00     0.167 HD
ATOM     61  C   UNL     1       4.236   3.436 -12.272  1.00  0.00     0.074 A 
ATOM     62  C   UNL     1       5.089   2.325 -12.645  1.00  0.00     0.031 C 
ATOM     63  C   UNL     1       3.293   3.978 -13.085  1.00  0.00     0.034 A 
BRANCH  50  64
ATOM     64  C   UNL     1       0.094   8.690 -10.597  1.00  0.00     0.023 A 
ATOM     65  C   UNL     1       0.337  10.070 -10.478  1.00  0.00     0.031 A 
ATOM     66  C   UNL     1      -1.233   8.273 -10.808  1.00  0.00     0.131 A 
ATOM     67  C   UNL     1      -0.736  10.975 -10.498  1.00  0.00     0.055 A 
ATOM     68  C   UNL     1      -2.284   9.185 -10.913  1.00  0.00     0.041 A 
ATOM     69  F   UNL     1      -1.533   6.968 -10.899  1.00  0.00    -0.206 F 
ATOM     70  C   UNL     1      -2.041  10.544 -10.743  1.00  0.00     0.022 A 
BRANCH  67  71
ATOM     71  S   UNL     1      -0.420  12.703 -10.048  1.00  0.00     0.124 S 
ATOM     72  O   UNL     1       0.130  12.562  -8.702  1.00  0.00    -0.237 OA
ATOM     73  O   UNL     1       0.517  13.132 -11.079  1.00  0.00    -0.237 OA
ATOM     74  O   UNL     1      -1.743  13.321 -10.111  1.00  0.00    -0.744 OA
ENDBRANCH  67  71
ENDBRANCH  50  64
BRANCH  51  75
ATOM     75  C   UNL     1       7.404   1.890  -9.119  1.00  0.00     0.023 A 
ATOM     76  C   UNL     1       8.544   1.817  -9.932  1.00  0.00     0.031 A 
ATOM     77  C   UNL     1       7.260   0.930  -8.099  1.00  0.00     0.131 A 
ATOM     78  C   UNL     1       9.471   0.780  -9.746  1.00  0.00     0.055 A 
ATOM     79  C   UNL     1       8.216  -0.062  -7.879  1.00  0.00     0.041 A 
ATOM     80  F   UNL     1       6.189   0.953  -7.290  1.00  0.00    -0.206 F 
ATOM     81  C   UNL     1       9.323  -0.151  -8.715  1.00  0.00     0.022 A 
BRANCH  78  82
ATOM     82  S   UNL     1      10.822   0.604 -10.942  1.00  0.00     0.124 S 
ATOM     83  O   UNL     1      10.091   0.480 -12.198  1.00  0.00    -0.237 OA
ATOM     84  O   UNL     1      11.561   1.847 -10.747  1.00  0.00    -0.237 OA
ATOM     85  O   UNL     1      11.512  -0.606 -10.498  1.00  0.00    -0.744 OA
ENDBRANCH  78  82
ENDBRANCH  51  75
BRANCH  63  86
ATOM     86  C   UNL     1       3.182   3.417 -14.480  1.00  0.00     0.023 A 
ATOM     87  C   UNL     1       2.715   2.116 -14.725  1.00  0.00     0.031 A 
ATOM     88  C   UNL     1       3.521   4.221 -15.584  1.00  0.00     0.131 A 
ATOM     89  C   UNL     1       2.640   1.641 -16.043  1.00  0.00     0.055 A 
ATOM     90  C   UNL     1       3.381   3.766 -16.894  1.00  0.00     0.041 A 
ATOM     91  F   UNL     1       3.976   5.472 -15.404  1.00  0.00    -0.206 F 
ATOM     92  C   UNL     1       2.947   2.466 -17.129  1.00  0.00     0.022 A 
BRANCH  89  93
ATOM     93  S   UNL     1       2.205  -0.097 -16.318  1.00  0.00     0.124 S 
ATOM     94  O   UNL     1       3.272  -0.792 -15.604  1.00  0.00    -0.237 OA
ATOM     95  O   UNL     1       0.876  -0.187 -15.723  1.00  0.00    -0.237 OA
ATOM     96  O   UNL     1       2.243  -0.234 -17.773  1.00  0.00    -0.744 OA
ENDBRANCH  89  93
ENDBRANCH  63  86
ENDBRANCH  37  38
ENDBRANCH  30  32
ENDBRANCH  29  30
ENDBRANCH  28  29
ENDBRANCH  27  28
ENDBRANCH   1  27
TORSDOF 21
