REMARK SMILES CCc1ccnc(C(=O)c2[nH]c3ccc(OC(F)(F)F)cc3c2CC(=O)OCCOCCOC(=O)c2ccc(-c3c4nc(c(-c5cc(S(=O)(=O)[O-])ccc5F)c5ccc([nH]5)c(-c5cc(S(=O)(=O)[O-])ccc5F)c5nc(c(-c6cc(S(=O)(=O)[O-])ccc6F)c6ccc3[nH]6)C=C5)C=C4)cc2)c1
REMARK SMILES IDX 29 1 28 2 27 3 25 4 26 5 24 6 23 7 10 8 11 9 12 10 22 12
REMARK SMILES IDX 13 13 21 14 14 15 15 16 8 17 9 18 7 19 3 20 4 21 99 22 5 23
REMARK SMILES IDX 6 24 2 25 1 26 16 27 17 28 18 29 19 30 20 31 30 32 31 33
REMARK SMILES IDX 32 34 33 35 34 36 35 37 36 38 37 39 98 40 38 41 97 42 39 43
REMARK SMILES IDX 40 44 41 45 91 46 42 47 96 48 90 49 92 50 43 51 95 52 89 53
REMARK SMILES IDX 88 54 44 56 76 57 56 58 75 59 57 60 60 61 74 62 93 63 58 64
REMARK SMILES IDX 59 65 73 67 94 68 61 69 45 70 46 71 54 72 47 73 53 74 55 75
REMARK SMILES IDX 52 76 48 77 49 78 50 79 51 80 77 81 78 82 86 83 79 84 85 85
REMARK SMILES IDX 87 86 84 87 80 88 81 89 82 90 83 91 62 92 63 93 71 94 64 95
REMARK SMILES IDX 70 96 72 97 69 98 65 99 66 100 67 101 68 102
REMARK H PARENT 11 11 92 55 60 66
REMARK Flexibility Score: inf
ROOT
ATOM      1  C   UNL     1       0.719  10.109  -3.681  1.00  0.00     0.202 C 
ENDROOT
BRANCH   1   2
ATOM      2  C   UNL     1      -0.743  10.248  -3.240  1.00  0.00     0.261 C 
BRANCH   2   3
ATOM      3  O   UNL     1      -1.102   9.303  -2.206  1.00  0.00    -0.463 OA
BRANCH   3   4
ATOM      4  C   UNL     1      -2.259   8.619  -2.417  1.00  0.00     0.310 C 
ATOM      5  O   UNL     1      -3.014   8.824  -3.367  1.00  0.00    -0.252 OA
BRANCH   4   6
ATOM      6  C   UNL     1      -2.633   7.627  -1.338  1.00  0.00     0.161 C 
BRANCH   6   7
ATOM      7  C   UNL     1      -1.590   7.200  -0.337  1.00  0.00     0.000 A 
ATOM      8  C   UNL     1      -0.633   6.189  -0.478  1.00  0.00     0.093 A 
ATOM      9  N   UNL     1       0.109   6.188   0.687  1.00  0.00    -0.352 N 
ATOM     10  C   UNL     1      -0.514   6.939   1.657  1.00  0.00     0.046 A 
ATOM     11  H   UNL     1       0.965   5.716   0.807  1.00  0.00     0.167 HD
ATOM     12  C   UNL     1      -1.563   7.608   1.037  1.00  0.00     0.008 A 
ATOM     13  C   UNL     1      -0.241   7.076   3.025  1.00  0.00     0.030 A 
ATOM     14  C   UNL     1      -2.385   8.443   1.822  1.00  0.00     0.057 A 
ATOM     15  C   UNL     1      -1.107   7.874   3.791  1.00  0.00     0.049 A 
ATOM     16  C   UNL     1      -2.182   8.538   3.205  1.00  0.00     0.130 A 
BRANCH   8  17
ATOM     17  C   UNL     1      -0.441   5.313  -1.629  1.00  0.00     0.227 C 
ATOM     18  O   UNL     1      -1.018   5.507  -2.699  1.00  0.00    -0.285 OA
BRANCH  17  19
ATOM     19  C   UNL     1       0.422   4.097  -1.547  1.00  0.00     0.113 A 
ATOM     20  C   UNL     1       0.904   1.919  -0.641  1.00  0.00    -0.044 A 
ATOM     21  C   UNL     1       1.784   1.734  -1.712  1.00  0.00     0.024 A 
ATOM     22  C   UNL     1       0.221   3.143  -0.554  1.00  0.00     0.036 A 
ATOM     23  C   UNL     1       1.938   2.750  -2.643  1.00  0.00     0.112 A 
ATOM     24  N   UNL     1       1.278   3.922  -2.585  1.00  0.00    -0.253 NA
BRANCH  20  25
ATOM     25  C   UNL     1       0.643   0.866   0.411  1.00  0.00     0.032 C 
ATOM     26  C   UNL     1       1.130  -0.545   0.098  1.00  0.00     0.009 C 
ENDBRANCH  20  25
ENDBRANCH  17  19
ENDBRANCH   8  17
BRANCH  16  27
ATOM     27  O   UNL     1      -3.112   9.306   3.847  1.00  0.00    -0.406 OA
BRANCH  27  28
ATOM     28  C   UNL     1      -3.211   9.182   5.255  1.00  0.00     0.573 C 
ATOM     29  F   UNL     1      -3.338   7.890   5.630  1.00  0.00    -0.132 F 
ATOM     30  F   UNL     1      -2.139   9.725   5.867  1.00  0.00    -0.132 F 
ATOM     31  F   UNL     1      -4.316   9.843   5.670  1.00  0.00    -0.132 F 
ENDBRANCH  27  28
ENDBRANCH  16  27
ENDBRANCH   6   7
ENDBRANCH   4   6
ENDBRANCH   3   4
ENDBRANCH   2   3
ENDBRANCH   1   2
BRANCH   1  32
ATOM     32  O   UNL     1       1.054   8.928  -4.412  1.00  0.00    -0.374 OA
BRANCH  32  33
ATOM     33  C   UNL     1       1.037   7.702  -3.683  1.00  0.00     0.202 C 
BRANCH  33  34
ATOM     34  C   UNL     1       2.275   7.401  -2.830  1.00  0.00     0.261 C 
BRANCH  34  35
ATOM     35  O   UNL     1       2.580   8.453  -1.902  1.00  0.00    -0.460 OA
BRANCH  35  36
ATOM     36  C   UNL     1       3.678   9.169  -2.241  1.00  0.00     0.338 C 
ATOM     37  O   UNL     1       4.472   8.916  -3.139  1.00  0.00    -0.246 OA
BRANCH  36  38
ATOM     38  C   UNL     1       3.739  10.428  -1.479  1.00  0.00     0.060 A 
ATOM     39  C   UNL     1       4.012  11.588  -2.212  1.00  0.00     0.016 A 
ATOM     40  C   UNL     1       3.634  10.471  -0.085  1.00  0.00     0.016 A 
ATOM     41  C   UNL     1       4.282  12.778  -1.550  1.00  0.00     0.010 A 
ATOM     42  C   UNL     1       3.907  11.672   0.581  1.00  0.00     0.010 A 
ATOM     43  C   UNL     1       4.293  12.811  -0.150  1.00  0.00    -0.014 A 
BRANCH  43  44
ATOM     44  C   UNL     1       4.934  13.973   0.513  1.00  0.00     0.031 A 
ATOM     45  C   UNL     1       6.372  13.844   0.945  1.00  0.00     0.074 A 
ATOM     46  C   UNL     1       4.285  15.145   0.620  1.00  0.00     0.049 A 
ATOM     47  N   UNL     1       7.170  14.741   1.464  1.00  0.00    -0.248 NA
ATOM     48  C   UNL     1       6.991  12.521   0.766  1.00  0.00     0.031 C 
ATOM     49  C   UNL     1       2.908  15.386   0.187  1.00  0.00     0.029 A 
ATOM     50  N   UNL     1       4.702  16.357   1.106  1.00  0.00    -0.354 N 
ATOM     51  C   UNL     1       8.385  14.093   1.667  1.00  0.00     0.074 A 
ATOM     52  C   UNL     1       8.201  12.716   1.266  1.00  0.00     0.031 C 
ATOM     53  C   UNL     1       2.598  16.673   0.419  1.00  0.00     0.029 A 
ATOM     54  C   UNL     1       3.742  17.339   1.038  1.00  0.00     0.049 A 
ATOM     55  H   UNL     1       5.604  16.510   1.469  1.00  0.00     0.167 HD
ATOM     56  C   UNL     1       9.552  14.605   2.132  1.00  0.00     0.034 A 
ATOM     57  C   UNL     1       3.786  18.627   1.436  1.00  0.00     0.034 A 
ATOM     58  C   UNL     1       9.707  15.981   2.537  1.00  0.00     0.049 A 
ATOM     59  C   UNL     1       5.077  19.162   2.007  1.00  0.00     0.074 A 
ATOM     60  C   UNL     1      10.831  16.616   3.034  1.00  0.00     0.029 A 
ATOM     61  N   UNL     1       8.698  16.937   2.496  1.00  0.00    -0.354 N 
ATOM     62  N   UNL     1       6.221  18.540   2.192  1.00  0.00    -0.248 NA
ATOM     63  C   UNL     1       5.090  20.575   2.404  1.00  0.00     0.031 C 
ATOM     64  C   UNL     1      10.485  17.933   3.355  1.00  0.00     0.029 A 
ATOM     65  C   UNL     1       9.167  18.147   2.983  1.00  0.00     0.049 A 
ATOM     66  H   UNL     1       7.783  16.778   2.169  1.00  0.00     0.167 HD
ATOM     67  C   UNL     1       7.098  19.499   2.692  1.00  0.00     0.074 A 
ATOM     68  C   UNL     1       6.354  20.740   2.767  1.00  0.00     0.031 C 
ATOM     69  C   UNL     1       8.402  19.371   3.052  1.00  0.00     0.034 A 
BRANCH  56  70
ATOM     70  C   UNL     1      10.717  13.654   2.277  1.00  0.00     0.023 A 
ATOM     71  C   UNL     1      11.293  13.007   1.167  1.00  0.00     0.031 A 
ATOM     72  C   UNL     1      11.230  13.351   3.551  1.00  0.00     0.131 A 
ATOM     73  C   UNL     1      12.289  12.037   1.361  1.00  0.00     0.055 A 
ATOM     74  C   UNL     1      12.278  12.446   3.728  1.00  0.00     0.041 A 
ATOM     75  F   UNL     1      10.706  13.915   4.650  1.00  0.00    -0.206 F 
ATOM     76  C   UNL     1      12.803  11.770   2.631  1.00  0.00     0.022 A 
BRANCH  73  77
ATOM     77  S   UNL     1      12.797  11.017  -0.052  1.00  0.00     0.124 S 
ATOM     78  O   UNL     1      11.533  10.392  -0.434  1.00  0.00    -0.237 OA
ATOM     79  O   UNL     1      13.329  12.007  -0.981  1.00  0.00    -0.237 OA
ATOM     80  O   UNL     1      13.786  10.105   0.521  1.00  0.00    -0.744 OA
ENDBRANCH  73  77
ENDBRANCH  56  70
BRANCH  57  81
ATOM     81  C   UNL     1       2.577  19.493   1.327  1.00  0.00     0.023 A 
ATOM     82  C   UNL     1       2.561  20.633   0.507  1.00  0.00     0.031 A 
ATOM     83  C   UNL     1       1.425  19.213   2.084  1.00  0.00     0.131 A 
ATOM     84  C   UNL     1       1.436  21.473   0.497  1.00  0.00     0.055 A 
ATOM     85  C   UNL     1       0.289  20.022   2.031  1.00  0.00     0.041 A 
ATOM     86  F   UNL     1       1.384  18.136   2.885  1.00  0.00    -0.206 F 
ATOM     87  C   UNL     1       0.295  21.168   1.243  1.00  0.00     0.022 A 
BRANCH  84  88
ATOM     88  S   UNL     1       1.514  23.023  -0.444  1.00  0.00     0.124 S 
ATOM     89  O   UNL     1       2.674  23.675   0.154  1.00  0.00    -0.237 OA
ATOM     90  O   UNL     1       1.682  22.539  -1.810  1.00  0.00    -0.237 OA
ATOM     91  O   UNL     1       0.228  23.657  -0.162  1.00  0.00    -0.744 OA
ENDBRANCH  84  88
ENDBRANCH  57  81
BRANCH  69  92
ATOM     92  C   UNL     1       9.113  20.624   3.504  1.00  0.00     0.023 A 
ATOM     93  C   UNL     1       8.764  21.287   4.693  1.00  0.00     0.031 A 
ATOM     94  C   UNL     1      10.147  21.168   2.721  1.00  0.00     0.131 A 
ATOM     95  C   UNL     1       9.401  22.490   5.034  1.00  0.00     0.055 A 
ATOM     96  C   UNL     1      10.820  22.331   3.097  1.00  0.00     0.041 A 
ATOM     97  F   UNL     1      10.521  20.575   1.576  1.00  0.00    -0.206 F 
ATOM     98  C   UNL     1      10.437  23.007   4.252  1.00  0.00     0.022 A 
BRANCH  95  99
ATOM     99  S   UNL     1       8.785  23.427   6.459  1.00  0.00     0.124 S 
ATOM    100  O   UNL     1       7.383  23.628   6.108  1.00  0.00    -0.237 OA
ATOM    101  O   UNL     1       9.039  22.512   7.567  1.00  0.00    -0.237 OA
ATOM    102  O   UNL     1       9.605  24.637   6.455  1.00  0.00    -0.744 OA
ENDBRANCH  95  99
ENDBRANCH  69  92
ENDBRANCH  43  44
ENDBRANCH  36  38
ENDBRANCH  35  36
ENDBRANCH  34  35
ENDBRANCH  33  34
ENDBRANCH  32  33
ENDBRANCH   1  32
TORSDOF 23
