REMARK SMILES O=C(OCCOCCOC(=O)[C@H](c1ccccc1)N1C(=O)/C(=C\c2ccc(Br)cc2)SC1=S)c1ccc(-c2c3nc(c(-c4cc(S(=O)(=O)[O-])ccc4F)c4ccc([nH]4)c(-c4cc(S(=O)(=O)[O-])ccc4F)c4nc(c(-c5cc(S(=O)(=O)[O-])ccc5F)c5ccc2[nH]5)C=C4)C=C3)cc1
REMARK SMILES IDX 5 1 4 2 3 3 2 4 1 5 34 6 35 7 96 8 36 9 95 10 37 11 38 12
REMARK SMILES IDX 39 13 89 14 40 15 94 16 88 17 90 18 41 19 93 20 87 21 86 22
REMARK SMILES IDX 42 24 74 25 54 26 73 27 55 28 58 29 72 30 91 31 56 32 57 33
REMARK SMILES IDX 71 35 92 36 59 37 43 38 44 39 52 40 45 41 51 42 53 43 50 44
REMARK SMILES IDX 46 45 47 46 48 47 49 48 75 49 76 50 84 51 77 52 83 53 85 54
REMARK SMILES IDX 82 55 78 56 79 57 80 58 81 59 60 60 61 61 69 62 62 63 68 64
REMARK SMILES IDX 70 65 67 66 63 67 64 68 65 69 66 70 6 71 7 72 8 73 9 74
REMARK SMILES IDX 10 75 11 76 12 77 19 78 20 79 32 80 21 81 22 82 31 83 33 84
REMARK SMILES IDX 23 85 24 86 25 87 30 88 26 89 29 90 27 91 28 92 13 93 14 94
REMARK SMILES IDX 18 95 15 96 17 97 16 98
REMARK H PARENT 90 23 58 34
REMARK Flexibility Score: inf
ROOT
ATOM      1  C   UNL     1       5.089   0.897  -2.127  1.00  0.00     0.202 C 
ENDROOT
BRANCH   1   2
ATOM      2  C   UNL     1       5.459  -0.578  -1.961  1.00  0.00     0.261 C 
BRANCH   2   3
ATOM      3  O   UNL     1       6.261  -1.022  -3.062  1.00  0.00    -0.460 OA
BRANCH   3   4
ATOM      4  C   UNL     1       5.798  -1.550  -4.223  1.00  0.00     0.338 C 
ATOM      5  O   UNL     1       6.589  -1.736  -5.146  1.00  0.00    -0.246 OA
BRANCH   4   6
ATOM      6  C   UNL     1       4.376  -1.960  -4.415  1.00  0.00     0.060 A 
ATOM      7  C   UNL     1       3.281  -1.290  -3.873  1.00  0.00     0.016 A 
ATOM      8  C   UNL     1       4.125  -3.056  -5.254  1.00  0.00     0.016 A 
ATOM      9  C   UNL     1       1.989  -1.708  -4.083  1.00  0.00     0.010 A 
ATOM     10  C   UNL     1       2.812  -3.461  -5.520  1.00  0.00     0.010 A 
ATOM     11  C   UNL     1       1.745  -2.781  -4.923  1.00  0.00    -0.014 A 
BRANCH  11  12
ATOM     12  C   UNL     1       0.342  -3.202  -5.010  1.00  0.00     0.031 A 
ATOM     13  C   UNL     1      -0.065  -4.420  -4.249  1.00  0.00     0.074 A 
ATOM     14  C   UNL     1      -0.552  -2.354  -5.555  1.00  0.00     0.049 A 
ATOM     15  N   UNL     1      -1.233  -4.991  -4.170  1.00  0.00    -0.248 NA
ATOM     16  C   UNL     1       0.986  -5.075  -3.451  1.00  0.00     0.031 C 
ATOM     17  C   UNL     1      -0.222  -1.049  -6.145  1.00  0.00     0.029 A 
ATOM     18  N   UNL     1      -1.913  -2.421  -5.648  1.00  0.00    -0.354 N 
ATOM     19  C   UNL     1      -1.055  -6.084  -3.332  1.00  0.00     0.074 A 
ATOM     20  C   UNL     1       0.337  -6.112  -2.947  1.00  0.00     0.031 C 
ATOM     21  C   UNL     1      -1.355  -0.431  -6.509  1.00  0.00     0.029 A 
ATOM     22  C   UNL     1      -2.474  -1.333  -6.276  1.00  0.00     0.049 A 
ATOM     23  H   UNL     1      -2.441  -3.175  -5.299  1.00  0.00     0.167 HD
ATOM     24  C   UNL     1      -1.989  -6.976  -2.930  1.00  0.00     0.034 A 
ATOM     25  C   UNL     1      -3.745  -1.130  -6.668  1.00  0.00     0.034 A 
ATOM     26  C   UNL     1      -3.361  -6.898  -3.361  1.00  0.00     0.049 A 
ATOM     27  C   UNL     1      -4.735  -2.220  -6.339  1.00  0.00     0.074 A 
ATOM     28  C   UNL     1      -4.393  -7.790  -3.147  1.00  0.00     0.029 A 
ATOM     29  N   UNL     1      -3.889  -5.844  -4.105  1.00  0.00    -0.354 N 
ATOM     30  N   UNL     1      -4.541  -3.331  -5.659  1.00  0.00    -0.248 NA
ATOM     31  C   UNL     1      -6.102  -2.041  -6.828  1.00  0.00     0.031 C 
ATOM     32  C   UNL     1      -5.525  -7.308  -3.813  1.00  0.00     0.029 A 
ATOM     33  C   UNL     1      -5.227  -6.072  -4.372  1.00  0.00     0.049 A 
ATOM     34  H   UNL     1      -3.384  -5.052  -4.397  1.00  0.00     0.167 HD
ATOM     35  C   UNL     1      -5.772  -3.974  -5.624  1.00  0.00     0.074 A 
ATOM     36  C   UNL     1      -6.703  -3.106  -6.321  1.00  0.00     0.031 C 
ATOM     37  C   UNL     1      -6.111  -5.173  -5.080  1.00  0.00     0.034 A 
BRANCH  24  38
ATOM     38  C   UNL     1      -1.510  -8.129  -2.087  1.00  0.00     0.023 A 
ATOM     39  C   UNL     1      -0.975  -7.937  -0.800  1.00  0.00     0.031 A 
ATOM     40  C   UNL     1      -1.489  -9.429  -2.622  1.00  0.00     0.131 A 
ATOM     41  C   UNL     1      -0.370  -9.010  -0.127  1.00  0.00     0.055 A 
ATOM     42  C   UNL     1      -0.961 -10.509  -1.912  1.00  0.00     0.041 A 
ATOM     43  F   UNL     1      -1.947  -9.665  -3.861  1.00  0.00    -0.206 F 
ATOM     44  C   UNL     1      -0.383 -10.300  -0.663  1.00  0.00     0.022 A 
BRANCH  41  45
ATOM     45  S   UNL     1       0.579  -8.667   1.381  1.00  0.00     0.124 S 
ATOM     46  O   UNL     1       1.623  -7.778   0.876  1.00  0.00    -0.237 OA
ATOM     47  O   UNL     1      -0.417  -8.052   2.251  1.00  0.00    -0.237 OA
ATOM     48  O   UNL     1       1.044  -9.987   1.802  1.00  0.00    -0.744 OA
ENDBRANCH  41  45
ENDBRANCH  24  38
BRANCH  25  49
ATOM     49  C   UNL     1      -4.122   0.058  -7.492  1.00  0.00     0.023 A 
ATOM     50  C   UNL     1      -5.149   0.933  -7.105  1.00  0.00     0.031 A 
ATOM     51  C   UNL     1      -3.505   0.291  -8.739  1.00  0.00     0.131 A 
ATOM     52  C   UNL     1      -5.570   1.951  -7.979  1.00  0.00     0.055 A 
ATOM     53  C   UNL     1      -3.877   1.349  -9.570  1.00  0.00     0.041 A 
ATOM     54  F   UNL     1      -2.525  -0.516  -9.177  1.00  0.00    -0.206 F 
ATOM     55  C   UNL     1      -4.931   2.174  -9.200  1.00  0.00     0.022 A 
BRANCH  52  56
ATOM     56  S   UNL     1      -7.062   2.897  -7.560  1.00  0.00     0.124 S 
ATOM     57  O   UNL     1      -8.037   1.834  -7.344  1.00  0.00    -0.237 OA
ATOM     58  O   UNL     1      -6.634   3.628  -6.373  1.00  0.00    -0.237 OA
ATOM     59  O   UNL     1      -7.288   3.718  -8.748  1.00  0.00    -0.744 OA
ENDBRANCH  52  56
ENDBRANCH  25  49
BRANCH  37  60
ATOM     60  C   UNL     1      -7.559  -5.567  -5.192  1.00  0.00     0.023 A 
ATOM     61  C   UNL     1      -8.155  -5.827  -6.437  1.00  0.00     0.031 A 
ATOM     62  C   UNL     1      -8.356  -5.659  -4.038  1.00  0.00     0.131 A 
ATOM     63  C   UNL     1      -9.529  -6.090  -6.506  1.00  0.00     0.055 A 
ATOM     64  C   UNL     1      -9.705  -6.001  -4.107  1.00  0.00     0.041 A 
ATOM     65  F   UNL     1      -7.833  -5.418  -2.825  1.00  0.00    -0.206 F 
ATOM     66  C   UNL     1     -10.303  -6.200  -5.348  1.00  0.00     0.022 A 
BRANCH  63  67
ATOM     67  S   UNL     1     -10.313  -6.157  -8.139  1.00  0.00     0.124 S 
ATOM     68  O   UNL     1      -9.977  -4.848  -8.689  1.00  0.00    -0.237 OA
ATOM     69  O   UNL     1      -9.647  -7.298  -8.758  1.00  0.00    -0.237 OA
ATOM     70  O   UNL     1     -11.728  -6.356  -7.830  1.00  0.00    -0.744 OA
ENDBRANCH  63  67
ENDBRANCH  37  60
ENDBRANCH  11  12
ENDBRANCH   4   6
ENDBRANCH   3   4
ENDBRANCH   2   3
ENDBRANCH   1   2
BRANCH   1  71
ATOM     71  O   UNL     1       4.529   1.244  -3.394  1.00  0.00    -0.374 OA
BRANCH  71  72
ATOM     72  C   UNL     1       5.440   1.625  -4.422  1.00  0.00     0.202 C 
BRANCH  72  73
ATOM     73  C   UNL     1       5.319   3.123  -4.677  1.00  0.00     0.261 C 
BRANCH  73  74
ATOM     74  O   UNL     1       5.506   3.804  -3.424  1.00  0.00    -0.461 OA
BRANCH  74  75
ATOM     75  C   UNL     1       4.350   3.951  -2.698  1.00  0.00     0.334 C 
ATOM     76  O   UNL     1       3.230   3.839  -3.177  1.00  0.00    -0.249 OA
BRANCH  75  77
ATOM     77  C   UNL     1       4.685   4.398  -1.265  1.00  0.00     0.232 C 
BRANCH  77  78
ATOM     78  N   UNL     1       4.151   5.769  -1.149  1.00  0.00    -0.274 N 
ATOM     79  C   UNL     1       2.783   5.943  -1.171  1.00  0.00     0.267 C 
ATOM     80  C   UNL     1       4.900   6.919  -1.232  1.00  0.00     0.149 C 
ATOM     81  O   UNL     1       1.959   5.057  -1.092  1.00  0.00    -0.268 OA
ATOM     82  C   UNL     1       2.413   7.366  -1.355  1.00  0.00     0.081 C 
ATOM     83  S   UNL     1       3.837   8.328  -1.330  1.00  0.00    -0.054 SA
ATOM     84  S   UNL     1       6.563   7.072  -1.250  1.00  0.00    -0.052 S 
ATOM     85  C   UNL     1       1.166   7.813  -1.579  1.00  0.00     0.029 C 
BRANCH  85  86
ATOM     86  C   UNL     1      -0.017   6.934  -1.677  1.00  0.00    -0.024 A 
ATOM     87  C   UNL     1      -0.649   6.753  -2.914  1.00  0.00     0.009 A 
ATOM     88  C   UNL     1      -0.447   6.173  -0.577  1.00  0.00     0.009 A 
ATOM     89  C   UNL     1      -1.655   5.789  -3.060  1.00  0.00     0.016 A 
ATOM     90  C   UNL     1      -1.421   5.182  -0.733  1.00  0.00     0.016 A 
ATOM     91  C   UNL     1      -2.018   4.993  -1.975  1.00  0.00     0.018 A 
ATOM     92  Br  UNL     1      -3.302   3.625  -2.194  1.00  0.00    -0.051 Br
ENDBRANCH  85  86
ENDBRANCH  77  78
BRANCH  77  93
ATOM     93  C   UNL     1       4.333   3.438  -0.117  1.00  0.00    -0.014 A 
ATOM     94  C   UNL     1       3.063   2.864   0.075  1.00  0.00     0.006 A 
ATOM     95  C   UNL     1       5.330   3.085   0.814  1.00  0.00     0.006 A 
ATOM     96  C   UNL     1       2.763   2.086   1.199  1.00  0.00     0.000 A 
ATOM     97  C   UNL     1       5.047   2.258   1.910  1.00  0.00     0.000 A 
ATOM     98  C   UNL     1       3.755   1.788   2.121  1.00  0.00     0.000 A 
ENDBRANCH  77  93
ENDBRANCH  75  77
ENDBRANCH  74  75
ENDBRANCH  73  74
ENDBRANCH  72  73
ENDBRANCH  71  72
ENDBRANCH   1  71
TORSDOF 20
