REMARK SMILES C[C@H]1[C@H](C(=O)OCCOCCOC(=O)c2ccc(-c3c4nc(c(-c5cc(S(=O)(=O)[O-])ccc5F)c5ccc([nH]5)c(-c5cc(S(=O)(=O)[O-])ccc5F)c5nc(c(-c6cc(S(=O)(=O)[O-])ccc6F)c6ccc3[nH]6)C=C5)C=C4)cc2)CCN1C(=O)CC[NH2+]C1CC1
REMARK SMILES IDX 8 1 7 2 6 3 4 4 5 5 3 6 1 7 2 8 80 9 78 10 79 11 81 12 82 13
REMARK SMILES IDX 83 14 84 15 85 16 86 19 87 20 88 21 9 22 10 23 11 24 12 25
REMARK SMILES IDX 13 26 14 27 15 28 16 29 77 30 17 31 76 32 18 33 19 34 20 35
REMARK SMILES IDX 70 36 21 37 75 38 69 39 71 40 22 41 74 42 68 43 67 44 23 46
REMARK SMILES IDX 55 47 35 48 54 49 36 50 39 51 53 52 72 53 37 54 38 55 52 57
REMARK SMILES IDX 73 58 40 59 24 60 25 61 33 62 26 63 32 64 34 65 31 66 27 67
REMARK SMILES IDX 28 68 29 69 30 70 56 71 57 72 65 73 58 74 64 75 66 76 63 77
REMARK SMILES IDX 59 78 60 79 61 80 62 81 41 82 42 83 50 84 43 85 49 86 51 87
REMARK SMILES IDX 48 88 44 89 45 90 46 91 47 92
REMARK H PARENT 85 17 85 18 71 45 39 56
REMARK Flexibility Score: inf
ROOT
ATOM      1  C   UNL     1       0.380   3.825   3.435  1.00  0.00     0.202 C 
ENDROOT
BRANCH   1   2
ATOM      2  C   UNL     1      -0.995   3.363   2.943  1.00  0.00     0.261 C 
BRANCH   2   3
ATOM      3  O   UNL     1      -0.918   2.215   2.075  1.00  0.00    -0.463 OA
BRANCH   3   4
ATOM      4  C   UNL     1      -1.361   2.406   0.806  1.00  0.00     0.311 C 
ATOM      5  O   UNL     1      -1.851   3.446   0.380  1.00  0.00    -0.252 OA
BRANCH   4   6
ATOM      6  C   UNL     1      -1.232   1.182  -0.070  1.00  0.00     0.123 C 
ATOM      7  C   UNL     1       1.011   0.577  -0.997  1.00  0.00     0.032 C 
ATOM      8  C   UNL     1       0.021   0.307   0.140  1.00  0.00     0.096 C 
ATOM      9  N   UNL     1      -0.468  -1.075   0.077  1.00  0.00    -0.339 N 
ATOM     10  C   UNL     1      -2.408   0.225   0.087  1.00  0.00     0.039 C 
ATOM     11  C   UNL     1      -1.841  -1.103  -0.388  1.00  0.00     0.121 C 
BRANCH   9  12
ATOM     12  C   UNL     1       0.184  -2.248   0.408  1.00  0.00     0.228 C 
ATOM     13  O   UNL     1      -0.287  -3.348   0.106  1.00  0.00    -0.275 OA
BRANCH  12  14
ATOM     14  C   UNL     1       1.497  -2.177   1.175  1.00  0.00     0.161 C 
BRANCH  14  15
ATOM     15  C   UNL     1       2.710  -2.387   0.265  1.00  0.00     0.270 C 
BRANCH  15  16
ATOM     16  N   UNL     1       3.624  -1.238   0.321  1.00  0.00    -0.343 N 
ATOM     17  H   UNL     1       4.114  -1.264   1.216  1.00  0.00     0.346 HD
ATOM     18  H   UNL     1       3.049  -0.404   0.204  1.00  0.00     0.346 HD
BRANCH  16  19
ATOM     19  C   UNL     1       4.627  -1.206  -0.747  1.00  0.00     0.182 C 
ATOM     20  C   UNL     1       4.256  -1.199  -2.206  1.00  0.00     0.071 C 
ATOM     21  C   UNL     1       4.757   0.057  -1.564  1.00  0.00     0.071 C 
ENDBRANCH  16  19
ENDBRANCH  15  16
ENDBRANCH  14  15
ENDBRANCH  12  14
ENDBRANCH   9  12
ENDBRANCH   4   6
ENDBRANCH   3   4
ENDBRANCH   2   3
ENDBRANCH   1   2
BRANCH   1  22
ATOM     22  O   UNL     1       1.319   4.213   2.432  1.00  0.00    -0.374 OA
BRANCH  22  23
ATOM     23  C   UNL     1       1.988   3.169   1.728  1.00  0.00     0.202 C 
BRANCH  23  24
ATOM     24  C   UNL     1       3.079   2.398   2.482  1.00  0.00     0.261 C 
BRANCH  24  25
ATOM     25  O   UNL     1       2.547   1.612   3.565  1.00  0.00    -0.460 OA
BRANCH  25  26
ATOM     26  C   UNL     1       2.953   2.022   4.795  1.00  0.00     0.338 C 
ATOM     27  O   UNL     1       3.753   2.909   5.038  1.00  0.00    -0.246 OA
BRANCH  26  28
ATOM     28  C   UNL     1       2.143   1.386   5.855  1.00  0.00     0.060 A 
ATOM     29  C   UNL     1       1.565   2.240   6.804  1.00  0.00     0.016 A 
ATOM     30  C   UNL     1       2.033   0.001   5.989  1.00  0.00     0.016 A 
ATOM     31  C   UNL     1       0.942   1.712   7.931  1.00  0.00     0.010 A 
ATOM     32  C   UNL     1       1.409  -0.529   7.128  1.00  0.00     0.010 A 
ATOM     33  C   UNL     1       0.905   0.325   8.127  1.00  0.00    -0.014 A 
BRANCH  33  34
ATOM     34  C   UNL     1       0.515  -0.189   9.467  1.00  0.00     0.031 A 
ATOM     35  C   UNL     1       1.600  -0.571  10.441  1.00  0.00     0.074 A 
ATOM     36  C   UNL     1      -0.775  -0.224   9.845  1.00  0.00     0.049 A 
ATOM     37  N   UNL     1       1.501  -0.978  11.681  1.00  0.00    -0.248 NA
ATOM     38  C   UNL     1       2.982  -0.479   9.947  1.00  0.00     0.031 C 
ATOM     39  C   UNL     1      -1.910   0.162   9.007  1.00  0.00     0.029 A 
ATOM     40  N   UNL     1      -1.348  -0.589  11.038  1.00  0.00    -0.354 N 
ATOM     41  C   UNL     1       2.806  -1.187  12.117  1.00  0.00     0.074 A 
ATOM     42  C   UNL     1       3.673  -0.908  10.992  1.00  0.00     0.031 C 
ATOM     43  C   UNL     1      -3.044   0.017   9.715  1.00  0.00     0.029 A 
ATOM     44  C   UNL     1      -2.720  -0.496  11.045  1.00  0.00     0.049 A 
ATOM     45  H   UNL     1      -0.825  -0.890  11.816  1.00  0.00     0.167 HD
ATOM     46  C   UNL     1       3.244  -1.560  13.346  1.00  0.00     0.034 A 
ATOM     47  C   UNL     1      -3.611  -0.797  12.011  1.00  0.00     0.034 A 
ATOM     48  C   UNL     1       2.368  -1.847  14.457  1.00  0.00     0.049 A 
ATOM     49  C   UNL     1      -3.105  -1.279  13.350  1.00  0.00     0.074 A 
ATOM     50  C   UNL     1       2.703  -2.231  15.744  1.00  0.00     0.029 A 
ATOM     51  N   UNL     1       0.980  -1.790  14.411  1.00  0.00    -0.354 N 
ATOM     52  N   UNL     1      -1.868  -1.460  13.752  1.00  0.00    -0.248 NA
ATOM     53  C   UNL     1      -4.119  -1.579  14.370  1.00  0.00     0.031 C 
ATOM     54  C   UNL     1       1.520  -2.473  16.453  1.00  0.00     0.029 A 
ATOM     55  C   UNL     1       0.445  -2.162  15.636  1.00  0.00     0.049 A 
ATOM     56  H   UNL     1       0.453  -1.526  13.623  1.00  0.00     0.167 HD
ATOM     57  C   UNL     1      -1.956  -1.865  15.083  1.00  0.00     0.074 A 
ATOM     58  C   UNL     1      -3.366  -1.881  15.416  1.00  0.00     0.031 C 
ATOM     59  C   UNL     1      -0.964  -2.189  15.952  1.00  0.00     0.034 A 
BRANCH  46  60
ATOM     60  C   UNL     1       4.734  -1.730  13.527  1.00  0.00     0.023 A 
ATOM     61  C   UNL     1       5.624  -0.647  13.404  1.00  0.00     0.031 A 
ATOM     62  C   UNL     1       5.277  -3.000  13.786  1.00  0.00     0.131 A 
ATOM     63  C   UNL     1       7.009  -0.868  13.467  1.00  0.00     0.055 A 
ATOM     64  C   UNL     1       6.652  -3.200  13.927  1.00  0.00     0.041 A 
ATOM     65  F   UNL     1       4.481  -4.076  13.889  1.00  0.00    -0.206 F 
ATOM     66  C   UNL     1       7.528  -2.133  13.752  1.00  0.00     0.022 A 
BRANCH  63  67
ATOM     67  S   UNL     1       8.127   0.491  13.026  1.00  0.00     0.124 S 
ATOM     68  O   UNL     1       7.700   0.793  11.661  1.00  0.00    -0.237 OA
ATOM     69  O   UNL     1       7.811   1.499  14.031  1.00  0.00    -0.237 OA
ATOM     70  O   UNL     1       9.456  -0.107  13.137  1.00  0.00    -0.744 OA
ENDBRANCH  63  67
ENDBRANCH  46  60
BRANCH  47  71
ATOM     71  C   UNL     1      -5.076  -0.682  11.751  1.00  0.00     0.023 A 
ATOM     72  C   UNL     1      -5.878   0.218  12.470  1.00  0.00     0.031 A 
ATOM     73  C   UNL     1      -5.705  -1.523  10.815  1.00  0.00     0.131 A 
ATOM     74  C   UNL     1      -7.269   0.225  12.275  1.00  0.00     0.055 A 
ATOM     75  C   UNL     1      -7.081  -1.477  10.588  1.00  0.00     0.041 A 
ATOM     76  F   UNL     1      -4.984  -2.403  10.101  1.00  0.00    -0.206 F 
ATOM     77  C   UNL     1      -7.874  -0.608  11.330  1.00  0.00     0.022 A 
BRANCH  74  78
ATOM     78  S   UNL     1      -8.292   1.281  13.338  1.00  0.00     0.124 S 
ATOM     79  O   UNL     1      -7.951   0.786  14.666  1.00  0.00    -0.237 OA
ATOM     80  O   UNL     1      -7.799   2.613  13.002  1.00  0.00    -0.237 OA
ATOM     81  O   UNL     1      -9.654   0.994  12.893  1.00  0.00    -0.744 OA
ENDBRANCH  74  78
ENDBRANCH  47  71
BRANCH  59  82
ATOM     82  C   UNL     1      -1.377  -2.544  17.362  1.00  0.00     0.023 A 
ATOM     83  C   UNL     1      -2.143  -3.690  17.644  1.00  0.00     0.031 A 
ATOM     84  C   UNL     1      -1.025  -1.706  18.435  1.00  0.00     0.131 A 
ATOM     85  C   UNL     1      -2.590  -3.928  18.953  1.00  0.00     0.055 A 
ATOM     86  C   UNL     1      -1.417  -1.984  19.746  1.00  0.00     0.041 A 
ATOM     87  F   UNL     1      -0.296  -0.598  18.226  1.00  0.00    -0.206 F 
ATOM     88  C   UNL     1      -2.219  -3.091  20.008  1.00  0.00     0.022 A 
BRANCH  85  89
ATOM     89  S   UNL     1      -3.763  -5.282  19.239  1.00  0.00     0.124 S 
ATOM     90  O   UNL     1      -4.846  -4.946  18.321  1.00  0.00    -0.237 OA
ATOM     91  O   UNL     1      -2.972  -6.458  18.890  1.00  0.00    -0.237 OA
ATOM     92  O   UNL     1      -4.092  -5.156  20.658  1.00  0.00    -0.744 OA
ENDBRANCH  85  89
ENDBRANCH  59  82
ENDBRANCH  33  34
ENDBRANCH  26  28
ENDBRANCH  25  26
ENDBRANCH  24  25
ENDBRANCH  23  24
ENDBRANCH  22  23
ENDBRANCH   1  22
TORSDOF 22
