REMARK SMILES COc1cc(/C=C/C(=O)OCCOCCOC(=O)c2ccc(-c3c4nc(c(-c5cc(S(=O)(=O)[O-])ccc5F)c5ccc([nH]5)c(-c5cc(S(=O)(=O)[O-])ccc5F)c5nc(c(-c6cc(S(=O)(=O)[O-])ccc6F)c6ccc3[nH]6)C=C5)C=C4)cc2)cc(OC)c1O
REMARK SMILES IDX 14 1 13 2 12 3 11 4 10 5 8 6 9 7 7 8 6 9 5 10 3 11 4 12
REMARK SMILES IDX 86 13 83 14 82 15 2 16 1 17 87 18 84 20 85 21 15 22 16 23
REMARK SMILES IDX 17 24 18 25 19 26 20 27 81 28 21 29 80 30 22 31 23 32 24 33
REMARK SMILES IDX 74 34 25 35 79 36 73 37 75 38 26 39 78 40 72 41 71 42 27 44
REMARK SMILES IDX 59 45 39 46 58 47 40 48 43 49 57 50 76 51 41 52 42 53 56 55
REMARK SMILES IDX 77 56 44 57 28 58 29 59 37 60 30 61 36 62 38 63 35 64 31 65
REMARK SMILES IDX 32 66 33 67 34 68 60 69 61 70 69 71 62 72 68 73 70 74 67 75
REMARK SMILES IDX 63 76 64 77 65 78 66 79 45 80 46 81 54 82 47 83 53 84 55 85
REMARK SMILES IDX 52 86 48 87 49 88 50 89 51 90
REMARK H PARENT 87 19 75 43 43 54
REMARK Flexibility Score: inf
ROOT
ATOM      1  C   UNL     1      -2.555   7.977  -0.929  1.00  0.00     0.202 C 
ENDROOT
BRANCH   1   2
ATOM      2  O   UNL     1      -2.294   9.143  -1.713  1.00  0.00    -0.374 OA
BRANCH   2   3
ATOM      3  C   UNL     1      -2.886   9.189  -3.011  1.00  0.00     0.202 C 
BRANCH   3   4
ATOM      4  C   UNL     1      -2.128   8.447  -4.116  1.00  0.00     0.261 C 
BRANCH   4   5
ATOM      5  O   UNL     1      -2.003   7.043  -3.828  1.00  0.00    -0.460 OA
BRANCH   5   6
ATOM      6  C   UNL     1      -0.744   6.620  -3.571  1.00  0.00     0.330 C 
ATOM      7  O   UNL     1       0.279   7.286  -3.641  1.00  0.00    -0.247 OA
BRANCH   6   8
ATOM      8  C   UNL     1      -0.695   5.223  -3.092  1.00  0.00     0.094 C 
ATOM      9  C   UNL     1      -1.711   4.347  -3.029  1.00  0.00     0.016 C 
BRANCH   9  10
ATOM     10  C   UNL     1      -1.539   2.976  -2.508  1.00  0.00    -0.018 A 
ATOM     11  C   UNL     1      -0.523   1.376  -0.980  1.00  0.00     0.165 A 
ATOM     12  C   UNL     1      -0.662   2.683  -1.455  1.00  0.00     0.058 A 
ATOM     13  C   UNL     1      -1.309   0.346  -1.514  1.00  0.00     0.200 A 
ATOM     14  C   UNL     1      -2.188   0.612  -2.570  1.00  0.00     0.165 A 
ATOM     15  C   UNL     1      -2.304   1.931  -3.044  1.00  0.00     0.058 A 
BRANCH  11  16
ATOM     16  O   UNL     1       0.331   1.211   0.083  1.00  0.00    -0.493 OA
ATOM     17  C   UNL     1       1.304   0.179  -0.092  1.00  0.00     0.278 C 
ENDBRANCH  11  16
BRANCH  13  18
ATOM     18  O   UNL     1      -1.263  -0.891  -0.928  1.00  0.00    -0.502 OA
ATOM     19  H   UNL     1      -0.669  -1.053  -0.222  1.00  0.00     0.293 HD
ENDBRANCH  13  18
BRANCH  14  20
ATOM     20  O   UNL     1      -3.032  -0.263  -3.201  1.00  0.00    -0.493 OA
ATOM     21  C   UNL     1      -2.817  -1.654  -3.010  1.00  0.00     0.278 C 
ENDBRANCH  14  20
ENDBRANCH   9  10
ENDBRANCH   6   8
ENDBRANCH   5   6
ENDBRANCH   4   5
ENDBRANCH   3   4
ENDBRANCH   2   3
ENDBRANCH   1   2
BRANCH   1  22
ATOM     22  C   UNL     1      -3.929   7.907  -0.249  1.00  0.00     0.261 C 
BRANCH  22  23
ATOM     23  O   UNL     1      -4.997   7.734  -1.198  1.00  0.00    -0.460 OA
BRANCH  23  24
ATOM     24  C   UNL     1      -5.809   8.808  -1.348  1.00  0.00     0.338 C 
ATOM     25  O   UNL     1      -5.764   9.855  -0.710  1.00  0.00    -0.246 OA
BRANCH  24  26
ATOM     26  C   UNL     1      -6.663   8.637  -2.538  1.00  0.00     0.060 A 
ATOM     27  C   UNL     1      -6.697   9.683  -3.468  1.00  0.00     0.016 A 
ATOM     28  C   UNL     1      -7.458   7.502  -2.720  1.00  0.00     0.016 A 
ATOM     29  C   UNL     1      -7.560   9.620  -4.561  1.00  0.00     0.010 A 
ATOM     30  C   UNL     1      -8.328   7.444  -3.815  1.00  0.00     0.010 A 
ATOM     31  C   UNL     1      -8.407   8.517  -4.723  1.00  0.00    -0.014 A 
BRANCH  31  32
ATOM     32  C   UNL     1      -9.472   8.553  -5.757  1.00  0.00     0.031 A 
ATOM     33  C   UNL     1     -10.879   8.889  -5.342  1.00  0.00     0.074 A 
ATOM     34  C   UNL     1      -9.186   8.319  -7.051  1.00  0.00     0.049 A 
ATOM     35  N   UNL     1     -11.970   8.942  -6.062  1.00  0.00    -0.248 NA
ATOM     36  C   UNL     1     -11.079   9.203  -3.920  1.00  0.00     0.031 C 
ATOM     37  C   UNL     1      -7.855   8.030  -7.580  1.00  0.00     0.029 A 
ATOM     38  N   UNL     1     -10.002   8.286  -8.154  1.00  0.00    -0.354 N 
ATOM     39  C   UNL     1     -12.988   9.293  -5.182  1.00  0.00     0.074 A 
ATOM     40  C   UNL     1     -12.388   9.396  -3.868  1.00  0.00     0.031 C 
ATOM     41  C   UNL     1      -7.946   7.841  -8.908  1.00  0.00     0.029 A 
ATOM     42  C   UNL     1      -9.345   7.957  -9.316  1.00  0.00     0.049 A 
ATOM     43  H   UNL     1     -10.967   8.479  -8.117  1.00  0.00     0.167 HD
ATOM     44  C   UNL     1     -14.299   9.519  -5.447  1.00  0.00     0.034 A 
ATOM     45  C   UNL     1      -9.822   7.748 -10.560  1.00  0.00     0.034 A 
ATOM     46  C   UNL     1     -14.885   9.395  -6.760  1.00  0.00     0.049 A 
ATOM     47  C   UNL     1     -11.301   7.909 -10.815  1.00  0.00     0.074 A 
ATOM     48  C   UNL     1     -16.198   9.611  -7.144  1.00  0.00     0.029 A 
ATOM     49  N   UNL     1     -14.199   9.006  -7.905  1.00  0.00    -0.354 N 
ATOM     50  N   UNL     1     -12.254   8.248  -9.977  1.00  0.00    -0.248 NA
ATOM     51  C   UNL     1     -11.767   7.666 -12.187  1.00  0.00     0.031 C 
ATOM     52  C   UNL     1     -16.320   9.281  -8.499  1.00  0.00     0.029 A 
ATOM     53  C   UNL     1     -15.068   8.940  -8.984  1.00  0.00     0.049 A 
ATOM     54  H   UNL     1     -13.236   8.807  -7.944  1.00  0.00     0.167 HD
ATOM     55  C   UNL     1     -13.426   8.289 -10.729  1.00  0.00     0.074 A 
ATOM     56  C   UNL     1     -13.057   7.952 -12.089  1.00  0.00     0.031 C 
ATOM     57  C   UNL     1     -14.691   8.587 -10.334  1.00  0.00     0.034 A 
BRANCH  44  58
ATOM     58  C   UNL     1     -15.190   9.866  -4.277  1.00  0.00     0.023 A 
ATOM     59  C   UNL     1     -15.001  11.038  -3.523  1.00  0.00     0.031 A 
ATOM     60  C   UNL     1     -16.218   8.991  -3.882  1.00  0.00     0.131 A 
ATOM     61  C   UNL     1     -15.770  11.263  -2.371  1.00  0.00     0.055 A 
ATOM     62  C   UNL     1     -17.036   9.261  -2.784  1.00  0.00     0.041 A 
ATOM     63  F   UNL     1     -16.433   7.845  -4.548  1.00  0.00    -0.206 F 
ATOM     64  C   UNL     1     -16.803  10.395  -2.010  1.00  0.00     0.022 A 
BRANCH  61  65
ATOM     65  S   UNL     1     -15.298  12.620  -1.264  1.00  0.00     0.124 S 
ATOM     66  O   UNL     1     -13.915  12.273  -0.945  1.00  0.00    -0.237 OA
ATOM     67  O   UNL     1     -15.484  13.794  -2.108  1.00  0.00    -0.237 OA
ATOM     68  O   UNL     1     -16.236  12.496  -0.150  1.00  0.00    -0.744 OA
ENDBRANCH  61  65
ENDBRANCH  44  58
BRANCH  45  69
ATOM     69  C   UNL     1      -8.905   7.325 -11.658  1.00  0.00     0.023 A 
ATOM     70  C   UNL     1      -8.689   8.140 -12.780  1.00  0.00     0.031 A 
ATOM     71  C   UNL     1      -8.268   6.072 -11.620  1.00  0.00     0.131 A 
ATOM     72  C   UNL     1      -7.890   7.676 -13.837  1.00  0.00     0.055 A 
ATOM     73  C   UNL     1      -7.433   5.636 -12.650  1.00  0.00     0.041 A 
ATOM     74  F   UNL     1      -8.442   5.252 -10.570  1.00  0.00    -0.206 F 
ATOM     75  C   UNL     1      -7.250   6.436 -13.774  1.00  0.00     0.022 A 
BRANCH  72  76
ATOM     76  S   UNL     1      -7.760   8.688 -15.337  1.00  0.00     0.124 S 
ATOM     77  O   UNL     1      -9.154   8.775 -15.757  1.00  0.00    -0.237 OA
ATOM     78  O   UNL     1      -7.165   9.917 -14.823  1.00  0.00    -0.237 OA
ATOM     79  O   UNL     1      -6.894   7.895 -16.207  1.00  0.00    -0.744 OA
ENDBRANCH  72  76
ENDBRANCH  45  69
BRANCH  57  80
ATOM     80  C   UNL     1     -15.759   8.607 -11.402  1.00  0.00     0.023 A 
ATOM     81  C   UNL     1     -16.164   7.438 -12.071  1.00  0.00     0.031 A 
ATOM     82  C   UNL     1     -16.375   9.820 -11.762  1.00  0.00     0.131 A 
ATOM     83  C   UNL     1     -17.115   7.515 -13.101  1.00  0.00     0.055 A 
ATOM     84  C   UNL     1     -17.364   9.881 -12.745  1.00  0.00     0.041 A 
ATOM     85  F   UNL     1     -16.026  10.968 -11.159  1.00  0.00    -0.206 F 
ATOM     86  C   UNL     1     -17.730   8.726 -13.430  1.00  0.00     0.022 A 
BRANCH  83  87
ATOM     87  S   UNL     1     -17.474   6.025 -14.071  1.00  0.00     0.124 S 
ATOM     88  O   UNL     1     -16.158   5.684 -14.602  1.00  0.00    -0.237 OA
ATOM     89  O   UNL     1     -18.009   5.116 -13.062  1.00  0.00    -0.237 OA
ATOM     90  O   UNL     1     -18.442   6.486 -15.064  1.00  0.00    -0.744 OA
ENDBRANCH  83  87
ENDBRANCH  57  80
ENDBRANCH  31  32
ENDBRANCH  24  26
ENDBRANCH  23  24
ENDBRANCH  22  23
ENDBRANCH   1  22
TORSDOF 21
