REMARK SMILES CC[C@]1(C(=O)OCCOCCOC(=O)c2ccc(-c3c4nc(c(-c5cc(S(=O)(=O)[O-])ccc5F)c5ccc([nH]5)c(-c5cc(S(=O)(=O)[O-])ccc5F)c5nc(c(-c6cc(S(=O)(=O)[O-])ccc6F)c6ccc3[nH]6)C=C5)C=C4)cc2)CC[N@@H+](Cc2nc(C)ccc2O)C1
REMARK SMILES IDX 9 1 8 2 7 3 6 4 4 5 5 6 3 7 78 8 90 9 79 10 80 11 2 13 1 14
REMARK SMILES IDX 81 15 82 16 83 17 88 18 84 19 87 20 85 21 86 22 89 23 10 25
REMARK SMILES IDX 11 26 12 27 13 28 14 29 15 30 16 31 77 32 17 33 76 34 18 35
REMARK SMILES IDX 19 36 20 37 70 38 21 39 75 40 69 41 71 42 22 43 74 44 68 45
REMARK SMILES IDX 67 46 23 48 55 49 35 50 54 51 36 52 39 53 53 54 72 55 37 56
REMARK SMILES IDX 38 57 52 59 73 60 40 61 24 62 25 63 33 64 26 65 32 66 34 67
REMARK SMILES IDX 31 68 27 69 28 70 29 71 30 72 56 73 57 74 65 75 58 76 64 77
REMARK SMILES IDX 66 78 63 79 59 80 60 81 61 82 62 83 41 84 42 85 50 86 43 87
REMARK SMILES IDX 49 88 51 89 48 90 44 91 45 92 46 93 47 94
REMARK H PARENT 80 12 89 24 71 47 39 58
REMARK Flexibility Score: inf
ROOT
ATOM      1  O   UNL     1       2.912  -0.208  -2.975  1.00  0.00    -0.374 OA
ENDROOT
BRANCH   1   2
ATOM      2  C   UNL     1       2.568   0.945  -3.750  1.00  0.00     0.202 C 
BRANCH   2   3
ATOM      3  C   UNL     1       1.179   1.486  -3.422  1.00  0.00     0.261 C 
BRANCH   3   4
ATOM      4  O   UNL     1       1.218   2.072  -2.110  1.00  0.00    -0.463 OA
BRANCH   4   5
ATOM      5  C   UNL     1       0.075   1.983  -1.395  1.00  0.00     0.318 C 
ATOM      6  O   UNL     1      -0.992   1.587  -1.856  1.00  0.00    -0.251 OA
BRANCH   5   7
ATOM      7  C   UNL     1       0.238   2.411   0.061  1.00  0.00     0.122 C 
ATOM      8  C   UNL     1       1.642   2.726   0.595  1.00  0.00     0.086 C 
ATOM      9  C   UNL     1      -0.473   3.778   0.174  1.00  0.00     0.281 C 
ATOM     10  C   UNL     1       1.381   3.815   1.631  1.00  0.00     0.264 C 
ATOM     11  N   UNL     1       0.322   4.650   1.057  1.00  0.00    -0.329 N 
ATOM     12  H   UNL     1      -0.262   5.030   1.802  1.00  0.00     0.348 HD
BRANCH   7  13
ATOM     13  C   UNL     1      -0.423   1.323   0.953  1.00  0.00     0.021 C 
ATOM     14  C   UNL     1       0.236  -0.055   0.846  1.00  0.00     0.005 C 
ENDBRANCH   7  13
BRANCH  11  15
ATOM     15  C   UNL     1       0.827   5.878   0.376  1.00  0.00     0.323 C 
BRANCH  15  16
ATOM     16  C   UNL     1       2.147   5.769  -0.368  1.00  0.00     0.136 A 
ATOM     17  N   UNL     1       3.266   5.982   0.389  1.00  0.00    -0.248 NA
ATOM     18  C   UNL     1       2.216   5.313  -1.684  1.00  0.00     0.142 A 
ATOM     19  C   UNL     1       4.465   5.667  -0.137  1.00  0.00     0.038 A 
ATOM     20  C   UNL     1       3.456   4.982  -2.208  1.00  0.00     0.050 A 
ATOM     21  C   UNL     1       5.686   5.914   0.696  1.00  0.00     0.067 C 
ATOM     22  C   UNL     1       4.586   5.150  -1.414  1.00  0.00     0.027 A 
BRANCH  18  23
ATOM     23  O   UNL     1       1.087   5.130  -2.425  1.00  0.00    -0.506 OA
ATOM     24  H   UNL     1       0.250   5.355  -2.068  1.00  0.00     0.293 HD
ENDBRANCH  18  23
ENDBRANCH  15  16
ENDBRANCH  11  15
ENDBRANCH   5   7
ENDBRANCH   4   5
ENDBRANCH   3   4
ENDBRANCH   2   3
ENDBRANCH   1   2
BRANCH   1  25
ATOM     25  C   UNL     1       3.441   0.059  -1.675  1.00  0.00     0.202 C 
BRANCH  25  26
ATOM     26  C   UNL     1       4.961   0.242  -1.636  1.00  0.00     0.261 C 
BRANCH  26  27
ATOM     27  O   UNL     1       5.383   1.438  -2.314  1.00  0.00    -0.460 OA
BRANCH  27  28
ATOM     28  C   UNL     1       5.840   1.265  -3.581  1.00  0.00     0.338 C 
ATOM     29  O   UNL     1       5.952   0.216  -4.190  1.00  0.00    -0.246 OA
BRANCH  28  30
ATOM     30  C   UNL     1       6.021   2.597  -4.192  1.00  0.00     0.060 A 
ATOM     31  C   UNL     1       5.423   2.873  -5.428  1.00  0.00     0.016 A 
ATOM     32  C   UNL     1       6.766   3.578  -3.541  1.00  0.00     0.016 A 
ATOM     33  C   UNL     1       5.570   4.136  -6.015  1.00  0.00     0.010 A 
ATOM     34  C   UNL     1       6.873   4.851  -4.106  1.00  0.00     0.010 A 
ATOM     35  C   UNL     1       6.308   5.134  -5.365  1.00  0.00    -0.014 A 
BRANCH  35  36
ATOM     36  C   UNL     1       6.710   6.391  -6.058  1.00  0.00     0.031 A 
ATOM     37  C   UNL     1       8.177   6.573  -6.364  1.00  0.00     0.074 A 
ATOM     38  C   UNL     1       5.837   7.364  -6.383  1.00  0.00     0.049 A 
ATOM     39  N   UNL     1       8.828   7.638  -6.747  1.00  0.00    -0.248 NA
ATOM     40  C   UNL     1       9.027   5.391  -6.152  1.00  0.00     0.031 C 
ATOM     41  C   UNL     1       4.390   7.319  -6.174  1.00  0.00     0.029 A 
ATOM     42  N   UNL     1       6.051   8.598  -6.951  1.00  0.00    -0.354 N 
ATOM     43  C   UNL     1      10.170   7.269  -6.765  1.00  0.00     0.074 A 
ATOM     44  C   UNL     1      10.237   5.902  -6.295  1.00  0.00     0.031 C 
ATOM     45  C   UNL     1       3.848   8.469  -6.615  1.00  0.00     0.029 A 
ATOM     46  C   UNL     1       4.909   9.355  -7.091  1.00  0.00     0.049 A 
ATOM     47  H   UNL     1       6.941   8.912  -7.232  1.00  0.00     0.167 HD
ATOM     48  C   UNL     1      11.248   7.990  -7.158  1.00  0.00     0.034 A 
ATOM     49  C   UNL     1       4.747  10.623  -7.529  1.00  0.00     0.034 A 
ATOM     50  C   UNL     1      11.164   9.327  -7.683  1.00  0.00     0.049 A 
ATOM     51  C   UNL     1       5.963  11.420  -7.953  1.00  0.00     0.074 A 
ATOM     52  C   UNL     1      12.184  10.138  -8.145  1.00  0.00     0.029 A 
ATOM     53  N   UNL     1       9.985  10.045  -7.830  1.00  0.00    -0.354 N 
ATOM     54  N   UNL     1       7.228  11.066  -7.947  1.00  0.00    -0.248 NA
ATOM     55  C   UNL     1       5.729  12.787  -8.444  1.00  0.00     0.031 C 
ATOM     56  C   UNL     1      11.630  11.365  -8.524  1.00  0.00     0.029 A 
ATOM     57  C   UNL     1      10.255  11.293  -8.366  1.00  0.00     0.049 A 
ATOM     58  H   UNL     1       9.089   9.716  -7.588  1.00  0.00     0.167 HD
ATOM     59  C   UNL     1       7.930  12.150  -8.476  1.00  0.00     0.074 A 
ATOM     60  C   UNL     1       6.951  13.169  -8.786  1.00  0.00     0.031 C 
ATOM     61  C   UNL     1       9.262  12.287  -8.693  1.00  0.00     0.034 A 
BRANCH  48  62
ATOM     62  C   UNL     1      12.603   7.344  -6.999  1.00  0.00     0.023 A 
ATOM     63  C   UNL     1      12.943   6.162  -7.680  1.00  0.00     0.031 A 
ATOM     64  C   UNL     1      13.541   7.879  -6.099  1.00  0.00     0.131 A 
ATOM     65  C   UNL     1      14.138   5.498  -7.372  1.00  0.00     0.055 A 
ATOM     66  C   UNL     1      14.775   7.266  -5.873  1.00  0.00     0.041 A 
ATOM     67  F   UNL     1      13.264   8.992  -5.403  1.00  0.00    -0.206 F 
ATOM     68  C   UNL     1      15.071   6.056  -6.495  1.00  0.00     0.022 A 
BRANCH  65  69
ATOM     69  S   UNL     1      14.368   3.811  -7.995  1.00  0.00     0.124 S 
ATOM     70  O   UNL     1      13.229   3.120  -7.393  1.00  0.00    -0.237 OA
ATOM     71  O   UNL     1      14.312   3.996  -9.440  1.00  0.00    -0.237 OA
ATOM     72  O   UNL     1      15.674   3.425  -7.463  1.00  0.00    -0.744 OA
ENDBRANCH  65  69
ENDBRANCH  48  62
BRANCH  49  73
ATOM     73  C   UNL     1       3.393  11.252  -7.569  1.00  0.00     0.023 A 
ATOM     74  C   UNL     1       2.814  11.649  -8.786  1.00  0.00     0.031 A 
ATOM     75  C   UNL     1       2.690  11.537  -6.385  1.00  0.00     0.131 A 
ATOM     76  C   UNL     1       1.599  12.354  -8.790  1.00  0.00     0.055 A 
ATOM     77  C   UNL     1       1.456  12.191  -6.397  1.00  0.00     0.041 A 
ATOM     78  F   UNL     1       3.197  11.181  -5.194  1.00  0.00    -0.206 F 
ATOM     79  C   UNL     1       0.911  12.617  -7.604  1.00  0.00     0.022 A 
BRANCH  76  80
ATOM     80  S   UNL     1       0.975  13.004 -10.365  1.00  0.00     0.124 S 
ATOM     81  O   UNL     1       2.071  13.873 -10.781  1.00  0.00    -0.237 OA
ATOM     82  O   UNL     1       0.791  11.784 -11.144  1.00  0.00    -0.237 OA
ATOM     83  O   UNL     1      -0.258  13.691  -9.985  1.00  0.00    -0.744 OA
ENDBRANCH  76  80
ENDBRANCH  49  73
BRANCH  61  84
ATOM     84  C   UNL     1       9.736  13.543  -9.380  1.00  0.00     0.023 A 
ATOM     85  C   UNL     1       9.723  14.796  -8.745  1.00  0.00     0.031 A 
ATOM     86  C   UNL     1      10.252  13.466 -10.687  1.00  0.00     0.131 A 
ATOM     87  C   UNL     1      10.189  15.929  -9.430  1.00  0.00     0.055 A 
ATOM     88  C   UNL     1      10.759  14.587 -11.345  1.00  0.00     0.041 A 
ATOM     89  F   UNL     1      10.291  12.292 -11.337  1.00  0.00    -0.206 F 
ATOM     90  C   UNL     1      10.722  15.829 -10.719  1.00  0.00     0.022 A 
BRANCH  87  91
ATOM     91  S   UNL     1      10.048  17.553  -8.635  1.00  0.00     0.124 S 
ATOM     92  O   UNL     1       8.607  17.672  -8.440  1.00  0.00    -0.237 OA
ATOM     93  O   UNL     1      10.843  17.379  -7.424  1.00  0.00    -0.237 OA
ATOM     94  O   UNL     1      10.618  18.470  -9.621  1.00  0.00    -0.744 OA
ENDBRANCH  87  91
ENDBRANCH  61  84
ENDBRANCH  35  36
ENDBRANCH  28  30
ENDBRANCH  27  28
ENDBRANCH  26  27
ENDBRANCH  25  26
ENDBRANCH   1  25
TORSDOF 21
