REMARK SMILES [NH3+]Cc1c(-c2ccccc2)c(C(=O)OCCOCCOC(=O)c2ccc(-c3c4nc(c(-c5cc(S(=O)(=O)[O-])ccc5F)c5ccc([nH]5)c(-c5cc(S(=O)(=O)[O-])ccc5F)c5nc(c(-c6cc(S(=O)(=O)[O-])ccc6F)c6ccc3[nH]6)C=C5)C=C4)cc2)c2ccccn12
REMARK SMILES IDX 18 1 17 2 16 3 15 4 14 5 12 6 13 7 11 8 3 9 4 10 91 11 86 12
REMARK SMILES IDX 90 13 87 14 89 15 88 16 2 17 1 18 5 22 6 23 10 24 7 25 9 26
REMARK SMILES IDX 8 27 19 28 20 29 21 30 22 31 23 32 24 33 85 34 25 35 84 36
REMARK SMILES IDX 26 37 27 38 28 39 78 40 29 41 83 42 77 43 79 44 30 45 82 46
REMARK SMILES IDX 76 47 75 48 31 50 63 51 43 52 62 53 44 54 47 55 61 56 80 57
REMARK SMILES IDX 45 58 46 59 60 61 81 62 48 63 32 64 33 65 41 66 34 67 40 68
REMARK SMILES IDX 42 69 39 70 35 71 36 72 37 73 38 74 64 75 65 76 73 77 66 78
REMARK SMILES IDX 72 79 74 80 71 81 67 82 68 83 69 84 70 85 49 86 50 87 58 88
REMARK SMILES IDX 51 89 57 90 59 91 56 92 52 93 53 94 54 95 55 96
REMARK H PARENT 1 19 1 20 1 21 79 49 47 60
REMARK Flexibility Score: inf
ROOT
ATOM      1  C   UNL     1      -0.686  -5.602   4.414  1.00  0.00     0.202 C 
ENDROOT
BRANCH   1   2
ATOM      2  O   UNL     1      -0.022  -6.747   4.948  1.00  0.00    -0.374 OA
BRANCH   2   3
ATOM      3  C   UNL     1       1.102  -6.485   5.796  1.00  0.00     0.202 C 
BRANCH   3   4
ATOM      4  C   UNL     1       2.398  -6.186   5.037  1.00  0.00     0.261 C 
BRANCH   4   5
ATOM      5  O   UNL     1       2.355  -4.838   4.535  1.00  0.00    -0.460 OA
BRANCH   5   6
ATOM      6  C   UNL     1       2.502  -4.689   3.189  1.00  0.00     0.341 C 
ATOM      7  O   UNL     1       2.891  -5.575   2.435  1.00  0.00    -0.246 OA
BRANCH   6   8
ATOM      8  C   UNL     1       2.041  -3.386   2.713  1.00  0.00     0.093 A 
ATOM      9  C   UNL     1       1.067  -1.783   1.384  1.00  0.00     0.086 A 
ATOM     10  C   UNL     1       1.342  -3.143   1.491  1.00  0.00     0.024 A 
ATOM     11  N   UNL     1       1.548  -1.181   2.541  1.00  0.00    -0.314 N 
ATOM     12  C   UNL     1       2.116  -2.163   3.361  1.00  0.00     0.061 A 
ATOM     13  C   UNL     1       1.512   0.168   2.919  1.00  0.00     0.092 A 
ATOM     14  C   UNL     1       2.632  -1.743   4.628  1.00  0.00     0.027 A 
ATOM     15  C   UNL     1       2.033   0.557   4.093  1.00  0.00     0.018 A 
ATOM     16  C   UNL     1       2.595  -0.444   4.976  1.00  0.00     0.004 A 
BRANCH   9  17
ATOM     17  C   UNL     1       0.314  -1.072   0.302  1.00  0.00     0.315 C 
BRANCH  17  18
ATOM     18  N   UNL     1       1.084  -0.011  -0.332  1.00  0.00    -0.353 N 
ATOM     19  H   UNL     1       0.519   0.432  -1.056  1.00  0.00     0.344 HD
ATOM     20  H   UNL     1       1.925  -0.406  -0.751  1.00  0.00     0.344 HD
ATOM     21  H   UNL     1       1.346   0.683   0.368  1.00  0.00     0.344 HD
ENDBRANCH  17  18
ENDBRANCH   9  17
BRANCH  10  22
ATOM     22  C   UNL     1       0.827  -4.136   0.564  1.00  0.00    -0.015 A 
ATOM     23  C   UNL     1      -0.456  -4.662   0.765  1.00  0.00     0.009 A 
ATOM     24  C   UNL     1       1.617  -4.613  -0.483  1.00  0.00     0.009 A 
ATOM     25  C   UNL     1      -0.940  -5.672  -0.068  1.00  0.00     0.001 A 
ATOM     26  C   UNL     1       1.127  -5.617  -1.321  1.00  0.00     0.001 A 
ATOM     27  C   UNL     1      -0.147  -6.148  -1.111  1.00  0.00     0.000 A 
ENDBRANCH  10  22
ENDBRANCH   6   8
ENDBRANCH   5   6
ENDBRANCH   4   5
ENDBRANCH   3   4
ENDBRANCH   2   3
ENDBRANCH   1   2
BRANCH   1  28
ATOM     28  C   UNL     1      -1.805  -5.029   5.290  1.00  0.00     0.261 C 
BRANCH  28  29
ATOM     29  O   UNL     1      -1.308  -4.595   6.564  1.00  0.00    -0.460 OA
BRANCH  29  30
ATOM     30  C   UNL     1      -1.560  -5.458   7.580  1.00  0.00     0.338 C 
ATOM     31  O   UNL     1      -2.249  -6.463   7.532  1.00  0.00    -0.246 OA
BRANCH  30  32
ATOM     32  C   UNL     1      -0.738  -5.105   8.755  1.00  0.00     0.060 A 
ATOM     33  C   UNL     1      -0.126  -6.159   9.445  1.00  0.00     0.016 A 
ATOM     34  C   UNL     1      -0.598  -3.788   9.205  1.00  0.00     0.016 A 
ATOM     35  C   UNL     1       0.582  -5.907  10.617  1.00  0.00     0.010 A 
ATOM     36  C   UNL     1       0.109  -3.538  10.387  1.00  0.00     0.010 A 
ATOM     37  C   UNL     1       0.669  -4.601  11.116  1.00  0.00    -0.014 A 
BRANCH  37  38
ATOM     38  C   UNL     1       1.205  -4.389  12.482  1.00  0.00     0.031 A 
ATOM     39  C   UNL     1       0.237  -4.292  13.630  1.00  0.00     0.074 A 
ATOM     40  C   UNL     1       2.531  -4.336  12.701  1.00  0.00     0.049 A 
ATOM     41  N   UNL     1       0.474  -4.137  14.906  1.00  0.00    -0.248 NA
ATOM     42  C   UNL     1      -1.190  -4.380  13.287  1.00  0.00     0.031 C 
ATOM     43  C   UNL     1       3.562  -4.452  11.671  1.00  0.00     0.029 A 
ATOM     44  N   UNL     1       3.236  -4.175  13.867  1.00  0.00    -0.354 N 
ATOM     45  C   UNL     1      -0.773  -4.119  15.522  1.00  0.00     0.074 A 
ATOM     46  C   UNL     1      -1.762  -4.232  14.472  1.00  0.00     0.031 C 
ATOM     47  C   UNL     1       4.770  -4.351  12.251  1.00  0.00     0.029 A 
ATOM     48  C   UNL     1       4.598  -4.141  13.688  1.00  0.00     0.049 A 
ATOM     49  H   UNL     1       2.806  -4.092  14.749  1.00  0.00     0.167 HD
ATOM     50  C   UNL     1      -1.065  -4.029  16.843  1.00  0.00     0.034 A 
ATOM     51  C   UNL     1       5.589  -3.950  14.581  1.00  0.00     0.034 A 
ATOM     52  C   UNL     1      -0.069  -3.896  17.878  1.00  0.00     0.049 A 
ATOM     53  C   UNL     1       5.238  -3.777  16.038  1.00  0.00     0.074 A 
ATOM     54  C   UNL     1      -0.251  -3.804  19.247  1.00  0.00     0.029 A 
ATOM     55  N   UNL     1       1.300  -3.823  17.655  1.00  0.00    -0.354 N 
ATOM     56  N   UNL     1       4.055  -3.780  16.610  1.00  0.00    -0.248 NA
ATOM     57  C   UNL     1       6.357  -3.587  16.971  1.00  0.00     0.031 C 
ATOM     58  C   UNL     1       1.000  -3.612  19.844  1.00  0.00     0.029 A 
ATOM     59  C   UNL     1       1.971  -3.654  18.856  1.00  0.00     0.049 A 
ATOM     60  H   UNL     1       1.732  -3.882  16.772  1.00  0.00     0.167 HD
ATOM     61  C   UNL     1       4.292  -3.620  17.973  1.00  0.00     0.074 A 
ATOM     62  C   UNL     1       5.729  -3.537  18.137  1.00  0.00     0.031 C 
ATOM     63  C   UNL     1       3.405  -3.557  18.999  1.00  0.00     0.034 A 
BRANCH  50  64
ATOM     64  C   UNL     1      -2.525  -4.020  17.224  1.00  0.00     0.023 A 
ATOM     65  C   UNL     1      -3.351  -5.138  17.007  1.00  0.00     0.031 A 
ATOM     66  C   UNL     1      -3.109  -2.864  17.769  1.00  0.00     0.131 A 
ATOM     67  C   UNL     1      -4.728  -5.051  17.266  1.00  0.00     0.055 A 
ATOM     68  C   UNL     1      -4.466  -2.809  18.094  1.00  0.00     0.041 A 
ATOM     69  F   UNL     1      -2.375  -1.760  17.976  1.00  0.00    -0.206 F 
ATOM     70  C   UNL     1      -5.287  -3.901  17.829  1.00  0.00     0.022 A 
BRANCH  67  71
ATOM     71  S   UNL     1      -5.801  -6.410  16.727  1.00  0.00     0.124 S 
ATOM     72  O   UNL     1      -5.543  -6.437  15.289  1.00  0.00    -0.237 OA
ATOM     73  O   UNL     1      -5.285  -7.541  17.490  1.00  0.00    -0.237 OA
ATOM     74  O   UNL     1      -7.139  -5.961  17.105  1.00  0.00    -0.744 OA
ENDBRANCH  67  71
ENDBRANCH  50  64
BRANCH  51  75
ATOM     75  C   UNL     1       7.007  -3.875  14.129  1.00  0.00     0.023 A 
ATOM     76  C   UNL     1       7.949  -4.840  14.518  1.00  0.00     0.031 A 
ATOM     77  C   UNL     1       7.450  -2.799  13.338  1.00  0.00     0.131 A 
ATOM     78  C   UNL     1       9.296  -4.688  14.151  1.00  0.00     0.055 A 
ATOM     79  C   UNL     1       8.781  -2.676  12.938  1.00  0.00     0.041 A 
ATOM     80  F   UNL     1       6.588  -1.851  12.938  1.00  0.00    -0.206 F 
ATOM     81  C   UNL     1       9.716  -3.619  13.355  1.00  0.00     0.022 A 
BRANCH  78  82
ATOM     82  S   UNL     1      10.511  -5.872  14.792  1.00  0.00     0.124 S 
ATOM     83  O   UNL     1      10.344  -5.720  16.233  1.00  0.00    -0.237 OA
ATOM     84  O   UNL     1      10.038  -7.129  14.220  1.00  0.00    -0.237 OA
ATOM     85  O   UNL     1      11.779  -5.384  14.254  1.00  0.00    -0.744 OA
ENDBRANCH  78  82
ENDBRANCH  51  75
BRANCH  63  86
ATOM     86  C   UNL     1       3.976  -3.428  20.389  1.00  0.00     0.023 A 
ATOM     87  C   UNL     1       4.630  -2.258  20.814  1.00  0.00     0.031 A 
ATOM     88  C   UNL     1       3.875  -4.498  21.296  1.00  0.00     0.131 A 
ATOM     89  C   UNL     1       5.204  -2.205  22.093  1.00  0.00     0.055 A 
ATOM     90  C   UNL     1       4.402  -4.420  22.585  1.00  0.00     0.041 A 
ATOM     91  F   UNL     1       3.260  -5.638  20.941  1.00  0.00    -0.206 F 
ATOM     92  C   UNL     1       5.082  -3.274  22.986  1.00  0.00     0.022 A 
BRANCH  89  93
ATOM     93  S   UNL     1       6.190  -0.752  22.547  1.00  0.00     0.124 S 
ATOM     94  O   UNL     1       7.219  -0.747  21.512  1.00  0.00    -0.237 OA
ATOM     95  O   UNL     1       5.208   0.326  22.474  1.00  0.00    -0.237 OA
ATOM     96  O   UNL     1       6.665  -1.066  23.893  1.00  0.00    -0.744 OA
ENDBRANCH  89  93
ENDBRANCH  63  86
ENDBRANCH  37  38
ENDBRANCH  30  32
ENDBRANCH  29  30
ENDBRANCH  28  29
ENDBRANCH   1  28
TORSDOF 20
