REMARK SMILES C[NH+]1CCC([N@@H+](CC(=O)OCCOCCOC(=O)c2ccc(-c3c4nc(c(-c5cc(S(=O)(=O)[O-])ccc5F)c5ccc([nH]5)c(-c5cc(S(=O)(=O)[O-])ccc5F)c5nc(c(-c6cc(S(=O)(=O)[O-])ccc6F)c6ccc3[nH]6)C=C5)C=C4)cc2)C(C)(C)C)CC1
REMARK SMILES IDX 14 1 13 2 12 3 11 4 10 5 8 6 9 7 7 8 6 9 5 11 1 12 2 13 3 14
REMARK SMILES IDX 87 15 4 17 86 18 82 19 83 20 84 21 85 22 15 23 16 24 17 25
REMARK SMILES IDX 18 26 19 27 20 28 81 29 21 30 80 31 22 32 23 33 24 34 74 35
REMARK SMILES IDX 25 36 79 37 73 38 75 39 26 40 78 41 72 42 71 43 27 45 59 46
REMARK SMILES IDX 39 47 58 48 40 49 43 50 57 51 76 52 41 53 42 54 56 56 77 57
REMARK SMILES IDX 44 58 28 59 29 60 37 61 30 62 36 63 38 64 35 65 31 66 32 67
REMARK SMILES IDX 33 68 34 69 60 70 61 71 69 72 62 73 68 74 70 75 67 76 63 77
REMARK SMILES IDX 64 78 65 79 66 80 45 81 46 82 54 83 47 84 53 85 55 86 52 87
REMARK SMILES IDX 48 88 49 89 50 90 51 91
REMARK H PARENT 6 10 2 16 75 44 43 55
REMARK Flexibility Score: inf
ROOT
ATOM      1  C   UNL     1       2.994   3.691   3.094  1.00  0.00     0.202 C 
ENDROOT
BRANCH   1   2
ATOM      2  O   UNL     1       2.487   4.844   2.426  1.00  0.00    -0.374 OA
BRANCH   2   3
ATOM      3  C   UNL     1       1.684   4.579   1.272  1.00  0.00     0.202 C 
BRANCH   3   4
ATOM      4  C   UNL     1       2.498   4.322   0.005  1.00  0.00     0.261 C 
BRANCH   4   5
ATOM      5  O   UNL     1       2.647   2.902  -0.211  1.00  0.00    -0.459 OA
BRANCH   5   6
ATOM      6  C   UNL     1       3.871   2.330  -0.209  1.00  0.00     0.361 C 
ATOM      7  O   UNL     1       4.902   2.925   0.089  1.00  0.00    -0.245 OA
BRANCH   6   8
ATOM      8  C   UNL     1       3.854   0.890  -0.757  1.00  0.00     0.387 C 
BRANCH   8   9
ATOM      9  N   UNL     1       3.025  -0.138  -0.068  1.00  0.00    -0.319 N 
ATOM     10  H   UNL     1       3.389  -1.057  -0.318  1.00  0.00     0.349 HD
BRANCH   9  11
ATOM     11  C   UNL     1       1.662  -0.331  -0.656  1.00  0.00     0.196 C 
ATOM     12  C   UNL     1      -2.679  -0.576  -0.926  1.00  0.00     0.332 C 
ATOM     13  N   UNL     1      -1.287  -0.447  -0.491  1.00  0.00    -0.337 N 
ATOM     14  C   UNL     1      -0.666   0.715  -1.118  1.00  0.00     0.268 C 
ATOM     15  C   UNL     1      -0.524  -1.652  -0.819  1.00  0.00     0.268 C 
ATOM     16  H   UNL     1      -1.282  -0.325   0.521  1.00  0.00     0.347 HD
ATOM     17  C   UNL     1       0.764   0.922  -0.628  1.00  0.00     0.126 C 
ATOM     18  C   UNL     1       0.863  -1.560  -0.185  1.00  0.00     0.126 C 
ENDBRANCH   9  11
BRANCH   9  19
ATOM     19  C   UNL     1       3.366  -0.506   1.333  1.00  0.00     0.090 C 
ATOM     20  C   UNL     1       2.425   0.188   2.320  1.00  0.00     0.078 C 
ATOM     21  C   UNL     1       3.305  -2.035   1.590  1.00  0.00     0.078 C 
ATOM     22  C   UNL     1       4.823  -0.130   1.733  1.00  0.00     0.078 C 
ENDBRANCH   9  19
ENDBRANCH   8   9
ENDBRANCH   6   8
ENDBRANCH   5   6
ENDBRANCH   4   5
ENDBRANCH   3   4
ENDBRANCH   2   3
ENDBRANCH   1   2
BRANCH   1  23
ATOM     23  C   UNL     1       2.013   3.067   4.102  1.00  0.00     0.261 C 
BRANCH  23  24
ATOM     24  O   UNL     1       0.797   2.599   3.477  1.00  0.00    -0.460 OA
BRANCH  24  25
ATOM     25  C   UNL     1      -0.306   3.335   3.759  1.00  0.00     0.338 C 
ATOM     26  O   UNL     1      -0.378   4.245   4.568  1.00  0.00    -0.246 OA
BRANCH  25  27
ATOM     27  C   UNL     1      -1.417   3.031   2.826  1.00  0.00     0.060 A 
ATOM     28  C   UNL     1      -2.037   4.128   2.217  1.00  0.00     0.016 A 
ATOM     29  C   UNL     1      -1.927   1.748   2.624  1.00  0.00     0.016 A 
ATOM     30  C   UNL     1      -3.209   3.960   1.476  1.00  0.00     0.010 A 
ATOM     31  C   UNL     1      -3.105   1.584   1.870  1.00  0.00     0.010 A 
ATOM     32  C   UNL     1      -3.785   2.692   1.322  1.00  0.00    -0.014 A 
BRANCH  32  33
ATOM     33  C   UNL     1      -5.153   2.585   0.716  1.00  0.00     0.031 A 
ATOM     34  C   UNL     1      -6.329   2.188   1.578  1.00  0.00     0.074 A 
ATOM     35  C   UNL     1      -5.382   2.925  -0.570  1.00  0.00     0.049 A 
ATOM     36  N   UNL     1      -7.602   2.117   1.272  1.00  0.00    -0.248 NA
ATOM     37  C   UNL     1      -6.028   1.811   2.965  1.00  0.00     0.031 C 
ATOM     38  C   UNL     1      -4.359   3.340  -1.529  1.00  0.00     0.029 A 
ATOM     39  N   UNL     1      -6.555   2.994  -1.289  1.00  0.00    -0.354 N 
ATOM     40  C   UNL     1      -8.251   1.683   2.425  1.00  0.00     0.074 A 
ATOM     41  C   UNL     1      -7.218   1.442   3.411  1.00  0.00     0.031 C 
ATOM     42  C   UNL     1      -4.949   3.647  -2.696  1.00  0.00     0.029 A 
ATOM     43  C   UNL     1      -6.390   3.418  -2.589  1.00  0.00     0.049 A 
ATOM     44  H   UNL     1      -7.433   2.762  -0.908  1.00  0.00     0.167 HD
ATOM     45  C   UNL     1      -9.579   1.525   2.660  1.00  0.00     0.034 A 
ATOM     46  C   UNL     1      -7.285   3.598  -3.586  1.00  0.00     0.034 A 
ATOM     47  C   UNL     1     -10.614   1.769   1.683  1.00  0.00     0.049 A 
ATOM     48  C   UNL     1      -8.755   3.351  -3.328  1.00  0.00     0.074 A 
ATOM     49  C   UNL     1     -11.987   1.675   1.841  1.00  0.00     0.029 A 
ATOM     50  N   UNL     1     -10.396   2.139   0.362  1.00  0.00    -0.354 N 
ATOM     51  N   UNL     1      -9.350   2.979  -2.219  1.00  0.00    -0.248 NA
ATOM     52  C   UNL     1      -9.673   3.560  -4.457  1.00  0.00     0.031 C 
ATOM     53  C   UNL     1     -12.592   1.899   0.600  1.00  0.00     0.029 A 
ATOM     54  C   UNL     1     -11.606   2.231  -0.315  1.00  0.00     0.049 A 
ATOM     55  H   UNL     1      -9.513   2.311  -0.037  1.00  0.00     0.167 HD
ATOM     56  C   UNL     1     -10.713   2.940  -2.511  1.00  0.00     0.074 A 
ATOM     57  C   UNL     1     -10.853   3.338  -3.896  1.00  0.00     0.031 C 
ATOM     58  C   UNL     1     -11.753   2.612  -1.701  1.00  0.00     0.034 A 
BRANCH  45  59
ATOM     59  C   UNL     1      -9.981   1.016   4.028  1.00  0.00     0.023 A 
ATOM     60  C   UNL     1      -9.683   1.732   5.201  1.00  0.00     0.031 A 
ATOM     61  C   UNL     1     -10.624  -0.227   4.165  1.00  0.00     0.131 A 
ATOM     62  C   UNL     1      -9.928   1.154   6.456  1.00  0.00     0.055 A 
ATOM     63  C   UNL     1     -10.957  -0.751   5.415  1.00  0.00     0.041 A 
ATOM     64  F   UNL     1     -10.922  -0.967   3.085  1.00  0.00    -0.206 F 
ATOM     65  C   UNL     1     -10.588  -0.071   6.572  1.00  0.00     0.022 A 
BRANCH  62  66
ATOM     66  S   UNL     1      -9.195   1.933   7.922  1.00  0.00     0.124 S 
ATOM     67  O   UNL     1      -7.779   1.962   7.562  1.00  0.00    -0.237 OA
ATOM     68  O   UNL     1      -9.872   3.223   7.964  1.00  0.00    -0.237 OA
ATOM     69  O   UNL     1      -9.535   1.012   9.005  1.00  0.00    -0.744 OA
ENDBRANCH  62  66
ENDBRANCH  45  59
BRANCH  46  70
ATOM     70  C   UNL     1      -6.822   4.003  -4.948  1.00  0.00     0.023 A 
ATOM     71  C   UNL     1      -7.207   5.224  -5.525  1.00  0.00     0.031 A 
ATOM     72  C   UNL     1      -6.024   3.135  -5.716  1.00  0.00     0.131 A 
ATOM     73  C   UNL     1      -6.826   5.527  -6.843  1.00  0.00     0.055 A 
ATOM     74  C   UNL     1      -5.603   3.464  -7.005  1.00  0.00     0.041 A 
ATOM     75  F   UNL     1      -5.632   1.952  -5.216  1.00  0.00    -0.206 F 
ATOM     76  C   UNL     1      -6.014   4.662  -7.580  1.00  0.00     0.022 A 
BRANCH  73  77
ATOM     77  S   UNL     1      -7.470   7.037  -7.617  1.00  0.00     0.124 S 
ATOM     78  O   UNL     1      -8.908   6.799  -7.581  1.00  0.00    -0.237 OA
ATOM     79  O   UNL     1      -6.967   8.074  -6.722  1.00  0.00    -0.237 OA
ATOM     80  O   UNL     1      -6.866   7.021  -8.948  1.00  0.00    -0.744 OA
ENDBRANCH  73  77
ENDBRANCH  46  70
BRANCH  58  81
ATOM     81  C   UNL     1     -13.150   2.711  -2.276  1.00  0.00     0.023 A 
ATOM     82  C   UNL     1     -13.589   1.883  -3.324  1.00  0.00     0.031 A 
ATOM     83  C   UNL     1     -14.061   3.651  -1.758  1.00  0.00     0.131 A 
ATOM     84  C   UNL     1     -14.881   2.045  -3.854  1.00  0.00     0.055 A 
ATOM     85  C   UNL     1     -15.365   3.763  -2.244  1.00  0.00     0.041 A 
ATOM     86  F   UNL     1     -13.701   4.475  -0.761  1.00  0.00    -0.206 F 
ATOM     87  C   UNL     1     -15.778   2.966  -3.307  1.00  0.00     0.022 A 
BRANCH  84  88
ATOM     88  S   UNL     1     -15.346   1.101  -5.332  1.00  0.00     0.124 S 
ATOM     89  O   UNL     1     -14.323   1.511  -6.288  1.00  0.00    -0.237 OA
ATOM     90  O   UNL     1     -15.263  -0.278  -4.862  1.00  0.00    -0.237 OA
ATOM     91  O   UNL     1     -16.698   1.573  -5.630  1.00  0.00    -0.744 OA
ENDBRANCH  84  88
ENDBRANCH  58  81
ENDBRANCH  32  33
ENDBRANCH  25  27
ENDBRANCH  24  25
ENDBRANCH  23  24
ENDBRANCH   1  23
TORSDOF 20
