REMARK SMILES CCN(CC)c1ccc(NS(=O)(=O)c2ccc(Cl)s2)cc1C(=O)OCCOCCOC(=O)c1ccc(-c2c3nc(c(-c4cc(S(=O)(=O)[O-])ccc4F)c4ccc([nH]4)c(-c4cc(S(=O)(=O)[O-])ccc4F)c4nc(c(-c5cc(S(=O)(=O)[O-])ccc5F)c5ccc2[nH]5)C=C4)C=C3)cc1
REMARK SMILES IDX 27 1 26 2 25 3 24 4 22 5 23 6 21 7 6 8 7 9 8 10 20 11 9 12
REMARK SMILES IDX 3 13 2 14 1 15 4 16 5 17 10 18 11 20 12 21 13 22 14 23 15 24
REMARK SMILES IDX 19 25 16 26 17 27 18 28 28 29 29 30 30 31 31 32 32 33 33 34
REMARK SMILES IDX 34 35 95 36 35 37 94 38 36 39 37 40 38 41 88 42 39 43 93 44
REMARK SMILES IDX 87 45 89 46 40 47 92 48 86 49 85 50 41 52 73 53 53 54 72 55
REMARK SMILES IDX 54 56 57 57 71 58 90 59 55 60 56 61 70 63 91 64 58 65 42 66
REMARK SMILES IDX 43 67 51 68 44 69 50 70 52 71 49 72 45 73 46 74 47 75 48 76
REMARK SMILES IDX 74 77 75 78 83 79 76 80 82 81 84 82 81 83 77 84 78 85 79 86
REMARK SMILES IDX 80 87 59 88 60 89 68 90 61 91 67 92 69 93 66 94 62 95 63 96
REMARK SMILES IDX 64 97 65 98
REMARK H PARENT 10 19 89 51 57 62
REMARK Flexibility Score: inf
ROOT
ATOM      1  O   UNL     1       2.765   2.445  -2.583  1.00  0.00    -0.374 OA
ENDROOT
BRANCH   1   2
ATOM      2  C   UNL     1       1.838   1.362  -2.640  1.00  0.00     0.202 C 
BRANCH   2   3
ATOM      3  C   UNL     1       2.188   0.115  -1.824  1.00  0.00     0.261 C 
BRANCH   3   4
ATOM      4  O   UNL     1       2.231   0.390  -0.410  1.00  0.00    -0.460 OA
BRANCH   4   5
ATOM      5  C   UNL     1       3.163  -0.313   0.280  1.00  0.00     0.340 C 
ATOM      6  O   UNL     1       3.905  -1.171  -0.176  1.00  0.00    -0.246 OA
BRANCH   5   7
ATOM      7  C   UNL     1       3.360   0.224   1.645  1.00  0.00     0.085 A 
ATOM      8  C   UNL     1       2.347   0.326   2.618  1.00  0.00     0.051 A 
ATOM      9  C   UNL     1       2.761   0.790   3.872  1.00  0.00     0.029 A 
ATOM     10  C   UNL     1       4.045   1.262   4.119  1.00  0.00     0.029 A 
ATOM     11  C   UNL     1       4.692   0.655   1.916  1.00  0.00     0.044 A 
ATOM     12  C   UNL     1       5.033   1.189   3.157  1.00  0.00     0.050 A 
BRANCH   8  13
ATOM     13  N   UNL     1       0.998   0.057   2.439  1.00  0.00    -0.371 N 
BRANCH  13  14
ATOM     14  C   UNL     1       0.520  -1.301   2.166  1.00  0.00     0.113 C 
ATOM     15  C   UNL     1       0.003  -1.452   0.745  1.00  0.00     0.027 C 
ENDBRANCH  13  14
BRANCH  13  16
ATOM     16  C   UNL     1      -0.002   1.065   2.849  1.00  0.00     0.113 C 
ATOM     17  C   UNL     1      -0.443   0.938   4.308  1.00  0.00     0.027 C 
ENDBRANCH  13  16
ENDBRANCH   8  13
BRANCH  12  18
ATOM     18  N   UNL     1       6.307   1.807   3.386  1.00  0.00    -0.279 N 
ATOM     19  H   UNL     1       6.603   2.549   2.811  1.00  0.00     0.180 HD
BRANCH  18  20
ATOM     20  S   UNL     1       7.310   1.259   4.649  1.00  0.00     0.271 S 
ATOM     21  O   UNL     1       7.731  -0.083   4.308  1.00  0.00    -0.200 OA
ATOM     22  O   UNL     1       8.291   2.297   4.889  1.00  0.00    -0.200 OA
BRANCH  20  23
ATOM     23  C   UNL     1       6.403   1.065   6.168  1.00  0.00     0.141 A 
ATOM     24  C   UNL     1       5.872  -0.064   6.772  1.00  0.00     0.036 A 
ATOM     25  S   UNL     1       6.003   2.487   7.047  1.00  0.00    -0.110 S 
ATOM     26  C   UNL     1       5.005   0.260   7.857  1.00  0.00     0.034 A 
ATOM     27  C   UNL     1       4.968   1.614   8.067  1.00  0.00     0.094 A 
ATOM     28  Cl  UNL     1       3.986   2.442   9.205  1.00  0.00    -0.072 Cl
ENDBRANCH  20  23
ENDBRANCH  18  20
ENDBRANCH  12  18
ENDBRANCH   5   7
ENDBRANCH   4   5
ENDBRANCH   3   4
ENDBRANCH   2   3
ENDBRANCH   1   2
BRANCH   1  29
ATOM     29  C   UNL     1       3.023   3.022  -1.308  1.00  0.00     0.202 C 
BRANCH  29  30
ATOM     30  C   UNL     1       1.897   3.821  -0.632  1.00  0.00     0.261 C 
BRANCH  30  31
ATOM     31  O   UNL     1       0.646   3.128  -0.477  1.00  0.00    -0.460 OA
BRANCH  31  32
ATOM     32  C   UNL     1      -0.351   3.587  -1.278  1.00  0.00     0.338 C 
ATOM     33  O   UNL     1      -0.271   4.463  -2.122  1.00  0.00    -0.246 OA
BRANCH  32  34
ATOM     34  C   UNL     1      -1.595   2.827  -1.056  1.00  0.00     0.060 A 
ATOM     35  C   UNL     1      -2.075   2.003  -2.081  1.00  0.00     0.016 A 
ATOM     36  C   UNL     1      -2.376   3.076   0.074  1.00  0.00     0.016 A 
ATOM     37  C   UNL     1      -3.355   1.452  -1.993  1.00  0.00     0.010 A 
ATOM     38  C   UNL     1      -3.660   2.522   0.159  1.00  0.00     0.010 A 
ATOM     39  C   UNL     1      -4.171   1.734  -0.888  1.00  0.00    -0.014 A 
BRANCH  39  40
ATOM     40  C   UNL     1      -5.598   1.308  -0.880  1.00  0.00     0.031 A 
ATOM     41  C   UNL     1      -6.677   2.323  -1.155  1.00  0.00     0.074 A 
ATOM     42  C   UNL     1      -5.931   0.026  -0.643  1.00  0.00     0.049 A 
ATOM     43  N   UNL     1      -7.978   2.184  -1.121  1.00  0.00    -0.248 NA
ATOM     44  C   UNL     1      -6.226   3.676  -1.512  1.00  0.00     0.031 C 
ATOM     45  C   UNL     1      -4.981  -1.062  -0.413  1.00  0.00     0.029 A 
ATOM     46  N   UNL     1      -7.161  -0.577  -0.550  1.00  0.00    -0.354 N 
ATOM     47  C   UNL     1      -8.504   3.429  -1.453  1.00  0.00     0.074 A 
ATOM     48  C   UNL     1      -7.377   4.320  -1.641  1.00  0.00     0.031 C 
ATOM     49  C   UNL     1      -5.666  -2.199  -0.197  1.00  0.00     0.029 A 
ATOM     50  C   UNL     1      -7.099  -1.912  -0.227  1.00  0.00     0.049 A 
ATOM     51  H   UNL     1      -8.008  -0.098  -0.700  1.00  0.00     0.167 HD
ATOM     52  C   UNL     1      -9.803   3.794  -1.601  1.00  0.00     0.034 A 
ATOM     53  C   UNL     1      -8.082  -2.796   0.042  1.00  0.00     0.034 A 
ATOM     54  C   UNL     1     -10.921   2.902  -1.399  1.00  0.00     0.049 A 
ATOM     55  C   UNL     1      -9.522  -2.341  -0.024  1.00  0.00     0.074 A 
ATOM     56  C   UNL     1     -12.274   3.172  -1.521  1.00  0.00     0.029 A 
ATOM     57  N   UNL     1     -10.819   1.569  -1.024  1.00  0.00    -0.354 N 
ATOM     58  N   UNL     1     -10.004  -1.159  -0.332  1.00  0.00    -0.248 NA
ATOM     59  C   UNL     1     -10.550  -3.344   0.287  1.00  0.00     0.031 C 
ATOM     60  C   UNL     1     -12.989   2.026  -1.155  1.00  0.00     0.029 A 
ATOM     61  C   UNL     1     -12.083   1.014  -0.881  1.00  0.00     0.049 A 
ATOM     62  H   UNL     1      -9.973   1.087  -0.881  1.00  0.00     0.167 HD
ATOM     63  C   UNL     1     -11.390  -1.290  -0.287  1.00  0.00     0.074 A 
ATOM     64  C   UNL     1     -11.666  -2.667   0.066  1.00  0.00     0.031 C 
ATOM     65  C   UNL     1     -12.350  -0.359  -0.522  1.00  0.00     0.034 A 
BRANCH  52  66
ATOM     66  C   UNL     1     -10.083   5.235  -1.958  1.00  0.00     0.023 A 
ATOM     67  C   UNL     1      -9.671   5.786  -3.184  1.00  0.00     0.031 A 
ATOM     68  C   UNL     1     -10.756   6.076  -1.053  1.00  0.00     0.131 A 
ATOM     69  C   UNL     1      -9.874   7.150  -3.443  1.00  0.00     0.055 A 
ATOM     70  C   UNL     1     -11.025   7.413  -1.350  1.00  0.00     0.041 A 
ATOM     71  F   UNL     1     -11.156   5.613   0.142  1.00  0.00    -0.206 F 
ATOM     72  C   UNL     1     -10.571   7.962  -2.545  1.00  0.00     0.022 A 
BRANCH  69  73
ATOM     73  S   UNL     1      -9.095   7.879  -4.910  1.00  0.00     0.124 S 
ATOM     74  O   UNL     1      -7.684   7.590  -4.668  1.00  0.00    -0.237 OA
ATOM     75  O   UNL     1      -9.721   7.141  -6.000  1.00  0.00    -0.237 OA
ATOM     76  O   UNL     1      -9.457   9.293  -4.823  1.00  0.00    -0.744 OA
ENDBRANCH  69  73
ENDBRANCH  52  66
BRANCH  53  77
ATOM     77  C   UNL     1      -7.755  -4.194   0.447  1.00  0.00     0.023 A 
ATOM     78  C   UNL     1      -8.167  -5.289  -0.328  1.00  0.00     0.031 A 
ATOM     79  C   UNL     1      -7.086  -4.457   1.657  1.00  0.00     0.131 A 
ATOM     80  C   UNL     1      -7.957  -6.595   0.140  1.00  0.00     0.055 A 
ATOM     81  C   UNL     1      -6.828  -5.758   2.089  1.00  0.00     0.041 A 
ATOM     82  F   UNL     1      -6.671  -3.447   2.438  1.00  0.00    -0.206 F 
ATOM     83  C   UNL     1      -7.279  -6.838   1.336  1.00  0.00     0.022 A 
BRANCH  80  84
ATOM     84  S   UNL     1      -8.679  -7.976  -0.790  1.00  0.00     0.124 S 
ATOM     85  O   UNL     1     -10.093  -7.619  -0.798  1.00  0.00    -0.237 OA
ATOM     86  O   UNL     1      -7.983  -7.874  -2.068  1.00  0.00    -0.237 OA
ATOM     87  O   UNL     1      -8.333  -9.145   0.016  1.00  0.00    -0.744 OA
ENDBRANCH  80  84
ENDBRANCH  53  77
BRANCH  65  88
ATOM     88  C   UNL     1     -13.788  -0.818  -0.458  1.00  0.00     0.023 A 
ATOM     89  C   UNL     1     -14.383  -1.234   0.746  1.00  0.00     0.031 A 
ATOM     90  C   UNL     1     -14.569  -0.854  -1.627  1.00  0.00     0.131 A 
ATOM     91  C   UNL     1     -15.700  -1.720   0.744  1.00  0.00     0.055 A 
ATOM     92  C   UNL     1     -15.898  -1.282  -1.612  1.00  0.00     0.041 A 
ATOM     93  F   UNL     1     -14.053  -0.471  -2.806  1.00  0.00    -0.206 F 
ATOM     94  C   UNL     1     -16.466  -1.732  -0.424  1.00  0.00     0.022 A 
BRANCH  91  95
ATOM     95  S   UNL     1     -16.372  -2.425   2.275  1.00  0.00     0.124 S 
ATOM     96  O   UNL     1     -15.423  -3.497   2.559  1.00  0.00    -0.237 OA
ATOM     97  O   UNL     1     -16.337  -1.285   3.186  1.00  0.00    -0.237 OA
ATOM     98  O   UNL     1     -17.711  -2.868   1.891  1.00  0.00    -0.744 OA
ENDBRANCH  91  95
ENDBRANCH  65  88
ENDBRANCH  39  40
ENDBRANCH  32  34
ENDBRANCH  31  32
ENDBRANCH  30  31
ENDBRANCH  29  30
ENDBRANCH   1  29
TORSDOF 23
