REMARK SMILES CC[C@@]1(C(=O)OCCOCCOC(=O)c2ccc(-c3c4nc(c(-c5cc(S(=O)(=O)[O-])ccc5F)c5ccc([nH]5)c(-c5cc(S(=O)(=O)[O-])ccc5F)c5nc(c(-c6cc(S(=O)(=O)[O-])ccc6F)c6ccc3[nH]6)C=C5)C=C4)cc2)CCC[N@@H+](Cc2ccc(C3CC3)cc2)C1
REMARK SMILES IDX 9 1 8 2 7 3 6 4 4 5 5 6 3 7 78 8 92 9 79 10 81 11 80 12 2 14
REMARK SMILES IDX 1 15 82 16 83 17 84 18 91 19 85 20 90 21 86 22 87 23 88 24
REMARK SMILES IDX 89 25 10 26 11 27 12 28 13 29 14 30 15 31 16 32 77 33 17 34
REMARK SMILES IDX 76 35 18 36 19 37 20 38 70 39 21 40 75 41 69 42 71 43 22 44
REMARK SMILES IDX 74 45 68 46 67 47 23 49 55 50 35 51 54 52 36 53 39 54 53 55
REMARK SMILES IDX 72 56 37 57 38 58 52 60 73 61 40 62 24 63 25 64 33 65 26 66
REMARK SMILES IDX 32 67 34 68 31 69 27 70 28 71 29 72 30 73 56 74 57 75 65 76
REMARK SMILES IDX 58 77 64 78 66 79 63 80 59 81 60 82 61 83 62 84 41 85 42 86
REMARK SMILES IDX 50 87 43 88 49 89 51 90 48 91 44 92 45 93 46 94 47 95
REMARK H PARENT 81 13 71 48 39 59
REMARK Flexibility Score: inf
ROOT
ATOM      1  O   UNL     1      -0.542   2.525  -1.918  1.00  0.00    -0.374 OA
ENDROOT
BRANCH   1   2
ATOM      2  C   UNL     1      -0.520   2.419  -0.492  1.00  0.00     0.202 C 
BRANCH   2   3
ATOM      3  C   UNL     1      -0.838   1.038   0.080  1.00  0.00     0.261 C 
BRANCH   3   4
ATOM      4  O   UNL     1       0.128   0.082  -0.386  1.00  0.00    -0.463 OA
BRANCH   4   5
ATOM      5  C   UNL     1      -0.356  -1.041  -0.965  1.00  0.00     0.317 C 
ATOM      6  O   UNL     1      -1.548  -1.335  -0.961  1.00  0.00    -0.251 OA
BRANCH   5   7
ATOM      7  C   UNL     1       0.740  -1.969  -1.534  1.00  0.00     0.117 C 
ATOM      8  C   UNL     1       0.939  -3.078  -0.472  1.00  0.00     0.030 C 
ATOM      9  C   UNL     1       2.139  -1.330  -1.774  1.00  0.00     0.281 C 
ATOM     10  C   UNL     1       1.681  -2.556   0.768  1.00  0.00     0.063 C 
ATOM     11  N   UNL     1       2.820  -0.825  -0.586  1.00  0.00    -0.330 N 
ATOM     12  C   UNL     1       3.008  -1.870   0.419  1.00  0.00     0.262 C 
ATOM     13  H   UNL     1       2.191  -0.139  -0.168  1.00  0.00     0.348 HD
BRANCH   7  14
ATOM     14  C   UNL     1       0.324  -2.587  -2.923  1.00  0.00     0.021 C 
ATOM     15  C   UNL     1      -1.076  -2.340  -3.471  1.00  0.00     0.005 C 
ENDBRANCH   7  14
BRANCH  11  16
ATOM     16  C   UNL     1       4.037  -0.045  -0.879  1.00  0.00     0.299 C 
BRANCH  16  17
ATOM     17  C   UNL     1       5.228  -0.814  -1.412  1.00  0.00     0.006 A 
ATOM     18  C   UNL     1       6.309  -1.112  -0.579  1.00  0.00     0.010 A 
ATOM     19  C   UNL     1       5.274  -1.261  -2.737  1.00  0.00     0.010 A 
ATOM     20  C   UNL     1       7.366  -1.906  -1.040  1.00  0.00     0.004 A 
ATOM     21  C   UNL     1       6.324  -2.071  -3.184  1.00  0.00     0.004 A 
ATOM     22  C   UNL     1       7.382  -2.443  -2.339  1.00  0.00    -0.045 A 
BRANCH  22  23
ATOM     23  C   UNL     1       8.490  -3.396  -2.748  1.00  0.00     0.019 C 
ATOM     24  C   UNL     1       8.248  -4.481  -3.772  1.00  0.00     0.009 C 
ATOM     25  C   UNL     1       9.136  -3.317  -4.109  1.00  0.00     0.009 C 
ENDBRANCH  22  23
ENDBRANCH  16  17
ENDBRANCH  11  16
ENDBRANCH   5   7
ENDBRANCH   4   5
ENDBRANCH   3   4
ENDBRANCH   2   3
ENDBRANCH   1   2
BRANCH   1  26
ATOM     26  C   UNL     1       0.606   2.028  -2.606  1.00  0.00     0.202 C 
BRANCH  26  27
ATOM     27  C   UNL     1       1.851   2.924  -2.616  1.00  0.00     0.261 C 
BRANCH  27  28
ATOM     28  O   UNL     1       2.453   3.041  -1.312  1.00  0.00    -0.460 OA
BRANCH  28  29
ATOM     29  C   UNL     1       2.295   4.248  -0.720  1.00  0.00     0.338 C 
ATOM     30  O   UNL     1       1.795   5.247  -1.221  1.00  0.00    -0.246 OA
BRANCH  29  31
ATOM     31  C   UNL     1       2.613   4.157   0.719  1.00  0.00     0.060 A 
ATOM     32  C   UNL     1       1.638   4.611   1.617  1.00  0.00     0.016 A 
ATOM     33  C   UNL     1       3.845   3.696   1.189  1.00  0.00     0.016 A 
ATOM     34  C   UNL     1       1.909   4.657   2.982  1.00  0.00     0.010 A 
ATOM     35  C   UNL     1       4.119   3.752   2.563  1.00  0.00     0.010 A 
ATOM     36  C   UNL     1       3.165   4.267   3.461  1.00  0.00    -0.014 A 
BRANCH  36  37
ATOM     37  C   UNL     1       3.513   4.548   4.878  1.00  0.00     0.031 A 
ATOM     38  C   UNL     1       4.373   5.741   5.197  1.00  0.00     0.074 A 
ATOM     39  C   UNL     1       3.021   3.786   5.873  1.00  0.00     0.049 A 
ATOM     40  N   UNL     1       4.798   6.175   6.356  1.00  0.00    -0.248 NA
ATOM     41  C   UNL     1       4.815   6.550   4.051  1.00  0.00     0.031 C 
ATOM     42  C   UNL     1       2.140   2.633   5.692  1.00  0.00     0.029 A 
ATOM     43  N   UNL     1       3.191   3.870   7.232  1.00  0.00    -0.354 N 
ATOM     44  C   UNL     1       5.564   7.304   6.080  1.00  0.00     0.074 A 
ATOM     45  C   UNL     1       5.574   7.461   4.641  1.00  0.00     0.031 C 
ATOM     46  C   UNL     1       1.854   2.111   6.897  1.00  0.00     0.029 A 
ATOM     47  C   UNL     1       2.561   2.866   7.930  1.00  0.00     0.049 A 
ATOM     48  H   UNL     1       3.715   4.581   7.667  1.00  0.00     0.167 HD
ATOM     49  C   UNL     1       6.193   8.135   6.949  1.00  0.00     0.034 A 
ATOM     50  C   UNL     1       2.576   2.572   9.246  1.00  0.00     0.034 A 
ATOM     51  C   UNL     1       6.176   7.959   8.382  1.00  0.00     0.049 A 
ATOM     52  C   UNL     1       3.351   3.462  10.188  1.00  0.00     0.074 A 
ATOM     53  C   UNL     1       6.747   8.762   9.354  1.00  0.00     0.029 A 
ATOM     54  N   UNL     1       5.576   6.898   9.049  1.00  0.00    -0.354 N 
ATOM     55  N   UNL     1       4.051   4.540   9.919  1.00  0.00    -0.248 NA
ATOM     56  C   UNL     1       3.330   3.099  11.611  1.00  0.00     0.031 C 
ATOM     57  C   UNL     1       6.569   8.142  10.596  1.00  0.00     0.029 A 
ATOM     58  C   UNL     1       5.807   6.999  10.414  1.00  0.00     0.049 A 
ATOM     59  H   UNL     1       5.062   6.179   8.616  1.00  0.00     0.167 HD
ATOM     60  C   UNL     1       4.535   4.996  11.143  1.00  0.00     0.074 A 
ATOM     61  C   UNL     1       4.030   4.086  12.151  1.00  0.00     0.031 C 
ATOM     62  C   UNL     1       5.321   6.071  11.411  1.00  0.00     0.034 A 
BRANCH  49  63
ATOM     63  C   UNL     1       7.004   9.269   6.364  1.00  0.00     0.023 A 
ATOM     64  C   UNL     1       6.415  10.296   5.606  1.00  0.00     0.031 A 
ATOM     65  C   UNL     1       8.399   9.303   6.543  1.00  0.00     0.131 A 
ATOM     66  C   UNL     1       7.223  11.267   4.993  1.00  0.00     0.055 A 
ATOM     67  C   UNL     1       9.188  10.319   6.001  1.00  0.00     0.041 A 
ATOM     68  F   UNL     1       9.023   8.337   7.236  1.00  0.00    -0.206 F 
ATOM     69  C   UNL     1       8.603  11.300   5.207  1.00  0.00     0.022 A 
BRANCH  66  70
ATOM     70  S   UNL     1       6.468  12.391   3.786  1.00  0.00     0.124 S 
ATOM     71  O   UNL     1       5.888  11.451   2.829  1.00  0.00    -0.237 OA
ATOM     72  O   UNL     1       5.519  13.138   4.603  1.00  0.00    -0.237 OA
ATOM     73  O   UNL     1       7.601  13.163   3.280  1.00  0.00    -0.744 OA
ENDBRANCH  66  70
ENDBRANCH  49  63
BRANCH  50  74
ATOM     74  C   UNL     1       1.882   1.350   9.748  1.00  0.00     0.023 A 
ATOM     75  C   UNL     1       0.804   1.431  10.643  1.00  0.00     0.031 A 
ATOM     76  C   UNL     1       2.322   0.070   9.360  1.00  0.00     0.131 A 
ATOM     77  C   UNL     1       0.225   0.255  11.148  1.00  0.00     0.055 A 
ATOM     78  C   UNL     1       1.708  -1.094   9.822  1.00  0.00     0.041 A 
ATOM     79  F   UNL     1       3.352  -0.065   8.510  1.00  0.00    -0.206 F 
ATOM     80  C   UNL     1       0.659  -1.006  10.731  1.00  0.00     0.022 A 
BRANCH  77  81
ATOM     81  S   UNL     1      -1.061   0.393  12.420  1.00  0.00     0.124 S 
ATOM     82  O   UNL     1      -0.355   1.104  13.480  1.00  0.00    -0.237 OA
ATOM     83  O   UNL     1      -2.098   1.146  11.722  1.00  0.00    -0.237 OA
ATOM     84  O   UNL     1      -1.397  -0.998  12.716  1.00  0.00    -0.744 OA
ENDBRANCH  77  81
ENDBRANCH  50  74
BRANCH  62  85
ATOM     85  C   UNL     1       5.658   6.336  12.860  1.00  0.00     0.023 A 
ATOM     86  C   UNL     1       6.450   5.449  13.611  1.00  0.00     0.031 A 
ATOM     87  C   UNL     1       5.173   7.490  13.502  1.00  0.00     0.131 A 
ATOM     88  C   UNL     1       6.684   5.701  14.973  1.00  0.00     0.055 A 
ATOM     89  C   UNL     1       5.465   7.769  14.838  1.00  0.00     0.041 A 
ATOM     90  F   UNL     1       4.408   8.371  12.838  1.00  0.00    -0.206 F 
ATOM     91  C   UNL     1       6.213   6.864  15.585  1.00  0.00     0.022 A 
BRANCH  88  92
ATOM     92  S   UNL     1       7.529   4.435  15.960  1.00  0.00     0.124 S 
ATOM     93  O   UNL     1       6.656   3.279  15.782  1.00  0.00    -0.237 OA
ATOM     94  O   UNL     1       8.835   4.354  15.314  1.00  0.00    -0.237 OA
ATOM     95  O   UNL     1       7.539   5.002  17.308  1.00  0.00    -0.744 OA
ENDBRANCH  88  92
ENDBRANCH  62  85
ENDBRANCH  36  37
ENDBRANCH  29  31
ENDBRANCH  28  29
ENDBRANCH  27  28
ENDBRANCH  26  27
ENDBRANCH   1  26
TORSDOF 21
