REMARK SMILES CCCCCCNC(=O)Oc1cccc(-c2ccc([C@@H](C)C(=O)OCCOCCOC(=O)c3ccc(-c4c5nc(c(-c6cc(S(=O)(=O)[O-])ccc6F)c6ccc([nH]6)c(-c6cc(S(=O)(=O)[O-])ccc6F)c6nc(c(-c7cc(S(=O)(=O)[O-])ccc7F)c7ccc4[nH]7)C=C6)C=C5)cc3)cc2C(F)(F)F)c1
REMARK SMILES IDX 24 1 22 2 23 3 20 4 21 5 19 6 16 7 17 8 97 9 18 10 96 11
REMARK SMILES IDX 15 12 11 13 12 14 102 15 13 16 14 17 10 18 8 19 7 20 9 22
REMARK SMILES IDX 6 23 5 24 4 25 3 26 2 27 1 28 98 29 99 30 100 31 101 32
REMARK SMILES IDX 25 33 26 34 27 35 28 36 29 37 30 38 31 39 32 40 33 41 34 42
REMARK SMILES IDX 95 43 35 44 94 45 36 46 37 47 38 48 88 49 39 50 93 51 87 52
REMARK SMILES IDX 89 53 40 54 92 55 86 56 85 57 41 59 73 60 53 61 72 62 54 63
REMARK SMILES IDX 57 64 71 65 90 66 55 67 56 68 70 70 91 71 58 72 42 73 43 74
REMARK SMILES IDX 51 75 44 76 50 77 52 78 49 79 45 80 46 81 47 82 48 83 74 84
REMARK SMILES IDX 75 85 83 86 76 87 82 88 84 89 81 90 77 91 78 92 79 93 80 94
REMARK SMILES IDX 59 95 60 96 68 97 61 98 67 99 69 100 66 101 62 102 63 103
REMARK SMILES IDX 64 104 65 105
REMARK H PARENT 7 21 89 58 57 69
REMARK Flexibility Score: inf
ROOT
ATOM      1  O   UNL     1      -3.602  14.081   5.248  1.00  0.00    -0.463 OA
ENDROOT
BRANCH   1   2
ATOM      2  C   UNL     1      -4.155  14.418   4.056  1.00  0.00     0.313 C 
ATOM      3  O   UNL     1      -3.865  15.422   3.412  1.00  0.00    -0.252 OA
BRANCH   2   4
ATOM      4  C   UNL     1      -5.221  13.447   3.573  1.00  0.00     0.126 C 
ATOM      5  C   UNL     1      -6.599  13.987   3.939  1.00  0.00     0.025 C 
BRANCH   4   6
ATOM      6  C   UNL     1      -5.074  11.970   3.930  1.00  0.00    -0.033 A 
ATOM      7  C   UNL     1      -5.006   9.157   4.463  1.00  0.00    -0.006 A 
ATOM      8  C   UNL     1      -5.110  10.110   5.497  1.00  0.00     0.009 A 
ATOM      9  C   UNL     1      -4.919   9.631   3.137  1.00  0.00     0.064 A 
ATOM     10  C   UNL     1      -5.153  11.488   5.238  1.00  0.00     0.005 A 
ATOM     11  C   UNL     1      -4.931  11.027   2.898  1.00  0.00     0.018 A 
BRANCH   7  12
ATOM     12  C   UNL     1      -5.064   7.720   4.801  1.00  0.00    -0.014 A 
ATOM     13  C   UNL     1      -4.162   5.467   4.713  1.00  0.00     0.133 A 
ATOM     14  C   UNL     1      -5.316   4.951   5.298  1.00  0.00     0.047 A 
ATOM     15  C   UNL     1      -4.021   6.837   4.473  1.00  0.00     0.056 A 
ATOM     16  C   UNL     1      -6.341   5.818   5.664  1.00  0.00     0.004 A 
ATOM     17  C   UNL     1      -6.216   7.188   5.412  1.00  0.00     0.009 A 
BRANCH  13  18
ATOM     18  O   UNL     1      -3.231   4.520   4.242  1.00  0.00    -0.410 OA
BRANCH  18  19
ATOM     19  C   UNL     1      -1.873   4.725   4.426  1.00  0.00     0.412 C 
ATOM     20  N   UNL     1      -1.097   3.772   3.828  1.00  0.00    -0.321 N 
ATOM     21  H   UNL     1      -0.125   3.856   3.954  1.00  0.00     0.167 HD
ATOM     22  O   UNL     1      -1.365   5.650   5.055  1.00  0.00    -0.224 OA
BRANCH  20  23
ATOM     23  C   UNL     1      -1.550   2.651   3.027  1.00  0.00     0.119 C 
BRANCH  23  24
ATOM     24  C   UNL     1      -0.971   2.686   1.611  1.00  0.00     0.021 C 
BRANCH  24  25
ATOM     25  C   UNL     1       0.556   2.565   1.534  1.00  0.00     0.002 C 
BRANCH  25  26
ATOM     26  C   UNL     1       1.148   1.277   2.116  1.00  0.00    -0.000 C 
BRANCH  26  27
ATOM     27  C   UNL     1       0.674  -0.021   1.458  1.00  0.00    -0.003 C 
ATOM     28  C   UNL     1       1.067  -0.132  -0.008  1.00  0.00     0.004 C 
ENDBRANCH  26  27
ENDBRANCH  25  26
ENDBRANCH  24  25
ENDBRANCH  23  24
ENDBRANCH  20  23
ENDBRANCH  18  19
ENDBRANCH  13  18
ENDBRANCH   7  12
BRANCH   9  29
ATOM     29  C   UNL     1      -4.810   8.724   1.929  1.00  0.00     0.417 C 
ATOM     30  F   UNL     1      -5.382   9.277   0.815  1.00  0.00    -0.166 F 
ATOM     31  F   UNL     1      -3.513   8.488   1.581  1.00  0.00    -0.166 F 
ATOM     32  F   UNL     1      -5.402   7.506   2.047  1.00  0.00    -0.166 F 
ENDBRANCH   9  29
ENDBRANCH   4   6
ENDBRANCH   2   4
ENDBRANCH   1   2
BRANCH   1  33
ATOM     33  C   UNL     1      -2.503  14.899   5.687  1.00  0.00     0.261 C 
BRANCH  33  34
ATOM     34  C   UNL     1      -1.194  14.106   5.725  1.00  0.00     0.202 C 
BRANCH  34  35
ATOM     35  O   UNL     1      -0.695  13.644   4.470  1.00  0.00    -0.374 OA
BRANCH  35  36
ATOM     36  C   UNL     1      -1.327  12.505   3.886  1.00  0.00     0.202 C 
BRANCH  36  37
ATOM     37  C   UNL     1      -1.026  11.133   4.501  1.00  0.00     0.261 C 
BRANCH  37  38
ATOM     38  O   UNL     1      -1.514  11.003   5.847  1.00  0.00    -0.460 OA
BRANCH  38  39
ATOM     39  C   UNL     1      -0.542  10.963   6.793  1.00  0.00     0.338 C 
ATOM     40  O   UNL     1       0.663  10.988   6.604  1.00  0.00    -0.246 OA
BRANCH  39  41
ATOM     41  C   UNL     1      -1.132  11.098   8.140  1.00  0.00     0.060 A 
ATOM     42  C   UNL     1      -0.583  12.075   8.980  1.00  0.00     0.016 A 
ATOM     43  C   UNL     1      -2.137  10.247   8.605  1.00  0.00     0.016 A 
ATOM     44  C   UNL     1      -0.992  12.166  10.308  1.00  0.00     0.010 A 
ATOM     45  C   UNL     1      -2.544  10.338   9.943  1.00  0.00     0.010 A 
ATOM     46  C   UNL     1      -1.944  11.271  10.811  1.00  0.00    -0.014 A 
BRANCH  46  47
ATOM     47  C   UNL     1      -2.178  11.216  12.278  1.00  0.00     0.031 A 
ATOM     48  C   UNL     1      -1.518  10.127  13.081  1.00  0.00     0.074 A 
ATOM     49  C   UNL     1      -2.913  12.159  12.896  1.00  0.00     0.049 A 
ATOM     50  N   UNL     1      -1.578   9.887  14.366  1.00  0.00    -0.248 NA
ATOM     51  C   UNL     1      -0.676   9.182  12.331  1.00  0.00     0.031 C 
ATOM     52  C   UNL     1      -3.558  13.292  12.233  1.00  0.00     0.029 A 
ATOM     53  N   UNL     1      -3.237  12.316  14.220  1.00  0.00    -0.354 N 
ATOM     54  C   UNL     1      -0.787   8.762  14.580  1.00  0.00     0.074 A 
ATOM     55  C   UNL     1      -0.292   8.347  13.284  1.00  0.00     0.031 C 
ATOM     56  C   UNL     1      -4.205  14.026  13.155  1.00  0.00     0.029 A 
ATOM     57  C   UNL     1      -4.053  13.396  14.466  1.00  0.00     0.049 A 
ATOM     58  H   UNL     1      -2.916  11.712  14.928  1.00  0.00     0.167 HD
ATOM     59  C   UNL     1      -0.493   8.140  15.749  1.00  0.00     0.034 A 
ATOM     60  C   UNL     1      -4.627  13.816  15.612  1.00  0.00     0.034 A 
ATOM     61  C   UNL     1      -1.000   8.562  17.033  1.00  0.00     0.049 A 
ATOM     62  C   UNL     1      -4.354  13.057  16.889  1.00  0.00     0.074 A 
ATOM     63  C   UNL     1      -0.755   8.013  18.279  1.00  0.00     0.029 A 
ATOM     64  N   UNL     1      -1.868   9.628  17.235  1.00  0.00    -0.354 N 
ATOM     65  N   UNL     1      -3.599  11.999  17.079  1.00  0.00    -0.248 NA
ATOM     66  C   UNL     1      -5.004  13.557  18.108  1.00  0.00     0.031 C 
ATOM     67  C   UNL     1      -1.531   8.696  19.222  1.00  0.00     0.029 A 
ATOM     68  C   UNL     1      -2.196   9.728  18.580  1.00  0.00     0.049 A 
ATOM     69  H   UNL     1      -2.202  10.225  16.528  1.00  0.00     0.167 HD
ATOM     70  C   UNL     1      -3.659  11.729  18.444  1.00  0.00     0.074 A 
ATOM     71  C   UNL     1      -4.511  12.742  19.030  1.00  0.00     0.031 C 
ATOM     72  C   UNL     1      -3.059  10.736  19.152  1.00  0.00     0.034 A 
BRANCH  59  73
ATOM     73  C   UNL     1       0.374   6.905  15.679  1.00  0.00     0.023 A 
ATOM     74  C   UNL     1       1.709   6.955  15.239  1.00  0.00     0.031 A 
ATOM     75  C   UNL     1      -0.154   5.651  16.034  1.00  0.00     0.131 A 
ATOM     76  C   UNL     1       2.446   5.769  15.100  1.00  0.00     0.055 A 
ATOM     77  C   UNL     1       0.609   4.484  15.968  1.00  0.00     0.041 A 
ATOM     78  F   UNL     1      -1.429   5.536  16.439  1.00  0.00    -0.206 F 
ATOM     79  C   UNL     1       1.913   4.536  15.486  1.00  0.00     0.022 A 
BRANCH  76  80
ATOM     80  S   UNL     1       4.062   5.839  14.278  1.00  0.00     0.124 S 
ATOM     81  O   UNL     1       3.708   6.405  12.979  1.00  0.00    -0.237 OA
ATOM     82  O   UNL     1       4.829   6.705  15.166  1.00  0.00    -0.237 OA
ATOM     83  O   UNL     1       4.491   4.442  14.245  1.00  0.00    -0.744 OA
ENDBRANCH  76  80
ENDBRANCH  59  73
BRANCH  60  84
ATOM     84  C   UNL     1      -5.554  14.985  15.608  1.00  0.00     0.023 A 
ATOM     85  C   UNL     1      -5.263  16.151  16.333  1.00  0.00     0.031 A 
ATOM     86  C   UNL     1      -6.780  14.926  14.921  1.00  0.00     0.131 A 
ATOM     87  C   UNL     1      -6.205  17.192  16.393  1.00  0.00     0.055 A 
ATOM     88  C   UNL     1      -7.689  15.985  14.938  1.00  0.00     0.041 A 
ATOM     89  F   UNL     1      -7.111  13.833  14.214  1.00  0.00    -0.206 F 
ATOM     90  C   UNL     1      -7.409  17.122  15.689  1.00  0.00     0.022 A 
BRANCH  87  91
ATOM     91  S   UNL     1      -5.872  18.606  17.479  1.00  0.00     0.124 S 
ATOM     92  O   UNL     1      -5.725  17.957  18.776  1.00  0.00    -0.237 OA
ATOM     93  O   UNL     1      -4.653  19.155  16.893  1.00  0.00    -0.237 OA
ATOM     94  O   UNL     1      -7.063  19.439  17.327  1.00  0.00    -0.744 OA
ENDBRANCH  87  91
ENDBRANCH  60  84
BRANCH  72  95
ATOM     95  C   UNL     1      -3.270  10.732  20.648  1.00  0.00     0.023 A 
ATOM     96  C   UNL     1      -4.533  10.497  21.220  1.00  0.00     0.031 A 
ATOM     97  C   UNL     1      -2.190  10.982  21.514  1.00  0.00     0.131 A 
ATOM     98  C   UNL     1      -4.696  10.576  22.612  1.00  0.00     0.055 A 
ATOM     99  C   UNL     1      -2.346  10.995  22.901  1.00  0.00     0.041 A 
ATOM    100  F   UNL     1      -0.962  11.216  21.025  1.00  0.00    -0.206 F 
ATOM    101  C   UNL     1      -3.608  10.806  23.457  1.00  0.00     0.022 A 
BRANCH  98 102
ATOM    102  S   UNL     1      -6.372  10.474  23.301  1.00  0.00     0.124 S 
ATOM    103  O   UNL     1      -7.048  11.573  22.619  1.00  0.00    -0.237 OA
ATOM    104  O   UNL     1      -6.788   9.130  22.912  1.00  0.00    -0.237 OA
ATOM    105  O   UNL     1      -6.166  10.667  24.735  1.00  0.00    -0.744 OA
ENDBRANCH  98 102
ENDBRANCH  72  95
ENDBRANCH  46  47
ENDBRANCH  39  41
ENDBRANCH  38  39
ENDBRANCH  37  38
ENDBRANCH  36  37
ENDBRANCH  35  36
ENDBRANCH  34  35
ENDBRANCH  33  34
ENDBRANCH   1  33
TORSDOF 27
