REMARK SMILES Cc1ccc(-c2nc(C)cc(N3CCCC[C@H]3C(=O)OCCOCCOC(=O)c3ccc(-c4c5nc(c(-c6cc(S(=O)(=O)[O-])ccc6F)c6ccc([nH]6)c(-c6cc(S(=O)(=O)[O-])ccc6F)c6nc(c(-c7cc(S(=O)(=O)[O-])ccc7F)c7ccc4[nH]7)C=C6)C=C5)cc3)n2)cc1
REMARK SMILES IDX 24 1 23 2 22 3 21 4 20 5 18 6 19 7 17 8 12 9 13 10 14 11
REMARK SMILES IDX 16 12 15 13 11 14 6 15 7 16 92 17 8 18 9 19 10 20 5 21 1 22
REMARK SMILES IDX 2 23 3 24 94 25 4 26 93 27 25 28 26 29 27 30 28 31 29 32
REMARK SMILES IDX 30 33 91 34 31 35 90 36 32 37 33 38 34 39 84 40 35 41 89 42
REMARK SMILES IDX 83 43 85 44 36 45 88 46 82 47 81 48 37 50 69 51 49 52 68 53
REMARK SMILES IDX 50 54 53 55 67 56 86 57 51 58 52 59 66 61 87 62 54 63 38 64
REMARK SMILES IDX 39 65 47 66 40 67 46 68 48 69 45 70 41 71 42 72 43 73 44 74
REMARK SMILES IDX 70 75 71 76 79 77 72 78 78 79 80 80 77 81 73 82 74 83 75 84
REMARK SMILES IDX 76 85 55 86 56 87 64 88 57 89 63 90 65 91 62 92 58 93 59 94
REMARK SMILES IDX 60 95 61 96
REMARK H PARENT 85 49 53 60
REMARK Flexibility Score: inf
ROOT
ATOM      1  C   UNL     1      -7.878  -0.895  -4.654  1.00  0.00     0.202 C 
ENDROOT
BRANCH   1   2
ATOM      2  O   UNL     1      -8.282   0.397  -4.265  1.00  0.00    -0.374 OA
BRANCH   2   3
ATOM      3  C   UNL     1      -7.957   1.462  -5.144  1.00  0.00     0.202 C 
BRANCH   3   4
ATOM      4  C   UNL     1      -8.461   2.712  -4.491  1.00  0.00     0.261 C 
BRANCH   4   5
ATOM      5  O   UNL     1      -7.701   3.141  -3.348  1.00  0.00    -0.462 OA
BRANCH   5   6
ATOM      6  C   UNL     1      -7.462   2.345  -2.279  1.00  0.00     0.328 C 
ATOM      7  O   UNL     1      -8.229   1.517  -1.802  1.00  0.00    -0.250 OA
BRANCH   6   8
ATOM      8  C   UNL     1      -6.039   2.595  -1.772  1.00  0.00     0.193 C 
ATOM      9  N   UNL     1      -5.231   1.389  -1.954  1.00  0.00    -0.343 N 
ATOM     10  C   UNL     1      -4.671   1.044  -3.255  1.00  0.00     0.119 C 
ATOM     11  C   UNL     1      -4.184   2.229  -4.082  1.00  0.00     0.022 C 
ATOM     12  C   UNL     1      -5.316   3.779  -2.442  1.00  0.00     0.037 C 
ATOM     13  C   UNL     1      -4.964   3.518  -3.907  1.00  0.00     0.005 C 
BRANCH   9  14
ATOM     14  C   UNL     1      -4.829   0.669  -0.863  1.00  0.00     0.133 A 
ATOM     15  C   UNL     1      -3.040  -0.162   0.290  1.00  0.00     0.161 A 
ATOM     16  N   UNL     1      -3.776  -0.743   1.247  1.00  0.00    -0.233 NA
ATOM     17  N   UNL     1      -3.516   0.499  -0.765  1.00  0.00    -0.211 NA
ATOM     18  C   UNL     1      -5.112  -0.564   1.134  1.00  0.00     0.043 A 
ATOM     19  C   UNL     1      -5.963  -1.177   2.208  1.00  0.00     0.067 C 
ATOM     20  C   UNL     1      -5.683   0.159   0.095  1.00  0.00     0.070 A 
BRANCH  15  21
ATOM     21  C   UNL     1      -1.587  -0.164   0.351  1.00  0.00     0.019 A 
ATOM     22  C   UNL     1       2.706  -0.059  -0.031  1.00  0.00     0.044 C 
ATOM     23  C   UNL     1       1.217  -0.088   0.121  1.00  0.00    -0.051 A 
ATOM     24  C   UNL     1       0.542  -1.313   0.231  1.00  0.00     0.004 A 
ATOM     25  C   UNL     1       0.487   1.101   0.131  1.00  0.00     0.004 A 
ATOM     26  C   UNL     1      -0.849  -1.351   0.355  1.00  0.00     0.012 A 
ATOM     27  C   UNL     1      -0.898   1.060   0.242  1.00  0.00     0.012 A 
ENDBRANCH  15  21
ENDBRANCH   9  14
ENDBRANCH   6   8
ENDBRANCH   5   6
ENDBRANCH   4   5
ENDBRANCH   3   4
ENDBRANCH   2   3
ENDBRANCH   1   2
BRANCH   1  28
ATOM     28  C   UNL     1      -8.403  -1.309  -6.033  1.00  0.00     0.261 C 
BRANCH  28  29
ATOM     29  O   UNL     1      -9.835  -1.519  -6.017  1.00  0.00    -0.460 OA
BRANCH  29  30
ATOM     30  C   UNL     1     -10.608  -0.482  -6.448  1.00  0.00     0.338 C 
ATOM     31  O   UNL     1     -10.657  -0.088  -7.609  1.00  0.00    -0.246 OA
BRANCH  30  32
ATOM     32  C   UNL     1     -11.295   0.175  -5.301  1.00  0.00     0.060 A 
ATOM     33  C   UNL     1     -11.918   1.431  -5.435  1.00  0.00     0.016 A 
ATOM     34  C   UNL     1     -11.031  -0.332  -4.037  1.00  0.00     0.016 A 
ATOM     35  C   UNL     1     -12.118   2.241  -4.303  1.00  0.00     0.010 A 
ATOM     36  C   UNL     1     -11.032   0.545  -2.982  1.00  0.00     0.010 A 
ATOM     37  C   UNL     1     -11.584   1.827  -3.085  1.00  0.00    -0.014 A 
BRANCH  37  38
ATOM     38  C   UNL     1     -11.483   2.607  -1.850  1.00  0.00     0.031 A 
ATOM     39  C   UNL     1     -12.212   2.083  -0.673  1.00  0.00     0.074 A 
ATOM     40  C   UNL     1     -10.616   3.640  -1.701  1.00  0.00     0.049 A 
ATOM     41  N   UNL     1     -12.626   2.824   0.291  1.00  0.00    -0.248 NA
ATOM     42  C   UNL     1     -12.601   0.680  -0.500  1.00  0.00     0.031 C 
ATOM     43  C   UNL     1     -10.094   4.225  -0.465  1.00  0.00     0.029 A 
ATOM     44  N   UNL     1     -10.010   4.418  -2.686  1.00  0.00    -0.354 N 
ATOM     45  C   UNL     1     -12.987   1.986   1.321  1.00  0.00     0.074 A 
ATOM     46  C   UNL     1     -13.077   0.675   0.743  1.00  0.00     0.031 C 
ATOM     47  C   UNL     1      -9.478   5.391  -0.743  1.00  0.00     0.029 A 
ATOM     48  C   UNL     1      -9.671   5.668  -2.158  1.00  0.00     0.049 A 
ATOM     49  H   UNL     1      -9.846   4.131  -3.614  1.00  0.00     0.167 HD
ATOM     50  C   UNL     1     -12.983   2.463   2.593  1.00  0.00     0.034 A 
ATOM     51  C   UNL     1     -10.138   6.799  -2.751  1.00  0.00     0.034 A 
ATOM     52  C   UNL     1     -12.507   3.849   2.613  1.00  0.00     0.049 A 
ATOM     53  C   UNL     1     -11.136   7.420  -1.804  1.00  0.00     0.074 A 
ATOM     54  C   UNL     1     -11.288   4.417   2.945  1.00  0.00     0.029 A 
ATOM     55  N   UNL     1     -13.205   4.818   1.900  1.00  0.00    -0.354 N 
ATOM     56  N   UNL     1     -11.667   6.756  -0.812  1.00  0.00    -0.248 NA
ATOM     57  C   UNL     1     -11.543   8.818  -1.816  1.00  0.00     0.031 C 
ATOM     58  C   UNL     1     -11.250   5.727   2.389  1.00  0.00     0.029 A 
ATOM     59  C   UNL     1     -12.453   5.965   1.743  1.00  0.00     0.049 A 
ATOM     60  H   UNL     1     -14.119   4.701   1.552  1.00  0.00     0.167 HD
ATOM     61  C   UNL     1     -12.408   7.587  -0.033  1.00  0.00     0.074 A 
ATOM     62  C   UNL     1     -12.316   8.870  -0.715  1.00  0.00     0.031 C 
ATOM     63  C   UNL     1     -13.028   7.141   1.101  1.00  0.00     0.034 A 
BRANCH  50  64
ATOM     64  C   UNL     1     -13.091   1.587   3.817  1.00  0.00     0.023 A 
ATOM     65  C   UNL     1     -12.514   2.034   5.019  1.00  0.00     0.031 A 
ATOM     66  C   UNL     1     -13.732   0.332   3.885  1.00  0.00     0.131 A 
ATOM     67  C   UNL     1     -12.508   1.234   6.174  1.00  0.00     0.055 A 
ATOM     68  C   UNL     1     -13.669  -0.496   5.015  1.00  0.00     0.041 A 
ATOM     69  F   UNL     1     -14.503  -0.125   2.889  1.00  0.00    -0.206 F 
ATOM     70  C   UNL     1     -13.049  -0.048   6.170  1.00  0.00     0.022 A 
BRANCH  67  71
ATOM     71  S   UNL     1     -11.820   1.925   7.700  1.00  0.00     0.124 S 
ATOM     72  O   UNL     1     -10.418   2.113   7.346  1.00  0.00    -0.237 OA
ATOM     73  O   UNL     1     -12.612   3.138   7.873  1.00  0.00    -0.237 OA
ATOM     74  O   UNL     1     -12.075   0.878   8.689  1.00  0.00    -0.744 OA
ENDBRANCH  67  71
ENDBRANCH  50  64
BRANCH  51  75
ATOM     75  C   UNL     1     -10.205   6.659  -4.249  1.00  0.00     0.023 A 
ATOM     76  C   UNL     1      -8.977   6.633  -4.968  1.00  0.00     0.031 A 
ATOM     77  C   UNL     1     -11.320   6.068  -4.869  1.00  0.00     0.131 A 
ATOM     78  C   UNL     1      -8.865   5.925  -6.184  1.00  0.00     0.055 A 
ATOM     79  C   UNL     1     -11.202   5.367  -6.081  1.00  0.00     0.041 A 
ATOM     80  F   UNL     1     -12.501   6.018  -4.237  1.00  0.00    -0.206 F 
ATOM     81  C   UNL     1      -9.970   5.263  -6.725  1.00  0.00     0.022 A 
BRANCH  78  82
ATOM     82  S   UNL     1      -7.227   5.601  -6.941  1.00  0.00     0.124 S 
ATOM     83  O   UNL     1      -7.294   6.382  -8.171  1.00  0.00    -0.237 OA
ATOM     84  O   UNL     1      -6.287   6.082  -5.934  1.00  0.00    -0.237 OA
ATOM     85  O   UNL     1      -7.231   4.149  -7.125  1.00  0.00    -0.744 OA
ENDBRANCH  78  82
ENDBRANCH  51  75
BRANCH  63  86
ATOM     86  C   UNL     1     -14.200   7.827   1.752  1.00  0.00     0.023 A 
ATOM     87  C   UNL     1     -14.877   8.877   1.130  1.00  0.00     0.031 A 
ATOM     88  C   UNL     1     -14.753   7.379   2.976  1.00  0.00     0.131 A 
ATOM     89  C   UNL     1     -15.952   9.517   1.755  1.00  0.00     0.055 A 
ATOM     90  C   UNL     1     -15.902   7.937   3.538  1.00  0.00     0.041 A 
ATOM     91  F   UNL     1     -14.221   6.368   3.678  1.00  0.00    -0.206 F 
ATOM     92  C   UNL     1     -16.495   9.037   2.941  1.00  0.00     0.022 A 
BRANCH  89  93
ATOM     93  S   UNL     1     -16.529  11.060   1.017  1.00  0.00     0.124 S 
ATOM     94  O   UNL     1     -15.330  11.892   1.094  1.00  0.00    -0.237 OA
ATOM     95  O   UNL     1     -16.919  10.641  -0.326  1.00  0.00    -0.237 OA
ATOM     96  O   UNL     1     -17.627  11.468   1.889  1.00  0.00    -0.744 OA
ENDBRANCH  89  93
ENDBRANCH  63  86
ENDBRANCH  37  38
ENDBRANCH  30  32
ENDBRANCH  29  30
ENDBRANCH  28  29
ENDBRANCH   1  28
TORSDOF 19
