REMARK SMILES COc1ccc(-c2cc(Cl)cc3c2O[C@@H](C(F)(F)F)C(C(=O)OCCOCCOC(=O)c2ccc(-c4c5nc(c(-c6cc(S(=O)(=O)[O-])ccc6F)c6ccc([nH]6)c(-c6cc(S(=O)(=O)[O-])ccc6F)c6nc(c(-c7cc(S(=O)(=O)[O-])ccc7F)c7ccc4[nH]7)C=C6)C=C5)cc2)=C3)cc1C
REMARK SMILES IDX 27 1 26 2 25 3 24 4 23 5 21 6 22 7 20 8 7 9 8 10 13 11 9 12
REMARK SMILES IDX 12 13 14 14 10 15 11 16 95 17 15 18 6 19 3 20 4 21 97 22
REMARK SMILES IDX 5 23 96 24 98 25 2 26 1 27 16 28 17 29 18 30 19 31 28 32
REMARK SMILES IDX 29 33 30 34 31 35 32 36 33 37 94 38 34 39 93 40 35 41 36 42
REMARK SMILES IDX 37 43 87 44 38 45 92 46 86 47 88 48 39 49 91 50 85 51 84 52
REMARK SMILES IDX 40 54 72 55 52 56 71 57 53 58 56 59 70 60 89 61 54 62 55 63
REMARK SMILES IDX 69 65 90 66 57 67 41 68 42 69 50 70 43 71 49 72 51 73 48 74
REMARK SMILES IDX 44 75 45 76 46 77 47 78 73 79 74 80 82 81 75 82 81 83 83 84
REMARK SMILES IDX 80 85 76 86 77 87 78 88 79 89 58 90 59 91 67 92 60 93 66 94
REMARK SMILES IDX 68 95 65 96 61 97 62 98 63 99 64 100
REMARK H PARENT 88 53 56 64
REMARK Flexibility Score: inf
ROOT
ATOM      1  C   UNL     1      -2.927   7.354  -1.465  1.00  0.00     0.202 C 
ENDROOT
BRANCH   1   2
ATOM      2  O   UNL     1      -1.790   6.883  -0.750  1.00  0.00    -0.374 OA
BRANCH   2   3
ATOM      3  C   UNL     1      -1.676   7.393   0.578  1.00  0.00     0.202 C 
BRANCH   3   4
ATOM      4  C   UNL     1      -0.316   6.943   1.141  1.00  0.00     0.261 C 
BRANCH   4   5
ATOM      5  O   UNL     1       0.348   7.919   1.958  1.00  0.00    -0.460 OA
BRANCH   5   6
ATOM      6  C   UNL     1       1.672   8.127   1.748  1.00  0.00     0.338 C 
ATOM      7  O   UNL     1       2.542   7.273   1.632  1.00  0.00    -0.246 OA
BRANCH   6   8
ATOM      8  C   UNL     1       1.850   9.579   1.330  1.00  0.00     0.087 C 
ATOM      9  C   UNL     1       1.827   7.351  -1.939  1.00  0.00     0.026 A 
ATOM     10  C   UNL     1       2.907   7.461  -2.849  1.00  0.00     0.033 A 
ATOM     11  C   UNL     1       1.658   8.465  -1.067  1.00  0.00     0.135 A 
ATOM     12  C   UNL     1       3.875   8.457  -2.741  1.00  0.00     0.042 A 
ATOM     13  C   UNL     1       2.811   9.247  -0.765  1.00  0.00     0.019 A 
ATOM     14  O   UNL     1       0.433   8.897  -0.480  1.00  0.00    -0.475 OA
ATOM     15  Cl  UNL     1       5.156   8.522  -3.884  1.00  0.00    -0.084 Cl
ATOM     16  C   UNL     1       3.881   9.302  -1.646  1.00  0.00     0.032 A 
ATOM     17  C   UNL     1       2.917   9.909   0.573  1.00  0.00     0.027 C 
ATOM     18  C   UNL     1       0.606   9.981   0.564  1.00  0.00     0.316 C 
BRANCH   9  19
ATOM     19  C   UNL     1       1.389   5.899  -1.792  1.00  0.00    -0.014 A 
ATOM     20  C   UNL     1       1.005   3.037  -2.044  1.00  0.00     0.121 A 
ATOM     21  C   UNL     1       0.048   3.955  -2.483  1.00  0.00     0.047 A 
ATOM     22  C   UNL     1       2.210   3.528  -1.548  1.00  0.00    -0.008 A 
ATOM     23  C   UNL     1       0.241   5.358  -2.376  1.00  0.00     0.013 A 
ATOM     24  C   UNL     1       2.348   4.933  -1.347  1.00  0.00     0.016 A 
ATOM     25  C   UNL     1       3.408   2.629  -1.410  1.00  0.00     0.048 C 
BRANCH  20  26
ATOM     26  O   UNL     1       0.773   1.708  -2.305  1.00  0.00    -0.496 OA
ATOM     27  C   UNL     1       0.645   0.895  -1.135  1.00  0.00     0.278 C 
ENDBRANCH  20  26
ENDBRANCH   9  19
BRANCH  18  28
ATOM     28  C   UNL     1      -0.497  10.477   1.572  1.00  0.00     0.430 C 
ATOM     29  F   UNL     1       0.098  11.289   2.501  1.00  0.00    -0.167 F 
ATOM     30  F   UNL     1      -1.400  11.258   0.930  1.00  0.00    -0.167 F 
ATOM     31  F   UNL     1      -1.162   9.552   2.270  1.00  0.00    -0.167 F 
ENDBRANCH  18  28
ENDBRANCH   6   8
ENDBRANCH   5   6
ENDBRANCH   4   5
ENDBRANCH   3   4
ENDBRANCH   2   3
ENDBRANCH   1   2
BRANCH   1  32
ATOM     32  C   UNL     1      -4.219   6.646  -1.048  1.00  0.00     0.261 C 
BRANCH  32  33
ATOM     33  O   UNL     1      -4.018   5.218  -1.116  1.00  0.00    -0.460 OA
BRANCH  33  34
ATOM     34  C   UNL     1      -4.468   4.544  -0.021  1.00  0.00     0.338 C 
ATOM     35  O   UNL     1      -5.638   4.451   0.307  1.00  0.00    -0.246 OA
BRANCH  34  36
ATOM     36  C   UNL     1      -3.323   3.999   0.763  1.00  0.00     0.060 A 
ATOM     37  C   UNL     1      -3.461   3.719   2.127  1.00  0.00     0.016 A 
ATOM     38  C   UNL     1      -2.060   3.943   0.191  1.00  0.00     0.016 A 
ATOM     39  C   UNL     1      -2.321   3.591   2.943  1.00  0.00     0.010 A 
ATOM     40  C   UNL     1      -0.937   3.814   0.995  1.00  0.00     0.010 A 
ATOM     41  C   UNL     1      -1.048   3.741   2.390  1.00  0.00    -0.014 A 
BRANCH  41  42
ATOM     42  C   UNL     1       0.163   4.151   3.147  1.00  0.00     0.031 A 
ATOM     43  C   UNL     1       1.463   3.477   2.929  1.00  0.00     0.074 A 
ATOM     44  C   UNL     1       0.170   5.356   3.781  1.00  0.00     0.049 A 
ATOM     45  N   UNL     1       2.563   3.841   3.479  1.00  0.00    -0.248 NA
ATOM     46  C   UNL     1       1.649   2.305   2.088  1.00  0.00     0.031 C 
ATOM     47  C   UNL     1       1.311   6.191   4.183  1.00  0.00     0.029 A 
ATOM     48  N   UNL     1      -0.914   6.138   4.152  1.00  0.00    -0.354 N 
ATOM     49  C   UNL     1       3.615   3.162   2.926  1.00  0.00     0.074 A 
ATOM     50  C   UNL     1       2.982   2.168   2.102  1.00  0.00     0.031 C 
ATOM     51  C   UNL     1       0.892   7.241   4.912  1.00  0.00     0.029 A 
ATOM     52  C   UNL     1      -0.528   7.071   5.125  1.00  0.00     0.049 A 
ATOM     53  H   UNL     1      -1.823   6.051   3.785  1.00  0.00     0.167 HD
ATOM     54  C   UNL     1       4.875   3.591   3.236  1.00  0.00     0.034 A 
ATOM     55  C   UNL     1      -1.126   6.945   6.343  1.00  0.00     0.034 A 
ATOM     56  C   UNL     1       4.812   4.468   4.426  1.00  0.00     0.049 A 
ATOM     57  C   UNL     1      -0.143   6.189   7.252  1.00  0.00     0.074 A 
ATOM     58  C   UNL     1       5.019   5.811   4.686  1.00  0.00     0.029 A 
ATOM     59  N   UNL     1       4.145   3.969   5.554  1.00  0.00    -0.354 N 
ATOM     60  N   UNL     1       0.900   5.525   6.806  1.00  0.00    -0.248 NA
ATOM     61  C   UNL     1      -0.131   6.274   8.708  1.00  0.00     0.031 C 
ATOM     62  C   UNL     1       4.334   6.126   5.911  1.00  0.00     0.029 A 
ATOM     63  C   UNL     1       3.743   4.973   6.415  1.00  0.00     0.049 A 
ATOM     64  H   UNL     1       3.981   3.012   5.715  1.00  0.00     0.167 HD
ATOM     65  C   UNL     1       1.755   5.216   7.821  1.00  0.00     0.074 A 
ATOM     66  C   UNL     1       1.034   5.664   9.006  1.00  0.00     0.031 C 
ATOM     67  C   UNL     1       2.996   4.654   7.640  1.00  0.00     0.034 A 
BRANCH  54  68
ATOM     68  C   UNL     1       6.147   3.309   2.441  1.00  0.00     0.023 A 
ATOM     69  C   UNL     1       7.361   3.949   2.791  1.00  0.00     0.031 A 
ATOM     70  C   UNL     1       6.229   2.504   1.282  1.00  0.00     0.131 A 
ATOM     71  C   UNL     1       8.537   3.789   2.016  1.00  0.00     0.055 A 
ATOM     72  C   UNL     1       7.392   2.348   0.513  1.00  0.00     0.041 A 
ATOM     73  F   UNL     1       5.190   1.817   0.809  1.00  0.00    -0.206 F 
ATOM     74  C   UNL     1       8.555   2.995   0.874  1.00  0.00     0.022 A 
BRANCH  71  75
ATOM     75  S   UNL     1      10.072   4.629   2.508  1.00  0.00     0.124 S 
ATOM     76  O   UNL     1       9.698   6.037   2.432  1.00  0.00    -0.237 OA
ATOM     77  O   UNL     1      10.306   4.090   3.843  1.00  0.00    -0.237 OA
ATOM     78  O   UNL     1      11.038   4.196   1.497  1.00  0.00    -0.744 OA
ENDBRANCH  71  75
ENDBRANCH  54  68
BRANCH  55  79
ATOM     79  C   UNL     1      -2.616   6.814   6.098  1.00  0.00     0.023 A 
ATOM     80  C   UNL     1      -3.228   7.896   5.380  1.00  0.00     0.031 A 
ATOM     81  C   UNL     1      -3.262   5.572   6.027  1.00  0.00     0.131 A 
ATOM     82  C   UNL     1      -4.313   7.678   4.508  1.00  0.00     0.055 A 
ATOM     83  C   UNL     1      -4.374   5.373   5.184  1.00  0.00     0.041 A 
ATOM     84  F   UNL     1      -2.738   4.493   6.625  1.00  0.00    -0.206 F 
ATOM     85  C   UNL     1      -4.867   6.406   4.382  1.00  0.00     0.022 A 
BRANCH  82  86
ATOM     86  S   UNL     1      -4.867   8.994   3.365  1.00  0.00     0.124 S 
ATOM     87  O   UNL     1      -5.867   9.690   4.166  1.00  0.00    -0.237 OA
ATOM     88  O   UNL     1      -3.647   9.742   3.091  1.00  0.00    -0.237 OA
ATOM     89  O   UNL     1      -5.381   8.252   2.214  1.00  0.00    -0.744 OA
ENDBRANCH  82  86
ENDBRANCH  55  79
BRANCH  67  90
ATOM     90  C   UNL     1       3.630   3.763   8.687  1.00  0.00     0.023 A 
ATOM     91  C   UNL     1       2.903   3.301   9.791  1.00  0.00     0.031 A 
ATOM     92  C   UNL     1       4.936   3.232   8.557  1.00  0.00     0.131 A 
ATOM     93  C   UNL     1       3.488   2.483  10.765  1.00  0.00     0.055 A 
ATOM     94  C   UNL     1       5.477   2.317   9.466  1.00  0.00     0.041 A 
ATOM     95  F   UNL     1       5.739   3.554   7.534  1.00  0.00    -0.206 F 
ATOM     96  C   UNL     1       4.763   1.958  10.598  1.00  0.00     0.022 A 
BRANCH  93  97
ATOM     97  S   UNL     1       2.565   2.240  12.299  1.00  0.00     0.124 S 
ATOM     98  O   UNL     1       2.415   3.614  12.774  1.00  0.00    -0.237 OA
ATOM     99  O   UNL     1       1.342   1.596  11.833  1.00  0.00    -0.237 OA
ATOM    100  O   UNL     1       3.450   1.399  13.101  1.00  0.00    -0.744 OA
ENDBRANCH  93  97
ENDBRANCH  67  90
ENDBRANCH  41  42
ENDBRANCH  34  36
ENDBRANCH  33  34
ENDBRANCH  32  33
ENDBRANCH   1  32
TORSDOF 20
