REMARK SMILES CCc1ccc(-c2cc(Cl)cc3c2O[C@@H](C(F)(F)F)C(C(=O)OCCOCCOC(=O)c2ccc(-c4c5nc(c(-c6cc(S(=O)(=O)[O-])ccc6F)c6ccc([nH]6)c(-c6cc(S(=O)(=O)[O-])ccc6F)c6nc(c(-c7cc(S(=O)(=O)[O-])ccc7F)c7ccc4[nH]7)C=C6)C=C5)cc2)=C3)cc1
REMARK SMILES IDX 27 1 26 2 25 3 24 4 23 5 21 6 22 7 20 8 7 9 8 10 13 11 9 12
REMARK SMILES IDX 12 13 14 14 10 15 11 16 95 17 15 18 6 19 3 20 4 21 97 22
REMARK SMILES IDX 5 23 96 24 2 25 1 26 16 27 17 28 18 29 19 30 28 31 29 32
REMARK SMILES IDX 30 33 31 34 32 35 33 36 94 37 34 38 93 39 35 40 36 41 37 42
REMARK SMILES IDX 87 43 38 44 92 45 86 46 88 47 39 48 91 49 85 50 84 51 40 53
REMARK SMILES IDX 72 54 52 55 71 56 53 57 56 58 70 59 89 60 54 61 55 62 69 64
REMARK SMILES IDX 90 65 57 66 41 67 42 68 50 69 43 70 49 71 51 72 48 73 44 74
REMARK SMILES IDX 45 75 46 76 47 77 73 78 74 79 82 80 75 81 81 82 83 83 80 84
REMARK SMILES IDX 76 85 77 86 78 87 79 88 58 89 59 90 67 91 60 92 66 93 68 94
REMARK SMILES IDX 65 95 61 96 62 97 63 98 64 99
REMARK H PARENT 88 52 56 63
REMARK Flexibility Score: inf
ROOT
ATOM      1  C   UNL     1       0.539  -7.952   7.712  1.00  0.00     0.202 C 
ENDROOT
BRANCH   1   2
ATOM      2  O   UNL     1       1.857  -8.472   7.875  1.00  0.00    -0.374 OA
BRANCH   2   3
ATOM      3  C   UNL     1       2.274  -8.845   9.182  1.00  0.00     0.202 C 
BRANCH   3   4
ATOM      4  C   UNL     1       2.427  -7.745  10.245  1.00  0.00     0.261 C 
BRANCH   4   5
ATOM      5  O   UNL     1       1.690  -6.552   9.932  1.00  0.00    -0.460 OA
BRANCH   5   6
ATOM      6  C   UNL     1       2.284  -5.389  10.256  1.00  0.00     0.338 C 
ATOM      7  O   UNL     1       3.312  -5.275  10.911  1.00  0.00    -0.246 OA
BRANCH   6   8
ATOM      8  C   UNL     1       1.664  -4.225   9.576  1.00  0.00     0.087 C 
ATOM      9  C   UNL     1       1.040  -4.646   5.489  1.00  0.00     0.026 A 
ATOM     10  C   UNL     1       2.007  -5.587   5.061  1.00  0.00     0.033 A 
ATOM     11  C   UNL     1       1.138  -4.257   6.843  1.00  0.00     0.135 A 
ATOM     12  C   UNL     1       3.151  -5.848   5.814  1.00  0.00     0.042 A 
ATOM     13  C   UNL     1       2.396  -4.307   7.470  1.00  0.00     0.019 A 
ATOM     14  O   UNL     1       0.000  -4.241   7.667  1.00  0.00    -0.475 OA
ATOM     15  Cl  UNL     1       4.313  -6.973   5.238  1.00  0.00    -0.084 Cl
ATOM     16  C   UNL     1       3.398  -5.128   6.970  1.00  0.00     0.032 A 
ATOM     17  C   UNL     1       2.566  -3.635   8.775  1.00  0.00     0.027 C 
ATOM     18  C   UNL     1       0.227  -4.051   9.134  1.00  0.00     0.316 C 
BRANCH   9  19
ATOM     19  C   UNL     1       0.503  -3.788   4.366  1.00  0.00    -0.015 A 
ATOM     20  C   UNL     1       0.383  -2.273   1.903  1.00  0.00    -0.048 A 
ATOM     21  C   UNL     1       0.028  -3.628   1.952  1.00  0.00     0.004 A 
ATOM     22  C   UNL     1       0.714  -1.660   3.115  1.00  0.00     0.004 A 
ATOM     23  C   UNL     1       0.071  -4.362   3.154  1.00  0.00     0.009 A 
ATOM     24  C   UNL     1       0.771  -2.402   4.321  1.00  0.00     0.009 A 
BRANCH  20  25
ATOM     25  C   UNL     1       0.379  -1.584   0.551  1.00  0.00     0.032 C 
ATOM     26  C   UNL     1       0.968  -0.181   0.438  1.00  0.00     0.009 C 
ENDBRANCH  20  25
ENDBRANCH   9  19
BRANCH  18  27
ATOM     27  C   UNL     1      -0.830  -4.643  10.095  1.00  0.00     0.430 C 
ATOM     28  F   UNL     1      -0.831  -3.920  11.250  1.00  0.00    -0.167 F 
ATOM     29  F   UNL     1      -2.080  -4.547   9.587  1.00  0.00    -0.167 F 
ATOM     30  F   UNL     1      -0.637  -5.928  10.442  1.00  0.00    -0.167 F 
ENDBRANCH  18  27
ENDBRANCH   6   8
ENDBRANCH   5   6
ENDBRANCH   4   5
ENDBRANCH   3   4
ENDBRANCH   2   3
ENDBRANCH   1   2
BRANCH   1  31
ATOM     31  C   UNL     1      -0.662  -8.861   7.987  1.00  0.00     0.261 C 
BRANCH  31  32
ATOM     32  O   UNL     1      -0.705  -9.383   9.324  1.00  0.00    -0.460 OA
BRANCH  32  33
ATOM     33  C   UNL     1      -0.552 -10.728   9.400  1.00  0.00     0.338 C 
ATOM     34  O   UNL     1      -0.385 -11.504   8.466  1.00  0.00    -0.246 OA
BRANCH  33  35
ATOM     35  C   UNL     1      -0.439 -11.153  10.803  1.00  0.00     0.060 A 
ATOM     36  C   UNL     1       0.733 -11.814  11.189  1.00  0.00     0.016 A 
ATOM     37  C   UNL     1      -1.507 -11.016  11.691  1.00  0.00     0.016 A 
ATOM     38  C   UNL     1       0.824 -12.385  12.455  1.00  0.00     0.010 A 
ATOM     39  C   UNL     1      -1.416 -11.596  12.961  1.00  0.00     0.010 A 
ATOM     40  C   UNL     1      -0.266 -12.316  13.334  1.00  0.00    -0.014 A 
BRANCH  40  41
ATOM     41  C   UNL     1      -0.241 -13.126  14.577  1.00  0.00     0.031 A 
ATOM     42  C   UNL     1      -1.010 -14.419  14.620  1.00  0.00     0.074 A 
ATOM     43  C   UNL     1       0.501 -12.736  15.630  1.00  0.00     0.049 A 
ATOM     44  N   UNL     1      -1.131 -15.281  15.596  1.00  0.00    -0.248 NA
ATOM     45  C   UNL     1      -1.744 -14.789  13.399  1.00  0.00     0.031 C 
ATOM     46  C   UNL     1       1.315 -11.522  15.680  1.00  0.00     0.029 A 
ATOM     47  N   UNL     1       0.691 -13.318  16.858  1.00  0.00    -0.354 N 
ATOM     48  C   UNL     1      -1.963 -16.287  15.115  1.00  0.00     0.074 A 
ATOM     49  C   UNL     1      -2.341 -15.912  13.770  1.00  0.00     0.031 C 
ATOM     50  C   UNL     1       1.912 -11.446  16.882  1.00  0.00     0.029 A 
ATOM     51  C   UNL     1       1.491 -12.581  17.700  1.00  0.00     0.049 A 
ATOM     52  H   UNL     1       0.291 -14.181  17.112  1.00  0.00     0.167 HD
ATOM     53  C   UNL     1      -2.367 -17.420  15.740  1.00  0.00     0.034 A 
ATOM     54  C   UNL     1       1.821 -12.786  18.992  1.00  0.00     0.034 A 
ATOM     55  C   UNL     1      -1.973 -17.776  17.082  1.00  0.00     0.049 A 
ATOM     56  C   UNL     1       1.306 -14.026  19.685  1.00  0.00     0.074 A 
ATOM     57  C   UNL     1      -2.289 -18.918  17.796  1.00  0.00     0.029 A 
ATOM     58  N   UNL     1      -1.193 -16.988  17.919  1.00  0.00    -0.354 N 
ATOM     59  N   UNL     1       0.548 -14.987  19.206  1.00  0.00    -0.248 NA
ATOM     60  C   UNL     1       1.701 -14.216  21.086  1.00  0.00     0.031 C 
ATOM     61  C   UNL     1      -1.776 -18.782  19.089  1.00  0.00     0.029 A 
ATOM     62  C   UNL     1      -1.057 -17.599  19.156  1.00  0.00     0.049 A 
ATOM     63  H   UNL     1      -0.794 -16.123  17.670  1.00  0.00     0.167 HD
ATOM     64  C   UNL     1       0.403 -15.909  20.241  1.00  0.00     0.074 A 
ATOM     65  C   UNL     1       1.169 -15.398  21.359  1.00  0.00     0.031 C 
ATOM     66  C   UNL     1      -0.297 -17.072  20.266  1.00  0.00     0.034 A 
BRANCH  53  67
ATOM     67  C   UNL     1      -3.327 -18.326  15.006  1.00  0.00     0.023 A 
ATOM     68  C   UNL     1      -2.969 -19.000  13.826  1.00  0.00     0.031 A 
ATOM     69  C   UNL     1      -4.628 -18.518  15.504  1.00  0.00     0.131 A 
ATOM     70  C   UNL     1      -3.917 -19.792  13.157  1.00  0.00     0.055 A 
ATOM     71  C   UNL     1      -5.542 -19.366  14.876  1.00  0.00     0.041 A 
ATOM     72  F   UNL     1      -5.036 -17.881  16.613  1.00  0.00    -0.206 F 
ATOM     73  C   UNL     1      -5.192 -20.000  13.689  1.00  0.00     0.022 A 
BRANCH  70  74
ATOM     74  S   UNL     1      -3.502 -20.450  11.518  1.00  0.00     0.124 S 
ATOM     75  O   UNL     1      -3.229 -19.226  10.769  1.00  0.00    -0.237 OA
ATOM     76  O   UNL     1      -2.350 -21.297  11.800  1.00  0.00    -0.237 OA
ATOM     77  O   UNL     1      -4.715 -21.160  11.117  1.00  0.00    -0.744 OA
ENDBRANCH  70  74
ENDBRANCH  53  67
BRANCH  54  78
ATOM     78  C   UNL     1       2.634 -11.780  19.736  1.00  0.00     0.023 A 
ATOM     79  C   UNL     1       3.878 -12.111  20.298  1.00  0.00     0.031 A 
ATOM     80  C   UNL     1       2.139 -10.481  19.959  1.00  0.00     0.131 A 
ATOM     81  C   UNL     1       4.554 -11.178  21.101  1.00  0.00     0.055 A 
ATOM     82  C   UNL     1       2.847  -9.536  20.704  1.00  0.00     0.041 A 
ATOM     83  F   UNL     1       0.953 -10.109  19.452  1.00  0.00    -0.206 F 
ATOM     84  C   UNL     1       4.055  -9.889  21.295  1.00  0.00     0.022 A 
BRANCH  81  85
ATOM     85  S   UNL     1       6.044 -11.714  21.988  1.00  0.00     0.124 S 
ATOM     86  O   UNL     1       5.543 -12.857  22.744  1.00  0.00    -0.237 OA
ATOM     87  O   UNL     1       6.955 -12.020  20.891  1.00  0.00    -0.237 OA
ATOM     88  O   UNL     1       6.402 -10.545  22.788  1.00  0.00    -0.744 OA
ENDBRANCH  81  85
ENDBRANCH  54  78
BRANCH  66  89
ATOM     89  C   UNL     1      -0.225 -17.892  21.533  1.00  0.00     0.023 A 
ATOM     90  C   UNL     1      -0.757 -17.429  22.749  1.00  0.00     0.031 A 
ATOM     91  C   UNL     1       0.394 -19.156  21.523  1.00  0.00     0.131 A 
ATOM     92  C   UNL     1      -0.605 -18.194  23.915  1.00  0.00     0.055 A 
ATOM     93  C   UNL     1       0.479 -19.944  22.671  1.00  0.00     0.041 A 
ATOM     94  F   UNL     1       0.923 -19.649  20.391  1.00  0.00    -0.206 F 
ATOM     95  C   UNL     1      -0.009 -19.457  23.880  1.00  0.00     0.022 A 
BRANCH  92  96
ATOM     96  S   UNL     1      -1.103 -17.471  25.503  1.00  0.00     0.124 S 
ATOM     97  O   UNL     1      -0.291 -16.260  25.551  1.00  0.00    -0.237 OA
ATOM     98  O   UNL     1      -2.537 -17.271  25.319  1.00  0.00    -0.237 OA
ATOM     99  O   UNL     1      -0.742 -18.500  26.477  1.00  0.00    -0.744 OA
ENDBRANCH  92  96
ENDBRANCH  66  89
ENDBRANCH  40  41
ENDBRANCH  33  35
ENDBRANCH  32  33
ENDBRANCH  31  32
ENDBRANCH   1  31
TORSDOF 20
