REMARK SMILES O=C(OCCOCCOC(=O)[C@@]1([NH2+]C2CC2)CC[C@@H]([N@@H+]2CC[N@@H+]3CCC[C@@H]3C2)C1)c1ccc(-c2c3nc(c(-c4cc(S(=O)(=O)[O-])ccc4F)c4ccc([nH]4)c(-c4cc(S(=O)(=O)[O-])ccc4F)c4nc(c(-c5cc(S(=O)(=O)[O-])ccc5F)c5ccc2[nH]5)C=C4)C=C3)cc1
REMARK SMILES IDX 5 1 4 2 3 3 2 4 1 5 30 6 31 7 92 8 32 9 91 10 33 11 34 12
REMARK SMILES IDX 35 13 85 14 36 15 90 16 84 17 86 18 37 19 89 20 83 21 82 22
REMARK SMILES IDX 38 24 70 25 50 26 69 27 51 28 54 29 68 30 87 31 52 32 53 33
REMARK SMILES IDX 67 35 88 36 55 37 39 38 40 39 48 40 41 41 47 42 49 43 46 44
REMARK SMILES IDX 42 45 43 46 44 47 45 48 71 49 72 50 80 51 73 52 79 53 81 54
REMARK SMILES IDX 78 55 74 56 75 57 76 58 77 59 56 60 57 61 65 62 58 63 64 64
REMARK SMILES IDX 66 65 63 66 59 67 60 68 61 69 62 70 6 71 7 72 8 73 9 74
REMARK SMILES IDX 10 75 11 76 12 77 17 78 29 79 18 80 19 81 13 82 14 85 15 86
REMARK SMILES IDX 16 87 20 88 21 89 28 90 22 92 27 93 23 94 26 95 24 96 25 98
REMARK H PARENT 86 23 54 34 13 83 13 84 20 91 23 97
REMARK Flexibility Score: inf
ROOT
ATOM      1  C   UNL     1       3.819  -0.151  -1.167  1.00  0.00     0.202 C 
ENDROOT
BRANCH   1   2
ATOM      2  C   UNL     1       3.693  -1.097   0.027  1.00  0.00     0.261 C 
BRANCH   2   3
ATOM      3  O   UNL     1       2.353  -1.056   0.536  1.00  0.00    -0.460 OA
BRANCH   3   4
ATOM      4  C   UNL     1       1.852  -0.054   1.303  1.00  0.00     0.338 C 
ATOM      5  O   UNL     1       0.631   0.084   1.385  1.00  0.00    -0.246 OA
BRANCH   4   6
ATOM      6  C   UNL     1       2.731   0.798   2.159  1.00  0.00     0.060 A 
ATOM      7  C   UNL     1       3.993   1.268   1.789  1.00  0.00     0.016 A 
ATOM      8  C   UNL     1       2.223   1.185   3.409  1.00  0.00     0.016 A 
ATOM      9  C   UNL     1       4.763   2.029   2.635  1.00  0.00     0.010 A 
ATOM     10  C   UNL     1       2.978   1.994   4.262  1.00  0.00     0.010 A 
ATOM     11  C   UNL     1       4.257   2.401   3.870  1.00  0.00    -0.014 A 
BRANCH  11  12
ATOM     12  C   UNL     1       5.206   3.087   4.752  1.00  0.00     0.031 A 
ATOM     13  C   UNL     1       5.880   2.269   5.803  1.00  0.00     0.074 A 
ATOM     14  C   UNL     1       5.612   4.325   4.417  1.00  0.00     0.049 A 
ATOM     15  N   UNL     1       6.752   2.631   6.699  1.00  0.00    -0.248 NA
ATOM     16  C   UNL     1       5.539   0.836   5.832  1.00  0.00     0.031 C 
ATOM     17  C   UNL     1       5.128   5.081   3.254  1.00  0.00     0.029 A 
ATOM     18  N   UNL     1       6.564   5.135   4.964  1.00  0.00    -0.354 N 
ATOM     19  C   UNL     1       7.027   1.483   7.434  1.00  0.00     0.074 A 
ATOM     20  C   UNL     1       6.242   0.411   6.868  1.00  0.00     0.031 C 
ATOM     21  C   UNL     1       5.823   6.224   3.154  1.00  0.00     0.029 A 
ATOM     22  C   UNL     1       6.719   6.327   4.297  1.00  0.00     0.049 A 
ATOM     23  H   UNL     1       7.089   4.889   5.760  1.00  0.00     0.167 HD
ATOM     24  C   UNL     1       7.850   1.367   8.502  1.00  0.00     0.034 A 
ATOM     25  C   UNL     1       7.474   7.394   4.619  1.00  0.00     0.034 A 
ATOM     26  C   UNL     1       8.597   2.490   9.012  1.00  0.00     0.049 A 
ATOM     27  C   UNL     1       8.291   7.280   5.881  1.00  0.00     0.074 A 
ATOM     28  C   UNL     1       9.372   2.579  10.151  1.00  0.00     0.029 A 
ATOM     29  N   UNL     1       8.652   3.738   8.392  1.00  0.00    -0.354 N 
ATOM     30  N   UNL     1       8.438   6.241   6.676  1.00  0.00    -0.248 NA
ATOM     31  C   UNL     1       9.024   8.474   6.302  1.00  0.00     0.031 C 
ATOM     32  C   UNL     1       9.844   3.894  10.250  1.00  0.00     0.029 A 
ATOM     33  C   UNL     1       9.430   4.608   9.133  1.00  0.00     0.049 A 
ATOM     34  H   UNL     1       8.200   3.967   7.548  1.00  0.00     0.167 HD
ATOM     35  C   UNL     1       9.296   6.652   7.687  1.00  0.00     0.074 A 
ATOM     36  C   UNL     1       9.653   8.027   7.379  1.00  0.00     0.031 C 
ATOM     37  C   UNL     1       9.747   5.973   8.774  1.00  0.00     0.034 A 
BRANCH  24  38
ATOM     38  C   UNL     1       7.832   0.045   9.229  1.00  0.00     0.023 A 
ATOM     39  C   UNL     1       8.258  -1.153   8.625  1.00  0.00     0.031 A 
ATOM     40  C   UNL     1       7.239  -0.037  10.502  1.00  0.00     0.131 A 
ATOM     41  C   UNL     1       7.996  -2.383   9.252  1.00  0.00     0.055 A 
ATOM     42  C   UNL     1       7.062  -1.257  11.158  1.00  0.00     0.041 A 
ATOM     43  F   UNL     1       6.776   1.066  11.112  1.00  0.00    -0.206 F 
ATOM     44  C   UNL     1       7.423  -2.441  10.524  1.00  0.00     0.022 A 
BRANCH  41  45
ATOM     45  S   UNL     1       8.243  -3.914   8.305  1.00  0.00     0.124 S 
ATOM     46  O   UNL     1       7.327  -3.718   7.184  1.00  0.00    -0.237 OA
ATOM     47  O   UNL     1       9.664  -3.862   7.984  1.00  0.00    -0.237 OA
ATOM     48  O   UNL     1       7.853  -4.965   9.243  1.00  0.00    -0.744 OA
ENDBRANCH  41  45
ENDBRANCH  24  38
BRANCH  25  49
ATOM     49  C   UNL     1       7.418   8.652   3.817  1.00  0.00     0.023 A 
ATOM     50  C   UNL     1       8.571   9.215   3.248  1.00  0.00     0.031 A 
ATOM     51  C   UNL     1       6.203   9.346   3.645  1.00  0.00     0.131 A 
ATOM     52  C   UNL     1       8.493  10.447   2.574  1.00  0.00     0.055 A 
ATOM     53  C   UNL     1       6.120  10.537   2.922  1.00  0.00     0.041 A 
ATOM     54  F   UNL     1       5.065   8.869   4.175  1.00  0.00    -0.206 F 
ATOM     55  C   UNL     1       7.274  11.102   2.394  1.00  0.00     0.022 A 
BRANCH  52  56
ATOM     56  S   UNL     1      10.030  11.236   2.018  1.00  0.00     0.124 S 
ATOM     57  O   UNL     1      10.793  11.310   3.259  1.00  0.00    -0.237 OA
ATOM     58  O   UNL     1      10.514  10.288   1.021  1.00  0.00    -0.237 OA
ATOM     59  O   UNL     1       9.579  12.521   1.486  1.00  0.00    -0.744 OA
ENDBRANCH  52  56
ENDBRANCH  25  49
BRANCH  37  60
ATOM     60  C   UNL     1      10.713   6.713   9.660  1.00  0.00     0.023 A 
ATOM     61  C   UNL     1      10.312   7.827  10.415  1.00  0.00     0.031 A 
ATOM     62  C   UNL     1      12.056   6.305   9.726  1.00  0.00     0.131 A 
ATOM     63  C   UNL     1      11.264   8.541  11.152  1.00  0.00     0.055 A 
ATOM     64  C   UNL     1      12.983   6.979  10.517  1.00  0.00     0.041 A 
ATOM     65  F   UNL     1      12.484   5.246   9.020  1.00  0.00    -0.206 F 
ATOM     66  C   UNL     1      12.593   8.114  11.223  1.00  0.00     0.022 A 
BRANCH  63  67
ATOM     67  S   UNL     1      10.764  10.102  11.925  1.00  0.00     0.124 S 
ATOM     68  O   UNL     1      10.283  10.867  10.779  1.00  0.00    -0.237 OA
ATOM     69  O   UNL     1       9.745   9.668  12.875  1.00  0.00    -0.237 OA
ATOM     70  O   UNL     1      12.002  10.597  12.525  1.00  0.00    -0.744 OA
ENDBRANCH  63  67
ENDBRANCH  37  60
ENDBRANCH  11  12
ENDBRANCH   4   6
ENDBRANCH   3   4
ENDBRANCH   2   3
ENDBRANCH   1   2
BRANCH   1  71
ATOM     71  O   UNL     1       3.315   1.165  -0.940  1.00  0.00    -0.374 OA
BRANCH  71  72
ATOM     72  C   UNL     1       2.207   1.539  -1.752  1.00  0.00     0.202 C 
BRANCH  72  73
ATOM     73  C   UNL     1       2.667   2.087  -3.102  1.00  0.00     0.261 C 
BRANCH  73  74
ATOM     74  O   UNL     1       3.316   1.044  -3.854  1.00  0.00    -0.459 OA
BRANCH  74  75
ATOM     75  C   UNL     1       4.689   1.063  -3.890  1.00  0.00     0.368 C 
ATOM     76  O   UNL     1       5.369   1.972  -3.434  1.00  0.00    -0.245 OA
BRANCH  75  77
ATOM     77  C   UNL     1       5.219  -0.216  -4.597  1.00  0.00     0.200 C 
ATOM     78  C   UNL     1       4.676  -1.547  -4.053  1.00  0.00     0.087 C 
ATOM     79  C   UNL     1       4.651  -0.205  -6.048  1.00  0.00     0.146 C 
ATOM     80  C   UNL     1       4.714  -2.495  -5.237  1.00  0.00     0.072 C 
ATOM     81  C   UNL     1       4.182  -1.640  -6.391  1.00  0.00     0.191 C 
BRANCH  77  82
ATOM     82  N   UNL     1       6.699  -0.267  -4.666  1.00  0.00    -0.329 N 
ATOM     83  H   UNL     1       6.986   0.454  -5.327  1.00  0.00     0.347 HD
ATOM     84  H   UNL     1       6.884  -1.239  -4.913  1.00  0.00     0.347 HD
BRANCH  82  85
ATOM     85  C   UNL     1       7.508  -0.074  -3.454  1.00  0.00     0.183 C 
ATOM     86  C   UNL     1       7.375  -0.756  -2.120  1.00  0.00     0.071 C 
ATOM     87  C   UNL     1       8.417  -1.228  -3.077  1.00  0.00     0.071 C 
ENDBRANCH  82  85
ENDBRANCH  77  82
BRANCH  81  88
ATOM     88  N   UNL     1       2.743  -1.814  -6.632  1.00  0.00    -0.323 N 
ATOM     89  C   UNL     1       2.219  -1.072  -7.793  1.00  0.00     0.324 C 
ATOM     90  C   UNL     1       1.814  -1.810  -5.499  1.00  0.00     0.328 C 
ATOM     91  H   UNL     1       2.759  -2.805  -6.871  1.00  0.00     0.348 HD
ATOM     92  C   UNL     1       0.767  -0.537  -7.642  1.00  0.00     0.324 C 
ATOM     93  C   UNL     1       0.399  -2.250  -5.939  1.00  0.00     0.240 C 
ATOM     94  N   UNL     1      -0.170  -1.524  -7.094  1.00  0.00    -0.323 N 
ATOM     95  C   UNL     1      -0.632  -2.139  -4.816  1.00  0.00     0.077 C 
ATOM     96  C   UNL     1      -1.446  -0.936  -6.680  1.00  0.00     0.263 C 
ATOM     97  H   UNL     1      -0.339  -2.172  -7.864  1.00  0.00     0.348 HD
ATOM     98  C   UNL     1      -1.920  -1.846  -5.560  1.00  0.00     0.068 C 
ENDBRANCH  81  88
ENDBRANCH  75  77
ENDBRANCH  74  75
ENDBRANCH  73  74
ENDBRANCH  72  73
ENDBRANCH  71  72
ENDBRANCH   1  71
TORSDOF 20
