REMARK SMILES CC(C)N(c1cc2c(cc1Cl)C=C(C(=O)OCCOCCOC(=O)c1ccc(-c3c4nc(c(-c5cc(S(=O)(=O)[O-])ccc5F)c5ccc([nH]5)c(-c5cc(S(=O)(=O)[O-])ccc5F)c5nc(c(-c6cc(S(=O)(=O)[O-])ccc6F)c6ccc3[nH]6)C=C5)C=C4)cc1)[C@@H](C(F)(F)F)O2)C(C)C
REMARK SMILES IDX 20 1 19 2 18 3 17 4 16 5 14 6 15 7 13 8 5 9 6 10 10 11 7 12
REMARK SMILES IDX 9 13 11 14 8 15 93 16 12 17 88 18 4 19 2 20 1 21 3 22 94 23
REMARK SMILES IDX 95 24 96 25 89 26 90 27 91 28 92 29 21 30 22 31 23 32 24 33
REMARK SMILES IDX 25 34 26 35 87 36 27 37 86 38 28 39 29 40 30 41 80 42 31 43
REMARK SMILES IDX 85 44 79 45 81 46 32 47 84 48 78 49 77 50 33 52 65 53 45 54
REMARK SMILES IDX 64 55 46 56 49 57 63 58 82 59 47 60 48 61 62 63 83 64 50 65
REMARK SMILES IDX 34 66 35 67 43 68 36 69 42 70 44 71 41 72 37 73 38 74 39 75
REMARK SMILES IDX 40 76 66 77 67 78 75 79 68 80 74 81 76 82 73 83 69 84 70 85
REMARK SMILES IDX 71 86 72 87 51 88 52 89 60 90 53 91 59 92 61 93 58 94 54 95
REMARK SMILES IDX 55 96 56 97 57 98
REMARK H PARENT 81 51 49 62
REMARK Flexibility Score: inf
ROOT
ATOM      1  C   UNL     1      -4.391   1.576  -8.803  1.00  0.00     0.202 C 
ENDROOT
BRANCH   1   2
ATOM      2  O   UNL     1      -5.410   1.119  -9.689  1.00  0.00    -0.374 OA
BRANCH   2   3
ATOM      3  C   UNL     1      -6.764   1.465  -9.408  1.00  0.00     0.202 C 
BRANCH   3   4
ATOM      4  C   UNL     1      -7.468   0.737  -8.258  1.00  0.00     0.261 C 
BRANCH   4   5
ATOM      5  O   UNL     1      -6.741   0.830  -7.023  1.00  0.00    -0.460 OA
BRANCH   5   6
ATOM      6  C   UNL     1      -6.179  -0.334  -6.624  1.00  0.00     0.338 C 
ATOM      7  O   UNL     1      -6.308  -1.429  -7.149  1.00  0.00    -0.246 OA
BRANCH   6   8
ATOM      8  C   UNL     1      -5.241  -0.090  -5.513  1.00  0.00     0.087 C 
ATOM      9  C   UNL     1      -1.632  -0.925  -2.087  1.00  0.00     0.060 A 
ATOM     10  C   UNL     1      -2.726  -0.030  -2.195  1.00  0.00     0.074 A 
ATOM     11  C   UNL     1      -1.326  -1.679  -3.247  1.00  0.00     0.065 A 
ATOM     12  C   UNL     1      -3.522   0.049  -3.345  1.00  0.00     0.130 A 
ATOM     13  C   UNL     1      -2.091  -1.559  -4.414  1.00  0.00     0.034 A 
ATOM     14  Cl  UNL     1      -0.102  -2.904  -3.325  1.00  0.00    -0.082 Cl
ATOM     15  C   UNL     1      -3.207  -0.730  -4.450  1.00  0.00     0.019 A 
ATOM     16  O   UNL     1      -4.596   0.896  -3.307  1.00  0.00    -0.475 OA
ATOM     17  C   UNL     1      -4.089  -0.765  -5.596  1.00  0.00     0.027 C 
ATOM     18  C   UNL     1      -5.611   0.799  -4.357  1.00  0.00     0.316 C 
BRANCH   9  19
ATOM     19  N   UNL     1      -0.960  -1.044  -0.850  1.00  0.00    -0.365 N 
BRANCH  19  20
ATOM     20  C   UNL     1       0.520  -0.981  -0.845  1.00  0.00     0.076 C 
ATOM     21  C   UNL     1       1.066   0.241  -0.108  1.00  0.00     0.030 C 
ATOM     22  C   UNL     1       1.187  -2.255  -0.325  1.00  0.00     0.030 C 
ENDBRANCH  19  20
BRANCH  19  23
ATOM     23  C   UNL     1      -1.819  -1.240   0.346  1.00  0.00     0.076 C 
ATOM     24  C   UNL     1      -1.642  -2.612   0.991  1.00  0.00     0.030 C 
ATOM     25  C   UNL     1      -1.687  -0.121   1.375  1.00  0.00     0.030 C 
ENDBRANCH  19  23
ENDBRANCH   9  19
BRANCH  18  26
ATOM     26  C   UNL     1      -6.949   0.397  -3.718  1.00  0.00     0.430 C 
ATOM     27  F   UNL     1      -7.237   1.175  -2.648  1.00  0.00    -0.167 F 
ATOM     28  F   UNL     1      -7.979   0.527  -4.586  1.00  0.00    -0.167 F 
ATOM     29  F   UNL     1      -6.937  -0.888  -3.295  1.00  0.00    -0.167 F 
ENDBRANCH  18  26
ENDBRANCH   6   8
ENDBRANCH   5   6
ENDBRANCH   4   5
ENDBRANCH   3   4
ENDBRANCH   2   3
ENDBRANCH   1   2
BRANCH   1  30
ATOM     30  C   UNL     1      -4.065   3.075  -8.754  1.00  0.00     0.261 C 
BRANCH  30  31
ATOM     31  O   UNL     1      -5.157   3.877  -8.280  1.00  0.00    -0.460 OA
BRANCH  31  32
ATOM     32  C   UNL     1      -5.749   4.649  -9.229  1.00  0.00     0.338 C 
ATOM     33  O   UNL     1      -5.435   4.735 -10.405  1.00  0.00    -0.246 OA
BRANCH  32  34
ATOM     34  C   UNL     1      -6.989   5.225  -8.675  1.00  0.00     0.060 A 
ATOM     35  C   UNL     1      -6.970   5.984  -7.506  1.00  0.00     0.016 A 
ATOM     36  C   UNL     1      -8.188   5.016  -9.371  1.00  0.00     0.016 A 
ATOM     37  C   UNL     1      -8.158   6.556  -7.045  1.00  0.00     0.010 A 
ATOM     38  C   UNL     1      -9.372   5.590  -8.909  1.00  0.00     0.010 A 
ATOM     39  C   UNL     1      -9.363   6.380  -7.752  1.00  0.00    -0.014 A 
BRANCH  39  40
ATOM     40  C   UNL     1     -10.567   7.156  -7.363  1.00  0.00     0.031 A 
ATOM     41  C   UNL     1     -11.756   6.510  -6.721  1.00  0.00     0.074 A 
ATOM     42  C   UNL     1     -10.581   8.477  -7.628  1.00  0.00     0.049 A 
ATOM     43  N   UNL     1     -12.829   7.078  -6.234  1.00  0.00    -0.248 NA
ATOM     44  C   UNL     1     -11.751   5.044  -6.620  1.00  0.00     0.031 C 
ATOM     45  C   UNL     1      -9.507   9.193  -8.314  1.00  0.00     0.029 A 
ATOM     46  N   UNL     1     -11.513   9.447  -7.356  1.00  0.00    -0.354 N 
ATOM     47  C   UNL     1     -13.627   6.045  -5.760  1.00  0.00     0.074 A 
ATOM     48  C   UNL     1     -12.933   4.811  -6.061  1.00  0.00     0.031 C 
ATOM     49  C   UNL     1      -9.822  10.493  -8.380  1.00  0.00     0.029 A 
ATOM     50  C   UNL     1     -11.138  10.701  -7.778  1.00  0.00     0.049 A 
ATOM     51  H   UNL     1     -12.367   9.262  -6.903  1.00  0.00     0.167 HD
ATOM     52  C   UNL     1     -14.819   6.131  -5.122  1.00  0.00     0.034 A 
ATOM     53  C   UNL     1     -11.773  11.888  -7.692  1.00  0.00     0.034 A 
ATOM     54  C   UNL     1     -15.493   7.377  -4.840  1.00  0.00     0.049 A 
ATOM     55  C   UNL     1     -13.092  11.960  -6.970  1.00  0.00     0.074 A 
ATOM     56  C   UNL     1     -16.658   7.568  -4.117  1.00  0.00     0.029 A 
ATOM     57  N   UNL     1     -15.090   8.631  -5.278  1.00  0.00    -0.354 N 
ATOM     58  N   UNL     1     -13.765  10.993  -6.391  1.00  0.00    -0.248 NA
ATOM     59  C   UNL     1     -13.733  13.278  -6.868  1.00  0.00     0.031 C 
ATOM     60  C   UNL     1     -17.010   8.915  -4.201  1.00  0.00     0.029 A 
ATOM     61  C   UNL     1     -16.012   9.590  -4.886  1.00  0.00     0.049 A 
ATOM     62  H   UNL     1     -14.270   8.813  -5.792  1.00  0.00     0.167 HD
ATOM     63  C   UNL     1     -14.900  11.587  -5.844  1.00  0.00     0.074 A 
ATOM     64  C   UNL     1     -14.803  13.003  -6.133  1.00  0.00     0.031 C 
ATOM     65  C   UNL     1     -15.926  11.005  -5.172  1.00  0.00     0.034 A 
BRANCH  52  66
ATOM     66  C   UNL     1     -15.493   4.862  -4.655  1.00  0.00     0.023 A 
ATOM     67  C   UNL     1     -16.784   4.543  -5.119  1.00  0.00     0.031 A 
ATOM     68  C   UNL     1     -14.940   4.066  -3.636  1.00  0.00     0.131 A 
ATOM     69  C   UNL     1     -17.496   3.488  -4.533  1.00  0.00     0.055 A 
ATOM     70  C   UNL     1     -15.633   2.984  -3.091  1.00  0.00     0.041 A 
ATOM     71  F   UNL     1     -13.717   4.333  -3.149  1.00  0.00    -0.206 F 
ATOM     72  C   UNL     1     -16.924   2.702  -3.528  1.00  0.00     0.022 A 
BRANCH  69  73
ATOM     73  S   UNL     1     -19.221   3.156  -4.985  1.00  0.00     0.124 S 
ATOM     74  O   UNL     1     -19.142   1.781  -5.473  1.00  0.00    -0.237 OA
ATOM     75  O   UNL     1     -19.908   3.325  -3.708  1.00  0.00    -0.237 OA
ATOM     76  O   UNL     1     -19.518   4.160  -6.001  1.00  0.00    -0.744 OA
ENDBRANCH  69  73
ENDBRANCH  52  66
BRANCH  53  77
ATOM     77  C   UNL     1     -11.104  13.095  -8.256  1.00  0.00     0.023 A 
ATOM     78  C   UNL     1     -10.795  13.163  -9.628  1.00  0.00     0.031 A 
ATOM     79  C   UNL     1     -10.627  14.117  -7.420  1.00  0.00     0.131 A 
ATOM     80  C   UNL     1      -9.954  14.176 -10.102  1.00  0.00     0.055 A 
ATOM     81  C   UNL     1      -9.858  15.173  -7.913  1.00  0.00     0.041 A 
ATOM     82  F   UNL     1     -10.882  14.088  -6.102  1.00  0.00    -0.206 F 
ATOM     83  C   UNL     1      -9.498  15.193  -9.258  1.00  0.00     0.022 A 
BRANCH  80  84
ATOM     84  S   UNL     1      -9.290  14.112 -11.790  1.00  0.00     0.124 S 
ATOM     85  O   UNL     1      -9.725  15.393 -12.338  1.00  0.00    -0.237 OA
ATOM     86  O   UNL     1      -7.856  13.987 -11.538  1.00  0.00    -0.237 OA
ATOM     87  O   UNL     1      -9.924  12.931 -12.366  1.00  0.00    -0.744 OA
ENDBRANCH  80  84
ENDBRANCH  53  77
BRANCH  65  88
ATOM     88  C   UNL     1     -17.068  11.874  -4.690  1.00  0.00     0.023 A 
ATOM     89  C   UNL     1     -17.378  11.934  -3.317  1.00  0.00     0.031 A 
ATOM     90  C   UNL     1     -17.942  12.505  -5.593  1.00  0.00     0.131 A 
ATOM     91  C   UNL     1     -18.558  12.559  -2.892  1.00  0.00     0.055 A 
ATOM     92  C   UNL     1     -19.085  13.180  -5.159  1.00  0.00     0.041 A 
ATOM     93  F   UNL     1     -17.702  12.470  -6.913  1.00  0.00    -0.206 F 
ATOM     94  C   UNL     1     -19.406  13.194  -3.804  1.00  0.00     0.022 A 
BRANCH  91  95
ATOM     95  S   UNL     1     -19.087  12.483  -1.158  1.00  0.00     0.124 S 
ATOM     96  O   UNL     1     -19.138  13.898  -0.795  1.00  0.00    -0.237 OA
ATOM     97  O   UNL     1     -20.384  11.820  -1.261  1.00  0.00    -0.237 OA
ATOM     98  O   UNL     1     -18.037  11.712  -0.502  1.00  0.00    -0.744 OA
ENDBRANCH  91  95
ENDBRANCH  65  88
ENDBRANCH  39  40
ENDBRANCH  32  34
ENDBRANCH  31  32
ENDBRANCH  30  31
ENDBRANCH   1  30
TORSDOF 21
