REMARK SMILES Cc1ccc(-c2cc([C@@H](C)C(=O)OCCOCCOC(=O)c3ccc(-c4c5nc(c(-c6cc(S(=O)(=O)[O-])ccc6F)c6ccc([nH]6)c(-c6cc(S(=O)(=O)[O-])ccc6F)c6nc(c(-c7cc(S(=O)(=O)[O-])ccc7F)c7ccc4[nH]7)C=C6)C=C5)cc3)ccc2C[C@H]2CCCC2=O)cc1
REMARK SMILES IDX 16 1 15 2 14 3 13 4 11 5 12 6 9 7 10 8 8 9 6 10 7 11 87 12
REMARK SMILES IDX 86 13 85 14 5 15 1 16 2 17 3 18 96 19 4 20 95 21 88 22 89 23
REMARK SMILES IDX 90 24 93 25 91 26 92 27 94 28 17 29 18 30 19 31 20 32 21 33
REMARK SMILES IDX 22 34 23 35 84 36 24 37 83 38 25 39 26 40 27 41 77 42 28 43
REMARK SMILES IDX 82 44 76 45 78 46 29 47 81 48 75 49 74 50 30 52 62 53 42 54
REMARK SMILES IDX 61 55 43 56 46 57 60 58 79 59 44 60 45 61 59 63 80 64 47 65
REMARK SMILES IDX 31 66 32 67 40 68 33 69 39 70 41 71 38 72 34 73 35 74 36 75
REMARK SMILES IDX 37 76 63 77 64 78 72 79 65 80 71 81 73 82 70 83 66 84 67 85
REMARK SMILES IDX 68 86 69 87 48 88 49 89 57 90 50 91 56 92 58 93 55 94 51 95
REMARK SMILES IDX 52 96 53 97 54 98
REMARK H PARENT 78 51 46 62
REMARK Flexibility Score: inf
ROOT
ATOM      1  O   UNL     1      -5.429   3.568  -0.194  1.00  0.00    -0.374 OA
ENDROOT
BRANCH   1   2
ATOM      2  C   UNL     1      -6.039   2.529   0.566  1.00  0.00     0.202 C 
BRANCH   2   3
ATOM      3  C   UNL     1      -7.301   2.150  -0.144  1.00  0.00     0.261 C 
BRANCH   3   4
ATOM      4  O   UNL     1      -7.127   1.202  -1.199  1.00  0.00    -0.463 OA
BRANCH   4   5
ATOM      5  C   UNL     1      -6.412   1.583  -2.298  1.00  0.00     0.313 C 
ATOM      6  O   UNL     1      -6.377   2.692  -2.787  1.00  0.00    -0.252 OA
BRANCH   5   7
ATOM      7  C   UNL     1      -5.576   0.392  -2.771  1.00  0.00     0.126 C 
ATOM      8  C   UNL     1      -6.413  -0.578  -3.596  1.00  0.00     0.025 C 
BRANCH   7   9
ATOM      9  C   UNL     1      -4.869  -0.234  -1.569  1.00  0.00    -0.033 A 
ATOM     10  C   UNL     1      -2.895  -0.308  -0.116  1.00  0.00    -0.015 A 
ATOM     11  C   UNL     1      -3.532   0.084  -1.313  1.00  0.00     0.013 A 
ATOM     12  C   UNL     1      -3.648  -0.952   0.900  1.00  0.00    -0.039 A 
ATOM     13  C   UNL     1      -4.987  -1.270   0.636  1.00  0.00     0.004 A 
ATOM     14  C   UNL     1      -5.569  -0.965  -0.596  1.00  0.00     0.005 A 
BRANCH  10  15
ATOM     15  C   UNL     1      -1.438  -0.146  -0.049  1.00  0.00    -0.018 A 
ATOM     16  C   UNL     1       2.867   0.130   0.004  1.00  0.00     0.044 C 
ATOM     17  C   UNL     1       1.372   0.054  -0.025  1.00  0.00    -0.051 A 
ATOM     18  C   UNL     1       0.756  -1.195  -0.133  1.00  0.00     0.004 A 
ATOM     19  C   UNL     1       0.577   1.205   0.057  1.00  0.00     0.004 A 
ATOM     20  C   UNL     1      -0.631  -1.289  -0.158  1.00  0.00     0.009 A 
ATOM     21  C   UNL     1      -0.818   1.106   0.043  1.00  0.00     0.009 A 
ENDBRANCH  10  15
BRANCH  12  22
ATOM     22  C   UNL     1      -3.051  -1.421   2.213  1.00  0.00     0.047 C 
BRANCH  22  23
ATOM     23  C   UNL     1      -3.295  -0.646   3.510  1.00  0.00     0.060 C 
ATOM     24  C   UNL     1      -3.199   0.879   3.498  1.00  0.00     0.012 C 
ATOM     25  C   UNL     1      -4.628  -0.906   4.181  1.00  0.00     0.136 C 
ATOM     26  C   UNL     1      -4.620   1.384   3.712  1.00  0.00     0.009 C 
ATOM     27  C   UNL     1      -5.291   0.371   4.622  1.00  0.00     0.076 C 
ATOM     28  O   UNL     1      -5.014  -2.029   4.481  1.00  0.00    -0.299 OA
ENDBRANCH  22  23
ENDBRANCH  12  22
ENDBRANCH   7   9
ENDBRANCH   5   7
ENDBRANCH   4   5
ENDBRANCH   3   4
ENDBRANCH   2   3
ENDBRANCH   1   2
BRANCH   1  29
ATOM     29  C   UNL     1      -4.255   4.113   0.371  1.00  0.00     0.202 C 
BRANCH  29  30
ATOM     30  C   UNL     1      -4.468   4.762   1.748  1.00  0.00     0.261 C 
BRANCH  30  31
ATOM     31  O   UNL     1      -5.381   5.875   1.649  1.00  0.00    -0.460 OA
BRANCH  31  32
ATOM     32  C   UNL     1      -6.624   5.666   2.164  1.00  0.00     0.338 C 
ATOM     33  O   UNL     1      -6.857   5.383   3.333  1.00  0.00    -0.246 OA
BRANCH  32  34
ATOM     34  C   UNL     1      -7.639   5.690   1.073  1.00  0.00     0.060 A 
ATOM     35  C   UNL     1      -8.947   5.209   1.285  1.00  0.00     0.016 A 
ATOM     36  C   UNL     1      -7.196   5.932  -0.223  1.00  0.00     0.016 A 
ATOM     37  C   UNL     1      -9.752   4.838   0.193  1.00  0.00     0.010 A 
ATOM     38  C   UNL     1      -7.938   5.450  -1.277  1.00  0.00     0.010 A 
ATOM     39  C   UNL     1      -9.214   4.885  -1.091  1.00  0.00    -0.014 A 
BRANCH  39  40
ATOM     40  C   UNL     1      -9.765   4.266  -2.305  1.00  0.00     0.031 A 
ATOM     41  C   UNL     1      -9.963   5.121  -3.498  1.00  0.00     0.074 A 
ATOM     42  C   UNL     1      -9.750   2.920  -2.478  1.00  0.00     0.049 A 
ATOM     43  N   UNL     1     -10.534   4.731  -4.582  1.00  0.00    -0.248 NA
ATOM     44  C   UNL     1      -9.525   6.511  -3.565  1.00  0.00     0.031 C 
ATOM     45  C   UNL     1      -9.641   2.173  -3.734  1.00  0.00     0.029 A 
ATOM     46  N   UNL     1      -9.878   1.909  -1.525  1.00  0.00    -0.354 N 
ATOM     47  C   UNL     1     -10.220   5.636  -5.567  1.00  0.00     0.074 A 
ATOM     48  C   UNL     1      -9.647   6.759  -4.869  1.00  0.00     0.031 C 
ATOM     49  C   UNL     1      -9.958   0.886  -3.517  1.00  0.00     0.029 A 
ATOM     50  C   UNL     1     -10.439   0.787  -2.155  1.00  0.00     0.049 A 
ATOM     51  H   UNL     1      -9.619   1.971  -0.577  1.00  0.00     0.167 HD
ATOM     52  C   UNL     1     -10.361   5.261  -6.870  1.00  0.00     0.034 A 
ATOM     53  C   UNL     1     -11.607   0.264  -1.702  1.00  0.00     0.034 A 
ATOM     54  C   UNL     1     -10.887   3.885  -6.973  1.00  0.00     0.049 A 
ATOM     55  C   UNL     1     -12.665   0.407  -2.761  1.00  0.00     0.074 A 
ATOM     56  C   UNL     1     -10.335   2.661  -7.317  1.00  0.00     0.029 A 
ATOM     57  N   UNL     1     -12.113   3.583  -6.385  1.00  0.00    -0.354 N 
ATOM     58  N   UNL     1     -12.456   0.980  -3.915  1.00  0.00    -0.248 NA
ATOM     59  C   UNL     1     -14.038  -0.035  -2.608  1.00  0.00     0.031 C 
ATOM     60  C   UNL     1     -11.245   1.631  -6.918  1.00  0.00     0.029 A 
ATOM     61  C   UNL     1     -12.370   2.222  -6.369  1.00  0.00     0.049 A 
ATOM     62  H   UNL     1     -12.727   4.261  -6.021  1.00  0.00     0.167 HD
ATOM     63  C   UNL     1     -13.613   1.080  -4.624  1.00  0.00     0.074 A 
ATOM     64  C   UNL     1     -14.583   0.424  -3.748  1.00  0.00     0.031 C 
ATOM     65  C   UNL     1     -13.647   1.730  -5.835  1.00  0.00     0.034 A 
BRANCH  52  66
ATOM     66  C   UNL     1      -9.803   6.040  -8.048  1.00  0.00     0.023 A 
ATOM     67  C   UNL     1      -9.586   5.373  -9.270  1.00  0.00     0.031 A 
ATOM     68  C   UNL     1      -9.461   7.411  -8.055  1.00  0.00     0.131 A 
ATOM     69  C   UNL     1      -8.989   6.020 -10.371  1.00  0.00     0.055 A 
ATOM     70  C   UNL     1      -8.804   8.038  -9.124  1.00  0.00     0.041 A 
ATOM     71  F   UNL     1      -9.814   8.241  -7.068  1.00  0.00    -0.206 F 
ATOM     72  C   UNL     1      -8.559   7.340 -10.292  1.00  0.00     0.022 A 
BRANCH  69  73
ATOM     73  S   UNL     1      -8.820   5.120 -11.936  1.00  0.00     0.124 S 
ATOM     74  O   UNL     1      -7.909   4.041 -11.572  1.00  0.00    -0.237 OA
ATOM     75  O   UNL     1     -10.198   4.736 -12.223  1.00  0.00    -0.237 OA
ATOM     76  O   UNL     1      -8.261   6.121 -12.844  1.00  0.00    -0.744 OA
ENDBRANCH  69  73
ENDBRANCH  52  66
BRANCH  53  77
ATOM     77  C   UNL     1     -11.721   0.408  -0.211  1.00  0.00     0.023 A 
ATOM     78  C   UNL     1     -10.788  -0.332   0.560  1.00  0.00     0.031 A 
ATOM     79  C   UNL     1     -12.263   1.570   0.365  1.00  0.00     0.131 A 
ATOM     80  C   UNL     1     -10.284   0.196   1.761  1.00  0.00     0.055 A 
ATOM     81  C   UNL     1     -11.793   2.062   1.593  1.00  0.00     0.041 A 
ATOM     82  F   UNL     1     -13.126   2.332  -0.322  1.00  0.00    -0.206 F 
ATOM     83  C   UNL     1     -10.765   1.405   2.270  1.00  0.00     0.022 A 
BRANCH  80  84
ATOM     84  S   UNL     1      -8.830  -0.552   2.564  1.00  0.00     0.124 S 
ATOM     85  O   UNL     1      -9.350  -0.894   3.883  1.00  0.00    -0.237 OA
ATOM     86  O   UNL     1      -8.498  -1.677   1.696  1.00  0.00    -0.237 OA
ATOM     87  O   UNL     1      -7.860   0.542   2.542  1.00  0.00    -0.744 OA
ENDBRANCH  80  84
ENDBRANCH  53  77
BRANCH  65  88
ATOM     88  C   UNL     1     -14.923   2.018  -6.596  1.00  0.00     0.023 A 
ATOM     89  C   UNL     1     -16.094   1.294  -6.370  1.00  0.00     0.031 A 
ATOM     90  C   UNL     1     -15.031   3.049  -7.559  1.00  0.00     0.131 A 
ATOM     91  C   UNL     1     -17.327   1.718  -6.881  1.00  0.00     0.055 A 
ATOM     92  C   UNL     1     -16.244   3.416  -8.148  1.00  0.00     0.041 A 
ATOM     93  F   UNL     1     -13.978   3.768  -7.968  1.00  0.00    -0.206 F 
ATOM     94  C   UNL     1     -17.415   2.777  -7.776  1.00  0.00     0.022 A 
BRANCH  91  95
ATOM     95  S   UNL     1     -18.810   0.889  -6.266  1.00  0.00     0.124 S 
ATOM     96  O   UNL     1     -18.487  -0.522  -6.458  1.00  0.00    -0.237 OA
ATOM     97  O   UNL     1     -18.848   1.342  -4.878  1.00  0.00    -0.237 OA
ATOM     98  O   UNL     1     -19.873   1.408  -7.122  1.00  0.00    -0.744 OA
ENDBRANCH  91  95
ENDBRANCH  65  88
ENDBRANCH  39  40
ENDBRANCH  32  34
ENDBRANCH  31  32
ENDBRANCH  30  31
ENDBRANCH  29  30
ENDBRANCH   1  29
TORSDOF 21
