REMARK SMILES CC(C)[C@H](NC(=O)[C@H](Cc1ccccc1)n1c(=O)[nH]c2ccccc2c1=O)C(=O)OCCOCCOC(=O)c1ccc(-c2c3nc(c(-c4cc(S(=O)(=O)[O-])ccc4F)c4ccc([nH]4)c(-c4cc(S(=O)(=O)[O-])ccc4F)c4nc(c(-c5cc(S(=O)(=O)[O-])ccc5F)c5ccc2[nH]5)C=C4)C=C3)cc1
REMARK SMILES IDX 32 1 31 2 30 3 28 4 29 5 4 6 2 7 1 8 3 9 5 10 6 11 7 13 8 14
REMARK SMILES IDX 16 15 17 16 26 17 18 18 19 19 25 20 27 21 20 22 24 24 21 25
REMARK SMILES IDX 23 26 22 27 9 28 10 29 11 30 15 31 12 32 14 33 13 34 33 35
REMARK SMILES IDX 34 36 35 37 36 38 37 39 38 40 39 41 40 42 101 43 41 44
REMARK SMILES IDX 100 45 42 46 43 47 44 48 94 49 45 50 99 51 93 52 95 53 46 54
REMARK SMILES IDX 98 55 92 56 91 57 47 59 79 60 59 61 78 62 60 63 63 64 77 65
REMARK SMILES IDX 96 66 61 67 62 68 76 70 97 71 64 72 48 73 49 74 57 75 50 76
REMARK SMILES IDX 56 77 58 78 55 79 51 80 52 81 53 82 54 83 80 84 81 85 89 86
REMARK SMILES IDX 82 87 88 88 90 89 87 90 83 91 84 92 85 93 86 94 65 95 66 96
REMARK SMILES IDX 74 97 67 98 73 99 75 100 72 101 68 102 69 103 70 104 71 105
REMARK H PARENT 5 12 19 23 95 58 63 69
REMARK Flexibility Score: inf
ROOT
ATOM      1  C   UNL     1      -6.416  -4.506   0.424  1.00  0.00     0.202 C 
ENDROOT
BRANCH   1   2
ATOM      2  C   UNL     1      -5.029  -3.883   0.232  1.00  0.00     0.261 C 
BRANCH   2   3
ATOM      3  O   UNL     1      -3.986  -4.687   0.805  1.00  0.00    -0.462 OA
BRANCH   3   4
ATOM      4  C   UNL     1      -3.547  -4.245   2.015  1.00  0.00     0.328 C 
ATOM      5  O   UNL     1      -3.917  -3.194   2.526  1.00  0.00    -0.250 OA
BRANCH   4   6
ATOM      6  C   UNL     1      -2.660  -5.284   2.754  1.00  0.00     0.194 C 
BRANCH   6   7
ATOM      7  C   UNL     1      -1.346  -4.740   3.299  1.00  0.00     0.017 C 
ATOM      8  C   UNL     1      -1.353  -3.363   3.973  1.00  0.00     0.010 C 
ATOM      9  C   UNL     1      -0.710  -5.753   4.258  1.00  0.00     0.010 C 
ENDBRANCH   6   7
BRANCH   6  10
ATOM     10  N   UNL     1      -2.527  -6.576   2.031  1.00  0.00    -0.341 N 
ATOM     11  C   UNL     1      -1.768  -7.197   1.107  1.00  0.00     0.244 C 
ATOM     12  H   UNL     1      -3.237  -7.188   2.330  1.00  0.00     0.164 HD
ATOM     13  O   UNL     1      -2.440  -8.085   0.548  1.00  0.00    -0.273 OA
BRANCH  11  14
ATOM     14  C   UNL     1      -0.345  -6.857   0.552  1.00  0.00     0.189 C 
BRANCH  14  15
ATOM     15  N   UNL     1       0.813  -6.352   1.369  1.00  0.00    -0.247 N 
ATOM     16  C   UNL     1       1.575  -7.215   2.132  1.00  0.00     0.329 A 
ATOM     17  C   UNL     1       1.161  -4.997   1.267  1.00  0.00     0.264 A 
ATOM     18  O   UNL     1       1.286  -8.365   2.433  1.00  0.00    -0.248 OA
ATOM     19  N   UNL     1       2.727  -6.741   2.687  1.00  0.00    -0.307 N 
ATOM     20  C   UNL     1       2.151  -4.479   2.242  1.00  0.00     0.064 A 
ATOM     21  O   UNL     1       0.652  -4.201   0.482  1.00  0.00    -0.268 OA
ATOM     22  C   UNL     1       2.980  -5.393   2.865  1.00  0.00     0.055 A 
ATOM     23  H   UNL     1       3.410  -7.389   2.975  1.00  0.00     0.171 HD
ATOM     24  C   UNL     1       2.213  -3.132   2.608  1.00  0.00     0.016 A 
ATOM     25  C   UNL     1       3.952  -4.984   3.778  1.00  0.00     0.027 A 
ATOM     26  C   UNL     1       3.123  -2.722   3.589  1.00  0.00     0.001 A 
ATOM     27  C   UNL     1       4.010  -3.642   4.152  1.00  0.00     0.002 A 
ENDBRANCH  14  15
BRANCH  14  28
ATOM     28  C   UNL     1       0.084  -7.965  -0.488  1.00  0.00     0.071 C 
BRANCH  28  29
ATOM     29  C   UNL     1       0.287  -9.432  -0.118  1.00  0.00    -0.045 A 
ATOM     30  C   UNL     1       0.989 -10.254  -1.016  1.00  0.00     0.004 A 
ATOM     31  C   UNL     1      -0.202 -10.038   1.048  1.00  0.00     0.004 A 
ATOM     32  C   UNL     1       1.276 -11.589  -0.706  1.00  0.00     0.000 A 
ATOM     33  C   UNL     1       0.116 -11.358   1.381  1.00  0.00     0.000 A 
ATOM     34  C   UNL     1       0.867 -12.132   0.508  1.00  0.00     0.000 A 
ENDBRANCH  28  29
ENDBRANCH  14  28
ENDBRANCH  11  14
ENDBRANCH   6  10
ENDBRANCH   4   6
ENDBRANCH   3   4
ENDBRANCH   2   3
ENDBRANCH   1   2
BRANCH   1  35
ATOM     35  O   UNL     1      -6.830  -4.848   1.745  1.00  0.00    -0.374 OA
BRANCH  35  36
ATOM     36  C   UNL     1      -6.311  -6.042   2.328  1.00  0.00     0.202 C 
BRANCH  36  37
ATOM     37  C   UNL     1      -6.746  -7.403   1.768  1.00  0.00     0.261 C 
BRANCH  37  38
ATOM     38  O   UNL     1      -6.327  -7.608   0.410  1.00  0.00    -0.460 OA
BRANCH  38  39
ATOM     39  C   UNL     1      -7.335  -7.603  -0.495  1.00  0.00     0.338 C 
ATOM     40  O   UNL     1      -8.533  -7.504  -0.253  1.00  0.00    -0.246 OA
BRANCH  39  41
ATOM     41  C   UNL     1      -6.793  -7.492  -1.860  1.00  0.00     0.060 A 
ATOM     42  C   UNL     1      -7.220  -6.406  -2.637  1.00  0.00     0.016 A 
ATOM     43  C   UNL     1      -5.936  -8.455  -2.394  1.00  0.00     0.016 A 
ATOM     44  C   UNL     1      -6.824  -6.299  -3.966  1.00  0.00     0.010 A 
ATOM     45  C   UNL     1      -5.555  -8.355  -3.736  1.00  0.00     0.010 A 
ATOM     46  C   UNL     1      -6.019  -7.293  -4.535  1.00  0.00    -0.014 A 
BRANCH  46  47
ATOM     47  C   UNL     1      -5.771  -7.279  -5.996  1.00  0.00     0.031 A 
ATOM     48  C   UNL     1      -6.571  -8.192  -6.882  1.00  0.00     0.074 A 
ATOM     49  C   UNL     1      -4.869  -6.433  -6.525  1.00  0.00     0.049 A 
ATOM     50  N   UNL     1      -6.484  -8.383  -8.173  1.00  0.00    -0.248 NA
ATOM     51  C   UNL     1      -7.610  -8.998  -6.221  1.00  0.00     0.031 C 
ATOM     52  C   UNL     1      -4.083  -5.461  -5.766  1.00  0.00     0.029 A 
ATOM     53  N   UNL     1      -4.459  -6.259  -7.822  1.00  0.00    -0.354 N 
ATOM     54  C   UNL     1      -7.450  -9.336  -8.481  1.00  0.00     0.074 A 
ATOM     55  C   UNL     1      -8.087  -9.705  -7.234  1.00  0.00     0.031 C 
ATOM     56  C   UNL     1      -3.276  -4.799  -6.613  1.00  0.00     0.029 A 
ATOM     57  C   UNL     1      -3.451  -5.335  -7.961  1.00  0.00     0.049 A 
ATOM     58  H   UNL     1      -4.850  -6.749  -8.582  1.00  0.00     0.167 HD
ATOM     59  C   UNL     1      -7.774  -9.848  -9.694  1.00  0.00     0.034 A 
ATOM     60  C   UNL     1      -2.726  -4.991  -9.044  1.00  0.00     0.034 A 
ATOM     61  C   UNL     1      -7.114  -9.474 -10.922  1.00  0.00     0.049 A 
ATOM     62  C   UNL     1      -3.026  -5.662 -10.364  1.00  0.00     0.074 A 
ATOM     63  C   UNL     1      -7.375  -9.912 -12.209  1.00  0.00     0.029 A 
ATOM     64  N   UNL     1      -6.046  -8.589 -11.015  1.00  0.00    -0.354 N 
ATOM     65  N   UNL     1      -3.950  -6.552 -10.648  1.00  0.00    -0.248 NA
ATOM     66  C   UNL     1      -2.186  -5.282 -11.507  1.00  0.00     0.031 C 
ATOM     67  C   UNL     1      -6.413  -9.363 -13.063  1.00  0.00     0.029 A 
ATOM     68  C   UNL     1      -5.605  -8.509 -12.328  1.00  0.00     0.049 A 
ATOM     69  H   UNL     1      -5.659  -8.091 -10.259  1.00  0.00     0.167 HD
ATOM     70  C   UNL     1      -3.812  -6.821 -12.008  1.00  0.00     0.074 A 
ATOM     71  C   UNL     1      -2.735  -5.981 -12.489  1.00  0.00     0.031 C 
ATOM     72  C   UNL     1      -4.512  -7.684 -12.789  1.00  0.00     0.034 A 
BRANCH  59  73
ATOM     73  C   UNL     1      -8.846 -10.911  -9.739  1.00  0.00     0.023 A 
ATOM     74  C   UNL     1     -10.175 -10.644  -9.366  1.00  0.00     0.031 A 
ATOM     75  C   UNL     1      -8.528 -12.219 -10.147  1.00  0.00     0.131 A 
ATOM     76  C   UNL     1     -11.119 -11.683  -9.344  1.00  0.00     0.055 A 
ATOM     77  C   UNL     1      -9.490 -13.229 -10.201  1.00  0.00     0.041 A 
ATOM     78  F   UNL     1      -7.272 -12.541 -10.492  1.00  0.00    -0.206 F 
ATOM     79  C   UNL     1     -10.791 -12.968  -9.784  1.00  0.00     0.022 A 
BRANCH  76  80
ATOM     80  S   UNL     1     -12.742 -11.367  -8.598  1.00  0.00     0.124 S 
ATOM     81  O   UNL     1     -12.370 -10.936  -7.253  1.00  0.00    -0.237 OA
ATOM     82  O   UNL     1     -13.294 -10.338  -9.470  1.00  0.00    -0.237 OA
ATOM     83  O   UNL     1     -13.409 -12.666  -8.665  1.00  0.00    -0.744 OA
ENDBRANCH  76  80
ENDBRANCH  59  73
BRANCH  60  84
ATOM     84  C   UNL     1      -1.608  -4.012  -8.925  1.00  0.00     0.023 A 
ATOM     85  C   UNL     1      -1.620  -2.803  -9.638  1.00  0.00     0.031 A 
ATOM     86  C   UNL     1      -0.479  -4.298  -8.134  1.00  0.00     0.131 A 
ATOM     87  C   UNL     1      -0.509  -1.947  -9.582  1.00  0.00     0.055 A 
ATOM     88  C   UNL     1       0.596  -3.414  -8.033  1.00  0.00     0.041 A 
ATOM     89  F   UNL     1      -0.409  -5.443  -7.437  1.00  0.00    -0.206 F 
ATOM     90  C   UNL     1       0.591  -2.236  -8.772  1.00  0.00     0.022 A 
BRANCH  87  91
ATOM     91  S   UNL     1      -0.481  -0.491 -10.664  1.00  0.00     0.124 S 
ATOM     92  O   UNL     1      -0.616  -1.099 -11.983  1.00  0.00    -0.237 OA
ATOM     93  O   UNL     1      -1.633   0.265 -10.184  1.00  0.00    -0.237 OA
ATOM     94  O   UNL     1       0.820   0.114 -10.385  1.00  0.00    -0.744 OA
ENDBRANCH  87  91
ENDBRANCH  60  84
BRANCH  72  95
ATOM     95  C   UNL     1      -4.143  -7.740 -14.253  1.00  0.00     0.023 A 
ATOM     96  C   UNL     1      -2.890  -8.217 -14.679  1.00  0.00     0.031 A 
ATOM     97  C   UNL     1      -5.052  -7.305 -15.235  1.00  0.00     0.131 A 
ATOM     98  C   UNL     1      -2.560  -8.195 -16.043  1.00  0.00     0.055 A 
ATOM     99  C   UNL     1      -4.743  -7.350 -16.595  1.00  0.00     0.041 A 
ATOM    100  F   UNL     1      -6.261  -6.835 -14.887  1.00  0.00    -0.206 F 
ATOM    101  C   UNL     1      -3.486  -7.784 -17.005  1.00  0.00     0.022 A 
BRANCH  98 102
ATOM    102  S   UNL     1      -0.867  -8.619 -16.536  1.00  0.00     0.124 S 
ATOM    103  O   UNL     1      -0.083  -7.626 -15.809  1.00  0.00    -0.237 OA
ATOM    104  O   UNL     1      -0.741  -9.996 -16.070  1.00  0.00    -0.237 OA
ATOM    105  O   UNL     1      -0.881  -8.456 -17.988  1.00  0.00    -0.744 OA
ENDBRANCH  98 102
ENDBRANCH  72  95
ENDBRANCH  46  47
ENDBRANCH  39  41
ENDBRANCH  38  39
ENDBRANCH  37  38
ENDBRANCH  36  37
ENDBRANCH  35  36
ENDBRANCH   1  35
TORSDOF 23
