REMARK SMILES O=C(OCCOCCOC(=O)c1ccc(-c2c3nc(c(-c4cc(S(=O)(=O)[O-])ccc4F)c4ccc([nH]4)c(-c4cc(S(=O)(=O)[O-])ccc4F)c4nc(c(-c5cc(S(=O)(=O)[O-])ccc5F)c5ccc2[nH]5)C=C4)C=C3)cc1)C1=Cc2cc(Cl)cc(Cl)c2O[C@@H]1C(F)(F)F
REMARK SMILES IDX 7 1 6 2 5 3 4 4 3 5 2 6 1 7 75 8 76 9 86 10 77 11 85 12
REMARK SMILES IDX 78 13 84 14 79 15 82 16 80 17 81 18 83 19 87 20 88 21 89 22
REMARK SMILES IDX 90 23 8 24 9 25 10 26 11 27 12 28 13 29 74 30 14 31 73 32
REMARK SMILES IDX 15 33 16 34 17 35 67 36 18 37 72 38 66 39 68 40 19 41 71 42
REMARK SMILES IDX 65 43 64 44 20 46 52 47 32 48 51 49 33 50 36 51 50 52 69 53
REMARK SMILES IDX 34 54 35 55 49 57 70 58 37 59 21 60 22 61 30 62 23 63 29 64
REMARK SMILES IDX 31 65 28 66 24 67 25 68 26 69 27 70 53 71 54 72 62 73 55 74
REMARK SMILES IDX 61 75 63 76 60 77 56 78 57 79 58 80 59 81 38 82 39 83 47 84
REMARK SMILES IDX 40 85 46 86 48 87 45 88 41 89 42 90 43 91 44 92
REMARK H PARENT 68 45 36 56
REMARK Flexibility Score: inf
ROOT
ATOM      1  C   UNL     1       2.829   2.834   1.214  1.00  0.00     0.202 C 
ENDROOT
BRANCH   1   2
ATOM      2  O   UNL     1       3.896   1.962   1.608  1.00  0.00    -0.374 OA
BRANCH   2   3
ATOM      3  C   UNL     1       4.390   0.525   1.162  1.00  0.00     0.202 C 
BRANCH   3   4
ATOM      4  C   UNL     1       3.518  -1.044  -0.057  1.00  0.00     0.261 C 
BRANCH   4   5
ATOM      5  O   UNL     1       2.628  -2.214   0.434  1.00  0.00    -0.460 OA
BRANCH   5   6
ATOM      6  C   UNL     1       2.843  -2.530   1.714  1.00  0.00     0.338 C 
ATOM      7  O   UNL     1       2.283  -3.323   2.425  1.00  0.00    -0.246 OA
BRANCH   6   8
ATOM      8  C   UNL     1       3.691  -1.396   1.990  1.00  0.00     0.087 C 
ATOM      9  C   UNL     1       5.067  -1.627   1.450  1.00  0.00     0.027 C 
ATOM     10  C   UNL     1       2.472  -0.032   1.348  1.00  0.00     0.316 C 
ATOM     11  C   UNL     1       5.729  -0.757  -0.009  1.00  0.00     0.020 A 
ATOM     12  O   UNL     1       3.137   0.842  -0.232  1.00  0.00    -0.474 OA
ATOM     13  C   UNL     1       6.923  -1.158  -0.546  1.00  0.00     0.032 A 
ATOM     14  C   UNL     1       4.757   0.365  -0.910  1.00  0.00     0.146 A 
ATOM     15  C   UNL     1       7.202  -0.645  -1.828  1.00  0.00     0.043 A 
ATOM     16  C   UNL     1       5.046   0.662  -2.212  1.00  0.00     0.085 A 
ATOM     17  Cl  UNL     1       8.719  -1.107  -2.534  1.00  0.00    -0.084 Cl
ATOM     18  C   UNL     1       6.304   0.171  -2.633  1.00  0.00     0.045 A 
ATOM     19  Cl  UNL     1       3.882   1.230  -3.316  1.00  0.00    -0.080 Cl
BRANCH  10  20
ATOM     20  C   UNL     1       1.962   0.573   2.712  1.00  0.00     0.430 C 
ATOM     21  F   UNL     1       1.071   1.574   2.604  1.00  0.00    -0.167 F 
ATOM     22  F   UNL     1       1.287  -0.425   3.361  1.00  0.00    -0.167 F 
ATOM     23  F   UNL     1       2.938   0.933   3.575  1.00  0.00    -0.167 F 
ENDBRANCH  10  20
ENDBRANCH   6   8
ENDBRANCH   5   6
ENDBRANCH   4   5
ENDBRANCH   3   4
ENDBRANCH   2   3
ENDBRANCH   1   2
BRANCH   1  24
ATOM     24  C   UNL     1       3.111   4.124   0.463  1.00  0.00     0.261 C 
BRANCH  24  25
ATOM     25  O   UNL     1       3.650   3.908  -0.826  1.00  0.00    -0.460 OA
BRANCH  25  26
ATOM     26  C   UNL     1       4.983   4.104  -0.904  1.00  0.00     0.338 C 
ATOM     27  O   UNL     1       5.770   4.230   0.016  1.00  0.00    -0.246 OA
BRANCH  26  28
ATOM     28  C   UNL     1       5.349   4.094  -2.329  1.00  0.00     0.060 A 
ATOM     29  C   UNL     1       6.606   3.596  -2.679  1.00  0.00     0.016 A 
ATOM     30  C   UNL     1       4.435   4.507  -3.311  1.00  0.00     0.016 A 
ATOM     31  C   UNL     1       6.938   3.463  -4.023  1.00  0.00     0.010 A 
ATOM     32  C   UNL     1       4.765   4.372  -4.652  1.00  0.00     0.010 A 
ATOM     33  C   UNL     1       6.019   3.854  -5.007  1.00  0.00    -0.014 A 
BRANCH  33  34
ATOM     34  C   UNL     1       6.449   3.943  -6.413  1.00  0.00     0.031 A 
ATOM     35  C   UNL     1       6.957   5.271  -6.880  1.00  0.00     0.074 A 
ATOM     36  C   UNL     1       6.370   2.884  -7.236  1.00  0.00     0.049 A 
ATOM     37  N   UNL     1       7.369   5.630  -8.063  1.00  0.00    -0.248 NA
ATOM     38  C   UNL     1       6.995   6.342  -5.869  1.00  0.00     0.031 C 
ATOM     39  C   UNL     1       5.900   1.553  -6.859  1.00  0.00     0.029 A 
ATOM     40  N   UNL     1       6.673   2.769  -8.567  1.00  0.00    -0.354 N 
ATOM     41  C   UNL     1       7.726   6.966  -7.938  1.00  0.00     0.074 A 
ATOM     42  C   UNL     1       7.429   7.366  -6.581  1.00  0.00     0.031 C 
ATOM     43  C   UNL     1       5.935   0.755  -7.940  1.00  0.00     0.029 A 
ATOM     44  C   UNL     1       6.394   1.529  -9.092  1.00  0.00     0.049 A 
ATOM     45  H   UNL     1       7.053   3.506  -9.098  1.00  0.00     0.167 HD
ATOM     46  C   UNL     1       8.265   7.779  -8.875  1.00  0.00     0.034 A 
ATOM     47  C   UNL     1       6.477   1.090 -10.364  1.00  0.00     0.034 A 
ATOM     48  C   UNL     1       8.497   7.363 -10.232  1.00  0.00     0.049 A 
ATOM     49  C   UNL     1       6.982   2.048 -11.420  1.00  0.00     0.074 A 
ATOM     50  C   UNL     1       9.036   8.091 -11.275  1.00  0.00     0.029 A 
ATOM     51  N   UNL     1       8.170   6.111 -10.743  1.00  0.00    -0.354 N 
ATOM     52  N   UNL     1       7.364   3.299 -11.287  1.00  0.00    -0.248 NA
ATOM     53  C   UNL     1       7.077   1.535 -12.792  1.00  0.00     0.031 C 
ATOM     54  C   UNL     1       8.948   7.315 -12.434  1.00  0.00     0.029 A 
ATOM     55  C   UNL     1       8.454   6.063 -12.097  1.00  0.00     0.049 A 
ATOM     56  H   UNL     1       7.793   5.368 -10.219  1.00  0.00     0.167 HD
ATOM     57  C   UNL     1       7.780   3.709 -12.552  1.00  0.00     0.074 A 
ATOM     58  C   UNL     1       7.609   2.569 -13.429  1.00  0.00     0.031 C 
ATOM     59  C   UNL     1       8.268   4.912 -12.952  1.00  0.00     0.034 A 
BRANCH  46  60
ATOM     60  C   UNL     1       8.557   9.198  -8.461  1.00  0.00     0.023 A 
ATOM     61  C   UNL     1       9.469   9.493  -7.431  1.00  0.00     0.031 A 
ATOM     62  C   UNL     1       7.859  10.265  -9.049  1.00  0.00     0.131 A 
ATOM     63  C   UNL     1       9.590  10.809  -6.962  1.00  0.00     0.055 A 
ATOM     64  C   UNL     1       8.056  11.585  -8.642  1.00  0.00     0.041 A 
ATOM     65  F   UNL     1       6.949  10.041 -10.010  1.00  0.00    -0.206 F 
ATOM     66  C   UNL     1       8.912  11.861  -7.580  1.00  0.00     0.022 A 
BRANCH  63  67
ATOM     67  S   UNL     1      10.502  11.095  -5.420  1.00  0.00     0.124 S 
ATOM     68  O   UNL     1       9.767  10.249  -4.482  1.00  0.00    -0.237 OA
ATOM     69  O   UNL     1      11.848  10.650  -5.761  1.00  0.00    -0.237 OA
ATOM     70  O   UNL     1      10.356  12.532  -5.197  1.00  0.00    -0.744 OA
ENDBRANCH  63  67
ENDBRANCH  46  60
BRANCH  47  71
ATOM     71  C   UNL     1       6.041  -0.291 -10.724  1.00  0.00     0.023 A 
ATOM     72  C   UNL     1       6.936  -1.225 -11.270  1.00  0.00     0.031 A 
ATOM     73  C   UNL     1       4.696  -0.681 -10.578  1.00  0.00     0.131 A 
ATOM     74  C   UNL     1       6.468  -2.479 -11.695  1.00  0.00     0.055 A 
ATOM     75  C   UNL     1       4.248  -1.951 -10.947  1.00  0.00     0.041 A 
ATOM     76  F   UNL     1       3.793   0.171 -10.067  1.00  0.00    -0.206 F 
ATOM     77  C   UNL     1       5.134  -2.854 -11.523  1.00  0.00     0.022 A 
BRANCH  74  78
ATOM     78  S   UNL     1       7.610  -3.582 -12.575  1.00  0.00     0.124 S 
ATOM     79  O   UNL     1       8.015  -2.750 -13.703  1.00  0.00    -0.237 OA
ATOM     80  O   UNL     1       8.630  -3.832 -11.562  1.00  0.00    -0.237 OA
ATOM     81  O   UNL     1       6.777  -4.734 -12.915  1.00  0.00    -0.744 OA
ENDBRANCH  74  78
ENDBRANCH  47  71
BRANCH  59  82
ATOM     82  C   UNL     1       8.705   5.039 -14.392  1.00  0.00     0.023 A 
ATOM     83  C   UNL     1       7.794   4.967 -15.458  1.00  0.00     0.031 A 
ATOM     84  C   UNL     1      10.061   5.266 -14.693  1.00  0.00     0.131 A 
ATOM     85  C   UNL     1       8.257   5.073 -16.778  1.00  0.00     0.055 A 
ATOM     86  C   UNL     1      10.504   5.444 -16.003  1.00  0.00     0.041 A 
ATOM     87  F   UNL     1      10.977   5.338 -13.713  1.00  0.00    -0.206 F 
ATOM     88  C   UNL     1       9.601   5.337 -17.056  1.00  0.00     0.022 A 
BRANCH  85  89
ATOM     89  S   UNL     1       7.095   4.770 -18.136  1.00  0.00     0.124 S 
ATOM     90  O   UNL     1       6.643   3.412 -17.849  1.00  0.00    -0.237 OA
ATOM     91  O   UNL     1       6.106   5.825 -17.944  1.00  0.00    -0.237 OA
ATOM     92  O   UNL     1       7.923   4.907 -19.333  1.00  0.00    -0.744 OA
ENDBRANCH  85  89
ENDBRANCH  59  82
ENDBRANCH  33  34
ENDBRANCH  26  28
ENDBRANCH  25  26
ENDBRANCH  24  25
ENDBRANCH   1  24
TORSDOF 18
