REMARK SMILES Cc1c(Cl)cc2c(c1C)O[C@H](C(F)(F)F)C(C(=O)OCCOCCOC(=O)c1ccc(-c3c4nc(c(-c5cc(S(=O)(=O)[O-])ccc5F)c5ccc([nH]5)c(-c5cc(S(=O)(=O)[O-])ccc5F)c5nc(c(-c6cc(S(=O)(=O)[O-])ccc6F)c6ccc3[nH]6)C=C5)C=C4)cc1)=C2
REMARK SMILES IDX 23 1 22 2 21 3 20 4 19 5 17 6 18 7 16 8 1 9 2 10 3 11 8 12
REMARK SMILES IDX 4 13 5 14 7 15 9 16 6 17 10 18 91 19 11 20 12 21 13 22 14 23
REMARK SMILES IDX 15 24 24 25 25 26 26 27 27 28 28 29 29 30 90 31 30 32 89 33
REMARK SMILES IDX 31 34 32 35 33 36 83 37 34 38 88 39 82 40 84 41 35 42 87 43
REMARK SMILES IDX 81 44 80 45 36 47 68 48 48 49 67 50 49 51 52 52 66 53 85 54
REMARK SMILES IDX 50 55 51 56 65 58 86 59 53 60 37 61 38 62 46 63 39 64 45 65
REMARK SMILES IDX 47 66 44 67 40 68 41 69 42 70 43 71 69 72 70 73 78 74 71 75
REMARK SMILES IDX 77 76 79 77 76 78 72 79 73 80 74 81 75 82 54 83 55 84 63 85
REMARK SMILES IDX 56 86 62 87 64 88 61 89 57 90 58 91 59 92 60 93
REMARK H PARENT 84 46 52 57
REMARK Flexibility Score: inf
ROOT
ATOM      1  C   UNL     1      -3.226  -3.331  -7.379  1.00  0.00     0.202 C 
ENDROOT
BRANCH   1   2
ATOM      2  O   UNL     1      -2.879  -3.506  -8.753  1.00  0.00    -0.374 OA
BRANCH   2   3
ATOM      3  C   UNL     1      -2.137  -4.673  -9.108  1.00  0.00     0.202 C 
BRANCH   3   4
ATOM      4  C   UNL     1      -0.633  -4.644  -8.821  1.00  0.00     0.261 C 
BRANCH   4   5
ATOM      5  O   UNL     1      -0.364  -4.403  -7.431  1.00  0.00    -0.460 OA
BRANCH   5   6
ATOM      6  C   UNL     1       0.209  -3.207  -7.167  1.00  0.00     0.338 C 
ATOM      7  O   UNL     1       0.621  -2.393  -7.980  1.00  0.00    -0.246 OA
BRANCH   6   8
ATOM      8  C   UNL     1       0.163  -2.936  -5.718  1.00  0.00     0.087 C 
ATOM      9  C   UNL     1       0.762  -0.074   0.085  1.00  0.00     0.046 C 
ATOM     10  C   UNL     1       0.411  -0.513  -1.315  1.00  0.00    -0.026 A 
ATOM     11  C   UNL     1      -0.008   0.415  -2.288  1.00  0.00     0.045 A 
ATOM     12  C   UNL     1       0.562  -1.874  -1.695  1.00  0.00    -0.004 A 
ATOM     13  Cl  UNL     1      -0.226   2.097  -1.942  1.00  0.00    -0.084 Cl
ATOM     14  C   UNL     1      -0.240   0.019  -3.605  1.00  0.00     0.032 A 
ATOM     15  C   UNL     1       0.309  -2.259  -3.029  1.00  0.00     0.131 A 
ATOM     16  C   UNL     1       1.014  -2.940  -0.724  1.00  0.00     0.049 C 
ATOM     17  C   UNL     1      -0.054  -1.310  -3.983  1.00  0.00     0.019 A 
ATOM     18  O   UNL     1       0.431  -3.591  -3.330  1.00  0.00    -0.475 OA
ATOM     19  C   UNL     1      -0.152  -1.680  -5.381  1.00  0.00     0.027 C 
ATOM     20  C   UNL     1       0.493  -4.011  -4.723  1.00  0.00     0.316 C 
BRANCH  20  21
ATOM     21  C   UNL     1       1.867  -4.651  -4.970  1.00  0.00     0.430 C 
ATOM     22  F   UNL     1       2.150  -5.579  -4.024  1.00  0.00    -0.167 F 
ATOM     23  F   UNL     1       1.925  -5.279  -6.165  1.00  0.00    -0.167 F 
ATOM     24  F   UNL     1       2.860  -3.732  -4.944  1.00  0.00    -0.167 F 
ENDBRANCH  20  21
ENDBRANCH   6   8
ENDBRANCH   5   6
ENDBRANCH   4   5
ENDBRANCH   3   4
ENDBRANCH   2   3
ENDBRANCH   1   2
BRANCH   1  25
ATOM     25  C   UNL     1      -4.320  -4.237  -6.800  1.00  0.00     0.261 C 
BRANCH  25  26
ATOM     26  O   UNL     1      -3.910  -5.614  -6.722  1.00  0.00    -0.460 OA
BRANCH  26  27
ATOM     27  C   UNL     1      -4.593  -6.452  -7.540  1.00  0.00     0.338 C 
ATOM     28  O   UNL     1      -5.530  -6.163  -8.271  1.00  0.00    -0.246 OA
BRANCH  27  29
ATOM     29  C   UNL     1      -3.928  -7.766  -7.586  1.00  0.00     0.060 A 
ATOM     30  C   UNL     1      -3.515  -8.243  -8.837  1.00  0.00     0.016 A 
ATOM     31  C   UNL     1      -3.786  -8.553  -6.442  1.00  0.00     0.016 A 
ATOM     32  C   UNL     1      -2.996  -9.530  -8.955  1.00  0.00     0.010 A 
ATOM     33  C   UNL     1      -3.277  -9.851  -6.565  1.00  0.00     0.010 A 
ATOM     34  C   UNL     1      -2.910 -10.355  -7.826  1.00  0.00    -0.014 A 
BRANCH  34  35
ATOM     35  C   UNL     1      -2.578 -11.790  -7.997  1.00  0.00     0.031 A 
ATOM     36  C   UNL     1      -3.698 -12.794  -8.052  1.00  0.00     0.074 A 
ATOM     37  C   UNL     1      -1.303 -12.186  -8.159  1.00  0.00     0.049 A 
ATOM     38  N   UNL     1      -3.639 -14.095  -8.166  1.00  0.00    -0.248 NA
ATOM     39  C   UNL     1      -5.066 -12.257  -7.973  1.00  0.00     0.031 C 
ATOM     40  C   UNL     1      -0.143 -11.296  -8.194  1.00  0.00     0.029 A 
ATOM     41  N   UNL     1      -0.772 -13.439  -8.332  1.00  0.00    -0.354 N 
ATOM     42  C   UNL     1      -4.958 -14.533  -8.180  1.00  0.00     0.074 A 
ATOM     43  C   UNL     1      -5.794 -13.363  -8.026  1.00  0.00     0.031 C 
ATOM     44  C   UNL     1       0.965 -12.033  -8.386  1.00  0.00     0.029 A 
ATOM     45  C   UNL     1       0.598 -13.447  -8.447  1.00  0.00     0.049 A 
ATOM     46  H   UNL     1      -1.321 -14.255  -8.371  1.00  0.00     0.167 HD
ATOM     47  C   UNL     1      -5.427 -15.796  -8.319  1.00  0.00     0.034 A 
ATOM     48  C   UNL     1       1.458 -14.478  -8.569  1.00  0.00     0.034 A 
ATOM     49  C   UNL     1      -4.585 -16.956  -8.463  1.00  0.00     0.049 A 
ATOM     50  C   UNL     1       0.917 -15.885  -8.610  1.00  0.00     0.074 A 
ATOM     51  C   UNL     1      -4.962 -18.281  -8.598  1.00  0.00     0.029 A 
ATOM     52  N   UNL     1      -3.198 -16.933  -8.486  1.00  0.00    -0.354 N 
ATOM     53  N   UNL     1      -0.331 -16.290  -8.575  1.00  0.00    -0.248 NA
ATOM     54  C   UNL     1       1.901 -16.974  -8.699  1.00  0.00     0.031 C 
ATOM     55  C   UNL     1      -3.804 -19.063  -8.642  1.00  0.00     0.029 A 
ATOM     56  C   UNL     1      -2.704 -18.222  -8.604  1.00  0.00     0.049 A 
ATOM     57  H   UNL     1      -2.646 -16.120  -8.427  1.00  0.00     0.167 HD
ATOM     58  C   UNL     1      -0.283 -17.679  -8.662  1.00  0.00     0.074 A 
ATOM     59  C   UNL     1       1.116 -18.042  -8.753  1.00  0.00     0.031 C 
ATOM     60  C   UNL     1      -1.305 -18.570  -8.675  1.00  0.00     0.034 A 
BRANCH  47  61
ATOM     61  C   UNL     1      -6.920 -15.992  -8.284  1.00  0.00     0.023 A 
ATOM     62  C   UNL     1      -7.746 -15.537  -9.326  1.00  0.00     0.031 A 
ATOM     63  C   UNL     1      -7.522 -16.655  -7.201  1.00  0.00     0.131 A 
ATOM     64  C   UNL     1      -9.135 -15.717  -9.243  1.00  0.00     0.055 A 
ATOM     65  C   UNL     1      -8.898 -16.885  -7.154  1.00  0.00     0.041 A 
ATOM     66  F   UNL     1      -6.780 -17.091  -6.170  1.00  0.00    -0.206 F 
ATOM     67  C   UNL     1      -9.713 -16.409  -8.176  1.00  0.00     0.022 A 
BRANCH  64  68
ATOM     68  S   UNL     1     -10.188 -14.965 -10.513  1.00  0.00     0.124 S 
ATOM     69  O   UNL     1      -9.940 -13.542 -10.295  1.00  0.00    -0.237 OA
ATOM     70  O   UNL     1      -9.647 -15.524 -11.747  1.00  0.00    -0.237 OA
ATOM     71  O   UNL     1     -11.530 -15.420 -10.159  1.00  0.00    -0.744 OA
ENDBRANCH  64  68
ENDBRANCH  47  61
BRANCH  48  72
ATOM     72  C   UNL     1       2.923 -14.223  -8.630  1.00  0.00     0.023 A 
ATOM     73  C   UNL     1       3.653 -14.473  -9.802  1.00  0.00     0.031 A 
ATOM     74  C   UNL     1       3.616 -13.734  -7.509  1.00  0.00     0.131 A 
ATOM     75  C   UNL     1       5.039 -14.251  -9.821  1.00  0.00     0.055 A 
ATOM     76  C   UNL     1       4.988 -13.479  -7.544  1.00  0.00     0.041 A 
ATOM     77  F   UNL     1       2.961 -13.478  -6.365  1.00  0.00    -0.206 F 
ATOM     78  C   UNL     1       5.708 -13.744  -8.704  1.00  0.00     0.022 A 
BRANCH  75  79
ATOM     79  S   UNL     1       5.967 -14.663 -11.324  1.00  0.00     0.124 S 
ATOM     80  O   UNL     1       5.792 -16.109 -11.394  1.00  0.00    -0.237 OA
ATOM     81  O   UNL     1       5.268 -13.880 -12.338  1.00  0.00    -0.237 OA
ATOM     82  O   UNL     1       7.323 -14.211 -11.020  1.00  0.00    -0.744 OA
ENDBRANCH  75  79
ENDBRANCH  48  72
BRANCH  60  83
ATOM     83  C   UNL     1      -0.956 -20.028  -8.820  1.00  0.00     0.023 A 
ATOM     84  C   UNL     1      -0.361 -20.749  -7.771  1.00  0.00     0.031 A 
ATOM     85  C   UNL     1      -1.269 -20.715 -10.007  1.00  0.00     0.131 A 
ATOM     86  C   UNL     1      -0.072 -22.112  -7.940  1.00  0.00     0.055 A 
ATOM     87  C   UNL     1      -1.021 -22.080 -10.152  1.00  0.00     0.041 A 
ATOM     88  F   UNL     1      -1.842 -20.071 -11.036  1.00  0.00    -0.206 F 
ATOM     89  C   UNL     1      -0.414 -22.785  -9.116  1.00  0.00     0.022 A 
BRANCH  86  90
ATOM     90  S   UNL     1       0.790 -22.992  -6.609  1.00  0.00     0.124 S 
ATOM     91  O   UNL     1       2.079 -22.308  -6.580  1.00  0.00    -0.237 OA
ATOM     92  O   UNL     1      -0.080 -22.761  -5.461  1.00  0.00    -0.237 OA
ATOM     93  O   UNL     1       0.832 -24.374  -7.083  1.00  0.00    -0.744 OA
ENDBRANCH  86  90
ENDBRANCH  60  83
ENDBRANCH  34  35
ENDBRANCH  27  29
ENDBRANCH  26  27
ENDBRANCH  25  26
ENDBRANCH   1  25
TORSDOF 18
