REMARK SMILES O=C(OCCOCCOC(=O)c1ccc(S(=O)(=O)NC[C@H]2CCS(=O)(=O)C2)cc1)c1ccc(-c2c3nc(c(-c4cc(S(=O)(=O)[O-])ccc4F)c4ccc([nH]4)c(-c4cc(S(=O)(=O)[O-])ccc4F)c4nc(c(-c5cc(S(=O)(=O)[O-])ccc5F)c5ccc2[nH]5)C=C4)C=C3)cc1
REMARK SMILES IDX 7 1 6 2 5 3 4 4 3 5 2 6 1 7 30 8 31 9 92 10 32 11 91 12
REMARK SMILES IDX 33 13 34 14 35 15 85 16 36 17 90 18 84 19 86 20 37 21 89 22
REMARK SMILES IDX 83 23 82 24 38 26 70 27 50 28 69 29 51 30 54 31 68 32 87 33
REMARK SMILES IDX 52 34 53 35 67 37 88 38 55 39 39 40 40 41 48 42 41 43 47 44
REMARK SMILES IDX 49 45 46 46 42 47 43 48 44 49 45 50 71 51 72 52 80 53 73 54
REMARK SMILES IDX 79 55 81 56 78 57 74 58 75 59 76 60 77 61 56 62 57 63 65 64
REMARK SMILES IDX 58 65 64 66 66 67 63 68 59 69 60 70 61 71 62 72 8 73 9 74
REMARK SMILES IDX 10 75 11 76 12 77 13 78 29 79 14 80 28 81 15 82 16 83 17 84
REMARK SMILES IDX 18 85 19 86 20 88 21 89 22 90 27 91 23 92 24 93 25 94 26 95
REMARK H PARENT 86 25 54 36 19 87
REMARK Flexibility Score: inf
ROOT
ATOM      1  C   UNL     1      14.834   4.656  10.290  1.00  0.00     0.202 C 
ENDROOT
BRANCH   1   2
ATOM      2  O   UNL     1      15.002   3.269   9.963  1.00  0.00    -0.374 OA
BRANCH   2   3
ATOM      3  C   UNL     1      15.158   2.384  11.073  1.00  0.00     0.202 C 
BRANCH   3   4
ATOM      4  C   UNL     1      16.585   2.292  11.618  1.00  0.00     0.261 C 
BRANCH   4   5
ATOM      5  O   UNL     1      17.011   3.578  12.100  1.00  0.00    -0.460 OA
BRANCH   5   6
ATOM      6  C   UNL     1      17.968   4.391  11.596  1.00  0.00     0.338 C 
ATOM      7  O   UNL     1      18.295   5.379  12.253  1.00  0.00    -0.246 OA
BRANCH   6   8
ATOM      8  C   UNL     1      18.625   4.181  10.267  1.00  0.00     0.060 A 
ATOM      9  C   UNL     1      18.056   3.496   9.190  1.00  0.00     0.016 A 
ATOM     10  C   UNL     1      19.854   4.830  10.057  1.00  0.00     0.016 A 
ATOM     11  C   UNL     1      18.699   3.413   7.959  1.00  0.00     0.010 A 
ATOM     12  C   UNL     1      20.485   4.791   8.810  1.00  0.00     0.010 A 
ATOM     13  C   UNL     1      19.905   4.077   7.756  1.00  0.00    -0.014 A 
BRANCH  13  14
ATOM     14  C   UNL     1      20.544   4.011   6.427  1.00  0.00     0.031 A 
ATOM     15  C   UNL     1      21.728   3.118   6.234  1.00  0.00     0.074 A 
ATOM     16  C   UNL     1      20.011   4.713   5.409  1.00  0.00     0.049 A 
ATOM     17  N   UNL     1      22.489   2.973   5.185  1.00  0.00    -0.248 NA
ATOM     18  C   UNL     1      22.100   2.267   7.376  1.00  0.00     0.031 C 
ATOM     19  C   UNL     1      18.800   5.534   5.498  1.00  0.00     0.029 A 
ATOM     20  N   UNL     1      20.407   4.849   4.105  1.00  0.00    -0.354 N 
ATOM     21  C   UNL     1      23.448   2.033   5.544  1.00  0.00     0.074 A 
ATOM     22  C   UNL     1      23.169   1.640   6.908  1.00  0.00     0.031 C 
ATOM     23  C   UNL     1      18.555   6.088   4.300  1.00  0.00     0.029 A 
ATOM     24  C   UNL     1      19.627   5.723   3.382  1.00  0.00     0.049 A 
ATOM     25  H   UNL     1      21.175   4.367   3.721  1.00  0.00     0.167 HD
ATOM     26  C   UNL     1      24.473   1.562   4.796  1.00  0.00     0.034 A 
ATOM     27  C   UNL     1      19.799   6.212   2.137  1.00  0.00     0.034 A 
ATOM     28  C   UNL     1      24.724   1.992   3.444  1.00  0.00     0.049 A 
ATOM     29  C   UNL     1      21.010   5.747   1.366  1.00  0.00     0.074 A 
ATOM     30  C   UNL     1      25.736   1.606   2.585  1.00  0.00     0.029 A 
ATOM     31  N   UNL     1      23.954   2.927   2.760  1.00  0.00    -0.354 N 
ATOM     32  N   UNL     1      21.924   4.870   1.719  1.00  0.00    -0.248 NA
ATOM     33  C   UNL     1      21.227   6.345   0.044  1.00  0.00     0.031 C 
ATOM     34  C   UNL     1      25.616   2.355   1.409  1.00  0.00     0.029 A 
ATOM     35  C   UNL     1      24.494   3.165   1.508  1.00  0.00     0.049 A 
ATOM     36  H   UNL     1      23.142   3.357   3.115  1.00  0.00     0.167 HD
ATOM     37  C   UNL     1      22.824   4.812   0.660  1.00  0.00     0.074 A 
ATOM     38  C   UNL     1      22.323   5.716  -0.356  1.00  0.00     0.031 C 
ATOM     39  C   UNL     1      23.967   4.091   0.535  1.00  0.00     0.034 A 
BRANCH  26  40
ATOM     40  C   UNL     1      25.437   0.619   5.466  1.00  0.00     0.023 A 
ATOM     41  C   UNL     1      25.070  -0.685   5.841  1.00  0.00     0.031 A 
ATOM     42  C   UNL     1      26.733   1.059   5.785  1.00  0.00     0.131 A 
ATOM     43  C   UNL     1      25.972  -1.483   6.564  1.00  0.00     0.055 A 
ATOM     44  C   UNL     1      27.647   0.239   6.448  1.00  0.00     0.041 A 
ATOM     45  F   UNL     1      27.125   2.305   5.476  1.00  0.00    -0.206 F 
ATOM     46  C   UNL     1      27.265  -1.036   6.851  1.00  0.00     0.022 A 
BRANCH  43  47
ATOM     47  S   UNL     1      25.399  -3.072   7.224  1.00  0.00     0.124 S 
ATOM     48  O   UNL     1      24.350  -2.647   8.148  1.00  0.00    -0.237 OA
ATOM     49  O   UNL     1      24.949  -3.770   6.026  1.00  0.00    -0.237 OA
ATOM     50  O   UNL     1      26.591  -3.631   7.860  1.00  0.00    -0.744 OA
ENDBRANCH  43  47
ENDBRANCH  26  40
BRANCH  27  51
ATOM     51  C   UNL     1      18.886   7.259   1.587  1.00  0.00     0.023 A 
ATOM     52  C   UNL     1      18.167   7.056   0.398  1.00  0.00     0.031 A 
ATOM     53  C   UNL     1      18.771   8.515   2.213  1.00  0.00     0.131 A 
ATOM     54  C   UNL     1      17.407   8.104  -0.150  1.00  0.00     0.055 A 
ATOM     55  C   UNL     1      17.967   9.533   1.697  1.00  0.00     0.041 A 
ATOM     56  F   UNL     1      19.443   8.775   3.347  1.00  0.00    -0.206 F 
ATOM     57  C   UNL     1      17.291   9.335   0.499  1.00  0.00     0.022 A 
BRANCH  54  58
ATOM     58  S   UNL     1      16.663   7.878  -1.790  1.00  0.00     0.124 S 
ATOM     59  O   UNL     1      17.810   7.448  -2.583  1.00  0.00    -0.237 OA
ATOM     60  O   UNL     1      15.650   6.862  -1.523  1.00  0.00    -0.237 OA
ATOM     61  O   UNL     1      16.144   9.205  -2.114  1.00  0.00    -0.744 OA
ENDBRANCH  54  58
ENDBRANCH  27  51
BRANCH  39  62
ATOM     62  C   UNL     1      24.729   4.265  -0.751  1.00  0.00     0.023 A 
ATOM     63  C   UNL     1      25.418   5.457  -1.029  1.00  0.00     0.031 A 
ATOM     64  C   UNL     1      24.764   3.232  -1.702  1.00  0.00     0.131 A 
ATOM     65  C   UNL     1      26.082   5.605  -2.254  1.00  0.00     0.055 A 
ATOM     66  C   UNL     1      25.470   3.366  -2.897  1.00  0.00     0.041 A 
ATOM     67  F   UNL     1      24.120   2.076  -1.479  1.00  0.00    -0.206 F 
ATOM     68  C   UNL     1      26.126   4.561  -3.182  1.00  0.00     0.022 A 
BRANCH  65  69
ATOM     69  S   UNL     1      26.842   7.204  -2.642  1.00  0.00     0.124 S 
ATOM     70  O   UNL     1      25.682   8.088  -2.682  1.00  0.00    -0.237 OA
ATOM     71  O   UNL     1      27.755   7.400  -1.521  1.00  0.00    -0.237 OA
ATOM     72  O   UNL     1      27.490   6.971  -3.932  1.00  0.00    -0.744 OA
ENDBRANCH  65  69
ENDBRANCH  39  62
ENDBRANCH  13  14
ENDBRANCH   6   8
ENDBRANCH   5   6
ENDBRANCH   4   5
ENDBRANCH   3   4
ENDBRANCH   2   3
ENDBRANCH   1   2
BRANCH   1  73
ATOM     73  C   UNL     1      13.879   5.299   9.279  1.00  0.00     0.261 C 
BRANCH  73  74
ATOM     74  O   UNL     1      12.601   4.666   9.440  1.00  0.00    -0.460 OA
BRANCH  74  75
ATOM     75  C   UNL     1      12.464   3.537   8.702  1.00  0.00     0.338 C 
ATOM     76  O   UNL     1      12.939   3.314   7.603  1.00  0.00    -0.246 OA
BRANCH  75  77
ATOM     77  C   UNL     1      11.780   2.513   9.526  1.00  0.00     0.060 A 
ATOM     78  C   UNL     1      12.009   1.165   9.216  1.00  0.00     0.017 A 
ATOM     79  C   UNL     1      10.969   2.857  10.617  1.00  0.00     0.017 A 
ATOM     80  C   UNL     1      11.378   0.165   9.950  1.00  0.00     0.022 A 
ATOM     81  C   UNL     1      10.350   1.858  11.365  1.00  0.00     0.022 A 
ATOM     82  C   UNL     1      10.521   0.521  10.995  1.00  0.00     0.082 A 
BRANCH  82  83
ATOM     83  S   UNL     1       9.526  -0.732  11.752  1.00  0.00     0.240 S 
ATOM     84  O   UNL     1       9.491  -1.873  10.870  1.00  0.00    -0.207 OA
ATOM     85  O   UNL     1       9.934  -0.841  13.134  1.00  0.00    -0.207 OA
BRANCH  83  86
ATOM     86  N   UNL     1       7.976  -0.076  11.782  1.00  0.00    -0.211 NA
ATOM     87  H   UNL     1       7.977   0.594  12.551  1.00  0.00     0.141 HD
BRANCH  86  88
ATOM     88  C   UNL     1       7.342   0.619  10.658  1.00  0.00     0.103 C 
BRANCH  88  89
ATOM     89  C   UNL     1       6.850  -0.245   9.504  1.00  0.00     0.020 C 
ATOM     90  C   UNL     1       7.866  -0.418   8.366  1.00  0.00     0.022 C 
ATOM     91  C   UNL     1       6.360  -1.645   9.874  1.00  0.00     0.142 C 
ATOM     92  C   UNL     1       7.220  -1.360   7.355  1.00  0.00     0.137 C 
ATOM     93  S   UNL     1       6.246  -2.511   8.315  1.00  0.00     0.150 S 
ATOM     94  O   UNL     1       4.872  -2.437   7.860  1.00  0.00    -0.229 OA
ATOM     95  O   UNL     1       6.953  -3.770   8.415  1.00  0.00    -0.229 OA
ENDBRANCH  88  89
ENDBRANCH  86  88
ENDBRANCH  83  86
ENDBRANCH  82  83
ENDBRANCH  75  77
ENDBRANCH  74  75
ENDBRANCH  73  74
ENDBRANCH   1  73
TORSDOF 21
