REMARK SMILES O=C(OCCOCCOC(=O)c1cccc(Oc2ncc([N+](=O)[O-])cc2Br)c1)c1ccc(-c2c3nc(c(-c4cc(S(=O)(=O)[O-])ccc4F)c4ccc([nH]4)c(-c4cc(S(=O)(=O)[O-])ccc4F)c4nc(c(-c5cc(S(=O)(=O)[O-])ccc5F)c5ccc2[nH]5)C=C4)C=C3)cc1
REMARK SMILES IDX 6 1 5 2 4 3 3 4 2 5 1 6 29 7 30 8 91 9 31 10 90 11 32 12
REMARK SMILES IDX 33 13 34 14 84 15 35 16 89 17 83 18 85 19 36 20 88 21 82 22
REMARK SMILES IDX 81 23 37 25 69 26 49 27 68 28 50 29 53 30 67 31 86 32 51 33
REMARK SMILES IDX 52 34 66 36 87 37 54 38 38 39 39 40 47 41 40 42 46 43 48 44
REMARK SMILES IDX 45 45 41 46 42 47 43 48 44 49 70 50 71 51 79 52 72 53 78 54
REMARK SMILES IDX 80 55 77 56 73 57 74 58 75 59 76 60 55 61 56 62 64 63 57 64
REMARK SMILES IDX 63 65 65 66 62 67 58 68 59 69 60 70 61 71 7 72 8 73 9 74
REMARK SMILES IDX 10 75 11 76 12 77 13 78 28 79 14 80 16 81 15 82 17 83 18 84
REMARK SMILES IDX 19 85 26 86 20 87 25 88 27 89 21 90 22 91 23 92 24 93
REMARK H PARENT 85 24 53 35
REMARK Flexibility Score: inf
ROOT
ATOM      1  O   UNL     1       3.957   1.140   1.051  1.00  0.00    -0.374 OA
ENDROOT
BRANCH   1   2
ATOM      2  C   UNL     1       4.224   1.487  -0.305  1.00  0.00     0.202 C 
BRANCH   2   3
ATOM      3  C   UNL     1       3.902   0.390  -1.323  1.00  0.00     0.261 C 
BRANCH   3   4
ATOM      4  O   UNL     1       2.522   0.000  -1.215  1.00  0.00    -0.460 OA
BRANCH   4   5
ATOM      5  C   UNL     1       2.022  -1.098  -0.596  1.00  0.00     0.338 C 
ATOM      6  O   UNL     1       0.807  -1.284  -0.610  1.00  0.00    -0.246 OA
BRANCH   5   7
ATOM      7  C   UNL     1       2.881  -2.091   0.114  1.00  0.00     0.060 A 
ATOM      8  C   UNL     1       4.082  -1.769   0.738  1.00  0.00     0.016 A 
ATOM      9  C   UNL     1       2.412  -3.408   0.239  1.00  0.00     0.016 A 
ATOM     10  C   UNL     1       4.835  -2.700   1.410  1.00  0.00     0.010 A 
ATOM     11  C   UNL     1       3.140  -4.355   0.971  1.00  0.00     0.010 A 
ATOM     12  C   UNL     1       4.356  -3.990   1.559  1.00  0.00    -0.014 A 
BRANCH  12  13
ATOM     13  C   UNL     1       5.256  -4.912   2.263  1.00  0.00     0.031 A 
ATOM     14  C   UNL     1       6.037  -5.886   1.445  1.00  0.00     0.074 A 
ATOM     15  C   UNL     1       5.527  -4.675   3.562  1.00  0.00     0.049 A 
ATOM     16  N   UNL     1       6.899  -6.781   1.833  1.00  0.00    -0.248 NA
ATOM     17  C   UNL     1       5.836  -5.828  -0.014  1.00  0.00     0.031 C 
ATOM     18  C   UNL     1       4.928  -3.599   4.365  1.00  0.00     0.029 A 
ATOM     19  N   UNL     1       6.412  -5.267   4.419  1.00  0.00    -0.354 N 
ATOM     20  C   UNL     1       7.330  -7.409   0.673  1.00  0.00     0.074 A 
ATOM     21  C   UNL     1       6.623  -6.805  -0.434  1.00  0.00     0.031 C 
ATOM     22  C   UNL     1       5.488  -3.593   5.583  1.00  0.00     0.029 A 
ATOM     23  C   UNL     1       6.403  -4.721   5.682  1.00  0.00     0.049 A 
ATOM     24  H   UNL     1       6.999  -6.013   4.158  1.00  0.00     0.167 HD
ATOM     25  C   UNL     1       8.237  -8.406   0.562  1.00  0.00     0.034 A 
ATOM     26  C   UNL     1       7.028  -5.133   6.801  1.00  0.00     0.034 A 
ATOM     27  C   UNL     1       8.901  -8.975   1.706  1.00  0.00     0.049 A 
ATOM     28  C   UNL     1       7.912  -6.349   6.671  1.00  0.00     0.074 A 
ATOM     29  C   UNL     1       9.753 -10.059   1.764  1.00  0.00     0.029 A 
ATOM     30  N   UNL     1       8.780  -8.489   3.006  1.00  0.00    -0.354 N 
ATOM     31  N   UNL     1       8.228  -7.027   5.588  1.00  0.00    -0.248 NA
ATOM     32  C   UNL     1       8.514  -6.862   7.903  1.00  0.00     0.031 C 
ATOM     33  C   UNL     1      10.092 -10.270   3.105  1.00  0.00     0.029 A 
ATOM     34  C   UNL     1       9.523  -9.266   3.876  1.00  0.00     0.049 A 
ATOM     35  H   UNL     1       8.243  -7.706   3.267  1.00  0.00     0.167 HD
ATOM     36  C   UNL     1       9.084  -8.037   6.009  1.00  0.00     0.074 A 
ATOM     37  C   UNL     1       9.264  -7.849   7.436  1.00  0.00     0.031 C 
ATOM     38  C   UNL     1       9.664  -9.038   5.296  1.00  0.00     0.034 A 
BRANCH  25  39
ATOM     39  C   UNL     1       8.455  -8.983  -0.811  1.00  0.00     0.023 A 
ATOM     40  C   UNL     1       9.027  -8.232  -1.853  1.00  0.00     0.031 A 
ATOM     41  C   UNL     1       8.004 -10.282  -1.103  1.00  0.00     0.131 A 
ATOM     42  C   UNL     1       9.071  -8.761  -3.152  1.00  0.00     0.055 A 
ATOM     43  C   UNL     1       8.123 -10.832  -2.380  1.00  0.00     0.041 A 
ATOM     44  F   UNL     1       7.412 -11.029  -0.158  1.00  0.00    -0.206 F 
ATOM     45  C   UNL     1       8.648 -10.066  -3.417  1.00  0.00     0.022 A 
BRANCH  42  46
ATOM     46  S   UNL     1       9.553  -7.671  -4.520  1.00  0.00     0.124 S 
ATOM     47  O   UNL     1       8.503  -6.657  -4.472  1.00  0.00    -0.237 OA
ATOM     48  O   UNL     1      10.884  -7.230  -4.121  1.00  0.00    -0.237 OA
ATOM     49  O   UNL     1       9.511  -8.548  -5.688  1.00  0.00    -0.744 OA
ENDBRANCH  42  46
ENDBRANCH  25  39
BRANCH  26  50
ATOM     50  C   UNL     1       6.763  -4.493   8.126  1.00  0.00     0.023 A 
ATOM     51  C   UNL     1       7.806  -4.014   8.933  1.00  0.00     0.031 A 
ATOM     52  C   UNL     1       5.457  -4.446   8.655  1.00  0.00     0.131 A 
ATOM     53  C   UNL     1       7.538  -3.583  10.244  1.00  0.00     0.055 A 
ATOM     54  C   UNL     1       5.187  -3.943   9.929  1.00  0.00     0.041 A 
ATOM     55  F   UNL     1       4.413  -4.900   7.943  1.00  0.00    -0.206 F 
ATOM     56  C   UNL     1       6.235  -3.530  10.742  1.00  0.00     0.022 A 
BRANCH  53  57
ATOM     57  S   UNL     1       8.938  -3.238  11.347  1.00  0.00     0.124 S 
ATOM     58  O   UNL     1       9.702  -4.477  11.252  1.00  0.00    -0.237 OA
ATOM     59  O   UNL     1       9.537  -2.066  10.718  1.00  0.00    -0.237 OA
ATOM     60  O   UNL     1       8.301  -2.994  12.639  1.00  0.00    -0.744 OA
ENDBRANCH  53  57
ENDBRANCH  26  50
BRANCH  38  61
ATOM     61  C   UNL     1      10.571  -9.962   6.064  1.00  0.00     0.023 A 
ATOM     62  C   UNL     1      10.076 -10.796   7.081  1.00  0.00     0.031 A 
ATOM     63  C   UNL     1      11.950  -9.985   5.794  1.00  0.00     0.131 A 
ATOM     64  C   UNL     1      10.967 -11.558   7.847  1.00  0.00     0.055 A 
ATOM     65  C   UNL     1      12.820 -10.810   6.504  1.00  0.00     0.041 A 
ATOM     66  F   UNL     1      12.472  -9.205   4.833  1.00  0.00    -0.206 F 
ATOM     67  C   UNL     1      12.332 -11.588   7.551  1.00  0.00     0.022 A 
BRANCH  64  68
ATOM     68  S   UNL     1      10.332 -12.402   9.319  1.00  0.00     0.124 S 
ATOM     69  O   UNL     1       9.762 -11.296  10.079  1.00  0.00    -0.237 OA
ATOM     70  O   UNL     1       9.374 -13.344   8.749  1.00  0.00    -0.237 OA
ATOM     71  O   UNL     1      11.525 -13.010   9.905  1.00  0.00    -0.744 OA
ENDBRANCH  64  68
ENDBRANCH  38  61
ENDBRANCH  12  13
ENDBRANCH   5   7
ENDBRANCH   4   5
ENDBRANCH   3   4
ENDBRANCH   2   3
ENDBRANCH   1   2
BRANCH   1  72
ATOM     72  C   UNL     1       2.628   1.327   1.540  1.00  0.00     0.202 C 
BRANCH  72  73
ATOM     73  C   UNL     1       2.704   2.106   2.855  1.00  0.00     0.261 C 
BRANCH  73  74
ATOM     74  O   UNL     1       3.230   3.404   2.555  1.00  0.00    -0.460 OA
BRANCH  74  75
ATOM     75  C   UNL     1       4.571   3.438   2.335  1.00  0.00     0.338 C 
ATOM     76  O   UNL     1       5.424   2.720   2.833  1.00  0.00    -0.246 OA
BRANCH  75  77
ATOM     77  C   UNL     1       4.844   4.461   1.302  1.00  0.00     0.063 A 
ATOM     78  C   UNL     1       6.021   4.445   0.555  1.00  0.00     0.016 A 
ATOM     79  C   UNL     1       3.948   5.510   1.155  1.00  0.00     0.062 A 
ATOM     80  C   UNL     1       6.319   5.529  -0.276  1.00  0.00     0.005 A 
ATOM     81  C   UNL     1       4.368   6.689   0.554  1.00  0.00     0.130 A 
ATOM     82  C   UNL     1       5.520   6.679  -0.232  1.00  0.00     0.047 A 
BRANCH  81  83
ATOM     83  O   UNL     1       3.765   7.906   0.836  1.00  0.00    -0.438 OA
BRANCH  83  84
ATOM     84  C   UNL     1       2.892   7.907   1.918  1.00  0.00     0.234 A 
ATOM     85  N   UNL     1       1.588   8.029   1.561  1.00  0.00    -0.214 NA
ATOM     86  C   UNL     1       3.295   7.589   3.230  1.00  0.00     0.087 A 
ATOM     87  C   UNL     1       0.655   7.741   2.502  1.00  0.00     0.200 A 
ATOM     88  C   UNL     1       2.314   7.242   4.165  1.00  0.00     0.108 A 
ATOM     89  Br  UNL     1       5.109   7.498   3.781  1.00  0.00    -0.045 Br
ATOM     90  C   UNL     1       0.973   7.314   3.783  1.00  0.00     0.288 A 
BRANCH  90  91
ATOM     91  N   UNL     1      -0.094   6.939   4.700  1.00  0.00     0.064 N 
ATOM     92  O   UNL     1      -1.258   7.189   4.357  1.00  0.00    -0.258 OA
ATOM     93  O   UNL     1       0.227   6.399   5.766  1.00  0.00    -0.258 OA
ENDBRANCH  90  91
ENDBRANCH  83  84
ENDBRANCH  81  83
ENDBRANCH  75  77
ENDBRANCH  74  75
ENDBRANCH  73  74
ENDBRANCH  72  73
ENDBRANCH   1  72
TORSDOF 20
