REMARK SMILES CC1(C)O[C@@H]2C[C@H]3[C@H]4CCC5=CC(=O)C=C[C@@]5(C)[C@]4(F)[C@H](O)C[C@]3(C)[C@]2(C(=O)OCCOCCOC(=O)c2ccc(-c3c4nc(c(-c5cc(S(=O)(=O)[O-])ccc5F)c5ccc([nH]5)c(-c5cc(S(=O)(=O)[O-])ccc5F)c5nc(c(-c6cc(S(=O)(=O)[O-])ccc6F)c6ccc3[nH]6)C=C5)C=C4)cc2)O1
REMARK SMILES IDX 33 1 32 2 31 3 30 4 29 5 27 6 28 7 26 8 1 9 2 10 4 11 101 12
REMARK SMILES IDX 3 13 5 14 6 15 24 16 7 17 23 18 25 19 8 20 21 21 9 22 19 23
REMARK SMILES IDX 10 24 17 25 20 26 11 27 16 28 18 29 12 30 15 31 13 32 14 33
REMARK SMILES IDX 22 34 34 36 35 37 36 38 37 39 38 40 39 41 100 42 40 43 99 44
REMARK SMILES IDX 41 45 42 46 43 47 93 48 44 49 98 50 92 51 94 52 45 53 97 54
REMARK SMILES IDX 91 55 90 56 46 58 78 59 58 60 77 61 59 62 62 63 76 64 95 65
REMARK SMILES IDX 60 66 61 67 75 69 96 70 63 71 47 72 48 73 56 74 49 75 55 76
REMARK SMILES IDX 57 77 54 78 50 79 51 80 52 81 53 82 79 83 80 84 88 85 81 86
REMARK SMILES IDX 87 87 89 88 86 89 82 90 83 91 84 92 85 93 64 94 65 95 73 96
REMARK SMILES IDX 66 97 72 98 74 99 71 100 67 101 68 102 69 103 70 104
REMARK H PARENT 22 35 94 57 62 68
REMARK Flexibility Score: inf
ROOT
ATOM      1  C   UNL     1      -4.373  -2.812   2.998  1.00  0.00     0.202 C 
ENDROOT
BRANCH   1   2
ATOM      2  O   UNL     1      -4.923  -3.490   1.879  1.00  0.00    -0.374 OA
BRANCH   2   3
ATOM      3  C   UNL     1      -4.061  -3.733   0.767  1.00  0.00     0.202 C 
BRANCH   3   4
ATOM      4  C   UNL     1      -3.436  -2.542   0.022  1.00  0.00     0.261 C 
BRANCH   4   5
ATOM      5  O   UNL     1      -2.671  -1.665   0.870  1.00  0.00    -0.461 OA
BRANCH   5   6
ATOM      6  C   UNL     1      -2.999  -0.336   0.846  1.00  0.00     0.341 C 
ATOM      7  O   UNL     1      -3.884   0.149   0.153  1.00  0.00    -0.249 OA
BRANCH   6   8
ATOM      8  C   UNL     1      -2.115   0.483   1.812  1.00  0.00     0.200 C 
ATOM      9  C   UNL     1       0.372  -0.311  -0.127  1.00  0.00     0.075 C 
ATOM     10  C   UNL     1       0.113   0.493   1.143  1.00  0.00     0.165 C 
ATOM     11  O   UNL     1      -0.382   1.774   0.745  1.00  0.00    -0.344 OA
ATOM     12  O   UNL     1      -0.842  -0.180   1.989  1.00  0.00    -0.329 OA
ATOM     13  C   UNL     1       1.413   0.681   1.933  1.00  0.00     0.075 C 
ATOM     14  C   UNL     1      -1.742   1.875   1.183  1.00  0.00     0.166 C 
ATOM     15  C   UNL     1      -1.780   2.945   2.333  1.00  0.00     0.040 C 
ATOM     16  C   UNL     1      -2.739   0.926   3.224  1.00  0.00     0.016 C 
ATOM     17  C   UNL     1      -1.688   2.032   3.540  1.00  0.00     0.008 C 
ATOM     18  C   UNL     1      -2.878  -0.004   4.437  1.00  0.00     0.046 C 
ATOM     19  C   UNL     1      -4.197   1.401   2.950  1.00  0.00     0.015 C 
ATOM     20  C   UNL     1      -0.951   2.229   4.880  1.00  0.00     0.035 C 
ATOM     21  C   UNL     1      -1.711  -0.110   5.404  1.00  0.00     0.154 C 
ATOM     22  C   UNL     1      -0.704   3.649   5.357  1.00  0.00     0.012 C 
ATOM     23  C   UNL     1      -1.408   1.293   6.006  1.00  0.00     0.152 C 
ATOM     24  C   UNL     1       0.456   3.609   6.363  1.00  0.00     0.032 C 
ATOM     25  C   UNL     1      -0.381   1.277   7.209  1.00  0.00     0.044 C 
ATOM     26  F   UNL     1      -2.595   1.809   6.475  1.00  0.00    -0.239 F 
ATOM     27  C   UNL     1       0.213   2.662   7.513  1.00  0.00    -0.053 C 
ATOM     28  C   UNL     1      -1.045   0.743   8.480  1.00  0.00    -0.009 C 
ATOM     29  C   UNL     1       0.818   0.320   6.933  1.00  0.00     0.024 C 
ATOM     30  C   UNL     1       0.596   2.990   8.763  1.00  0.00     0.052 C 
ATOM     31  C   UNL     1      -0.483   0.899   9.687  1.00  0.00     0.048 C 
ATOM     32  C   UNL     1       0.451   2.030   9.888  1.00  0.00     0.178 C 
ATOM     33  O   UNL     1       0.976   2.240  10.974  1.00  0.00    -0.290 OA
BRANCH  21  34
ATOM     34  O   UNL     1      -0.602  -0.720   4.749  1.00  0.00    -0.390 OA
ATOM     35  H   UNL     1      -0.342  -0.183   3.985  1.00  0.00     0.211 HD
ENDBRANCH  21  34
ENDBRANCH   6   8
ENDBRANCH   5   6
ENDBRANCH   4   5
ENDBRANCH   3   4
ENDBRANCH   2   3
ENDBRANCH   1   2
BRANCH   1  36
ATOM     36  C   UNL     1      -3.365  -3.531   3.916  1.00  0.00     0.261 C 
BRANCH  36  37
ATOM     37  O   UNL     1      -2.454  -4.377   3.241  1.00  0.00    -0.460 OA
BRANCH  37  38
ATOM     38  C   UNL     1      -2.823  -5.679   3.293  1.00  0.00     0.338 C 
ATOM     39  O   UNL     1      -3.792  -6.165   3.826  1.00  0.00    -0.246 OA
BRANCH  38  40
ATOM     40  C   UNL     1      -1.895  -6.399   2.422  1.00  0.00     0.060 A 
ATOM     41  C   UNL     1      -2.439  -7.059   1.320  1.00  0.00     0.016 A 
ATOM     42  C   UNL     1      -0.525  -6.404   2.695  1.00  0.00     0.016 A 
ATOM     43  C   UNL     1      -1.602  -7.786   0.495  1.00  0.00     0.010 A 
ATOM     44  C   UNL     1       0.313  -7.137   1.868  1.00  0.00     0.010 A 
ATOM     45  C   UNL     1      -0.235  -7.859   0.795  1.00  0.00    -0.014 A 
BRANCH  45  46
ATOM     46  C   UNL     1       0.590  -8.845   0.082  1.00  0.00     0.031 A 
ATOM     47  C   UNL     1       0.887 -10.142   0.771  1.00  0.00     0.074 A 
ATOM     48  C   UNL     1       1.007  -8.581  -1.166  1.00  0.00     0.049 A 
ATOM     49  N   UNL     1       1.605 -11.150   0.360  1.00  0.00    -0.248 NA
ATOM     50  C   UNL     1       0.299 -10.322   2.110  1.00  0.00     0.031 C 
ATOM     51  C   UNL     1       0.712  -7.356  -1.911  1.00  0.00     0.029 A 
ATOM     52  N   UNL     1       1.764  -9.327  -2.025  1.00  0.00    -0.354 N 
ATOM     53  C   UNL     1       1.561 -12.083   1.390  1.00  0.00     0.074 A 
ATOM     54  C   UNL     1       0.784 -11.502   2.462  1.00  0.00     0.031 C 
ATOM     55  C   UNL     1       1.285  -7.437  -3.123  1.00  0.00     0.029 A 
ATOM     56  C   UNL     1       2.023  -8.693  -3.215  1.00  0.00     0.049 A 
ATOM     57  H   UNL     1       2.091 -10.230  -1.812  1.00  0.00     0.167 HD
ATOM     58  C   UNL     1       2.116 -13.317   1.421  1.00  0.00     0.034 A 
ATOM     59  C   UNL     1       2.797  -9.083  -4.245  1.00  0.00     0.034 A 
ATOM     60  C   UNL     1       2.896 -13.850   0.333  1.00  0.00     0.049 A 
ATOM     61  C   UNL     1       3.476 -10.427  -4.149  1.00  0.00     0.074 A 
ATOM     62  C   UNL     1       3.508 -15.085   0.233  1.00  0.00     0.029 A 
ATOM     63  N   UNL     1       3.183 -13.165  -0.844  1.00  0.00    -0.354 N 
ATOM     64  N   UNL     1       3.424 -11.312  -3.177  1.00  0.00    -0.248 NA
ATOM     65  C   UNL     1       4.306 -10.830  -5.288  1.00  0.00     0.031 C 
ATOM     66  C   UNL     1       4.232 -15.114  -0.963  1.00  0.00     0.029 A 
ATOM     67  C   UNL     1       3.996 -13.937  -1.657  1.00  0.00     0.049 A 
ATOM     68  H   UNL     1       2.857 -12.264  -1.066  1.00  0.00     0.167 HD
ATOM     69  C   UNL     1       4.192 -12.391  -3.604  1.00  0.00     0.074 A 
ATOM     70  C   UNL     1       4.676 -12.049  -4.928  1.00  0.00     0.031 C 
ATOM     71  C   UNL     1       4.472 -13.559  -2.969  1.00  0.00     0.034 A 
BRANCH  58  72
ATOM     72  C   UNL     1       1.948 -14.126   2.684  1.00  0.00     0.023 A 
ATOM     73  C   UNL     1       0.683 -14.534   3.146  1.00  0.00     0.031 A 
ATOM     74  C   UNL     1       3.070 -14.462   3.462  1.00  0.00     0.131 A 
ATOM     75  C   UNL     1       0.567 -15.193   4.380  1.00  0.00     0.055 A 
ATOM     76  C   UNL     1       2.955 -15.192   4.647  1.00  0.00     0.041 A 
ATOM     77  F   UNL     1       4.300 -14.072   3.092  1.00  0.00    -0.206 F 
ATOM     78  C   UNL     1       1.696 -15.550   5.119  1.00  0.00     0.022 A 
BRANCH  75  79
ATOM     79  S   UNL     1      -1.090 -15.448   5.075  1.00  0.00     0.124 S 
ATOM     80  O   UNL     1      -1.587 -14.076   5.163  1.00  0.00    -0.237 OA
ATOM     81  O   UNL     1      -1.726 -16.295   4.074  1.00  0.00    -0.237 OA
ATOM     82  O   UNL     1      -0.827 -16.090   6.361  1.00  0.00    -0.744 OA
ENDBRANCH  75  79
ENDBRANCH  58  72
BRANCH  59  83
ATOM     83  C   UNL     1       2.998  -8.190  -5.420  1.00  0.00     0.023 A 
ATOM     84  C   UNL     1       2.601  -8.582  -6.706  1.00  0.00     0.031 A 
ATOM     85  C   UNL     1       3.630  -6.940  -5.279  1.00  0.00     0.131 A 
ATOM     86  C   UNL     1       2.885  -7.759  -7.807  1.00  0.00     0.055 A 
ATOM     87  C   UNL     1       3.854  -6.097  -6.368  1.00  0.00     0.041 A 
ATOM     88  F   UNL     1       4.029  -6.512  -4.070  1.00  0.00    -0.206 F 
ATOM     89  C   UNL     1       3.494  -6.513  -7.645  1.00  0.00     0.022 A 
BRANCH  86  90
ATOM     90  S   UNL     1       2.536  -8.390  -9.471  1.00  0.00     0.124 S 
ATOM     91  O   UNL     1       3.306  -9.628  -9.485  1.00  0.00    -0.237 OA
ATOM     92  O   UNL     1       1.084  -8.536  -9.439  1.00  0.00    -0.237 OA
ATOM     93  O   UNL     1       3.035  -7.332 -10.346  1.00  0.00    -0.744 OA
ENDBRANCH  86  90
ENDBRANCH  59  83
BRANCH  71  94
ATOM     94  C   UNL     1       5.308 -14.560  -3.727  1.00  0.00     0.023 A 
ATOM     95  C   UNL     1       6.646 -14.300  -4.067  1.00  0.00     0.031 A 
ATOM     96  C   UNL     1       4.751 -15.790  -4.120  1.00  0.00     0.131 A 
ATOM     97  C   UNL     1       7.361 -15.226  -4.837  1.00  0.00     0.055 A 
ATOM     98  C   UNL     1       5.492 -16.741  -4.820  1.00  0.00     0.041 A 
ATOM     99  F   UNL     1       3.475 -16.090  -3.824  1.00  0.00    -0.206 F 
ATOM    100  C   UNL     1       6.801 -16.455  -5.197  1.00  0.00     0.022 A 
BRANCH  97 101
ATOM    101  S   UNL     1       8.996 -14.754  -5.462  1.00  0.00     0.124 S 
ATOM    102  O   UNL     1       8.690 -13.549  -6.226  1.00  0.00    -0.237 OA
ATOM    103  O   UNL     1       9.755 -14.555  -4.232  1.00  0.00    -0.237 OA
ATOM    104  O   UNL     1       9.403 -15.908  -6.262  1.00  0.00    -0.744 OA
ENDBRANCH  97 101
ENDBRANCH  71  94
ENDBRANCH  45  46
ENDBRANCH  38  40
ENDBRANCH  37  38
ENDBRANCH  36  37
ENDBRANCH   1  36
TORSDOF 18
