REMARK SMILES CN(CC(=O)N1C[C@@H](O)C[C@H]1C(=O)OCCOCCOC(=O)c1ccc(-c2c3nc(c(-c4cc(S(=O)(=O)[O-])ccc4F)c4ccc([nH]4)c(-c4cc(S(=O)(=O)[O-])ccc4F)c4nc(c(-c5cc(S(=O)(=O)[O-])ccc5F)c5ccc2[nH]5)C=C4)C=C3)cc1)C(=O)c1cccs1
REMARK SMILES IDX 16 1 15 2 14 3 12 4 13 5 11 6 6 7 7 8 8 9 10 10 4 11 5 12
REMARK SMILES IDX 3 13 2 14 1 15 86 16 87 17 88 18 89 19 92 20 90 21 91 22
REMARK SMILES IDX 9 23 17 25 18 26 19 27 20 28 21 29 22 30 23 31 24 32 85 33
REMARK SMILES IDX 25 34 84 35 26 36 27 37 28 38 78 39 29 40 83 41 77 42 79 43
REMARK SMILES IDX 30 44 82 45 76 46 75 47 31 49 63 50 43 51 62 52 44 53 47 54
REMARK SMILES IDX 61 55 80 56 45 57 46 58 60 60 81 61 48 62 32 63 33 64 41 65
REMARK SMILES IDX 34 66 40 67 42 68 39 69 35 70 36 71 37 72 38 73 64 74 65 75
REMARK SMILES IDX 73 76 66 77 72 78 74 79 71 80 67 81 68 82 69 83 70 84 49 85
REMARK SMILES IDX 50 86 58 87 51 88 57 89 59 90 56 91 52 92 53 93 54 94 55 95
REMARK H PARENT 9 24 79 48 47 59
REMARK Flexibility Score: inf
ROOT
ATOM      1  C   UNL     1      -5.952   2.312   4.369  1.00  0.00     0.202 C 
ENDROOT
BRANCH   1   2
ATOM      2  C   UNL     1      -5.890   0.978   3.612  1.00  0.00     0.261 C 
BRANCH   2   3
ATOM      3  O   UNL     1      -4.776   0.826   2.708  1.00  0.00    -0.462 OA
BRANCH   3   4
ATOM      4  C   UNL     1      -5.112   0.826   1.387  1.00  0.00     0.329 C 
ATOM      5  O   UNL     1      -6.252   0.987   0.957  1.00  0.00    -0.250 OA
BRANCH   4   6
ATOM      6  C   UNL     1      -3.969   0.407   0.453  1.00  0.00     0.197 C 
ATOM      7  N   UNL     1      -2.551   0.445   0.873  1.00  0.00    -0.325 N 
ATOM      8  C   UNL     1      -2.058  -0.910   1.035  1.00  0.00     0.152 C 
ATOM      9  C   UNL     1      -2.858  -1.695   0.002  1.00  0.00     0.136 C 
ATOM     10  C   UNL     1      -4.239  -1.071   0.110  1.00  0.00     0.070 C 
BRANCH   7  11
ATOM     11  C   UNL     1      -1.860   1.634   0.794  1.00  0.00     0.243 C 
ATOM     12  O   UNL     1      -2.500   2.689   0.668  1.00  0.00    -0.273 OA
BRANCH  11  13
ATOM     13  C   UNL     1      -0.314   1.726   0.629  1.00  0.00     0.219 C 
BRANCH  13  14
ATOM     14  N   UNL     1       0.603   0.653   1.002  1.00  0.00    -0.332 N 
ATOM     15  C   UNL     1       1.103  -0.170  -0.097  1.00  0.00     0.147 C 
BRANCH  14  16
ATOM     16  C   UNL     1       1.260   0.494   2.238  1.00  0.00     0.264 C 
ATOM     17  O   UNL     1       2.022  -0.469   2.367  1.00  0.00    -0.268 OA
BRANCH  16  18
ATOM     18  C   UNL     1       1.100   1.476   3.312  1.00  0.00     0.092 A 
ATOM     19  C   UNL     1       0.073   2.330   3.668  1.00  0.00     0.025 A 
ATOM     20  S   UNL     1       2.414   1.644   4.425  1.00  0.00    -0.139 S 
ATOM     21  C   UNL     1       0.401   3.179   4.768  1.00  0.00     0.012 A 
ATOM     22  C   UNL     1       1.637   2.888   5.292  1.00  0.00     0.065 A 
ENDBRANCH  16  18
ENDBRANCH  14  16
ENDBRANCH  13  14
ENDBRANCH  11  13
ENDBRANCH   7  11
BRANCH   9  23
ATOM     23  O   UNL     1      -2.888  -3.087   0.242  1.00  0.00    -0.391 OA
ATOM     24  H   UNL     1      -3.268  -3.256   1.119  1.00  0.00     0.211 HD
ENDBRANCH   9  23
ENDBRANCH   4   6
ENDBRANCH   3   4
ENDBRANCH   2   3
ENDBRANCH   1   2
BRANCH   1  25
ATOM     25  O   UNL     1      -5.867   3.512   3.609  1.00  0.00    -0.374 OA
BRANCH  25  26
ATOM     26  C   UNL     1      -4.636   3.791   2.947  1.00  0.00     0.202 C 
BRANCH  26  27
ATOM     27  C   UNL     1      -3.388   3.973   3.819  1.00  0.00     0.261 C 
BRANCH  27  28
ATOM     28  O   UNL     1      -3.089   2.835   4.651  1.00  0.00    -0.460 OA
BRANCH  28  29
ATOM     29  C   UNL     1      -2.899   3.147   5.960  1.00  0.00     0.338 C 
ATOM     30  O   UNL     1      -2.863   4.279   6.432  1.00  0.00    -0.246 OA
BRANCH  29  31
ATOM     31  C   UNL     1      -2.842   1.958   6.831  1.00  0.00     0.060 A 
ATOM     32  C   UNL     1      -3.695   1.949   7.938  1.00  0.00     0.016 A 
ATOM     33  C   UNL     1      -1.867   0.968   6.688  1.00  0.00     0.016 A 
ATOM     34  C   UNL     1      -3.527   0.996   8.943  1.00  0.00     0.010 A 
ATOM     35  C   UNL     1      -1.693   0.015   7.703  1.00  0.00     0.010 A 
ATOM     36  C   UNL     1      -2.494   0.053   8.855  1.00  0.00    -0.014 A 
BRANCH  36  37
ATOM     37  C   UNL     1      -2.221  -0.807  10.034  1.00  0.00     0.031 A 
ATOM     38  C   UNL     1      -1.172  -0.398  11.033  1.00  0.00     0.074 A 
ATOM     39  C   UNL     1      -2.968  -1.904  10.249  1.00  0.00     0.049 A 
ATOM     40  N   UNL     1      -0.902  -0.908  12.207  1.00  0.00    -0.248 NA
ATOM     41  C   UNL     1      -0.313   0.734  10.655  1.00  0.00     0.031 C 
ATOM     42  C   UNL     1      -4.006  -2.403   9.348  1.00  0.00     0.029 A 
ATOM     43  N   UNL     1      -2.978  -2.787  11.299  1.00  0.00    -0.354 N 
ATOM     44  C   UNL     1       0.142  -0.147  12.723  1.00  0.00     0.074 A 
ATOM     45  C   UNL     1       0.489   0.826  11.707  1.00  0.00     0.031 C 
ATOM     46  C   UNL     1      -4.558  -3.503   9.887  1.00  0.00     0.029 A 
ATOM     47  C   UNL     1      -3.912  -3.786  11.168  1.00  0.00     0.049 A 
ATOM     48  H   UNL     1      -2.375  -2.711  12.073  1.00  0.00     0.167 HD
ATOM     49  C   UNL     1       0.744  -0.242  13.936  1.00  0.00     0.034 A 
ATOM     50  C   UNL     1      -4.220  -4.808  11.990  1.00  0.00     0.034 A 
ATOM     51  C   UNL     1       0.404  -1.237  14.927  1.00  0.00     0.049 A 
ATOM     52  C   UNL     1      -3.526  -4.909  13.324  1.00  0.00     0.074 A 
ATOM     53  C   UNL     1       0.925  -1.404  16.200  1.00  0.00     0.029 A 
ATOM     54  N   UNL     1      -0.530  -2.249  14.749  1.00  0.00    -0.354 N 
ATOM     55  N   UNL     1      -2.592  -4.137  13.831  1.00  0.00    -0.248 NA
ATOM     56  C   UNL     1      -3.950  -6.002  14.208  1.00  0.00     0.031 C 
ATOM     57  C   UNL     1       0.354  -2.552  16.763  1.00  0.00     0.029 A 
ATOM     58  C   UNL     1      -0.577  -3.063  15.873  1.00  0.00     0.049 A 
ATOM     59  H   UNL     1      -1.081  -2.372  13.942  1.00  0.00     0.167 HD
ATOM     60  C   UNL     1      -2.337  -4.637  15.105  1.00  0.00     0.074 A 
ATOM     61  C   UNL     1      -3.228  -5.765  15.293  1.00  0.00     0.031 C 
ATOM     62  C   UNL     1      -1.454  -4.199  16.039  1.00  0.00     0.034 A 
BRANCH  49  63
ATOM     63  C   UNL     1       1.859   0.733  14.236  1.00  0.00     0.023 A 
ATOM     64  C   UNL     1       1.625   2.116  14.336  1.00  0.00     0.031 A 
ATOM     65  C   UNL     1       3.178   0.276  14.405  1.00  0.00     0.131 A 
ATOM     66  C   UNL     1       2.700   2.998  14.533  1.00  0.00     0.055 A 
ATOM     67  C   UNL     1       4.233   1.152  14.671  1.00  0.00     0.041 A 
ATOM     68  F   UNL     1       3.467  -1.031  14.303  1.00  0.00    -0.206 F 
ATOM     69  C   UNL     1       4.000   2.523  14.723  1.00  0.00     0.022 A 
BRANCH  66  70
ATOM     70  S   UNL     1       2.397   4.782  14.408  1.00  0.00     0.124 S 
ATOM     71  O   UNL     1       1.852   4.896  13.057  1.00  0.00    -0.237 OA
ATOM     72  O   UNL     1       1.460   5.020  15.499  1.00  0.00    -0.237 OA
ATOM     73  O   UNL     1       3.724   5.369  14.586  1.00  0.00    -0.744 OA
ENDBRANCH  66  70
ENDBRANCH  49  63
BRANCH  50  74
ATOM     74  C   UNL     1      -5.236  -5.814  11.577  1.00  0.00     0.023 A 
ATOM     75  C   UNL     1      -6.470  -5.923  12.236  1.00  0.00     0.031 A 
ATOM     76  C   UNL     1      -4.971  -6.698  10.516  1.00  0.00     0.131 A 
ATOM     77  C   UNL     1      -7.381  -6.918  11.850  1.00  0.00     0.055 A 
ATOM     78  C   UNL     1      -5.896  -7.660  10.110  1.00  0.00     0.041 A 
ATOM     79  F   UNL     1      -3.808  -6.626   9.848  1.00  0.00    -0.206 F 
ATOM     80  C   UNL     1      -7.106  -7.780  10.785  1.00  0.00     0.022 A 
BRANCH  77  81
ATOM     81  S   UNL     1      -8.915  -7.109  12.798  1.00  0.00     0.124 S 
ATOM     82  O   UNL     1      -8.407  -7.364  14.141  1.00  0.00    -0.237 OA
ATOM     83  O   UNL     1      -9.560  -5.816  12.590  1.00  0.00    -0.237 OA
ATOM     84  O   UNL     1      -9.575  -8.242  12.153  1.00  0.00    -0.744 OA
ENDBRANCH  77  81
ENDBRANCH  50  74
BRANCH  62  85
ATOM     85  C   UNL     1      -1.438  -4.933  17.358  1.00  0.00     0.023 A 
ATOM     86  C   UNL     1      -1.006  -6.267  17.456  1.00  0.00     0.031 A 
ATOM     87  C   UNL     1      -1.892  -4.297  18.527  1.00  0.00     0.131 A 
ATOM     88  C   UNL     1      -1.097  -6.943  18.683  1.00  0.00     0.055 A 
ATOM     89  C   UNL     1      -1.926  -4.956  19.757  1.00  0.00     0.041 A 
ATOM     90  F   UNL     1      -2.317  -3.023  18.492  1.00  0.00    -0.206 F 
ATOM     91  C   UNL     1      -1.542  -6.292  19.836  1.00  0.00     0.022 A 
BRANCH  88  92
ATOM     92  S   UNL     1      -0.726  -8.719  18.729  1.00  0.00     0.124 S 
ATOM     93  O   UNL     1      -1.649  -9.248  17.729  1.00  0.00    -0.237 OA
ATOM     94  O   UNL     1       0.688  -8.750  18.371  1.00  0.00    -0.237 OA
ATOM     95  O   UNL     1      -1.025  -9.096  20.109  1.00  0.00    -0.744 OA
ENDBRANCH  88  92
ENDBRANCH  62  85
ENDBRANCH  36  37
ENDBRANCH  29  31
ENDBRANCH  28  29
ENDBRANCH  27  28
ENDBRANCH  26  27
ENDBRANCH  25  26
ENDBRANCH   1  25
TORSDOF 23
