REMARK SMILES Cc1cc2n(n1)[C@H](C(F)(F)F)CCN2C(=O)c1cnn([C@@H](C)C(=O)OCCOCCOC(=O)c2ccc(-c3c4nc(c(-c5cc(S(=O)(=O)[O-])ccc5F)c5ccc([nH]5)c(-c5cc(S(=O)(=O)[O-])ccc5F)c5nc(c(-c6cc(S(=O)(=O)[O-])ccc6F)c6ccc3[nH]6)C=C5)C=C4)cc2)c1
REMARK SMILES IDX 27 1 26 2 25 3 23 4 24 5 21 6 22 7 20 8 17 9 18 10 97 11
REMARK SMILES IDX 19 12 15 13 16 14 14 15 1 16 2 17 3 18 6 19 4 20 5 21 7 22
REMARK SMILES IDX 13 23 12 24 8 25 9 26 10 27 11 28 28 29 29 30 30 31 31 32
REMARK SMILES IDX 32 33 33 34 34 35 35 36 96 37 36 38 95 39 37 40 38 41 39 42
REMARK SMILES IDX 89 43 40 44 94 45 88 46 90 47 41 48 93 49 87 50 86 51 42 53
REMARK SMILES IDX 74 54 54 55 73 56 55 57 58 58 72 59 91 60 56 61 57 62 71 64
REMARK SMILES IDX 92 65 59 66 43 67 44 68 52 69 45 70 51 71 53 72 50 73 46 74
REMARK SMILES IDX 47 75 48 76 49 77 75 78 76 79 84 80 77 81 83 82 85 83 82 84
REMARK SMILES IDX 78 85 79 86 80 87 81 88 60 89 61 90 69 91 62 92 68 93 70 94
REMARK SMILES IDX 67 95 63 96 64 97 65 98 66 99
REMARK H PARENT 90 52 58 63
REMARK Flexibility Score: inf
ROOT
ATOM      1  C   UNL     1      -1.655  -8.188  -9.772  1.00  0.00     0.202 C 
ENDROOT
BRANCH   1   2
ATOM      2  C   UNL     1      -2.480  -7.125 -10.496  1.00  0.00     0.261 C 
BRANCH   2   3
ATOM      3  O   UNL     1      -2.614  -5.920  -9.718  1.00  0.00    -0.462 OA
BRANCH   3   4
ATOM      4  C   UNL     1      -3.854  -5.660  -9.239  1.00  0.00     0.330 C 
ATOM      5  O   UNL     1      -4.845  -6.349  -9.475  1.00  0.00    -0.250 OA
BRANCH   4   6
ATOM      6  C   UNL     1      -3.970  -4.419  -8.387  1.00  0.00     0.213 C 
ATOM      7  C   UNL     1      -4.596  -3.301  -9.213  1.00  0.00     0.046 C 
BRANCH   6   8
ATOM      8  N   UNL     1      -2.765  -3.975  -7.680  1.00  0.00    -0.258 N 
ATOM      9  C   UNL     1      -1.514  -3.049  -6.092  1.00  0.00     0.078 A 
ATOM     10  C   UNL     1      -0.947  -2.930  -7.376  1.00  0.00     0.149 A 
ATOM     11  C   UNL     1      -2.660  -3.795  -6.319  1.00  0.00     0.123 A 
ATOM     12  N   UNL     1      -1.738  -3.405  -8.340  1.00  0.00    -0.180 NA
BRANCH   9  13
ATOM     13  C   UNL     1      -1.027  -2.593  -4.804  1.00  0.00     0.262 C 
ATOM     14  O   UNL     1      -0.916  -3.326  -3.837  1.00  0.00    -0.269 OA
BRANCH  13  15
ATOM     15  N   UNL     1      -0.822  -1.145  -4.711  1.00  0.00    -0.293 N 
ATOM     16  C   UNL     1       0.941  -0.094  -0.099  1.00  0.00     0.069 C 
ATOM     17  C   UNL     1       0.421  -0.062  -1.489  1.00  0.00     0.062 A 
ATOM     18  C   UNL     1       0.112  -1.153  -2.348  1.00  0.00     0.072 A 
ATOM     19  N   UNL     1       0.192   1.111  -2.089  1.00  0.00    -0.176 NA
ATOM     20  C   UNL     1      -0.352  -0.582  -3.512  1.00  0.00     0.134 A 
ATOM     21  N   UNL     1      -0.274   0.768  -3.292  1.00  0.00    -0.237 N 
ATOM     22  C   UNL     1      -0.618   1.783  -4.258  1.00  0.00     0.216 C 
ATOM     23  C   UNL     1      -1.324  -0.210  -5.750  1.00  0.00     0.130 C 
ATOM     24  C   UNL     1      -0.694   1.184  -5.667  1.00  0.00     0.059 C 
BRANCH  22  25
ATOM     25  C   UNL     1      -1.902   2.480  -3.867  1.00  0.00     0.410 C 
ATOM     26  F   UNL     1      -2.956   1.632  -3.920  1.00  0.00    -0.169 F 
ATOM     27  F   UNL     1      -1.874   3.041  -2.645  1.00  0.00    -0.169 F 
ATOM     28  F   UNL     1      -2.166   3.479  -4.749  1.00  0.00    -0.169 F 
ENDBRANCH  22  25
ENDBRANCH  13  15
ENDBRANCH   9  13
ENDBRANCH   6   8
ENDBRANCH   4   6
ENDBRANCH   3   4
ENDBRANCH   2   3
ENDBRANCH   1   2
BRANCH   1  29
ATOM     29  O   UNL     1      -2.198  -8.693  -8.554  1.00  0.00    -0.374 OA
BRANCH  29  30
ATOM     30  C   UNL     1      -2.166  -7.871  -7.393  1.00  0.00     0.202 C 
BRANCH  30  31
ATOM     31  C   UNL     1      -0.812  -7.551  -6.777  1.00  0.00     0.261 C 
BRANCH  31  32
ATOM     32  O   UNL     1       0.000  -6.723  -7.603  1.00  0.00    -0.460 OA
BRANCH  32  33
ATOM     33  C   UNL     1       1.097  -7.352  -8.095  1.00  0.00     0.338 C 
ATOM     34  O   UNL     1       1.212  -8.546  -8.313  1.00  0.00    -0.246 OA
BRANCH  33  35
ATOM     35  C   UNL     1       2.212  -6.395  -8.149  1.00  0.00     0.060 A 
ATOM     36  C   UNL     1       3.467  -6.897  -8.485  1.00  0.00     0.016 A 
ATOM     37  C   UNL     1       2.058  -5.086  -7.670  1.00  0.00     0.016 A 
ATOM     38  C   UNL     1       4.580  -6.130  -8.200  1.00  0.00     0.010 A 
ATOM     39  C   UNL     1       3.169  -4.319  -7.383  1.00  0.00     0.010 A 
ATOM     40  C   UNL     1       4.427  -4.870  -7.598  1.00  0.00    -0.014 A 
BRANCH  40  41
ATOM     41  C   UNL     1       5.613  -4.037  -7.468  1.00  0.00     0.031 A 
ATOM     42  C   UNL     1       6.106  -3.650  -8.805  1.00  0.00     0.074 A 
ATOM     43  C   UNL     1       6.159  -3.602  -6.314  1.00  0.00     0.049 A 
ATOM     44  N   UNL     1       7.035  -4.243  -9.476  1.00  0.00    -0.248 NA
ATOM     45  C   UNL     1       5.310  -2.703  -9.606  1.00  0.00     0.031 C 
ATOM     46  C   UNL     1       5.592  -3.729  -4.970  1.00  0.00     0.029 A 
ATOM     47  N   UNL     1       7.309  -2.890  -6.095  1.00  0.00    -0.354 N 
ATOM     48  C   UNL     1       7.187  -3.465 -10.614  1.00  0.00     0.074 A 
ATOM     49  C   UNL     1       5.939  -2.778 -10.782  1.00  0.00     0.031 C 
ATOM     50  C   UNL     1       6.282  -2.940  -4.113  1.00  0.00     0.029 A 
ATOM     51  C   UNL     1       7.426  -2.363  -4.807  1.00  0.00     0.049 A 
ATOM     52  H   UNL     1       7.997  -2.760  -6.788  1.00  0.00     0.167 HD
ATOM     53  C   UNL     1       8.446  -3.114 -10.992  1.00  0.00     0.034 A 
ATOM     54  C   UNL     1       8.387  -1.522  -4.333  1.00  0.00     0.034 A 
ATOM     55  C   UNL     1       9.418  -3.987 -10.361  1.00  0.00     0.049 A 
ATOM     56  C   UNL     1       9.603  -1.744  -5.146  1.00  0.00     0.074 A 
ATOM     57  C   UNL     1       9.823  -5.300 -10.463  1.00  0.00     0.029 A 
ATOM     58  N   UNL     1       9.856  -3.528  -9.145  1.00  0.00    -0.354 N 
ATOM     59  N   UNL     1      10.260  -2.871  -5.127  1.00  0.00    -0.248 NA
ATOM     60  C   UNL     1       9.897  -0.873  -6.279  1.00  0.00     0.031 C 
ATOM     61  C   UNL     1      10.435  -5.635  -9.215  1.00  0.00     0.029 A 
ATOM     62  C   UNL     1      10.443  -4.511  -8.395  1.00  0.00     0.049 A 
ATOM     63  H   UNL     1       9.760  -2.596  -8.846  1.00  0.00     0.167 HD
ATOM     64  C   UNL     1      10.692  -3.039  -6.426  1.00  0.00     0.074 A 
ATOM     65  C   UNL     1      10.601  -1.719  -7.036  1.00  0.00     0.031 C 
ATOM     66  C   UNL     1      10.731  -4.282  -6.989  1.00  0.00     0.034 A 
BRANCH  53  67
ATOM     67  C   UNL     1       8.847  -1.698 -11.398  1.00  0.00     0.023 A 
ATOM     68  C   UNL     1      10.220  -1.483 -11.633  1.00  0.00     0.031 A 
ATOM     69  C   UNL     1       8.067  -0.524 -11.259  1.00  0.00     0.131 A 
ATOM     70  C   UNL     1      10.768  -0.188 -11.610  1.00  0.00     0.055 A 
ATOM     71  C   UNL     1       8.611   0.763 -11.278  1.00  0.00     0.041 A 
ATOM     72  F   UNL     1       6.753  -0.536 -11.018  1.00  0.00    -0.206 F 
ATOM     73  C   UNL     1       9.973   0.937 -11.425  1.00  0.00     0.022 A 
BRANCH  70  74
ATOM     74  S   UNL     1      12.567  -0.013 -11.675  1.00  0.00     0.124 S 
ATOM     75  O   UNL     1      12.975  -0.777 -10.503  1.00  0.00    -0.237 OA
ATOM     76  O   UNL     1      12.874  -0.601 -12.975  1.00  0.00    -0.237 OA
ATOM     77  O   UNL     1      12.764   1.432 -11.584  1.00  0.00    -0.744 OA
ENDBRANCH  70  74
ENDBRANCH  53  67
BRANCH  54  78
ATOM     78  C   UNL     1       8.255  -0.389  -3.369  1.00  0.00     0.023 A 
ATOM     79  C   UNL     1       9.364   0.227  -2.737  1.00  0.00     0.031 A 
ATOM     80  C   UNL     1       7.021   0.291  -3.274  1.00  0.00     0.131 A 
ATOM     81  C   UNL     1       9.211   1.471  -2.074  1.00  0.00     0.055 A 
ATOM     82  C   UNL     1       6.880   1.520  -2.625  1.00  0.00     0.041 A 
ATOM     83  F   UNL     1       5.923  -0.173  -3.891  1.00  0.00    -0.206 F 
ATOM     84  C   UNL     1       7.978   2.123  -2.035  1.00  0.00     0.022 A 
BRANCH  81  85
ATOM     85  S   UNL     1      10.643   2.324  -1.323  1.00  0.00     0.124 S 
ATOM     86  O   UNL     1      10.940   1.476  -0.176  1.00  0.00    -0.237 OA
ATOM     87  O   UNL     1      11.616   2.321  -2.408  1.00  0.00    -0.237 OA
ATOM     88  O   UNL     1      10.110   3.645  -0.985  1.00  0.00    -0.744 OA
ENDBRANCH  81  85
ENDBRANCH  54  78
BRANCH  66  89
ATOM     89  C   UNL     1      11.011  -5.452  -6.081  1.00  0.00     0.023 A 
ATOM     90  C   UNL     1      10.235  -5.835  -4.966  1.00  0.00     0.031 A 
ATOM     91  C   UNL     1      12.159  -6.211  -6.369  1.00  0.00     0.131 A 
ATOM     92  C   UNL     1      10.634  -6.933  -4.178  1.00  0.00     0.055 A 
ATOM     93  C   UNL     1      12.540  -7.307  -5.600  1.00  0.00     0.041 A 
ATOM     94  F   UNL     1      12.940  -5.896  -7.417  1.00  0.00    -0.206 F 
ATOM     95  C   UNL     1      11.782  -7.667  -4.494  1.00  0.00     0.022 A 
BRANCH  92  96
ATOM     96  S   UNL     1       9.688  -7.400  -2.693  1.00  0.00     0.124 S 
ATOM     97  O   UNL     1       9.440  -6.127  -2.028  1.00  0.00    -0.237 OA
ATOM     98  O   UNL     1       8.515  -8.057  -3.264  1.00  0.00    -0.237 OA
ATOM     99  O   UNL     1      10.599  -8.296  -1.978  1.00  0.00    -0.744 OA
ENDBRANCH  92  96
ENDBRANCH  66  89
ENDBRANCH  40  41
ENDBRANCH  33  35
ENDBRANCH  32  33
ENDBRANCH  31  32
ENDBRANCH  30  31
ENDBRANCH  29  30
ENDBRANCH   1  29
TORSDOF 21
