REMARK SMILES C[C@H](CNC(=O)Cn1cccc1C(=O)OCCOCCOC(=O)c1ccc(-c2c3nc(c(-c4cc(S(=O)(=O)[O-])ccc4F)c4ccc([nH]4)c(-c4cc(S(=O)(=O)[O-])ccc4F)c4nc(c(-c5cc(S(=O)(=O)[O-])ccc5F)c5ccc2[nH]5)C=C4)C=C3)cc1)[NH+](C)C
REMARK SMILES IDX 17 1 16 2 15 3 13 4 14 5 12 6 8 7 9 8 10 9 11 10 7 11 5 12
REMARK SMILES IDX 4 13 6 15 3 16 2 17 1 18 87 19 88 20 89 21 18 23 19 24 20 25
REMARK SMILES IDX 21 26 22 27 23 28 24 29 25 30 86 31 26 32 85 33 27 34 28 35
REMARK SMILES IDX 29 36 79 37 30 38 84 39 78 40 80 41 31 42 83 43 77 44 76 45
REMARK SMILES IDX 32 47 64 48 44 49 63 50 45 51 48 52 62 53 81 54 46 55 47 56
REMARK SMILES IDX 61 58 82 59 49 60 33 61 34 62 42 63 35 64 41 65 43 66 40 67
REMARK SMILES IDX 36 68 37 69 38 70 39 71 65 72 66 73 74 74 67 75 73 76 75 77
REMARK SMILES IDX 72 78 68 79 69 80 70 81 71 82 50 83 51 84 59 85 52 86 58 87
REMARK SMILES IDX 60 88 57 89 53 90 54 91 55 92 56 93
REMARK H PARENT 4 14 87 22 80 46 48 57
REMARK Flexibility Score: inf
ROOT
ATOM      1  C   UNL     1       5.699  -1.115   5.339  1.00  0.00     0.202 C 
ENDROOT
BRANCH   1   2
ATOM      2  C   UNL     1       4.530  -1.778   4.609  1.00  0.00     0.261 C 
BRANCH   2   3
ATOM      3  O   UNL     1       4.001  -0.885   3.615  1.00  0.00    -0.459 OA
BRANCH   3   4
ATOM      4  C   UNL     1       2.700  -0.501   3.775  1.00  0.00     0.355 C 
ATOM      5  O   UNL     1       1.899  -1.026   4.519  1.00  0.00    -0.244 OA
BRANCH   4   6
ATOM      6  C   UNL     1       2.501   0.757   3.074  1.00  0.00     0.128 A 
ATOM      7  N   UNL     1       3.087   1.175   1.892  1.00  0.00    -0.333 N 
ATOM      8  C   UNL     1       2.863   2.520   1.722  1.00  0.00     0.087 A 
ATOM      9  C   UNL     1       1.991   2.936   2.703  1.00  0.00     0.020 A 
ATOM     10  C   UNL     1       1.732   1.821   3.529  1.00  0.00     0.035 A 
BRANCH   7  11
ATOM     11  C   UNL     1       3.862   0.332   0.992  1.00  0.00     0.222 C 
BRANCH  11  12
ATOM     12  C   UNL     1       3.577   0.498  -0.482  1.00  0.00     0.240 C 
ATOM     13  N   UNL     1       2.361   0.188  -1.012  1.00  0.00    -0.349 N 
ATOM     14  H   UNL     1       2.369   0.014  -1.981  1.00  0.00     0.163 HD
ATOM     15  O   UNL     1       4.473   0.811  -1.270  1.00  0.00    -0.273 OA
BRANCH  13  16
ATOM     16  C   UNL     1       1.049   0.070  -0.385  1.00  0.00     0.180 C 
BRANCH  16  17
ATOM     17  C   UNL     1       0.263   1.423  -0.332  1.00  0.00     0.199 C 
ATOM     18  C   UNL     1       0.689   2.403  -1.442  1.00  0.00     0.077 C 
BRANCH  17  19
ATOM     19  N   UNL     1      -1.206   1.235  -0.208  1.00  0.00    -0.336 N 
ATOM     20  C   UNL     1      -1.871   2.470   0.224  1.00  0.00     0.332 C 
ATOM     21  C   UNL     1      -1.848   0.727  -1.419  1.00  0.00     0.332 C 
ATOM     22  H   UNL     1      -1.317   0.516   0.507  1.00  0.00     0.347 HD
ENDBRANCH  17  19
ENDBRANCH  16  17
ENDBRANCH  13  16
ENDBRANCH  11  12
ENDBRANCH   7  11
ENDBRANCH   4   6
ENDBRANCH   3   4
ENDBRANCH   2   3
ENDBRANCH   1   2
BRANCH   1  23
ATOM     23  O   UNL     1       5.362  -0.071   6.255  1.00  0.00    -0.374 OA
BRANCH  23  24
ATOM     24  C   UNL     1       4.922   1.181   5.742  1.00  0.00     0.202 C 
BRANCH  24  25
ATOM     25  C   UNL     1       5.940   2.121   5.104  1.00  0.00     0.261 C 
BRANCH  25  26
ATOM     26  O   UNL     1       6.684   1.555   4.031  1.00  0.00    -0.460 OA
BRANCH  26  27
ATOM     27  C   UNL     1       7.880   1.083   4.454  1.00  0.00     0.338 C 
ATOM     28  O   UNL     1       8.150   0.673   5.572  1.00  0.00    -0.246 OA
BRANCH  27  29
ATOM     29  C   UNL     1       8.902   1.288   3.430  1.00  0.00     0.060 A 
ATOM     30  C   UNL     1      10.139   0.692   3.680  1.00  0.00     0.016 A 
ATOM     31  C   UNL     1       8.730   2.264   2.437  1.00  0.00     0.016 A 
ATOM     32  C   UNL     1      11.248   1.181   3.031  1.00  0.00     0.010 A 
ATOM     33  C   UNL     1       9.848   2.773   1.805  1.00  0.00     0.010 A 
ATOM     34  C   UNL     1      11.101   2.256   2.144  1.00  0.00    -0.014 A 
BRANCH  34  35
ATOM     35  C   UNL     1      12.328   2.726   1.495  1.00  0.00     0.031 A 
ATOM     36  C   UNL     1      12.638   1.812   0.299  1.00  0.00     0.074 A 
ATOM     37  C   UNL     1      13.003   3.718   2.161  1.00  0.00     0.049 A 
ATOM     38  N   UNL     1      13.758   1.267  -0.053  1.00  0.00    -0.248 NA
ATOM     39  C   UNL     1      11.513   1.285  -0.531  1.00  0.00     0.031 C 
ATOM     40  C   UNL     1      12.490   4.478   3.334  1.00  0.00     0.029 A 
ATOM     41  N   UNL     1      14.252   4.282   2.023  1.00  0.00    -0.354 N 
ATOM     42  C   UNL     1      13.530   0.565  -1.259  1.00  0.00     0.074 A 
ATOM     43  C   UNL     1      12.111   0.465  -1.400  1.00  0.00     0.031 C 
ATOM     44  C   UNL     1      13.434   5.310   3.837  1.00  0.00     0.029 A 
ATOM     45  C   UNL     1      14.648   5.191   3.053  1.00  0.00     0.049 A 
ATOM     46  H   UNL     1      14.838   4.071   1.260  1.00  0.00     0.167 HD
ATOM     47  C   UNL     1      14.529   0.266  -2.141  1.00  0.00     0.034 A 
ATOM     48  C   UNL     1      15.884   5.751   3.275  1.00  0.00     0.034 A 
ATOM     49  C   UNL     1      15.758   0.789  -1.643  1.00  0.00     0.049 A 
ATOM     50  C   UNL     1      16.686   5.267   2.139  1.00  0.00     0.074 A 
ATOM     51  C   UNL     1      16.571   0.414  -0.609  1.00  0.00     0.029 A 
ATOM     52  N   UNL     1      16.081   2.069  -2.036  1.00  0.00    -0.354 N 
ATOM     53  N   UNL     1      16.582   5.689   0.917  1.00  0.00    -0.248 NA
ATOM     54  C   UNL     1      17.617   4.153   2.370  1.00  0.00     0.031 C 
ATOM     55  C   UNL     1      16.992   1.650  -0.082  1.00  0.00     0.029 A 
ATOM     56  C   UNL     1      16.631   2.694  -0.948  1.00  0.00     0.049 A 
ATOM     57  H   UNL     1      15.943   2.460  -2.929  1.00  0.00     0.167 HD
ATOM     58  C   UNL     1      17.194   4.690   0.205  1.00  0.00     0.074 A 
ATOM     59  C   UNL     1      18.072   4.004   1.129  1.00  0.00     0.031 C 
ATOM     60  C   UNL     1      16.555   4.139  -0.861  1.00  0.00     0.034 A 
BRANCH  47  61
ATOM     61  C   UNL     1      14.553  -0.226  -3.563  1.00  0.00     0.023 A 
ATOM     62  C   UNL     1      15.825  -0.614  -4.059  1.00  0.00     0.031 A 
ATOM     63  C   UNL     1      13.547  -0.035  -4.515  1.00  0.00     0.131 A 
ATOM     64  C   UNL     1      16.104  -0.634  -5.429  1.00  0.00     0.055 A 
ATOM     65  C   UNL     1      13.809  -0.133  -5.892  1.00  0.00     0.041 A 
ATOM     66  F   UNL     1      12.309   0.336  -4.166  1.00  0.00    -0.206 F 
ATOM     67  C   UNL     1      15.099  -0.391  -6.356  1.00  0.00     0.022 A 
BRANCH  64  68
ATOM     68  S   UNL     1      17.839  -0.795  -5.944  1.00  0.00     0.124 S 
ATOM     69  O   UNL     1      18.471   0.320  -5.249  1.00  0.00    -0.237 OA
ATOM     70  O   UNL     1      18.180  -2.128  -5.455  1.00  0.00    -0.237 OA
ATOM     71  O   UNL     1      17.773  -0.666  -7.398  1.00  0.00    -0.744 OA
ENDBRANCH  64  68
ENDBRANCH  47  61
BRANCH  48  72
ATOM     72  C   UNL     1      16.662   6.570   4.309  1.00  0.00     0.023 A 
ATOM     73  C   UNL     1      16.154   7.241   5.437  1.00  0.00     0.031 A 
ATOM     74  C   UNL     1      18.090   6.658   4.175  1.00  0.00     0.131 A 
ATOM     75  C   UNL     1      17.049   7.858   6.369  1.00  0.00     0.055 A 
ATOM     76  C   UNL     1      18.959   7.171   5.136  1.00  0.00     0.041 A 
ATOM     77  F   UNL     1      18.736   6.250   3.075  1.00  0.00    -0.206 F 
ATOM     78  C   UNL     1      18.439   7.766   6.255  1.00  0.00     0.022 A 
BRANCH  75  79
ATOM     79  S   UNL     1      16.449   8.828   7.789  1.00  0.00     0.124 S 
ATOM     80  O   UNL     1      16.356  10.169   7.221  1.00  0.00    -0.237 OA
ATOM     81  O   UNL     1      15.184   8.181   8.120  1.00  0.00    -0.237 OA
ATOM     82  O   UNL     1      17.507   8.652   8.785  1.00  0.00    -0.744 OA
ENDBRANCH  75  79
ENDBRANCH  48  72
BRANCH  60  83
ATOM     83  C   UNL     1      15.530   5.054  -1.531  1.00  0.00     0.023 A 
ATOM     84  C   UNL     1      15.910   6.331  -1.987  1.00  0.00     0.031 A 
ATOM     85  C   UNL     1      14.158   4.761  -1.628  1.00  0.00     0.131 A 
ATOM     86  C   UNL     1      14.954   7.248  -2.471  1.00  0.00     0.055 A 
ATOM     87  C   UNL     1      13.201   5.668  -2.106  1.00  0.00     0.041 A 
ATOM     88  F   UNL     1      13.686   3.576  -1.251  1.00  0.00    -0.206 F 
ATOM     89  C   UNL     1      13.598   6.925  -2.528  1.00  0.00     0.022 A 
BRANCH  86  90
ATOM     90  S   UNL     1      15.502   8.872  -3.064  1.00  0.00     0.124 S 
ATOM     91  O   UNL     1      15.893   9.548  -1.833  1.00  0.00    -0.237 OA
ATOM     92  O   UNL     1      16.587   8.523  -3.976  1.00  0.00    -0.237 OA
ATOM     93  O   UNL     1      14.311   9.418  -3.717  1.00  0.00    -0.744 OA
ENDBRANCH  86  90
ENDBRANCH  60  83
ENDBRANCH  34  35
ENDBRANCH  27  29
ENDBRANCH  26  27
ENDBRANCH  25  26
ENDBRANCH  24  25
ENDBRANCH  23  24
ENDBRANCH   1  23
TORSDOF 22
