REMARK SMILES Cc1ccc(S(=O)(=O)n2cc(C(=O)C(=O)N[C@@H](Cc3cnc[nH]3)C(=O)OCCOCCOC(=O)c3ccc(-c4c5nc(c(-c6cc(S(=O)(=O)[O-])ccc6F)c6ccc([nH]6)c(-c6cc(S(=O)(=O)[O-])ccc6F)c6nc(c(-c7cc(S(=O)(=O)[O-])ccc7F)c7ccc4[nH]7)C=C6)C=C5)cc3)c3ccccc32)cc1
REMARK SMILES IDX 28 1 27 2 26 3 24 4 25 5 17 6 16 7 14 8 15 9 12 11 13 12
REMARK SMILES IDX 11 13 9 14 10 15 103 16 98 17 102 18 99 19 101 20 100 21
REMARK SMILES IDX 6 22 7 23 8 24 5 25 1 26 2 27 3 28 105 29 4 30 104 31 18 32
REMARK SMILES IDX 19 33 20 34 23 35 21 36 22 37 29 39 30 40 31 41 32 42 33 43
REMARK SMILES IDX 34 44 35 45 36 46 97 47 37 48 96 49 38 50 39 51 40 52 90 53
REMARK SMILES IDX 41 54 95 55 89 56 91 57 42 58 94 59 88 60 87 61 43 63 75 64
REMARK SMILES IDX 55 65 74 66 56 67 59 68 73 69 92 70 57 71 58 72 72 74 93 75
REMARK SMILES IDX 60 76 44 77 45 78 53 79 46 80 52 81 54 82 51 83 47 84 48 85
REMARK SMILES IDX 49 86 50 87 76 88 77 89 85 90 78 91 84 92 86 93 83 94 79 95
REMARK SMILES IDX 80 96 81 97 82 98 61 99 62 100 70 101 63 102 69 103 71 104
REMARK SMILES IDX 68 105 64 106 65 107 66 108 67 109
REMARK H PARENT 16 10 23 38 91 62 59 73
REMARK Flexibility Score: inf
ROOT
ATOM      1  C   UNL     1      -5.798   5.966   5.107  1.00  0.00     0.202 C 
ENDROOT
BRANCH   1   2
ATOM      2  C   UNL     1      -6.965   6.879   4.992  1.00  0.00     0.261 C 
BRANCH   2   3
ATOM      3  O   UNL     1      -7.974   6.367   4.135  1.00  0.00    -0.462 OA
BRANCH   3   4
ATOM      4  C   UNL     1      -7.929   6.772   2.838  1.00  0.00     0.329 C 
ATOM      5  O   UNL     1      -7.713   7.912   2.455  1.00  0.00    -0.250 OA
BRANCH   4   6
ATOM      6  C   UNL     1      -8.351   5.606   1.954  1.00  0.00     0.198 C 
BRANCH   6   7
ATOM      7  N   UNL     1      -7.844   4.366   2.571  1.00  0.00    -0.335 N 
ATOM      8  C   UNL     1      -6.598   3.814   2.400  1.00  0.00     0.293 C 
ATOM      9  O   UNL     1      -6.167   2.926   3.126  1.00  0.00    -0.265 OA
ATOM     10  H   UNL     1      -8.463   3.885   3.167  1.00  0.00     0.164 HD
BRANCH   8  11
ATOM     11  C   UNL     1      -5.715   4.312   1.249  1.00  0.00     0.252 C 
ATOM     12  O   UNL     1      -5.593   5.521   1.076  1.00  0.00    -0.283 OA
BRANCH  11  13
ATOM     13  C   UNL     1      -5.032   3.351   0.386  1.00  0.00     0.054 A 
ATOM     14  N   UNL     1      -4.107   1.474  -0.373  1.00  0.00    -0.240 N 
ATOM     15  C   UNL     1      -4.835   2.008   0.652  1.00  0.00     0.117 A 
ATOM     16  C   UNL     1      -3.832   2.421  -1.338  1.00  0.00     0.065 A 
ATOM     17  C   UNL     1      -4.404   3.615  -0.877  1.00  0.00     0.012 A 
ATOM     18  C   UNL     1      -3.110   2.365  -2.544  1.00  0.00     0.028 A 
ATOM     19  C   UNL     1      -4.265   4.779  -1.663  1.00  0.00     0.011 A 
ATOM     20  C   UNL     1      -2.972   3.540  -3.288  1.00  0.00     0.002 A 
ATOM     21  C   UNL     1      -3.546   4.731  -2.860  1.00  0.00     0.001 A 
BRANCH  14  22
ATOM     22  S   UNL     1      -3.496  -0.111  -0.345  1.00  0.00     0.268 S 
ATOM     23  O   UNL     1      -3.712  -0.630  -1.690  1.00  0.00    -0.201 OA
ATOM     24  O   UNL     1      -4.062  -0.753   0.818  1.00  0.00    -0.201 OA
BRANCH  22  25
ATOM     25  C   UNL     1      -1.743  -0.013  -0.096  1.00  0.00     0.088 A 
ATOM     26  C   UNL     1       2.552  -0.028   0.052  1.00  0.00     0.044 C 
ATOM     27  C   UNL     1       1.052  -0.018   0.043  1.00  0.00    -0.051 A 
ATOM     28  C   UNL     1       0.349  -1.225  -0.050  1.00  0.00     0.005 A 
ATOM     29  C   UNL     1       0.340   1.185   0.119  1.00  0.00     0.005 A 
ATOM     30  C   UNL     1      -1.043  -1.224  -0.124  1.00  0.00     0.022 A 
ATOM     31  C   UNL     1      -1.057   1.191   0.064  1.00  0.00     0.022 A 
ENDBRANCH  22  25
ENDBRANCH  14  22
ENDBRANCH  11  13
ENDBRANCH   8  11
ENDBRANCH   6   7
BRANCH   6  32
ATOM     32  C   UNL     1      -9.873   5.632   1.771  1.00  0.00     0.092 C 
BRANCH  32  33
ATOM     33  C   UNL     1     -10.653   4.854   2.776  1.00  0.00     0.037 A 
ATOM     34  C   UNL     1     -11.152   3.569   2.752  1.00  0.00     0.134 A 
ATOM     35  N   UNL     1     -10.982   5.319   4.023  1.00  0.00    -0.348 N 
ATOM     36  N   UNL     1     -11.889   3.302   3.872  1.00  0.00    -0.245 NA
ATOM     37  C   UNL     1     -11.750   4.365   4.629  1.00  0.00     0.196 A 
ATOM     38  H   UNL     1     -10.714   6.184   4.411  1.00  0.00     0.167 HD
ENDBRANCH  32  33
ENDBRANCH   6  32
ENDBRANCH   4   6
ENDBRANCH   3   4
ENDBRANCH   2   3
ENDBRANCH   1   2
BRANCH   1  39
ATOM     39  O   UNL     1      -4.779   6.486   4.265  1.00  0.00    -0.374 OA
BRANCH  39  40
ATOM     40  C   UNL     1      -3.573   5.747   4.366  1.00  0.00     0.202 C 
BRANCH  40  41
ATOM     41  C   UNL     1      -3.038   5.588   5.806  1.00  0.00     0.261 C 
BRANCH  41  42
ATOM     42  O   UNL     1      -2.749   6.888   6.369  1.00  0.00    -0.460 OA
BRANCH  42  43
ATOM     43  C   UNL     1      -3.439   7.236   7.494  1.00  0.00     0.338 C 
ATOM     44  O   UNL     1      -3.471   6.598   8.531  1.00  0.00    -0.246 OA
BRANCH  43  45
ATOM     45  C   UNL     1      -4.279   8.436   7.210  1.00  0.00     0.060 A 
ATOM     46  C   UNL     1      -5.317   8.813   8.082  1.00  0.00     0.016 A 
ATOM     47  C   UNL     1      -4.218   8.984   5.934  1.00  0.00     0.016 A 
ATOM     48  C   UNL     1      -6.394   9.579   7.605  1.00  0.00     0.010 A 
ATOM     49  C   UNL     1      -5.325   9.635   5.446  1.00  0.00     0.010 A 
ATOM     50  C   UNL     1      -6.442   9.895   6.253  1.00  0.00    -0.014 A 
BRANCH  50  51
ATOM     51  C   UNL     1      -7.597  10.444   5.534  1.00  0.00     0.031 A 
ATOM     52  C   UNL     1      -7.440  11.795   4.968  1.00  0.00     0.074 A 
ATOM     53  C   UNL     1      -8.685   9.697   5.217  1.00  0.00     0.049 A 
ATOM     54  N   UNL     1      -8.412  12.608   4.766  1.00  0.00    -0.248 NA
ATOM     55  C   UNL     1      -6.143  12.378   4.630  1.00  0.00     0.031 C 
ATOM     56  C   UNL     1      -9.763   9.956   4.263  1.00  0.00     0.029 A 
ATOM     57  N   UNL     1      -9.086   8.482   5.774  1.00  0.00    -0.354 N 
ATOM     58  C   UNL     1      -7.934  13.594   3.932  1.00  0.00     0.074 A 
ATOM     59  C   UNL     1      -6.504  13.512   4.034  1.00  0.00     0.031 C 
ATOM     60  C   UNL     1     -10.816   9.161   4.553  1.00  0.00     0.029 A 
ATOM     61  C   UNL     1     -10.476   8.422   5.761  1.00  0.00     0.049 A 
ATOM     62  H   UNL     1      -8.485   7.783   6.118  1.00  0.00     0.167 HD
ATOM     63  C   UNL     1      -8.798  14.217   3.085  1.00  0.00     0.034 A 
ATOM     64  C   UNL     1     -11.148   8.287   6.933  1.00  0.00     0.034 A 
ATOM     65  C   UNL     1     -10.148  13.636   3.220  1.00  0.00     0.049 A 
ATOM     66  C   UNL     1     -11.947   9.551   7.067  1.00  0.00     0.074 A 
ATOM     67  C   UNL     1     -10.924  12.828   2.402  1.00  0.00     0.029 A 
ATOM     68  N   UNL     1     -10.749  13.586   4.479  1.00  0.00    -0.354 N 
ATOM     69  N   UNL     1     -11.575  10.684   6.523  1.00  0.00    -0.248 NA
ATOM     70  C   UNL     1     -13.308   9.575   7.576  1.00  0.00     0.031 C 
ATOM     71  C   UNL     1     -11.975  12.274   3.197  1.00  0.00     0.029 A 
ATOM     72  C   UNL     1     -11.844  12.745   4.496  1.00  0.00     0.049 A 
ATOM     73  H   UNL     1     -10.429  14.090   5.262  1.00  0.00     0.167 HD
ATOM     74  C   UNL     1     -12.665  11.499   6.419  1.00  0.00     0.074 A 
ATOM     75  C   UNL     1     -13.711  10.780   7.140  1.00  0.00     0.031 C 
ATOM     76  C   UNL     1     -12.684  12.655   5.687  1.00  0.00     0.034 A 
BRANCH  63  77
ATOM     77  C   UNL     1      -8.375  15.119   1.936  1.00  0.00     0.023 A 
ATOM     78  C   UNL     1      -9.299  15.382   0.906  1.00  0.00     0.031 A 
ATOM     79  C   UNL     1      -7.125  15.761   1.780  1.00  0.00     0.131 A 
ATOM     80  C   UNL     1      -8.957  16.164  -0.215  1.00  0.00     0.055 A 
ATOM     81  C   UNL     1      -6.761  16.486   0.637  1.00  0.00     0.041 A 
ATOM     82  F   UNL     1      -6.211  15.803   2.755  1.00  0.00    -0.206 F 
ATOM     83  C   UNL     1      -7.682  16.694  -0.372  1.00  0.00     0.022 A 
BRANCH  80  84
ATOM     84  S   UNL     1     -10.233  16.530  -1.447  1.00  0.00     0.124 S 
ATOM     85  O   UNL     1     -10.501  15.211  -2.010  1.00  0.00    -0.237 OA
ATOM     86  O   UNL     1     -11.293  17.114  -0.631  1.00  0.00    -0.237 OA
ATOM     87  O   UNL     1      -9.570  17.467  -2.353  1.00  0.00    -0.744 OA
ENDBRANCH  80  84
ENDBRANCH  63  77
BRANCH  64  88
ATOM     88  C   UNL     1     -10.357   7.489   7.941  1.00  0.00     0.023 A 
ATOM     89  C   UNL     1     -10.038   6.148   7.587  1.00  0.00     0.031 A 
ATOM     90  C   UNL     1      -9.546   8.085   8.912  1.00  0.00     0.131 A 
ATOM     91  C   UNL     1      -8.848   5.533   8.022  1.00  0.00     0.055 A 
ATOM     92  C   UNL     1      -8.396   7.438   9.404  1.00  0.00     0.041 A 
ATOM     93  F   UNL     1      -9.761   9.351   9.297  1.00  0.00    -0.206 F 
ATOM     94  C   UNL     1      -8.007   6.189   8.915  1.00  0.00     0.022 A 
BRANCH  91  95
ATOM     95  S   UNL     1      -8.264   4.017   7.179  1.00  0.00     0.124 S 
ATOM     96  O   UNL     1      -9.004   2.977   7.881  1.00  0.00    -0.237 OA
ATOM     97  O   UNL     1      -8.650   4.258   5.791  1.00  0.00    -0.237 OA
ATOM     98  O   UNL     1      -6.821   4.042   7.407  1.00  0.00    -0.744 OA
ENDBRANCH  91  95
ENDBRANCH  64  88
BRANCH  76  99
ATOM     99  C   UNL     1     -13.546  13.837   6.055  1.00  0.00     0.023 A 
ATOM    100  C   UNL     1     -14.390  13.820   7.165  1.00  0.00     0.031 A 
ATOM    101  C   UNL     1     -13.431  15.086   5.398  1.00  0.00     0.131 A 
ATOM    102  C   UNL     1     -15.123  14.945   7.550  1.00  0.00     0.055 A 
ATOM    103  C   UNL     1     -14.089  16.236   5.838  1.00  0.00     0.041 A 
ATOM    104  F   UNL     1     -12.644  15.270   4.329  1.00  0.00    -0.206 F 
ATOM    105  C   UNL     1     -14.958  16.168   6.914  1.00  0.00     0.022 A 
BRANCH 102 106
ATOM    106  S   UNL     1     -16.318  14.716   8.882  1.00  0.00     0.124 S 
ATOM    107  O   UNL     1     -17.212  13.712   8.309  1.00  0.00    -0.237 OA
ATOM    108  O   UNL     1     -15.476  14.253   9.980  1.00  0.00    -0.237 OA
ATOM    109  O   UNL     1     -16.898  16.045   9.053  1.00  0.00    -0.744 OA
ENDBRANCH 102 106
ENDBRANCH  76  99
ENDBRANCH  50  51
ENDBRANCH  43  45
ENDBRANCH  42  43
ENDBRANCH  41  42
ENDBRANCH  40  41
ENDBRANCH  39  40
ENDBRANCH   1  39
TORSDOF 24
