REMARK SMILES COCC[C@H](NC(=O)c1ccc(C)cc1F)C(=O)OCCOCCOC(=O)c1ccc(-c2c3nc(c(-c4cc(S(=O)(=O)[O-])ccc4F)c4ccc([nH]4)c(-c4cc(S(=O)(=O)[O-])ccc4F)c4nc(c(-c5cc(S(=O)(=O)[O-])ccc5F)c5ccc2[nH]5)C=C4)C=C3)cc1
REMARK SMILES IDX 22 1 21 2 20 3 19 4 17 5 18 6 5 7 4 8 3 9 2 10 1 11 6 12
REMARK SMILES IDX 7 13 8 15 9 16 10 17 15 18 11 19 14 20 16 21 12 22 13 23
REMARK SMILES IDX 23 24 24 25 25 26 26 27 27 28 28 29 29 30 90 31 30 32 89 33
REMARK SMILES IDX 31 34 32 35 33 36 83 37 34 38 88 39 82 40 84 41 35 42 87 43
REMARK SMILES IDX 81 44 80 45 36 47 68 48 48 49 67 50 49 51 52 52 66 53 85 54
REMARK SMILES IDX 50 55 51 56 65 58 86 59 53 60 37 61 38 62 46 63 39 64 45 65
REMARK SMILES IDX 47 66 44 67 40 68 41 69 42 70 43 71 69 72 70 73 78 74 71 75
REMARK SMILES IDX 77 76 79 77 76 78 72 79 73 80 74 81 75 82 54 83 55 84 63 85
REMARK SMILES IDX 56 86 62 87 64 88 61 89 57 90 58 91 59 92 60 93
REMARK H PARENT 6 14 84 46 52 57
REMARK Flexibility Score: inf
ROOT
ATOM      1  O   UNL     1      -2.356  -1.107   4.977  1.00  0.00    -0.374 OA
ENDROOT
BRANCH   1   2
ATOM      2  C   UNL     1      -1.357  -1.036   6.001  1.00  0.00     0.202 C 
BRANCH   2   3
ATOM      3  C   UNL     1      -0.009  -1.566   5.506  1.00  0.00     0.261 C 
BRANCH   3   4
ATOM      4  O   UNL     1       0.534  -0.607   4.582  1.00  0.00    -0.462 OA
BRANCH   4   5
ATOM      5  C   UNL     1       1.340  -1.076   3.607  1.00  0.00     0.328 C 
ATOM      6  O   UNL     1       1.732  -2.235   3.519  1.00  0.00    -0.250 OA
BRANCH   5   7
ATOM      7  C   UNL     1       1.620  -0.010   2.524  1.00  0.00     0.194 C 
BRANCH   7   8
ATOM      8  C   UNL     1       3.072  -0.101   2.030  1.00  0.00     0.065 C 
BRANCH   8   9
ATOM      9  C   UNL     1       3.195  -0.832   0.694  1.00  0.00     0.162 C 
BRANCH   9  10
ATOM     10  O   UNL     1       2.916   0.013  -0.422  1.00  0.00    -0.385 OA
ATOM     11  C   UNL     1       1.552   0.070  -0.810  1.00  0.00     0.194 C 
ENDBRANCH   9  10
ENDBRANCH   8   9
ENDBRANCH   7   8
BRANCH   7  12
ATOM     12  N   UNL     1       1.229   1.402   2.663  1.00  0.00    -0.338 N 
ATOM     13  C   UNL     1       1.693   2.354   3.535  1.00  0.00     0.254 C 
ATOM     14  H   UNL     1       0.532   1.708   2.038  1.00  0.00     0.164 HD
ATOM     15  O   UNL     1       1.730   3.532   3.198  1.00  0.00    -0.269 OA
BRANCH  13  16
ATOM     16  C   UNL     1       1.972   1.966   4.918  1.00  0.00     0.075 A 
ATOM     17  C   UNL     1       3.088   1.229   5.307  1.00  0.00     0.017 A 
ATOM     18  C   UNL     1       0.971   2.261   5.831  1.00  0.00     0.136 A 
ATOM     19  C   UNL     1       3.130   0.691   6.600  1.00  0.00     0.004 A 
ATOM     20  C   UNL     1       1.021   1.741   7.116  1.00  0.00     0.043 A 
ATOM     21  F   UNL     1      -0.099   2.965   5.444  1.00  0.00    -0.206 F 
ATOM     22  C   UNL     1       2.073   0.906   7.496  1.00  0.00    -0.048 A 
ATOM     23  C   UNL     1       2.005   0.220   8.829  1.00  0.00     0.044 C 
ENDBRANCH  13  16
ENDBRANCH   7  12
ENDBRANCH   5   7
ENDBRANCH   4   5
ENDBRANCH   3   4
ENDBRANCH   2   3
ENDBRANCH   1   2
BRANCH   1  24
ATOM     24  C   UNL     1      -2.363  -0.014   4.055  1.00  0.00     0.202 C 
BRANCH  24  25
ATOM     25  C   UNL     1      -3.352   1.089   4.431  1.00  0.00     0.261 C 
BRANCH  25  26
ATOM     26  O   UNL     1      -2.814   1.939   5.459  1.00  0.00    -0.460 OA
BRANCH  26  27
ATOM     27  C   UNL     1      -3.294   1.746   6.711  1.00  0.00     0.338 C 
ATOM     28  O   UNL     1      -4.135   0.926   7.044  1.00  0.00    -0.246 OA
BRANCH  27  29
ATOM     29  C   UNL     1      -2.541   2.585   7.678  1.00  0.00     0.060 A 
ATOM     30  C   UNL     1      -2.406   2.114   8.990  1.00  0.00     0.016 A 
ATOM     31  C   UNL     1      -1.942   3.799   7.317  1.00  0.00     0.016 A 
ATOM     32  C   UNL     1      -1.693   2.856   9.936  1.00  0.00     0.010 A 
ATOM     33  C   UNL     1      -1.193   4.523   8.253  1.00  0.00     0.010 A 
ATOM     34  C   UNL     1      -1.099   4.077   9.581  1.00  0.00    -0.014 A 
BRANCH  34  35
ATOM     35  C   UNL     1      -0.613   4.978  10.659  1.00  0.00     0.031 A 
ATOM     36  C   UNL     1      -1.545   6.061  11.131  1.00  0.00     0.074 A 
ATOM     37  C   UNL     1       0.580   4.809  11.261  1.00  0.00     0.049 A 
ATOM     38  N   UNL     1      -1.448   6.849  12.169  1.00  0.00    -0.248 NA
ATOM     39  C   UNL     1      -2.747   6.286  10.312  1.00  0.00     0.031 C 
ATOM     40  C   UNL     1       1.594   3.833  10.873  1.00  0.00     0.029 A 
ATOM     41  N   UNL     1       1.134   5.452  12.342  1.00  0.00    -0.354 N 
ATOM     42  C   UNL     1      -2.596   7.632  12.149  1.00  0.00     0.074 A 
ATOM     43  C   UNL     1      -3.322   7.291  10.947  1.00  0.00     0.031 C 
ATOM     44  C   UNL     1       2.639   3.923  11.717  1.00  0.00     0.029 A 
ATOM     45  C   UNL     1       2.370   4.967  12.706  1.00  0.00     0.049 A 
ATOM     46  H   UNL     1       0.688   6.192  12.813  1.00  0.00     0.167 HD
ATOM     47  C   UNL     1      -3.033   8.527  13.067  1.00  0.00     0.034 A 
ATOM     48  C   UNL     1       3.179   5.319  13.728  1.00  0.00     0.034 A 
ATOM     49  C   UNL     1      -2.283   8.904  14.235  1.00  0.00     0.049 A 
ATOM     50  C   UNL     1       2.709   6.378  14.703  1.00  0.00     0.074 A 
ATOM     51  C   UNL     1      -2.621   9.805  15.227  1.00  0.00     0.029 A 
ATOM     52  N   UNL     1      -1.022   8.415  14.553  1.00  0.00    -0.354 N 
ATOM     53  N   UNL     1       1.577   7.043  14.725  1.00  0.00    -0.248 NA
ATOM     54  C   UNL     1       3.621   6.713  15.806  1.00  0.00     0.031 C 
ATOM     55  C   UNL     1      -1.539   9.910  16.109  1.00  0.00     0.029 A 
ATOM     56  C   UNL     1      -0.555   9.018  15.710  1.00  0.00     0.049 A 
ATOM     57  H   UNL     1      -0.532   7.738  14.033  1.00  0.00     0.167 HD
ATOM     58  C   UNL     1       1.627   7.845  15.865  1.00  0.00     0.074 A 
ATOM     59  C   UNL     1       2.893   7.566  16.511  1.00  0.00     0.031 C 
ATOM     60  C   UNL     1       0.712   8.730  16.340  1.00  0.00     0.034 A 
BRANCH  47  61
ATOM     61  C   UNL     1      -4.372   9.165  12.795  1.00  0.00     0.023 A 
ATOM     62  C   UNL     1      -5.546   8.390  12.740  1.00  0.00     0.031 A 
ATOM     63  C   UNL     1      -4.467  10.533  12.494  1.00  0.00     0.131 A 
ATOM     64  C   UNL     1      -6.744   8.968  12.297  1.00  0.00     0.055 A 
ATOM     65  C   UNL     1      -5.683  11.120  12.137  1.00  0.00     0.041 A 
ATOM     66  F   UNL     1      -3.376  11.313  12.505  1.00  0.00    -0.206 F 
ATOM     67  C   UNL     1      -6.826  10.334  12.018  1.00  0.00     0.022 A 
BRANCH  64  68
ATOM     68  S   UNL     1      -8.145   7.877  11.928  1.00  0.00     0.124 S 
ATOM     69  O   UNL     1      -7.585   7.021  10.884  1.00  0.00    -0.237 OA
ATOM     70  O   UNL     1      -8.395   7.236  13.213  1.00  0.00    -0.237 OA
ATOM     71  O   UNL     1      -9.187   8.797  11.476  1.00  0.00    -0.744 OA
ENDBRANCH  64  68
ENDBRANCH  47  61
BRANCH  48  72
ATOM     72  C   UNL     1       4.521   4.686  13.906  1.00  0.00     0.023 A 
ATOM     73  C   UNL     1       4.825   3.926  15.049  1.00  0.00     0.031 A 
ATOM     74  C   UNL     1       5.553   4.918  12.980  1.00  0.00     0.131 A 
ATOM     75  C   UNL     1       6.139   3.480  15.267  1.00  0.00     0.055 A 
ATOM     76  C   UNL     1       6.847   4.431  13.177  1.00  0.00     0.041 A 
ATOM     77  F   UNL     1       5.320   5.637  11.870  1.00  0.00    -0.206 F 
ATOM     78  C   UNL     1       7.151   3.721  14.335  1.00  0.00     0.022 A 
BRANCH  75  79
ATOM     79  S   UNL     1       6.534   2.661  16.839  1.00  0.00     0.124 S 
ATOM     80  O   UNL     1       6.166   3.685  17.809  1.00  0.00    -0.237 OA
ATOM     81  O   UNL     1       5.673   1.484  16.789  1.00  0.00    -0.237 OA
ATOM     82  O   UNL     1       7.965   2.387  16.730  1.00  0.00    -0.744 OA
ENDBRANCH  75  79
ENDBRANCH  48  72
BRANCH  60  83
ATOM     83  C   UNL     1       1.030   9.419  17.645  1.00  0.00     0.023 A 
ATOM     84  C   UNL     1       2.102  10.319  17.769  1.00  0.00     0.031 A 
ATOM     85  C   UNL     1       0.248   9.163  18.787  1.00  0.00     0.131 A 
ATOM     86  C   UNL     1       2.402  10.883  19.019  1.00  0.00     0.055 A 
ATOM     87  C   UNL     1       0.511   9.777  20.012  1.00  0.00     0.041 A 
ATOM     88  F   UNL     1      -0.789   8.312  18.728  1.00  0.00    -0.206 F 
ATOM     89  C   UNL     1       1.603  10.631  20.137  1.00  0.00     0.022 A 
BRANCH  86  90
ATOM     90  S   UNL     1       3.914  11.871  19.189  1.00  0.00     0.124 S 
ATOM     91  O   UNL     1       4.940  10.940  18.731  1.00  0.00    -0.237 OA
ATOM     92  O   UNL     1       3.645  13.005  18.311  1.00  0.00    -0.237 OA
ATOM     93  O   UNL     1       3.957  12.189  20.616  1.00  0.00    -0.744 OA
ENDBRANCH  86  90
ENDBRANCH  60  83
ENDBRANCH  34  35
ENDBRANCH  27  29
ENDBRANCH  26  27
ENDBRANCH  25  26
ENDBRANCH  24  25
ENDBRANCH   1  24
TORSDOF 22
