REMARK SMILES Cc1ccc(C(=O)OCCOCCOC(=O)c2ccc(-c3c4nc(c(-c5cc(S(=O)(=O)[O-])ccc5F)c5ccc([nH]5)c(-c5cc(S(=O)(=O)[O-])ccc5F)c5nc(c(-c6cc(S(=O)(=O)[O-])ccc6F)c6ccc3[nH]6)C=C5)C=C4)cc2)c2c1N[C@H](c1ccccc1F)[C@H]1CC=C[C@@H]21
REMARK SMILES IDX 12 1 11 2 10 3 9 4 8 5 6 6 7 7 5 8 1 9 2 10 3 11 81 12 4 13
REMARK SMILES IDX 80 14 82 15 95 16 83 17 91 19 94 20 92 21 93 22 84 23 85 24
REMARK SMILES IDX 89 25 86 26 88 27 90 28 87 29 13 30 14 31 15 32 16 33 17 34
REMARK SMILES IDX 18 35 79 36 19 37 78 38 20 39 21 40 22 41 72 42 23 43 77 44
REMARK SMILES IDX 71 45 73 46 24 47 76 48 70 49 69 50 25 52 57 53 37 54 56 55
REMARK SMILES IDX 38 56 41 57 55 58 74 59 39 60 40 61 54 63 75 64 42 65 26 66
REMARK SMILES IDX 27 67 35 68 28 69 34 70 36 71 33 72 29 73 30 74 31 75 32 76
REMARK SMILES IDX 58 77 59 78 67 79 60 80 66 81 68 82 65 83 61 84 62 85 63 86
REMARK SMILES IDX 64 87 43 88 44 89 52 90 45 91 51 92 53 93 50 94 46 95 47 96
REMARK SMILES IDX 48 97 49 98
REMARK H PARENT 82 18 73 51 41 62
REMARK Flexibility Score: inf
ROOT
ATOM      1  C   UNL     1      -2.800   2.383  -5.489  1.00  0.00     0.202 C 
ENDROOT
BRANCH   1   2
ATOM      2  O   UNL     1      -2.381   2.912  -6.750  1.00  0.00    -0.374 OA
BRANCH   2   3
ATOM      3  C   UNL     1      -1.958   1.990  -7.750  1.00  0.00     0.202 C 
BRANCH   3   4
ATOM      4  C   UNL     1      -0.594   1.314  -7.575  1.00  0.00     0.261 C 
BRANCH   4   5
ATOM      5  O   UNL     1      -0.380   0.858  -6.235  1.00  0.00    -0.460 OA
BRANCH   5   6
ATOM      6  C   UNL     1       0.645   1.462  -5.588  1.00  0.00     0.338 C 
ATOM      7  O   UNL     1       1.487   2.199  -6.085  1.00  0.00    -0.246 OA
BRANCH   6   8
ATOM      8  C   UNL     1       0.582   1.148  -4.144  1.00  0.00     0.065 A 
ATOM      9  C   UNL     1       0.795  -0.038  -0.016  1.00  0.00     0.046 C 
ATOM     10  C   UNL     1       0.621   0.425  -1.440  1.00  0.00    -0.028 A 
ATOM     11  C   UNL     1       0.659  -0.556  -2.444  1.00  0.00     0.006 A 
ATOM     12  C   UNL     1       0.521   1.795  -1.788  1.00  0.00     0.042 A 
ATOM     13  C   UNL     1       0.634  -0.202  -3.787  1.00  0.00     0.016 A 
ATOM     14  C   UNL     1       0.492   2.162  -3.156  1.00  0.00    -0.003 A 
ATOM     15  N   UNL     1       0.403   2.766  -0.796  1.00  0.00    -0.377 N 
ATOM     16  C   UNL     1       0.240   3.607  -3.544  1.00  0.00     0.050 C 
ATOM     17  C   UNL     1       0.637   4.165  -1.125  1.00  0.00     0.117 C 
ATOM     18  H   UNL     1       0.163   2.507   0.123  1.00  0.00     0.161 HD
ATOM     19  C   UNL     1      -0.193   4.526  -2.376  1.00  0.00     0.031 C 
ATOM     20  C   UNL     1       1.396   4.396  -4.102  1.00  0.00    -0.023 C 
ATOM     21  C   UNL     1       0.120   5.939  -2.903  1.00  0.00     0.034 C 
ATOM     22  C   UNL     1       1.300   5.692  -3.784  1.00  0.00    -0.030 C 
BRANCH  17  23
ATOM     23  C   UNL     1       0.458   5.017   0.123  1.00  0.00     0.010 A 
ATOM     24  C   UNL     1       1.486   5.005   1.089  1.00  0.00     0.009 A 
ATOM     25  C   UNL     1      -0.635   5.857   0.357  1.00  0.00     0.128 A 
ATOM     26  C   UNL     1       1.438   5.838   2.210  1.00  0.00     0.001 A 
ATOM     27  C   UNL     1      -0.682   6.700   1.469  1.00  0.00     0.039 A 
ATOM     28  F   UNL     1      -1.661   5.915  -0.502  1.00  0.00    -0.207 F 
ATOM     29  C   UNL     1       0.359   6.697   2.393  1.00  0.00     0.003 A 
ENDBRANCH  17  23
ENDBRANCH   6   8
ENDBRANCH   5   6
ENDBRANCH   4   5
ENDBRANCH   3   4
ENDBRANCH   2   3
ENDBRANCH   1   2
BRANCH   1  30
ATOM     30  C   UNL     1      -4.067   1.522  -5.439  1.00  0.00     0.261 C 
BRANCH  30  31
ATOM     31  O   UNL     1      -3.903   0.260  -6.107  1.00  0.00    -0.460 OA
BRANCH  31  32
ATOM     32  C   UNL     1      -4.715   0.067  -7.173  1.00  0.00     0.338 C 
ATOM     33  O   UNL     1      -5.586   0.819  -7.590  1.00  0.00    -0.246 OA
BRANCH  32  34
ATOM     34  C   UNL     1      -4.278  -1.127  -7.909  1.00  0.00     0.060 A 
ATOM     35  C   UNL     1      -3.763  -0.956  -9.202  1.00  0.00     0.016 A 
ATOM     36  C   UNL     1      -4.468  -2.401  -7.374  1.00  0.00     0.016 A 
ATOM     37  C   UNL     1      -3.465  -2.067  -9.982  1.00  0.00     0.010 A 
ATOM     38  C   UNL     1      -4.194  -3.515  -8.168  1.00  0.00     0.010 A 
ATOM     39  C   UNL     1      -3.728  -3.349  -9.485  1.00  0.00    -0.014 A 
BRANCH  39  40
ATOM     40  C   UNL     1      -3.699  -4.503 -10.408  1.00  0.00     0.031 A 
ATOM     41  C   UNL     1      -4.977  -4.909 -11.082  1.00  0.00     0.074 A 
ATOM     42  C   UNL     1      -2.554  -5.163 -10.647  1.00  0.00     0.049 A 
ATOM     43  N   UNL     1      -5.199  -5.908 -11.893  1.00  0.00    -0.248 NA
ATOM     44  C   UNL     1      -6.162  -4.077 -10.809  1.00  0.00     0.031 C 
ATOM     45  C   UNL     1      -1.253  -4.819 -10.080  1.00  0.00     0.029 A 
ATOM     46  N   UNL     1      -2.308  -6.269 -11.421  1.00  0.00    -0.354 N 
ATOM     47  C   UNL     1      -6.546  -5.829 -12.225  1.00  0.00     0.074 A 
ATOM     48  C   UNL     1      -7.098  -4.701 -11.510  1.00  0.00     0.031 C 
ATOM     49  C   UNL     1      -0.345  -5.713 -10.508  1.00  0.00     0.029 A 
ATOM     50  C   UNL     1      -1.009  -6.708 -11.351  1.00  0.00     0.049 A 
ATOM     51  H   UNL     1      -2.997  -6.705 -11.972  1.00  0.00     0.167 HD
ATOM     52  C   UNL     1      -7.252  -6.625 -13.059  1.00  0.00     0.034 A 
ATOM     53  C   UNL     1      -0.429  -7.803 -11.886  1.00  0.00     0.034 A 
ATOM     54  C   UNL     1      -6.689  -7.747 -13.759  1.00  0.00     0.049 A 
ATOM     55  C   UNL     1      -1.254  -8.719 -12.755  1.00  0.00     0.074 A 
ATOM     56  C   UNL     1      -7.319  -8.601 -14.646  1.00  0.00     0.029 A 
ATOM     57  N   UNL     1      -5.376  -8.177 -13.649  1.00  0.00    -0.354 N 
ATOM     58  N   UNL     1      -2.514  -8.605 -13.108  1.00  0.00    -0.248 NA
ATOM     59  C   UNL     1      -0.587  -9.908 -13.303  1.00  0.00     0.031 C 
ATOM     60  C   UNL     1      -6.403  -9.582 -15.026  1.00  0.00     0.029 A 
ATOM     61  C   UNL     1      -5.184  -9.305 -14.427  1.00  0.00     0.049 A 
ATOM     62  H   UNL     1      -4.683  -7.745 -13.099  1.00  0.00     0.167 HD
ATOM     63  C   UNL     1      -2.782  -9.693 -13.935  1.00  0.00     0.074 A 
ATOM     64  C   UNL     1      -1.550 -10.444 -14.044  1.00  0.00     0.031 C 
ATOM     65  C   UNL     1      -3.945 -10.037 -14.544  1.00  0.00     0.034 A 
BRANCH  52  66
ATOM     66  C   UNL     1      -8.711  -6.328 -13.271  1.00  0.00     0.023 A 
ATOM     67  C   UNL     1      -9.682  -7.246 -12.833  1.00  0.00     0.031 A 
ATOM     68  C   UNL     1      -9.130  -5.209 -14.011  1.00  0.00     0.131 A 
ATOM     69  C   UNL     1     -11.025  -7.049 -13.174  1.00  0.00     0.055 A 
ATOM     70  C   UNL     1     -10.475  -4.999 -14.317  1.00  0.00     0.041 A 
ATOM     71  F   UNL     1      -8.237  -4.303 -14.442  1.00  0.00    -0.206 F 
ATOM     72  C   UNL     1     -11.428  -5.928 -13.908  1.00  0.00     0.022 A 
BRANCH  69  73
ATOM     73  S   UNL     1     -12.292  -8.261 -12.714  1.00  0.00     0.124 S 
ATOM     74  O   UNL     1     -13.277  -7.426 -12.030  1.00  0.00    -0.237 OA
ATOM     75  O   UNL     1     -12.706  -8.776 -14.016  1.00  0.00    -0.237 OA
ATOM     76  O   UNL     1     -11.580  -9.204 -11.857  1.00  0.00    -0.744 OA
ENDBRANCH  69  73
ENDBRANCH  52  66
BRANCH  53  77
ATOM     77  C   UNL     1       1.014  -8.059 -11.621  1.00  0.00     0.023 A 
ATOM     78  C   UNL     1       1.473  -8.312 -10.315  1.00  0.00     0.031 A 
ATOM     79  C   UNL     1       1.964  -7.960 -12.650  1.00  0.00     0.131 A 
ATOM     80  C   UNL     1       2.848  -8.395 -10.064  1.00  0.00     0.055 A 
ATOM     81  C   UNL     1       3.331  -8.104 -12.405  1.00  0.00     0.041 A 
ATOM     82  F   UNL     1       1.572  -7.713 -13.909  1.00  0.00    -0.206 F 
ATOM     83  C   UNL     1       3.780  -8.309 -11.103  1.00  0.00     0.022 A 
BRANCH  80  84
ATOM     84  S   UNL     1       3.476  -8.522  -8.367  1.00  0.00     0.124 S 
ATOM     85  O   UNL     1       4.346  -9.692  -8.447  1.00  0.00    -0.237 OA
ATOM     86  O   UNL     1       4.158  -7.239  -8.209  1.00  0.00    -0.237 OA
ATOM     87  O   UNL     1       2.270  -8.689  -7.564  1.00  0.00    -0.744 OA
ENDBRANCH  80  84
ENDBRANCH  53  77
BRANCH  65  88
ATOM     88  C   UNL     1      -3.978 -11.277 -15.401  1.00  0.00     0.023 A 
ATOM     89  C   UNL     1      -4.233 -11.169 -16.781  1.00  0.00     0.031 A 
ATOM     90  C   UNL     1      -3.939 -12.559 -14.826  1.00  0.00     0.131 A 
ATOM     91  C   UNL     1      -4.492 -12.322 -17.533  1.00  0.00     0.055 A 
ATOM     92  C   UNL     1      -4.152 -13.707 -15.589  1.00  0.00     0.041 A 
ATOM     93  F   UNL     1      -3.709 -12.709 -13.512  1.00  0.00    -0.206 F 
ATOM     94  C   UNL     1      -4.445 -13.591 -16.946  1.00  0.00     0.022 A 
BRANCH  91  95
ATOM     95  S   UNL     1      -4.973 -12.212 -19.278  1.00  0.00     0.124 S 
ATOM     96  O   UNL     1      -3.985 -13.076 -19.922  1.00  0.00    -0.237 OA
ATOM     97  O   UNL     1      -6.336 -12.734 -19.253  1.00  0.00    -0.237 OA
ATOM     98  O   UNL     1      -4.848 -10.792 -19.589  1.00  0.00    -0.744 OA
ENDBRANCH  91  95
ENDBRANCH  65  88
ENDBRANCH  39  40
ENDBRANCH  32  34
ENDBRANCH  31  32
ENDBRANCH  30  31
ENDBRANCH   1  30
TORSDOF 18
