REMARK SMILES CC[C@@H]([NH3+])C(=O)NCCOCC(=O)OCCOCCOC(=O)c1ccc(-c2c3nc(c(-c4cc(S(=O)(=O)[O-])ccc4F)c4ccc([nH]4)c(-c4cc(S(=O)(=O)[O-])ccc4F)c4nc(c(-c5cc(S(=O)(=O)[O-])ccc5F)c5ccc2[nH]5)C=C4)C=C3)cc1
REMARK SMILES IDX 15 1 14 2 12 3 13 4 11 5 10 6 9 7 8 8 7 9 5 10 6 11 3 13
REMARK SMILES IDX 2 14 1 15 4 16 16 20 17 21 18 22 19 23 20 24 21 25 22 26
REMARK SMILES IDX 23 27 24 28 85 29 25 30 84 31 26 32 27 33 28 34 78 35 29 36
REMARK SMILES IDX 83 37 77 38 79 39 30 40 82 41 76 42 75 43 31 45 63 46 43 47
REMARK SMILES IDX 62 48 44 49 47 50 61 51 80 52 45 53 46 54 60 56 81 57 48 58
REMARK SMILES IDX 32 59 33 60 41 61 34 62 40 63 42 64 39 65 35 66 36 67 37 68
REMARK SMILES IDX 38 69 64 70 65 71 73 72 66 73 72 74 74 75 71 76 67 77 68 78
REMARK SMILES IDX 69 79 70 80 49 81 50 82 58 83 51 84 57 85 59 86 56 87 52 88
REMARK SMILES IDX 53 89 54 90 55 91
REMARK H PARENT 7 12 4 17 4 18 4 19 79 44 47 55
REMARK Flexibility Score: inf
ROOT
ATOM      1  C   UNL     1      -1.290   5.113  -4.468  1.00  0.00     0.261 C 
ENDROOT
BRANCH   1   2
ATOM      2  O   UNL     1      -2.234   4.024  -4.637  1.00  0.00    -0.462 OA
BRANCH   2   3
ATOM      3  C   UNL     1      -1.792   2.951  -5.350  1.00  0.00     0.332 C 
ATOM      4  O   UNL     1      -0.664   2.831  -5.816  1.00  0.00    -0.250 OA
BRANCH   3   5
ATOM      5  C   UNL     1      -2.876   1.876  -5.567  1.00  0.00     0.282 C 
BRANCH   5   6
ATOM      6  O   UNL     1      -3.630   1.190  -4.596  1.00  0.00    -0.368 OA
BRANCH   6   7
ATOM      7  C   UNL     1      -3.002   0.716  -3.410  1.00  0.00     0.182 C 
BRANCH   7   8
ATOM      8  C   UNL     1      -1.918  -0.378  -3.527  1.00  0.00     0.144 C 
BRANCH   8   9
ATOM      9  N   UNL     1      -0.649   0.050  -4.102  1.00  0.00    -0.349 N 
ATOM     10  C   UNL     1       0.633  -0.316  -3.805  1.00  0.00     0.278 C 
ATOM     11  O   UNL     1       1.493  -0.074  -4.661  1.00  0.00    -0.268 OA
ATOM     12  H   UNL     1      -0.729   0.714  -4.825  1.00  0.00     0.163 HD
BRANCH  10  13
ATOM     13  C   UNL     1       1.056  -0.999  -2.479  1.00  0.00     0.270 C 
BRANCH  13  14
ATOM     14  C   UNL     1       0.831  -0.111  -1.256  1.00  0.00     0.072 C 
ATOM     15  C   UNL     1       1.426  -0.619   0.049  1.00  0.00     0.011 C 
ENDBRANCH  13  14
BRANCH  13  16
ATOM     16  N   UNL     1       0.424  -2.324  -2.350  1.00  0.00    -0.347 N 
ATOM     17  H   UNL     1      -0.589  -2.215  -2.309  1.00  0.00     0.345 HD
ATOM     18  H   UNL     1       0.753  -2.776  -1.497  1.00  0.00     0.345 HD
ATOM     19  H   UNL     1       0.672  -2.898  -3.156  1.00  0.00     0.345 HD
ENDBRANCH  13  16
ENDBRANCH  10  13
ENDBRANCH   8   9
ENDBRANCH   7   8
ENDBRANCH   6   7
ENDBRANCH   5   6
ENDBRANCH   3   5
ENDBRANCH   2   3
ENDBRANCH   1   2
BRANCH   1  20
ATOM     20  C   UNL     1      -0.800   5.272  -3.020  1.00  0.00     0.202 C 
BRANCH  20  21
ATOM     21  O   UNL     1       0.130   4.286  -2.566  1.00  0.00    -0.374 OA
BRANCH  21  22
ATOM     22  C   UNL     1      -0.437   3.010  -2.310  1.00  0.00     0.202 C 
BRANCH  22  23
ATOM     23  C   UNL     1      -0.904   2.763  -0.875  1.00  0.00     0.261 C 
BRANCH  23  24
ATOM     24  O   UNL     1      -1.957   3.663  -0.528  1.00  0.00    -0.460 OA
BRANCH  24  25
ATOM     25  C   UNL     1      -1.575   4.638   0.328  1.00  0.00     0.338 C 
ATOM     26  O   UNL     1      -0.524   4.720   0.935  1.00  0.00    -0.246 OA
BRANCH  25  27
ATOM     27  C   UNL     1      -2.561   5.723   0.253  1.00  0.00     0.060 A 
ATOM     28  C   UNL     1      -2.055   7.008   0.041  1.00  0.00     0.016 A 
ATOM     29  C   UNL     1      -3.934   5.497   0.393  1.00  0.00     0.016 A 
ATOM     30  C   UNL     1      -2.920   8.091   0.038  1.00  0.00     0.010 A 
ATOM     31  C   UNL     1      -4.803   6.588   0.388  1.00  0.00     0.010 A 
ATOM     32  C   UNL     1      -4.289   7.890   0.255  1.00  0.00    -0.014 A 
BRANCH  32  33
ATOM     33  C   UNL     1      -5.138   9.074   0.504  1.00  0.00     0.031 A 
ATOM     34  C   UNL     1      -5.487   9.423   1.923  1.00  0.00     0.074 A 
ATOM     35  C   UNL     1      -5.505   9.864  -0.519  1.00  0.00     0.049 A 
ATOM     36  N   UNL     1      -6.166  10.439   2.384  1.00  0.00    -0.248 NA
ATOM     37  C   UNL     1      -5.002   8.500   2.961  1.00  0.00     0.031 C 
ATOM     38  C   UNL     1      -5.169   9.630  -1.924  1.00  0.00     0.029 A 
ATOM     39  N   UNL     1      -6.225  11.028  -0.533  1.00  0.00    -0.354 N 
ATOM     40  C   UNL     1      -6.192  10.279   3.765  1.00  0.00     0.074 A 
ATOM     41  C   UNL     1      -5.500   9.044   4.060  1.00  0.00     0.031 C 
ATOM     42  C   UNL     1      -5.672  10.632  -2.663  1.00  0.00     0.029 A 
ATOM     43  C   UNL     1      -6.398  11.552  -1.792  1.00  0.00     0.049 A 
ATOM     44  H   UNL     1      -6.583  11.451   0.281  1.00  0.00     0.167 HD
ATOM     45  C   UNL     1      -6.735  11.099   4.698  1.00  0.00     0.034 A 
ATOM     46  C   UNL     1      -7.082  12.642  -2.190  1.00  0.00     0.034 A 
ATOM     47  C   UNL     1      -7.430  12.320   4.370  1.00  0.00     0.049 A 
ATOM     48  C   UNL     1      -7.755  13.491  -1.140  1.00  0.00     0.074 A 
ATOM     49  C   UNL     1      -8.009  13.240   5.224  1.00  0.00     0.029 A 
ATOM     50  N   UNL     1      -7.654  12.784   3.078  1.00  0.00    -0.354 N 
ATOM     51  N   UNL     1      -7.762  13.341   0.166  1.00  0.00    -0.248 NA
ATOM     52  C   UNL     1      -8.502  14.660  -1.616  1.00  0.00     0.031 C 
ATOM     53  C   UNL     1      -8.655  14.211   4.450  1.00  0.00     0.029 A 
ATOM     54  C   UNL     1      -8.402  13.951   3.112  1.00  0.00     0.049 A 
ATOM     55  H   UNL     1      -7.330  12.347   2.257  1.00  0.00     0.167 HD
ATOM     56  C   UNL     1      -8.493  14.414   0.668  1.00  0.00     0.074 A 
ATOM     57  C   UNL     1      -8.890  15.211  -0.476  1.00  0.00     0.031 C 
ATOM     58  C   UNL     1      -8.806  14.718   1.955  1.00  0.00     0.034 A 
BRANCH  45  59
ATOM     59  C   UNL     1      -6.652  10.660   6.141  1.00  0.00     0.023 A 
ATOM     60  C   UNL     1      -5.422  10.495   6.803  1.00  0.00     0.031 A 
ATOM     61  C   UNL     1      -7.826  10.358   6.855  1.00  0.00     0.131 A 
ATOM     62  C   UNL     1      -5.391   9.971   8.105  1.00  0.00     0.055 A 
ATOM     63  C   UNL     1      -7.792   9.918   8.180  1.00  0.00     0.041 A 
ATOM     64  F   UNL     1      -9.029  10.467   6.270  1.00  0.00    -0.206 F 
ATOM     65  C   UNL     1      -6.568   9.706   8.807  1.00  0.00     0.022 A 
BRANCH  62  66
ATOM     66  S   UNL     1      -3.789   9.489   8.810  1.00  0.00     0.124 S 
ATOM     67  O   UNL     1      -3.306   8.531   7.818  1.00  0.00    -0.237 OA
ATOM     68  O   UNL     1      -3.077  10.760   8.872  1.00  0.00    -0.237 OA
ATOM     69  O   UNL     1      -4.145   8.908  10.103  1.00  0.00    -0.744 OA
ENDBRANCH  62  66
ENDBRANCH  45  59
BRANCH  46  70
ATOM     70  C   UNL     1      -7.192  12.975  -3.638  1.00  0.00     0.023 A 
ATOM     71  C   UNL     1      -6.669  14.171  -4.153  1.00  0.00     0.031 A 
ATOM     72  C   UNL     1      -7.859  12.112  -4.527  1.00  0.00     0.131 A 
ATOM     73  C   UNL     1      -6.858  14.491  -5.507  1.00  0.00     0.055 A 
ATOM     74  C   UNL     1      -7.996  12.408  -5.883  1.00  0.00     0.041 A 
ATOM     75  F   UNL     1      -8.380  10.955  -4.087  1.00  0.00    -0.206 F 
ATOM     76  C   UNL     1      -7.504  13.611  -6.378  1.00  0.00     0.022 A 
BRANCH  73  77
ATOM     77  S   UNL     1      -6.318  16.119  -6.098  1.00  0.00     0.124 S 
ATOM     78  O   UNL     1      -7.074  17.015  -5.232  1.00  0.00    -0.237 OA
ATOM     79  O   UNL     1      -4.878  16.062  -5.865  1.00  0.00    -0.237 OA
ATOM     80  O   UNL     1      -6.719  16.120  -7.504  1.00  0.00    -0.744 OA
ENDBRANCH  73  77
ENDBRANCH  46  70
BRANCH  58  81
ATOM     81  C   UNL     1      -9.592  15.988   2.183  1.00  0.00     0.023 A 
ATOM     82  C   UNL     1     -10.907  16.138   1.710  1.00  0.00     0.031 A 
ATOM     83  C   UNL     1      -9.007  17.070   2.864  1.00  0.00     0.131 A 
ATOM     84  C   UNL     1     -11.570  17.365   1.866  1.00  0.00     0.055 A 
ATOM     85  C   UNL     1      -9.698  18.263   3.080  1.00  0.00     0.041 A 
ATOM     86  F   UNL     1      -7.752  16.985   3.334  1.00  0.00    -0.206 F 
ATOM     87  C   UNL     1     -10.981  18.421   2.565  1.00  0.00     0.022 A 
BRANCH  84  88
ATOM     88  S   UNL     1     -13.168  17.599   1.042  1.00  0.00     0.124 S 
ATOM     89  O   UNL     1     -12.828  17.347  -0.355  1.00  0.00    -0.237 OA
ATOM     90  O   UNL     1     -14.003  16.591   1.687  1.00  0.00    -0.237 OA
ATOM     91  O   UNL     1     -13.515  18.984   1.355  1.00  0.00    -0.744 OA
ENDBRANCH  84  88
ENDBRANCH  58  81
ENDBRANCH  32  33
ENDBRANCH  25  27
ENDBRANCH  24  25
ENDBRANCH  23  24
ENDBRANCH  22  23
ENDBRANCH  21  22
ENDBRANCH  20  21
ENDBRANCH   1  20
TORSDOF 24
