REMARK SMILES C[C@@H](Nc1cccc(C(=O)OCCOCCOC(=O)c2ccc(-c3c4nc(c(-c5cc(S(=O)(=O)[O-])ccc5F)c5ccc([nH]5)c(-c5cc(S(=O)(=O)[O-])ccc5F)c5nc(c(-c6cc(S(=O)(=O)[O-])ccc6F)c6ccc3[nH]6)C=C5)C=C4)cc2)c1)C1CC[NH+](C)CC1
REMARK SMILES IDX 14 1 13 2 12 3 11 4 9 5 10 6 8 7 4 8 5 9 83 10 6 11 7 12
REMARK SMILES IDX 3 13 2 15 1 16 84 17 85 18 90 19 86 20 89 21 87 22 88 23
REMARK SMILES IDX 15 25 16 26 17 27 18 28 19 29 20 30 21 31 82 32 22 33 81 34
REMARK SMILES IDX 23 35 24 36 25 37 75 38 26 39 80 40 74 41 76 42 27 43 79 44
REMARK SMILES IDX 73 45 72 46 28 48 60 49 40 50 59 51 41 52 44 53 58 54 77 55
REMARK SMILES IDX 42 56 43 57 57 59 78 60 45 61 29 62 30 63 38 64 31 65 37 66
REMARK SMILES IDX 39 67 36 68 32 69 33 70 34 71 35 72 61 73 62 74 70 75 63 76
REMARK SMILES IDX 69 77 71 78 68 79 64 80 65 81 66 82 67 83 46 84 47 85 55 86
REMARK SMILES IDX 48 87 54 88 56 89 53 90 49 91 50 92 51 93 52 94
REMARK H PARENT 3 14 87 24 76 47 44 58
REMARK Flexibility Score: inf
ROOT
ATOM      1  O   UNL     1      -4.067   7.783  -0.098  1.00  0.00    -0.374 OA
ENDROOT
BRANCH   1   2
ATOM      2  C   UNL     1      -4.467   6.865   0.922  1.00  0.00     0.202 C 
BRANCH   2   3
ATOM      3  C   UNL     1      -4.734   5.425   0.473  1.00  0.00     0.261 C 
BRANCH   3   4
ATOM      4  O   UNL     1      -3.530   4.812  -0.012  1.00  0.00    -0.460 OA
BRANCH   4   5
ATOM      5  C   UNL     1      -3.482   4.603  -1.348  1.00  0.00     0.338 C 
ATOM      6  O   UNL     1      -4.406   4.723  -2.141  1.00  0.00    -0.246 OA
BRANCH   5   7
ATOM      7  C   UNL     1      -2.092   4.316  -1.781  1.00  0.00     0.062 A 
ATOM      8  C   UNL     1       0.074   3.292  -1.398  1.00  0.00     0.035 A 
ATOM      9  C   UNL     1       0.402   3.578  -2.732  1.00  0.00     0.026 A 
ATOM     10  C   UNL     1      -1.136   3.782  -0.909  1.00  0.00     0.041 A 
ATOM     11  C   UNL     1      -0.496   4.222  -3.583  1.00  0.00     0.003 A 
ATOM     12  C   UNL     1      -1.763   4.549  -3.118  1.00  0.00     0.016 A 
BRANCH   8  13
ATOM     13  N   UNL     1       0.887   2.417  -0.714  1.00  0.00    -0.382 N 
ATOM     14  H   UNL     1       1.832   2.435  -0.990  1.00  0.00     0.160 HD
BRANCH  13  15
ATOM     15  C   UNL     1       0.581   1.456   0.363  1.00  0.00     0.079 C 
ATOM     16  C   UNL     1       1.581   0.304   0.187  1.00  0.00     0.031 C 
BRANCH  15  17
ATOM     17  C   UNL     1      -0.914   0.992   0.455  1.00  0.00     0.022 C 
ATOM     18  C   UNL     1      -1.428   1.096   1.902  1.00  0.00     0.067 C 
ATOM     19  C   UNL     1      -1.312  -0.369  -0.134  1.00  0.00     0.067 C 
ATOM     20  C   UNL     1      -1.007  -0.103   2.741  1.00  0.00     0.262 C 
ATOM     21  C   UNL     1      -1.057  -1.565   0.781  1.00  0.00     0.262 C 
ATOM     22  N   UNL     1      -1.521  -1.343   2.153  1.00  0.00    -0.337 N 
ATOM     23  C   UNL     1      -1.176  -2.484   3.001  1.00  0.00     0.332 C 
ATOM     24  H   UNL     1      -2.536  -1.248   2.103  1.00  0.00     0.347 HD
ENDBRANCH  15  17
ENDBRANCH  13  15
ENDBRANCH   8  13
ENDBRANCH   5   7
ENDBRANCH   4   5
ENDBRANCH   3   4
ENDBRANCH   2   3
ENDBRANCH   1   2
BRANCH   1  25
ATOM     25  C   UNL     1      -2.703   7.743  -0.516  1.00  0.00     0.202 C 
BRANCH  25  26
ATOM     26  C   UNL     1      -1.672   8.442   0.377  1.00  0.00     0.261 C 
BRANCH  26  27
ATOM     27  O   UNL     1      -1.585   7.853   1.685  1.00  0.00    -0.460 OA
BRANCH  27  28
ATOM     28  C   UNL     1      -2.158   8.590   2.666  1.00  0.00     0.338 C 
ATOM     29  O   UNL     1      -2.660   9.701   2.550  1.00  0.00    -0.246 OA
BRANCH  28  30
ATOM     30  C   UNL     1      -2.264   7.797   3.903  1.00  0.00     0.060 A 
ATOM     31  C   UNL     1      -3.515   7.750   4.531  1.00  0.00     0.016 A 
ATOM     32  C   UNL     1      -1.156   7.171   4.481  1.00  0.00     0.016 A 
ATOM     33  C   UNL     1      -3.653   7.124   5.766  1.00  0.00     0.010 A 
ATOM     34  C   UNL     1      -1.296   6.548   5.726  1.00  0.00     0.010 A 
ATOM     35  C   UNL     1      -2.536   6.555   6.391  1.00  0.00    -0.014 A 
BRANCH  35  36
ATOM     36  C   UNL     1      -2.643   6.102   7.800  1.00  0.00     0.031 A 
ATOM     37  C   UNL     1      -2.134   7.000   8.894  1.00  0.00     0.074 A 
ATOM     38  C   UNL     1      -3.215   4.922   8.100  1.00  0.00     0.049 A 
ATOM     39  N   UNL     1      -2.103   6.802  10.186  1.00  0.00    -0.248 NA
ATOM     40  C   UNL     1      -1.579   8.294   8.468  1.00  0.00     0.031 C 
ATOM     41  C   UNL     1      -3.774   3.986   7.126  1.00  0.00     0.029 A 
ATOM     42  N   UNL     1      -3.413   4.308   9.310  1.00  0.00    -0.354 N 
ATOM     43  C   UNL     1      -1.519   7.942  10.730  1.00  0.00     0.074 A 
ATOM     44  C   UNL     1      -1.177   8.807   9.621  1.00  0.00     0.031 C 
ATOM     45  C   UNL     1      -4.238   2.906   7.778  1.00  0.00     0.029 A 
ATOM     46  C   UNL     1      -3.979   3.060   9.208  1.00  0.00     0.049 A 
ATOM     47  H   UNL     1      -3.171   4.721  10.171  1.00  0.00     0.167 HD
ATOM     48  C   UNL     1      -1.296   8.240  12.035  1.00  0.00     0.034 A 
ATOM     49  C   UNL     1      -4.234   2.136  10.157  1.00  0.00     0.034 A 
ATOM     50  C   UNL     1      -1.637   7.359  13.127  1.00  0.00     0.049 A 
ATOM     51  C   UNL     1      -3.916   2.459  11.597  1.00  0.00     0.074 A 
ATOM     52  C   UNL     1      -1.489   7.574  14.486  1.00  0.00     0.029 A 
ATOM     53  N   UNL     1      -2.177   6.087  12.985  1.00  0.00    -0.354 N 
ATOM     54  N   UNL     1      -3.389   3.551  12.103  1.00  0.00    -0.248 NA
ATOM     55  C   UNL     1      -4.237   1.429  12.593  1.00  0.00     0.031 C 
ATOM     56  C   UNL     1      -1.865   6.405  15.159  1.00  0.00     0.029 A 
ATOM     57  C   UNL     1      -2.328   5.489  14.227  1.00  0.00     0.049 A 
ATOM     58  H   UNL     1      -2.418   5.670  12.126  1.00  0.00     0.167 HD
ATOM     59  C   UNL     1      -3.339   3.347  13.480  1.00  0.00     0.074 A 
ATOM     60  C   UNL     1      -3.905   2.036  13.723  1.00  0.00     0.031 C 
ATOM     61  C   UNL     1      -2.873   4.170  14.455  1.00  0.00     0.034 A 
BRANCH  48  62
ATOM     62  C   UNL     1      -0.600   9.546  12.338  1.00  0.00     0.023 A 
ATOM     63  C   UNL     1      -1.176  10.789  12.021  1.00  0.00     0.031 A 
ATOM     64  C   UNL     1       0.681   9.545  12.919  1.00  0.00     0.131 A 
ATOM     65  C   UNL     1      -0.444  11.970  12.215  1.00  0.00     0.055 A 
ATOM     66  C   UNL     1       1.371  10.729  13.185  1.00  0.00     0.041 A 
ATOM     67  F   UNL     1       1.293   8.390  13.223  1.00  0.00    -0.206 F 
ATOM     68  C   UNL     1       0.816  11.951  12.817  1.00  0.00     0.022 A 
BRANCH  65  69
ATOM     69  S   UNL     1      -1.096  13.518  11.528  1.00  0.00     0.124 S 
ATOM     70  O   UNL     1      -1.237  13.178  10.115  1.00  0.00    -0.237 OA
ATOM     71  O   UNL     1      -2.338  13.694  12.271  1.00  0.00    -0.237 OA
ATOM     72  O   UNL     1      -0.048  14.493  11.825  1.00  0.00    -0.744 OA
ENDBRANCH  65  69
ENDBRANCH  48  62
BRANCH  49  73
ATOM     73  C   UNL     1      -4.773   0.799   9.776  1.00  0.00     0.023 A 
ATOM     74  C   UNL     1      -6.041   0.373  10.200  1.00  0.00     0.031 A 
ATOM     75  C   UNL     1      -4.000  -0.091   9.008  1.00  0.00     0.131 A 
ATOM     76  C   UNL     1      -6.482  -0.923   9.888  1.00  0.00     0.055 A 
ATOM     77  C   UNL     1      -4.464  -1.359   8.658  1.00  0.00     0.041 A 
ATOM     78  F   UNL     1      -2.779   0.267   8.578  1.00  0.00    -0.206 F 
ATOM     79  C   UNL     1      -5.709  -1.786   9.108  1.00  0.00     0.022 A 
BRANCH  76  80
ATOM     80  S   UNL     1      -8.057  -1.496  10.582  1.00  0.00     0.124 S 
ATOM     81  O   UNL     1      -7.816  -1.367  12.015  1.00  0.00    -0.237 OA
ATOM     82  O   UNL     1      -9.005  -0.550  10.003  1.00  0.00    -0.237 OA
ATOM     83  O   UNL     1      -8.168  -2.867  10.089  1.00  0.00    -0.744 OA
ENDBRANCH  76  80
ENDBRANCH  49  73
BRANCH  61  84
ATOM     84  C   UNL     1      -2.990   3.680  15.880  1.00  0.00     0.023 A 
ATOM     85  C   UNL     1      -2.259   2.574  16.346  1.00  0.00     0.031 A 
ATOM     86  C   UNL     1      -3.858   4.324  16.780  1.00  0.00     0.131 A 
ATOM     87  C   UNL     1      -2.451   2.109  17.656  1.00  0.00     0.055 A 
ATOM     88  C   UNL     1      -3.999   3.895  18.101  1.00  0.00     0.041 A 
ATOM     89  F   UNL     1      -4.584   5.384  16.390  1.00  0.00    -0.206 F 
ATOM     90  C   UNL     1      -3.304   2.773  18.541  1.00  0.00     0.022 A 
BRANCH  87  91
ATOM     91  S   UNL     1      -1.646   0.563  18.160  1.00  0.00     0.124 S 
ATOM     92  O   UNL     1      -2.168  -0.384  17.180  1.00  0.00    -0.237 OA
ATOM     93  O   UNL     1      -0.230   0.894  18.037  1.00  0.00    -0.237 OA
ATOM     94  O   UNL     1      -2.117   0.362  19.529  1.00  0.00    -0.744 OA
ENDBRANCH  87  91
ENDBRANCH  61  84
ENDBRANCH  35  36
ENDBRANCH  28  30
ENDBRANCH  27  28
ENDBRANCH  26  27
ENDBRANCH  25  26
ENDBRANCH   1  25
TORSDOF 20
