REMARK SMILES O=C(C[C@@H]1CSCC[NH2+]1)NC[C@@H](C(=O)OCCOCCOC(=O)c1ccc(-c2c3nc(c(-c4cc(S(=O)(=O)[O-])ccc4F)c4ccc([nH]4)c(-c4cc(S(=O)(=O)[O-])ccc4F)c4nc(c(-c5cc(S(=O)(=O)[O-])ccc5F)c5ccc2[nH]5)C=C4)C=C3)cc1)c1ccccc1
REMARK SMILES IDX 17 1 16 2 15 3 13 4 14 5 12 6 11 7 10 8 1 9 2 10 3 12 4 13
REMARK SMILES IDX 5 14 9 15 6 16 8 17 7 20 87 21 88 22 92 23 89 24 91 25 90 26
REMARK SMILES IDX 18 27 19 28 20 29 21 30 22 31 23 32 24 33 25 34 86 35 26 36
REMARK SMILES IDX 85 37 27 38 28 39 29 40 79 41 30 42 84 43 78 44 80 45 31 46
REMARK SMILES IDX 83 47 77 48 76 49 32 51 64 52 44 53 63 54 45 55 48 56 62 57
REMARK SMILES IDX 81 58 46 59 47 60 61 62 82 63 49 64 33 65 34 66 42 67 35 68
REMARK SMILES IDX 41 69 43 70 40 71 36 72 37 73 38 74 39 75 65 76 66 77 74 78
REMARK SMILES IDX 67 79 73 80 75 81 72 82 68 83 69 84 70 85 71 86 50 87 51 88
REMARK SMILES IDX 59 89 52 90 58 91 60 92 57 93 53 94 54 95 55 96 56 97
REMARK H PARENT 10 11 9 18 9 19 80 50 48 61
REMARK Flexibility Score: inf
ROOT
ATOM      1  C   UNL     1       6.797   4.081  -0.142  1.00  0.00     0.202 C 
ENDROOT
BRANCH   1   2
ATOM      2  C   UNL     1       6.020   3.814   1.152  1.00  0.00     0.261 C 
BRANCH   2   3
ATOM      3  O   UNL     1       4.706   3.309   0.857  1.00  0.00    -0.463 OA
BRANCH   3   4
ATOM      4  C   UNL     1       3.704   3.758   1.665  1.00  0.00     0.315 C 
ATOM      5  O   UNL     1       3.894   4.357   2.719  1.00  0.00    -0.251 OA
BRANCH   4   6
ATOM      6  C   UNL     1       2.314   3.539   1.062  1.00  0.00     0.148 C 
BRANCH   6   7
ATOM      7  C   UNL     1       2.289   2.563  -0.132  1.00  0.00     0.136 C 
BRANCH   7   8
ATOM      8  N   UNL     1       2.860   1.254   0.131  1.00  0.00    -0.355 N 
ATOM      9  O   UNL     1       0.857   0.252   0.569  1.00  0.00    -0.275 OA
ATOM     10  C   UNL     1       2.067   0.160   0.385  1.00  0.00     0.226 C 
ATOM     11  H   UNL     1       3.838   1.147   0.127  1.00  0.00     0.163 HD
BRANCH  10  12
ATOM     12  C   UNL     1       2.794  -1.168   0.446  1.00  0.00     0.165 C 
BRANCH  12  13
ATOM     13  C   UNL     1       3.591  -1.506  -0.831  1.00  0.00     0.201 C 
ATOM     14  C   UNL     1       2.865  -1.222  -2.164  1.00  0.00     0.135 C 
ATOM     15  N   UNL     1       4.151  -2.877  -0.801  1.00  0.00    -0.342 N 
ATOM     16  S   UNL     1       1.434  -2.303  -2.444  1.00  0.00    -0.150 SA
ATOM     17  C   UNL     1       3.139  -3.936  -0.949  1.00  0.00     0.271 C 
ATOM     18  H   UNL     1       4.628  -3.009   0.091  1.00  0.00     0.346 HD
ATOM     19  H   UNL     1       4.783  -2.956  -1.597  1.00  0.00     0.346 HD
ATOM     20  C   UNL     1       2.318  -3.881  -2.244  1.00  0.00     0.131 C 
ENDBRANCH  12  13
ENDBRANCH  10  12
ENDBRANCH   7   8
ENDBRANCH   6   7
BRANCH   6  21
ATOM     21  C   UNL     1       1.626   4.855   0.663  1.00  0.00    -0.032 A 
ATOM     22  C   UNL     1       2.320   6.067   0.504  1.00  0.00     0.004 A 
ATOM     23  C   UNL     1       0.241   4.854   0.415  1.00  0.00     0.004 A 
ATOM     24  C   UNL     1       1.653   7.233   0.114  1.00  0.00     0.000 A 
ATOM     25  C   UNL     1      -0.421   6.017   0.015  1.00  0.00     0.000 A 
ATOM     26  C   UNL     1       0.284   7.207  -0.135  1.00  0.00     0.000 A 
ENDBRANCH   6  21
ENDBRANCH   4   6
ENDBRANCH   3   4
ENDBRANCH   2   3
ENDBRANCH   1   2
BRANCH   1  27
ATOM     27  O   UNL     1       6.245   5.061  -1.023  1.00  0.00    -0.374 OA
BRANCH  27  28
ATOM     28  C   UNL     1       5.060   4.719  -1.739  1.00  0.00     0.202 C 
BRANCH  28  29
ATOM     29  C   UNL     1       5.185   3.711  -2.892  1.00  0.00     0.261 C 
BRANCH  29  30
ATOM     30  O   UNL     1       5.683   2.423  -2.483  1.00  0.00    -0.460 OA
BRANCH  30  31
ATOM     31  C   UNL     1       6.911   2.118  -2.976  1.00  0.00     0.338 C 
ATOM     32  O   UNL     1       7.583   2.797  -3.743  1.00  0.00    -0.246 OA
BRANCH  31  33
ATOM     33  C   UNL     1       7.445   0.912  -2.320  1.00  0.00     0.060 A 
ATOM     34  C   UNL     1       8.659   1.027  -1.634  1.00  0.00     0.016 A 
ATOM     35  C   UNL     1       6.818  -0.329  -2.443  1.00  0.00     0.016 A 
ATOM     36  C   UNL     1       9.267  -0.105  -1.094  1.00  0.00     0.010 A 
ATOM     37  C   UNL     1       7.428  -1.465  -1.895  1.00  0.00     0.010 A 
ATOM     38  C   UNL     1       8.672  -1.365  -1.245  1.00  0.00    -0.014 A 
BRANCH  38  39
ATOM     39  C   UNL     1       9.429  -2.583  -0.853  1.00  0.00     0.031 A 
ATOM     40  C   UNL     1      10.095  -3.407  -1.924  1.00  0.00     0.074 A 
ATOM     41  C   UNL     1       9.564  -2.925   0.442  1.00  0.00     0.049 A 
ATOM     42  N   UNL     1      10.797  -4.505  -1.813  1.00  0.00    -0.248 NA
ATOM     43  C   UNL     1       9.949  -2.924  -3.306  1.00  0.00     0.031 C 
ATOM     44  C   UNL     1       9.003  -2.184   1.572  1.00  0.00     0.029 A 
ATOM     45  N   UNL     1      10.218  -3.981   1.026  1.00  0.00    -0.354 N 
ATOM     46  C   UNL     1      11.175  -4.847  -3.107  1.00  0.00     0.074 A 
ATOM     47  C   UNL     1      10.588  -3.861  -3.989  1.00  0.00     0.031 C 
ATOM     48  C   UNL     1       9.337  -2.811   2.713  1.00  0.00     0.029 A 
ATOM     49  C   UNL     1      10.103  -4.014   2.397  1.00  0.00     0.049 A 
ATOM     50  H   UNL     1      10.723  -4.651   0.512  1.00  0.00     0.167 HD
ATOM     51  C   UNL     1      11.952  -5.879  -3.522  1.00  0.00     0.034 A 
ATOM     52  C   UNL     1      10.548  -4.922   3.290  1.00  0.00     0.034 A 
ATOM     53  C   UNL     1      12.528  -6.860  -2.634  1.00  0.00     0.049 A 
ATOM     54  C   UNL     1      11.341  -6.110   2.796  1.00  0.00     0.074 A 
ATOM     55  C   UNL     1      13.338  -7.938  -2.948  1.00  0.00     0.029 A 
ATOM     56  N   UNL     1      12.347  -6.890  -1.257  1.00  0.00    -0.354 N 
ATOM     57  N   UNL     1      11.698  -6.414   1.569  1.00  0.00    -0.248 NA
ATOM     58  C   UNL     1      11.797  -7.071   3.809  1.00  0.00     0.031 C 
ATOM     59  C   UNL     1      13.589  -8.657  -1.774  1.00  0.00     0.029 A 
ATOM     60  C   UNL     1      13.001  -7.986  -0.714  1.00  0.00     0.049 A 
ATOM     61  H   UNL     1      11.829  -6.230  -0.742  1.00  0.00     0.167 HD
ATOM     62  C   UNL     1      12.447  -7.585   1.671  1.00  0.00     0.074 A 
ATOM     63  C   UNL     1      12.504  -7.920   3.078  1.00  0.00     0.031 C 
ATOM     64  C   UNL     1      13.038  -8.316   0.691  1.00  0.00     0.034 A 
BRANCH  51  65
ATOM     65  C   UNL     1      12.180  -6.022  -5.007  1.00  0.00     0.023 A 
ATOM     66  C   UNL     1      12.890  -5.058  -5.744  1.00  0.00     0.031 A 
ATOM     67  C   UNL     1      11.660  -7.129  -5.701  1.00  0.00     0.131 A 
ATOM     68  C   UNL     1      13.003  -5.185  -7.137  1.00  0.00     0.055 A 
ATOM     69  C   UNL     1      11.842  -7.289  -7.076  1.00  0.00     0.041 A 
ATOM     70  F   UNL     1      10.954  -8.071  -5.054  1.00  0.00    -0.206 F 
ATOM     71  C   UNL     1      12.505  -6.307  -7.805  1.00  0.00     0.022 A 
BRANCH  68  72
ATOM     72  S   UNL     1      13.695  -3.800  -8.082  1.00  0.00     0.124 S 
ATOM     73  O   UNL     1      12.774  -2.720  -7.737  1.00  0.00    -0.237 OA
ATOM     74  O   UNL     1      15.043  -3.689  -7.538  1.00  0.00    -0.237 OA
ATOM     75  O   UNL     1      13.617  -4.257  -9.468  1.00  0.00    -0.744 OA
ENDBRANCH  68  72
ENDBRANCH  51  65
BRANCH  52  76
ATOM     76  C   UNL     1      10.225  -4.782   4.740  1.00  0.00     0.023 A 
ATOM     77  C   UNL     1      11.237  -4.625   5.701  1.00  0.00     0.031 A 
ATOM     78  C   UNL     1       8.896  -4.876   5.194  1.00  0.00     0.131 A 
ATOM     79  C   UNL     1      10.910  -4.620   7.067  1.00  0.00     0.055 A 
ATOM     80  C   UNL     1       8.572  -4.814   6.550  1.00  0.00     0.041 A 
ATOM     81  F   UNL     1       7.889  -5.027   4.318  1.00  0.00    -0.206 F 
ATOM     82  C   UNL     1       9.584  -4.701   7.497  1.00  0.00     0.022 A 
BRANCH  79  83
ATOM     83  S   UNL     1      12.258  -4.605   8.282  1.00  0.00     0.124 S 
ATOM     84  O   UNL     1      13.011  -5.796   7.904  1.00  0.00    -0.237 OA
ATOM     85  O   UNL     1      12.899  -3.325   8.003  1.00  0.00    -0.237 OA
ATOM     86  O   UNL     1      11.560  -4.686   9.563  1.00  0.00    -0.744 OA
ENDBRANCH  79  83
ENDBRANCH  52  76
BRANCH  64  87
ATOM     87  C   UNL     1      13.831  -9.527   1.121  1.00  0.00     0.023 A 
ATOM     88  C   UNL     1      13.213 -10.650   1.698  1.00  0.00     0.031 A 
ATOM     89  C   UNL     1      15.229  -9.550   0.965  1.00  0.00     0.131 A 
ATOM     90  C   UNL     1      13.995 -11.723   2.153  1.00  0.00     0.055 A 
ATOM     91  C   UNL     1      15.996 -10.646   1.363  1.00  0.00     0.041 A 
ATOM     92  F   UNL     1      15.873  -8.505   0.421  1.00  0.00    -0.206 F 
ATOM     93  C   UNL     1      15.381 -11.735   1.974  1.00  0.00     0.022 A 
BRANCH  90  94
ATOM     94  S   UNL     1      13.186 -13.063   3.070  1.00  0.00     0.124 S 
ATOM     95  O   UNL     1      12.578 -12.344   4.184  1.00  0.00    -0.237 OA
ATOM     96  O   UNL     1      12.261 -13.604   2.079  1.00  0.00    -0.237 OA
ATOM     97  O   UNL     1      14.293 -13.948   3.431  1.00  0.00    -0.744 OA
ENDBRANCH  90  94
ENDBRANCH  64  87
ENDBRANCH  38  39
ENDBRANCH  31  33
ENDBRANCH  30  31
ENDBRANCH  29  30
ENDBRANCH  28  29
ENDBRANCH  27  28
ENDBRANCH   1  27
TORSDOF 22
