REMARK SMILES O=C(CSc1nnc2sc3ccccc3n12)N[C@H](Cc1c[nH]c2ccccc12)C(=O)OCCOCCOC(=O)c1ccc(-c2c3nc(c(-c4cc(S(=O)(=O)[O-])ccc4F)c4ccc([nH]4)c(-c4cc(S(=O)(=O)[O-])ccc4F)c4nc(c(-c5cc(S(=O)(=O)[O-])ccc5F)c5ccc2[nH]5)C=C4)C=C3)cc1
REMARK SMILES IDX 33 1 32 2 31 3 29 4 30 5 18 6 17 7 1 8 2 9 3 11 4 12 5 13
REMARK SMILES IDX 6 14 16 15 7 16 8 17 15 18 9 19 10 20 14 21 11 22 13 23
REMARK SMILES IDX 12 24 19 25 20 26 21 27 28 28 22 29 23 30 27 31 24 33 26 34
REMARK SMILES IDX 25 35 34 36 35 37 36 38 37 39 38 40 39 41 40 42 41 43 102 44
REMARK SMILES IDX 42 45 101 46 43 47 44 48 45 49 95 50 46 51 100 52 94 53
REMARK SMILES IDX 96 54 47 55 99 56 93 57 92 58 48 60 80 61 60 62 79 63 61 64
REMARK SMILES IDX 64 65 78 66 97 67 62 68 63 69 77 71 98 72 65 73 49 74 50 75
REMARK SMILES IDX 58 76 51 77 57 78 59 79 56 80 52 81 53 82 54 83 55 84 81 85
REMARK SMILES IDX 82 86 90 87 83 88 89 89 91 90 88 91 84 92 85 93 86 94 87 95
REMARK SMILES IDX 66 96 67 97 75 98 68 99 74 100 76 101 73 102 69 103 70 104
REMARK SMILES IDX 71 105 72 106
REMARK H PARENT 17 10 22 32 96 59 64 70
REMARK Flexibility Score: inf
ROOT
ATOM      1  C   UNL     1       3.041  -1.153   6.330  1.00  0.00     0.202 C 
ENDROOT
BRANCH   1   2
ATOM      2  C   UNL     1       2.902  -2.436   5.528  1.00  0.00     0.261 C 
BRANCH   2   3
ATOM      3  O   UNL     1       3.180  -2.267   4.122  1.00  0.00    -0.462 OA
BRANCH   3   4
ATOM      4  C   UNL     1       2.587  -3.107   3.075  1.00  0.00     0.329 C 
ATOM      5  O   UNL     1       2.035  -4.047   3.718  1.00  0.00    -0.250 OA
BRANCH   4   6
ATOM      6  C   UNL     1       2.733  -2.664   0.925  1.00  0.00     0.196 C 
BRANCH   6   7
ATOM      7  N   UNL     1       3.143  -3.697  -0.350  1.00  0.00    -0.342 N 
ATOM      8  O   UNL     1       5.279  -3.082  -0.890  1.00  0.00    -0.274 OA
ATOM      9  C   UNL     1       4.385  -3.920  -0.906  1.00  0.00     0.231 C 
ATOM     10  H   UNL     1       2.398  -4.205  -0.747  1.00  0.00     0.164 HD
BRANCH   9  11
ATOM     11  C   UNL     1       4.571  -5.311  -1.521  1.00  0.00     0.178 C 
BRANCH  11  12
ATOM     12  S   UNL     1       4.051  -6.681  -0.393  1.00  0.00    -0.076 SA
BRANCH  12  13
ATOM     13  C   UNL     1       5.046  -6.314   0.990  1.00  0.00     0.197 A 
ATOM     14  N   UNL     1       6.312  -6.659   1.124  1.00  0.00    -0.122 NA
ATOM     15  N   UNL     1       4.816  -5.200   1.737  1.00  0.00    -0.260 N 
ATOM     16  N   UNL     1       6.973  -5.611   1.766  1.00  0.00    -0.118 NA
ATOM     17  C   UNL     1       6.065  -4.698   2.001  1.00  0.00     0.217 A 
ATOM     18  C   UNL     1       3.744  -4.333   1.866  1.00  0.00     0.068 A 
ATOM     19  S   UNL     1       6.206  -2.954   2.163  1.00  0.00    -0.094 S 
ATOM     20  C   UNL     1       4.445  -2.744   2.150  1.00  0.00     0.055 A 
ATOM     21  C   UNL     1       1.994  -4.587   1.640  1.00  0.00     0.028 A 
ATOM     22  C   UNL     1       3.366  -1.320   2.328  1.00  0.00     0.021 A 
ATOM     23  C   UNL     1       0.872  -3.206   1.895  1.00  0.00     0.002 A 
ATOM     24  C   UNL     1       1.552  -1.573   2.256  1.00  0.00     0.002 A 
ENDBRANCH  12  13
ENDBRANCH  11  12
ENDBRANCH   9  11
ENDBRANCH   6   7
BRANCH   6  25
ATOM     25  C   UNL     1       3.242  -1.130   0.021  1.00  0.00     0.074 C 
BRANCH  25  26
ATOM     26  C   UNL     1       2.407   0.179   0.170  1.00  0.00    -0.020 A 
ATOM     27  C   UNL     1       1.030   0.311   0.066  1.00  0.00     0.087 A 
ATOM     28  C   UNL     1       2.899   1.515   0.462  1.00  0.00     0.003 A 
ATOM     29  N   UNL     1       0.674   1.582   0.437  1.00  0.00    -0.361 N 
ATOM     30  C   UNL     1       1.792   2.352   0.638  1.00  0.00     0.046 A 
ATOM     31  C   UNL     1       4.178   2.096   0.627  1.00  0.00     0.010 A 
ATOM     32  H   UNL     1      -0.252   1.897   0.544  1.00  0.00     0.166 HD
ATOM     33  C   UNL     1       1.891   3.713   0.968  1.00  0.00     0.026 A 
ATOM     34  C   UNL     1       4.297   3.464   0.930  1.00  0.00     0.001 A 
ATOM     35  C   UNL     1       3.168   4.260   1.099  1.00  0.00     0.002 A 
ENDBRANCH  25  26
ENDBRANCH   6  25
ENDBRANCH   4   6
ENDBRANCH   3   4
ENDBRANCH   2   3
ENDBRANCH   1   2
BRANCH   1  36
ATOM     36  O   UNL     1       2.061  -0.138   6.208  1.00  0.00    -0.374 OA
BRANCH  36  37
ATOM     37  C   UNL     1       2.021   0.457   4.921  1.00  0.00     0.202 C 
BRANCH  37  38
ATOM     38  C   UNL     1       3.167   1.414   4.511  1.00  0.00     0.261 C 
BRANCH  38  39
ATOM     39  O   UNL     1       4.469   0.780   4.461  1.00  0.00    -0.460 OA
BRANCH  39  40
ATOM     40  C   UNL     1       5.434   1.227   5.319  1.00  0.00     0.338 C 
ATOM     41  O   UNL     1       5.445   2.295   5.902  1.00  0.00    -0.246 OA
BRANCH  40  42
ATOM     42  C   UNL     1       6.233   0.030   5.715  1.00  0.00     0.060 A 
ATOM     43  C   UNL     1       6.814  -0.827   4.786  1.00  0.00     0.016 A 
ATOM     44  C   UNL     1       6.046  -0.413   7.030  1.00  0.00     0.016 A 
ATOM     45  C   UNL     1       6.990  -2.177   5.134  1.00  0.00     0.010 A 
ATOM     46  C   UNL     1       6.109  -1.782   7.315  1.00  0.00     0.010 A 
ATOM     47  C   UNL     1       6.460  -2.700   6.323  1.00  0.00    -0.014 A 
BRANCH  47  48
ATOM     48  C   UNL     1       6.635  -4.134   6.683  1.00  0.00     0.031 A 
ATOM     49  C   UNL     1       8.098  -4.395   6.894  1.00  0.00     0.074 A 
ATOM     50  C   UNL     1       5.655  -5.064   6.923  1.00  0.00     0.049 A 
ATOM     51  N   UNL     1       8.815  -5.295   6.305  1.00  0.00    -0.248 NA
ATOM     52  C   UNL     1       8.914  -3.401   7.631  1.00  0.00     0.031 C 
ATOM     53  C   UNL     1       4.208  -4.982   6.736  1.00  0.00     0.029 A 
ATOM     54  N   UNL     1       5.726  -6.308   7.525  1.00  0.00    -0.354 N 
ATOM     55  C   UNL     1      10.102  -5.146   6.818  1.00  0.00     0.074 A 
ATOM     56  C   UNL     1      10.149  -3.859   7.444  1.00  0.00     0.031 C 
ATOM     57  C   UNL     1       3.527  -5.816   7.551  1.00  0.00     0.029 A 
ATOM     58  C   UNL     1       4.496  -6.725   8.110  1.00  0.00     0.049 A 
ATOM     59  H   UNL     1       6.546  -6.852   7.546  1.00  0.00     0.167 HD
ATOM     60  C   UNL     1      10.928  -6.217   6.945  1.00  0.00     0.034 A 
ATOM     61  C   UNL     1       4.203  -7.835   8.854  1.00  0.00     0.034 A 
ATOM     62  C   UNL     1      10.502  -7.278   6.077  1.00  0.00     0.049 A 
ATOM     63  C   UNL     1       5.328  -8.775   8.685  1.00  0.00     0.074 A 
ATOM     64  C   UNL     1      10.446  -7.444   4.711  1.00  0.00     0.029 A 
ATOM     65  N   UNL     1       9.645  -8.197   6.625  1.00  0.00    -0.354 N 
ATOM     66  N   UNL     1       5.552  -9.389   7.557  1.00  0.00    -0.248 NA
ATOM     67  C   UNL     1       6.480  -8.520   9.536  1.00  0.00     0.031 C 
ATOM     68  C   UNL     1       9.238  -8.154   4.477  1.00  0.00     0.029 A 
ATOM     69  C   UNL     1       8.684  -8.519   5.706  1.00  0.00     0.049 A 
ATOM     70  H   UNL     1       9.710  -8.566   7.535  1.00  0.00     0.167 HD
ATOM     71  C   UNL     1       6.894  -9.140   7.321  1.00  0.00     0.074 A 
ATOM     72  C   UNL     1       7.412  -8.597   8.582  1.00  0.00     0.031 C 
ATOM     73  C   UNL     1       7.396  -9.080   6.055  1.00  0.00     0.034 A 
BRANCH  60  74
ATOM     74  C   UNL     1      11.808  -6.440   8.154  1.00  0.00     0.023 A 
ATOM     75  C   UNL     1      11.733  -5.665   9.332  1.00  0.00     0.031 A 
ATOM     76  C   UNL     1      12.584  -7.613   8.239  1.00  0.00     0.131 A 
ATOM     77  C   UNL     1      12.402  -6.044  10.504  1.00  0.00     0.055 A 
ATOM     78  C   UNL     1      13.195  -8.027   9.428  1.00  0.00     0.041 A 
ATOM     79  F   UNL     1      12.724  -8.426   7.180  1.00  0.00    -0.206 F 
ATOM     80  C   UNL     1      13.105  -7.242  10.569  1.00  0.00     0.022 A 
BRANCH  77  81
ATOM     81  S   UNL     1      12.375  -4.986  11.979  1.00  0.00     0.124 S 
ATOM     82  O   UNL     1      11.829  -5.883  12.991  1.00  0.00    -0.237 OA
ATOM     83  O   UNL     1      13.791  -4.656  12.128  1.00  0.00    -0.237 OA
ATOM     84  O   UNL     1      11.519  -3.870  11.588  1.00  0.00    -0.744 OA
ENDBRANCH  77  81
ENDBRANCH  60  74
BRANCH  61  85
ATOM     85  C   UNL     1       3.364  -7.859  10.090  1.00  0.00     0.023 A 
ATOM     86  C   UNL     1       3.210  -6.663  10.809  1.00  0.00     0.031 A 
ATOM     87  C   UNL     1       3.003  -9.049  10.756  1.00  0.00     0.131 A 
ATOM     88  C   UNL     1       2.804  -6.671  12.150  1.00  0.00     0.055 A 
ATOM     89  C   UNL     1       2.552  -9.054  12.089  1.00  0.00     0.041 A 
ATOM     90  F   UNL     1       3.148 -10.240  10.154  1.00  0.00    -0.206 F 
ATOM     91  C   UNL     1       2.474  -7.860  12.801  1.00  0.00     0.022 A 
BRANCH  88  92
ATOM     92  S   UNL     1       2.844  -5.130  13.103  1.00  0.00     0.124 S 
ATOM     93  O   UNL     1       1.515  -5.108  13.709  1.00  0.00    -0.237 OA
ATOM     94  O   UNL     1       3.951  -5.378  14.018  1.00  0.00    -0.237 OA
ATOM     95  O   UNL     1       3.076  -4.107  12.086  1.00  0.00    -0.744 OA
ENDBRANCH  88  92
ENDBRANCH  61  85
BRANCH  73  96
ATOM     96  C   UNL     1       6.536  -9.504   4.888  1.00  0.00     0.023 A 
ATOM     97  C   UNL     1       7.115 -10.466   4.046  1.00  0.00     0.031 A 
ATOM     98  C   UNL     1       5.384  -8.840   4.427  1.00  0.00     0.131 A 
ATOM     99  C   UNL     1       6.626 -10.670   2.756  1.00  0.00     0.055 A 
ATOM    100  C   UNL     1       4.834  -9.122   3.167  1.00  0.00     0.041 A 
ATOM    101  F   UNL     1       4.820  -7.844   5.128  1.00  0.00    -0.206 F 
ATOM    102  C   UNL     1       5.477 -10.015   2.311  1.00  0.00     0.022 A 
BRANCH  99 103
ATOM    103  S   UNL     1       7.583 -11.675   1.593  1.00  0.00     0.124 S 
ATOM    104  O   UNL     1       6.636 -12.733   1.252  1.00  0.00    -0.237 OA
ATOM    105  O   UNL     1       7.877 -10.730   0.519  1.00  0.00    -0.237 OA
ATOM    106  O   UNL     1       8.742 -12.111   2.369  1.00  0.00    -0.744 OA
ENDBRANCH  99 103
ENDBRANCH  73  96
ENDBRANCH  47  48
ENDBRANCH  40  42
ENDBRANCH  39  40
ENDBRANCH  38  39
ENDBRANCH  37  38
ENDBRANCH  36  37
ENDBRANCH   1  36
TORSDOF 23
