REMARK SMILES CN(C(=O)CC(=O)OCCOCCOC(=O)c1ccc(-c2c3nc(c(-c4cc(S(=O)(=O)[O-])ccc4F)c4ccc([nH]4)c(-c4cc(S(=O)(=O)[O-])ccc4F)c4nc(c(-c5cc(S(=O)(=O)[O-])ccc5F)c5ccc2[nH]5)C=C4)C=C3)cc1)C1CCC(C)(C)CC1
REMARK SMILES IDX 11 1 10 2 9 3 8 4 6 5 7 6 5 7 3 8 4 9 2 10 1 11 80 12 81 13
REMARK SMILES IDX 87 14 82 15 86 16 83 17 84 18 85 19 12 20 13 21 14 22 15 23
REMARK SMILES IDX 16 24 17 25 18 26 79 27 19 28 78 29 20 30 21 31 22 32 72 33
REMARK SMILES IDX 23 34 77 35 71 36 73 37 24 38 76 39 70 40 69 41 25 43 57 44
REMARK SMILES IDX 37 45 56 46 38 47 41 48 55 49 74 50 39 51 40 52 54 54 75 55
REMARK SMILES IDX 42 56 26 57 27 58 35 59 28 60 34 61 36 62 33 63 29 64 30 65
REMARK SMILES IDX 31 66 32 67 58 68 59 69 67 70 60 71 66 72 68 73 65 74 61 75
REMARK SMILES IDX 62 76 63 77 64 78 43 79 44 80 52 81 45 82 51 83 53 84 50 85
REMARK SMILES IDX 46 86 47 87 48 88 49 89
REMARK H PARENT 73 42 41 53
REMARK Flexibility Score: inf
ROOT
ATOM      1  O   UNL     1       2.852  -1.339  -3.527  1.00  0.00    -0.374 OA
ENDROOT
BRANCH   1   2
ATOM      2  C   UNL     1       2.996  -0.202  -4.367  1.00  0.00     0.202 C 
BRANCH   2   3
ATOM      3  C   UNL     1       1.832   0.794  -4.534  1.00  0.00     0.261 C 
BRANCH   3   4
ATOM      4  O   UNL     1       1.018   1.041  -3.369  1.00  0.00    -0.463 OA
BRANCH   4   5
ATOM      5  C   UNL     1      -0.224   0.490  -3.412  1.00  0.00     0.315 C 
ATOM      6  O   UNL     1      -0.613  -0.261  -4.305  1.00  0.00    -0.252 OA
BRANCH   5   7
ATOM      7  C   UNL     1      -1.116   0.801  -2.247  1.00  0.00     0.222 C 
BRANCH   7   8
ATOM      8  C   UNL     1      -0.677   1.841  -1.246  1.00  0.00     0.233 C 
ATOM      9  O   UNL     1      -0.957   3.007  -1.526  1.00  0.00    -0.274 OA
BRANCH   8  10
ATOM     10  N   UNL     1      -0.088   1.464  -0.033  1.00  0.00    -0.342 N 
ATOM     11  C   UNL     1      -0.037   0.065   0.394  1.00  0.00     0.147 C 
BRANCH  10  12
ATOM     12  C   UNL     1       0.350   2.442   1.022  1.00  0.00     0.084 C 
ATOM     13  C   UNL     1       1.867   2.420   1.269  1.00  0.00     0.025 C 
ATOM     14  C   UNL     1      -0.101   3.913   0.947  1.00  0.00     0.025 C 
ATOM     15  C   UNL     1       2.626   3.171   0.183  1.00  0.00     0.008 C 
ATOM     16  C   UNL     1       0.695   4.802  -0.014  1.00  0.00     0.008 C 
ATOM     17  C   UNL     1       2.225   4.653   0.049  1.00  0.00    -0.035 C 
ATOM     18  C   UNL     1       2.795   5.234  -1.262  1.00  0.00     0.011 C 
ATOM     19  C   UNL     1       2.803   5.471   1.218  1.00  0.00     0.011 C 
ENDBRANCH  10  12
ENDBRANCH   8  10
ENDBRANCH   7   8
ENDBRANCH   5   7
ENDBRANCH   4   5
ENDBRANCH   3   4
ENDBRANCH   2   3
ENDBRANCH   1   2
BRANCH   1  20
ATOM     20  C   UNL     1       2.508  -1.134  -2.167  1.00  0.00     0.202 C 
BRANCH  20  21
ATOM     21  C   UNL     1       3.340  -0.191  -1.289  1.00  0.00     0.261 C 
BRANCH  21  22
ATOM     22  O   UNL     1       3.886   0.951  -1.951  1.00  0.00    -0.460 OA
BRANCH  22  23
ATOM     23  C   UNL     1       5.234   1.061  -1.901  1.00  0.00     0.338 C 
ATOM     24  O   UNL     1       6.028   0.281  -1.399  1.00  0.00    -0.246 OA
BRANCH  23  25
ATOM     25  C   UNL     1       5.609   2.347  -2.499  1.00  0.00     0.060 A 
ATOM     26  C   UNL     1       5.912   2.459  -3.857  1.00  0.00     0.016 A 
ATOM     27  C   UNL     1       5.699   3.455  -1.663  1.00  0.00     0.016 A 
ATOM     28  C   UNL     1       6.331   3.692  -4.373  1.00  0.00     0.010 A 
ATOM     29  C   UNL     1       6.036   4.694  -2.199  1.00  0.00     0.010 A 
ATOM     30  C   UNL     1       6.406   4.823  -3.546  1.00  0.00    -0.014 A 
BRANCH  30  31
ATOM     31  C   UNL     1       7.013   6.108  -4.002  1.00  0.00     0.031 A 
ATOM     32  C   UNL     1       8.217   6.643  -3.257  1.00  0.00     0.074 A 
ATOM     33  C   UNL     1       6.490   6.815  -5.024  1.00  0.00     0.049 A 
ATOM     34  N   UNL     1       8.819   7.800  -3.359  1.00  0.00    -0.248 NA
ATOM     35  C   UNL     1       8.779   5.773  -2.209  1.00  0.00     0.031 C 
ATOM     36  C   UNL     1       5.317   6.432  -5.810  1.00  0.00     0.029 A 
ATOM     37  N   UNL     1       6.880   8.012  -5.576  1.00  0.00    -0.354 N 
ATOM     38  C   UNL     1       9.787   7.810  -2.357  1.00  0.00     0.074 A 
ATOM     39  C   UNL     1       9.624   6.589  -1.604  1.00  0.00     0.031 C 
ATOM     40  C   UNL     1       5.107   7.354  -6.765  1.00  0.00     0.029 A 
ATOM     41  C   UNL     1       6.092   8.423  -6.629  1.00  0.00     0.049 A 
ATOM     42  H   UNL     1       7.651   8.528  -5.249  1.00  0.00     0.167 HD
ATOM     43  C   UNL     1      10.754   8.728  -2.112  1.00  0.00     0.034 A 
ATOM     44  C   UNL     1       6.154   9.539  -7.386  1.00  0.00     0.034 A 
ATOM     45  C   UNL     1      10.944   9.909  -2.914  1.00  0.00     0.049 A 
ATOM     46  C   UNL     1       7.238  10.554  -7.098  1.00  0.00     0.074 A 
ATOM     47  C   UNL     1      11.925  10.877  -2.805  1.00  0.00     0.029 A 
ATOM     48  N   UNL     1      10.137  10.276  -3.984  1.00  0.00    -0.354 N 
ATOM     49  N   UNL     1       8.164  10.535  -6.166  1.00  0.00    -0.248 NA
ATOM     50  C   UNL     1       7.291  11.735  -7.970  1.00  0.00     0.031 C 
ATOM     51  C   UNL     1      11.671  11.864  -3.761  1.00  0.00     0.029 A 
ATOM     52  C   UNL     1      10.586  11.467  -4.528  1.00  0.00     0.049 A 
ATOM     53  H   UNL     1       9.361   9.765  -4.307  1.00  0.00     0.167 HD
ATOM     54  C   UNL     1       8.934  11.679  -6.371  1.00  0.00     0.074 A 
ATOM     55  C   UNL     1       8.368  12.359  -7.517  1.00  0.00     0.031 C 
ATOM     56  C   UNL     1      10.015  12.124  -5.680  1.00  0.00     0.034 A 
BRANCH  43  57
ATOM     57  C   UNL     1      11.662   8.488  -0.925  1.00  0.00     0.023 A 
ATOM     58  C   UNL     1      12.461   7.334  -0.824  1.00  0.00     0.031 A 
ATOM     59  C   UNL     1      11.691   9.398   0.146  1.00  0.00     0.131 A 
ATOM     60  C   UNL     1      13.166   7.069   0.359  1.00  0.00     0.055 A 
ATOM     61  C   UNL     1      12.479   9.179   1.279  1.00  0.00     0.041 A 
ATOM     62  F   UNL     1      10.937  10.508   0.122  1.00  0.00    -0.206 F 
ATOM     63  C   UNL     1      13.205   7.998   1.400  1.00  0.00     0.022 A 
BRANCH  60  64
ATOM     64  S   UNL     1      13.876   5.416   0.588  1.00  0.00     0.124 S 
ATOM     65  O   UNL     1      12.688   4.570   0.482  1.00  0.00    -0.237 OA
ATOM     66  O   UNL     1      14.825   5.324  -0.515  1.00  0.00    -0.237 OA
ATOM     67  O   UNL     1      14.470   5.479   1.921  1.00  0.00    -0.744 OA
ENDBRANCH  60  64
ENDBRANCH  43  57
BRANCH  44  68
ATOM     68  C   UNL     1       5.171   9.771  -8.487  1.00  0.00     0.023 A 
ATOM     69  C   UNL     1       5.590   9.864  -9.825  1.00  0.00     0.031 A 
ATOM     70  C   UNL     1       3.804   9.959  -8.215  1.00  0.00     0.131 A 
ATOM     71  C   UNL     1       4.665  10.188 -10.831  1.00  0.00     0.055 A 
ATOM     72  C   UNL     1       2.877  10.221  -9.227  1.00  0.00     0.041 A 
ATOM     73  F   UNL     1       3.345   9.884  -6.955  1.00  0.00    -0.206 F 
ATOM     74  C   UNL     1       3.308  10.351 -10.543  1.00  0.00     0.022 A 
BRANCH  71  75
ATOM     75  S   UNL     1       5.278  10.494 -12.511  1.00  0.00     0.124 S 
ATOM     76  O   UNL     1       6.227  11.578 -12.287  1.00  0.00    -0.237 OA
ATOM     77  O   UNL     1       5.852   9.200 -12.865  1.00  0.00    -0.237 OA
ATOM     78  O   UNL     1       4.073  10.862 -13.252  1.00  0.00    -0.744 OA
ENDBRANCH  71  75
ENDBRANCH  44  68
BRANCH  56  79
ATOM     79  C   UNL     1      10.705  13.366  -6.190  1.00  0.00     0.023 A 
ATOM     80  C   UNL     1      10.087  14.628  -6.166  1.00  0.00     0.031 A 
ATOM     81  C   UNL     1      12.018  13.281  -6.689  1.00  0.00     0.131 A 
ATOM     82  C   UNL     1      10.764  15.745  -6.678  1.00  0.00     0.055 A 
ATOM     83  C   UNL     1      12.711  14.407  -7.133  1.00  0.00     0.041 A 
ATOM     84  F   UNL     1      12.656  12.100  -6.738  1.00  0.00    -0.206 F 
ATOM     85  C   UNL     1      12.080  15.646  -7.141  1.00  0.00     0.022 A 
BRANCH  82  86
ATOM     86  S   UNL     1       9.870  17.317  -6.818  1.00  0.00     0.124 S 
ATOM     87  O   UNL     1       8.742  16.948  -7.667  1.00  0.00    -0.237 OA
ATOM     88  O   UNL     1       9.551  17.619  -5.427  1.00  0.00    -0.237 OA
ATOM     89  O   UNL     1      10.846  18.212  -7.438  1.00  0.00    -0.744 OA
ENDBRANCH  82  86
ENDBRANCH  56  79
ENDBRANCH  30  31
ENDBRANCH  23  25
ENDBRANCH  22  23
ENDBRANCH  21  22
ENDBRANCH  20  21
ENDBRANCH   1  20
TORSDOF 20
