REMARK SMILES CCc1ccc2c(CC(=O)OCCOCCOC(=O)c3ccc(-c4c5nc(c(-c6cc(S(=O)(=O)[O-])ccc6F)c6ccc([nH]6)c(-c6cc(S(=O)(=O)[O-])ccc6F)c6nc(c(-c7cc(S(=O)(=O)[O-])ccc7F)c7ccc4[nH]7)C=C6)C=C5)cc3)c(C(=O)c3cc(C)ccn3)[nH]c2c1
REMARK SMILES IDX 14 1 13 2 12 3 11 4 9 5 10 6 8 7 7 8 3 9 4 10 95 11 5 12
REMARK SMILES IDX 94 13 6 14 93 15 83 16 2 18 1 19 84 20 85 21 86 22 87 23
REMARK SMILES IDX 92 24 88 25 91 26 89 27 90 28 15 29 16 30 17 31 18 32 19 33
REMARK SMILES IDX 20 34 21 35 82 36 22 37 81 38 23 39 24 40 25 41 75 42 26 43
REMARK SMILES IDX 80 44 74 45 76 46 27 47 79 48 73 49 72 50 28 52 60 53 40 54
REMARK SMILES IDX 59 55 41 56 44 57 58 58 77 59 42 60 43 61 57 63 78 64 45 65
REMARK SMILES IDX 29 66 30 67 38 68 31 69 37 70 39 71 36 72 32 73 33 74 34 75
REMARK SMILES IDX 35 76 61 77 62 78 70 79 63 80 69 81 71 82 68 83 64 84 65 85
REMARK SMILES IDX 66 86 67 87 46 88 47 89 55 90 48 91 54 92 56 93 53 94 49 95
REMARK SMILES IDX 50 96 51 97 52 98
REMARK H PARENT 93 17 76 51 44 62
REMARK Flexibility Score: inf
ROOT
ATOM      1  O   UNL     1       5.138   8.722  -5.288  1.00  0.00    -0.374 OA
ENDROOT
BRANCH   1   2
ATOM      2  C   UNL     1       5.516   8.669  -3.912  1.00  0.00     0.202 C 
BRANCH   2   3
ATOM      3  C   UNL     1       4.391   8.573  -2.867  1.00  0.00     0.261 C 
BRANCH   3   4
ATOM      4  O   UNL     1       3.440   7.514  -3.112  1.00  0.00    -0.463 OA
BRANCH   4   5
ATOM      5  C   UNL     1       2.130   7.872  -3.005  1.00  0.00     0.310 C 
ATOM      6  O   UNL     1       1.749   8.973  -2.610  1.00  0.00    -0.252 OA
BRANCH   5   7
ATOM      7  C   UNL     1       1.139   6.862  -3.548  1.00  0.00     0.161 C 
BRANCH   7   8
ATOM      8  C   UNL     1       1.484   5.400  -3.468  1.00  0.00     0.000 A 
ATOM      9  C   UNL     1       1.030   2.479  -0.436  1.00  0.00    -0.046 A 
ATOM     10  C   UNL     1       0.817   3.811  -0.050  1.00  0.00     0.004 A 
ATOM     11  C   UNL     1       1.491   2.211  -1.734  1.00  0.00     0.030 A 
ATOM     12  C   UNL     1       0.999   4.877  -0.944  1.00  0.00     0.011 A 
ATOM     13  C   UNL     1       1.640   3.287  -2.621  1.00  0.00     0.046 A 
ATOM     14  C   UNL     1       1.376   4.606  -2.273  1.00  0.00     0.004 A 
ATOM     15  N   UNL     1       2.027   3.295  -3.938  1.00  0.00    -0.352 N 
ATOM     16  C   UNL     1       1.746   4.514  -4.523  1.00  0.00     0.093 A 
ATOM     17  H   UNL     1       2.448   2.536  -4.402  1.00  0.00     0.167 HD
BRANCH   9  18
ATOM     18  C   UNL     1       0.687   1.391   0.561  1.00  0.00     0.032 C 
ATOM     19  C   UNL     1       1.071  -0.036   0.188  1.00  0.00     0.009 C 
ENDBRANCH   9  18
BRANCH  16  20
ATOM     20  C   UNL     1       1.718   4.742  -5.968  1.00  0.00     0.227 C 
ATOM     21  O   UNL     1       1.227   5.739  -6.492  1.00  0.00    -0.285 OA
BRANCH  20  22
ATOM     22  C   UNL     1       2.325   3.715  -6.869  1.00  0.00     0.113 A 
ATOM     23  C   UNL     1       1.645   2.553  -7.205  1.00  0.00     0.036 A 
ATOM     24  N   UNL     1       3.585   3.987  -7.282  1.00  0.00    -0.253 NA
ATOM     25  C   UNL     1       2.315   1.609  -7.995  1.00  0.00    -0.047 A 
ATOM     26  C   UNL     1       4.217   3.063  -8.026  1.00  0.00     0.112 A 
ATOM     27  C   UNL     1       1.665   0.324  -8.407  1.00  0.00     0.044 C 
ATOM     28  C   UNL     1       3.629   1.871  -8.400  1.00  0.00     0.023 A 
ENDBRANCH  20  22
ENDBRANCH  16  20
ENDBRANCH   7   8
ENDBRANCH   5   7
ENDBRANCH   4   5
ENDBRANCH   3   4
ENDBRANCH   2   3
ENDBRANCH   1   2
BRANCH   1  29
ATOM     29  C   UNL     1       4.405   7.615  -5.801  1.00  0.00     0.202 C 
BRANCH  29  30
ATOM     30  C   UNL     1       5.076   6.240  -5.761  1.00  0.00     0.261 C 
BRANCH  30  31
ATOM     31  O   UNL     1       5.783   5.939  -4.560  1.00  0.00    -0.460 OA
BRANCH  31  32
ATOM     32  C   UNL     1       6.894   5.195  -4.737  1.00  0.00     0.338 C 
ATOM     33  O   UNL     1       7.310   4.691  -5.771  1.00  0.00    -0.246 OA
BRANCH  32  34
ATOM     34  C   UNL     1       7.588   5.097  -3.452  1.00  0.00     0.060 A 
ATOM     35  C   UNL     1       8.587   6.026  -3.150  1.00  0.00     0.016 A 
ATOM     36  C   UNL     1       7.307   4.029  -2.598  1.00  0.00     0.016 A 
ATOM     37  C   UNL     1       9.353   5.852  -2.000  1.00  0.00     0.010 A 
ATOM     38  C   UNL     1       8.068   3.865  -1.441  1.00  0.00     0.010 A 
ATOM     39  C   UNL     1       9.120   4.753  -1.158  1.00  0.00    -0.014 A 
BRANCH  39  40
ATOM     40  C   UNL     1      10.073   4.463  -0.061  1.00  0.00     0.031 A 
ATOM     41  C   UNL     1      11.127   3.411  -0.276  1.00  0.00     0.074 A 
ATOM     42  C   UNL     1      10.027   5.173   1.080  1.00  0.00     0.049 A 
ATOM     43  N   UNL     1      12.075   3.010   0.530  1.00  0.00    -0.248 NA
ATOM     44  C   UNL     1      11.108   2.719  -1.575  1.00  0.00     0.031 C 
ATOM     45  C   UNL     1       9.066   6.239   1.368  1.00  0.00     0.029 A 
ATOM     46  N   UNL     1      10.810   5.115   2.203  1.00  0.00    -0.354 N 
ATOM     47  C   UNL     1      12.780   2.036  -0.171  1.00  0.00     0.074 A 
ATOM     48  C   UNL     1      12.113   1.867  -1.444  1.00  0.00     0.031 C 
ATOM     49  C   UNL     1       9.325   6.742   2.588  1.00  0.00     0.029 A 
ATOM     50  C   UNL     1      10.444   6.013   3.179  1.00  0.00     0.049 A 
ATOM     51  H   UNL     1      11.563   4.489   2.303  1.00  0.00     0.167 HD
ATOM     52  C   UNL     1      13.893   1.361   0.208  1.00  0.00     0.034 A 
ATOM     53  C   UNL     1      10.953   6.212   4.412  1.00  0.00     0.034 A 
ATOM     54  C   UNL     1      14.527   1.526   1.493  1.00  0.00     0.049 A 
ATOM     55  C   UNL     1      12.137   5.378   4.844  1.00  0.00     0.074 A 
ATOM     56  C   UNL     1      15.635   0.873   2.003  1.00  0.00     0.029 A 
ATOM     57  N   UNL     1      14.101   2.411   2.476  1.00  0.00    -0.354 N 
ATOM     58  N   UNL     1      12.791   4.458   4.171  1.00  0.00    -0.248 NA
ATOM     59  C   UNL     1      12.658   5.619   6.195  1.00  0.00     0.031 C 
ATOM     60  C   UNL     1      15.845   1.322   3.312  1.00  0.00     0.029 A 
ATOM     61  C   UNL     1      14.911   2.306   3.595  1.00  0.00     0.049 A 
ATOM     62  H   UNL     1      13.334   3.023   2.391  1.00  0.00     0.167 HD
ATOM     63  C   UNL     1      13.824   4.040   5.006  1.00  0.00     0.074 A 
ATOM     64  C   UNL     1      13.715   4.821   6.221  1.00  0.00     0.031 C 
ATOM     65  C   UNL     1      14.779   3.099   4.794  1.00  0.00     0.034 A 
BRANCH  52  66
ATOM     66  C   UNL     1      14.465   0.363  -0.770  1.00  0.00     0.023 A 
ATOM     67  C   UNL     1      15.008   0.770  -2.002  1.00  0.00     0.031 A 
ATOM     68  C   UNL     1      14.449  -1.012  -0.479  1.00  0.00     0.131 A 
ATOM     69  C   UNL     1      15.459  -0.191  -2.920  1.00  0.00     0.055 A 
ATOM     70  C   UNL     1      14.966  -1.958  -1.367  1.00  0.00     0.041 A 
ATOM     71  F   UNL     1      13.922  -1.462   0.671  1.00  0.00    -0.206 F 
ATOM     72  C   UNL     1      15.464  -1.550  -2.601  1.00  0.00     0.022 A 
BRANCH  69  73
ATOM     73  S   UNL     1      15.933   0.351  -4.585  1.00  0.00     0.124 S 
ATOM     74  O   UNL     1      14.679   0.913  -5.080  1.00  0.00    -0.237 OA
ATOM     75  O   UNL     1      17.001   1.307  -4.316  1.00  0.00    -0.237 OA
ATOM     76  O   UNL     1      16.355  -0.886  -5.241  1.00  0.00    -0.744 OA
ENDBRANCH  69  73
ENDBRANCH  52  66
BRANCH  53  77
ATOM     77  C   UNL     1      10.349   7.212   5.340  1.00  0.00     0.023 A 
ATOM     78  C   UNL     1      11.098   8.293   5.831  1.00  0.00     0.031 A 
ATOM     79  C   UNL     1       9.034   7.056   5.815  1.00  0.00     0.131 A 
ATOM     80  C   UNL     1      10.554   9.135   6.814  1.00  0.00     0.055 A 
ATOM     81  C   UNL     1       8.475   7.933   6.746  1.00  0.00     0.041 A 
ATOM     82  F   UNL     1       8.271   6.039   5.383  1.00  0.00    -0.206 F 
ATOM     83  C   UNL     1       9.243   8.970   7.266  1.00  0.00     0.022 A 
BRANCH  80  84
ATOM     84  S   UNL     1      11.631  10.374   7.588  1.00  0.00     0.124 S 
ATOM     85  O   UNL     1      12.750   9.555   8.040  1.00  0.00    -0.237 OA
ATOM     86  O   UNL     1      11.903  11.274   6.473  1.00  0.00    -0.237 OA
ATOM     87  O   UNL     1      10.796  10.932   8.650  1.00  0.00    -0.744 OA
ENDBRANCH  80  84
ENDBRANCH  53  77
BRANCH  65  88
ATOM     88  C   UNL     1      15.803   2.912   5.886  1.00  0.00     0.023 A 
ATOM     89  C   UNL     1      15.454   2.387   7.143  1.00  0.00     0.031 A 
ATOM     90  C   UNL     1      17.141   3.287   5.671  1.00  0.00     0.131 A 
ATOM     91  C   UNL     1      16.418   2.312   8.158  1.00  0.00     0.055 A 
ATOM     92  C   UNL     1      18.109   3.153   6.667  1.00  0.00     0.041 A 
ATOM     93  F   UNL     1      17.527   3.792   4.489  1.00  0.00    -0.206 F 
ATOM     94  C   UNL     1      17.747   2.677   7.924  1.00  0.00     0.022 A 
BRANCH  91  95
ATOM     95  S   UNL     1      15.890   1.819   9.822  1.00  0.00     0.124 S 
ATOM     96  O   UNL     1      14.884   2.828  10.133  1.00  0.00    -0.237 OA
ATOM     97  O   UNL     1      15.389   0.466   9.602  1.00  0.00    -0.237 OA
ATOM     98  O   UNL     1      17.118   1.903  10.611  1.00  0.00    -0.744 OA
ENDBRANCH  91  95
ENDBRANCH  65  88
ENDBRANCH  39  40
ENDBRANCH  32  34
ENDBRANCH  31  32
ENDBRANCH  30  31
ENDBRANCH  29  30
ENDBRANCH   1  29
TORSDOF 21
