REMARK SMILES CCn1ccc(NC(=O)[C@H]2[C@@H](C(=O)OCCOCCOC(=O)c3ccc(-c4c5nc(c(-c6cc(S(=O)(=O)[O-])ccc6F)c6ccc([nH]6)c(-c6cc(S(=O)(=O)[O-])ccc6F)c6nc(c(-c7cc(S(=O)(=O)[O-])ccc7F)c7ccc4[nH]7)C=C6)C=C5)cc3)[C@H]3C=C[C@@H]2C3)n1
REMARK SMILES IDX 17 1 16 2 15 3 14 4 12 5 13 6 11 7 10 8 89 9 86 10 88 11
REMARK SMILES IDX 90 12 87 13 8 14 7 15 9 17 6 18 3 19 4 20 91 21 5 22 2 23
REMARK SMILES IDX 1 24 18 25 19 26 20 27 21 28 22 29 23 30 24 31 85 32 25 33
REMARK SMILES IDX 84 34 26 35 27 36 28 37 78 38 29 39 83 40 77 41 79 42 30 43
REMARK SMILES IDX 82 44 76 45 75 46 31 48 63 49 43 50 62 51 44 52 47 53 61 54
REMARK SMILES IDX 80 55 45 56 46 57 60 59 81 60 48 61 32 62 33 63 41 64 34 65
REMARK SMILES IDX 40 66 42 67 39 68 35 69 36 70 37 71 38 72 64 73 65 74 73 75
REMARK SMILES IDX 66 76 72 77 74 78 71 79 67 80 68 81 69 82 70 83 49 84 50 85
REMARK SMILES IDX 58 86 51 87 57 88 59 89 56 90 52 91 53 92 54 93 55 94
REMARK H PARENT 7 16 79 47 47 58
REMARK Flexibility Score: inf
ROOT
ATOM      1  O   UNL     1      -2.173   7.133  -7.030  1.00  0.00    -0.374 OA
ENDROOT
BRANCH   1   2
ATOM      2  C   UNL     1      -2.609   5.811  -6.698  1.00  0.00     0.202 C 
BRANCH   2   3
ATOM      3  C   UNL     1      -1.911   4.665  -7.429  1.00  0.00     0.261 C 
BRANCH   3   4
ATOM      4  O   UNL     1      -0.575   4.442  -6.926  1.00  0.00    -0.463 OA
BRANCH   4   5
ATOM      5  C   UNL     1       0.431   4.778  -7.747  1.00  0.00     0.310 C 
ATOM      6  O   UNL     1       0.257   5.247  -8.873  1.00  0.00    -0.252 OA
BRANCH   5   7
ATOM      7  C   UNL     1       1.842   4.535  -7.247  1.00  0.00     0.119 C 
ATOM      8  C   UNL     1       2.436   4.077  -5.846  1.00  0.00     0.100 C 
ATOM      9  C   UNL     1       3.584   5.102  -5.678  1.00  0.00     0.025 C 
ATOM     10  C   UNL     1       2.669   5.832  -7.558  1.00  0.00     0.027 C 
ATOM     11  C   UNL     1       3.007   6.450  -5.365  1.00  0.00    -0.027 C 
ATOM     12  C   UNL     1       4.039   5.358  -7.119  1.00  0.00     0.017 C 
ATOM     13  C   UNL     1       2.463   6.898  -6.501  1.00  0.00    -0.027 C 
BRANCH   8  14
ATOM     14  C   UNL     1       1.496   3.794  -4.668  1.00  0.00     0.230 C 
ATOM     15  N   UNL     1       1.794   4.001  -3.358  1.00  0.00    -0.309 N 
ATOM     16  H   UNL     1       1.041   3.785  -2.761  1.00  0.00     0.171 HD
ATOM     17  O   UNL     1       0.405   3.251  -4.883  1.00  0.00    -0.274 OA
BRANCH  15  18
ATOM     18  C   UNL     1       2.896   4.441  -2.675  1.00  0.00     0.154 A 
ATOM     19  N   UNL     1       3.953   5.566  -1.220  1.00  0.00    -0.271 N 
ATOM     20  C   UNL     1       4.923   5.037  -2.016  1.00  0.00     0.111 A 
ATOM     21  N   UNL     1       2.713   5.192  -1.587  1.00  0.00    -0.155 NA
ATOM     22  C   UNL     1       4.266   4.191  -2.876  1.00  0.00     0.068 A 
BRANCH  19  23
ATOM     23  C   UNL     1       4.178   6.411  -0.067  1.00  0.00     0.141 C 
ATOM     24  C   UNL     1       3.455   5.929   1.163  1.00  0.00     0.029 C 
ENDBRANCH  19  23
ENDBRANCH  15  18
ENDBRANCH   8  14
ENDBRANCH   5   7
ENDBRANCH   4   5
ENDBRANCH   3   4
ENDBRANCH   2   3
ENDBRANCH   1   2
BRANCH   1  25
ATOM     25  C   UNL     1      -0.915   7.560  -6.522  1.00  0.00     0.202 C 
BRANCH  25  26
ATOM     26  C   UNL     1      -0.865   7.963  -5.059  1.00  0.00     0.261 C 
BRANCH  26  27
ATOM     27  O   UNL     1      -1.129   6.849  -4.226  1.00  0.00    -0.460 OA
BRANCH  27  28
ATOM     28  C   UNL     1      -2.345   6.820  -3.643  1.00  0.00     0.338 C 
ATOM     29  O   UNL     1      -3.349   7.435  -3.986  1.00  0.00    -0.246 OA
BRANCH  28  30
ATOM     30  C   UNL     1      -2.212   6.029  -2.419  1.00  0.00     0.060 A 
ATOM     31  C   UNL     1      -3.295   5.968  -1.548  1.00  0.00     0.016 A 
ATOM     32  C   UNL     1      -0.937   5.594  -2.034  1.00  0.00     0.016 A 
ATOM     33  C   UNL     1      -3.030   5.709  -0.218  1.00  0.00     0.010 A 
ATOM     34  C   UNL     1      -0.685   5.281  -0.728  1.00  0.00     0.010 A 
ATOM     35  C   UNL     1      -1.705   5.478   0.185  1.00  0.00    -0.014 A 
BRANCH  35  36
ATOM     36  C   UNL     1      -1.399   5.262   1.584  1.00  0.00     0.031 A 
ATOM     37  C   UNL     1      -1.918   3.941   1.990  1.00  0.00     0.074 A 
ATOM     38  C   UNL     1      -0.636   6.095   2.325  1.00  0.00     0.049 A 
ATOM     39  N   UNL     1      -3.079   3.700   2.504  1.00  0.00    -0.248 NA
ATOM     40  C   UNL     1      -1.257   2.739   1.442  1.00  0.00     0.031 C 
ATOM     41  C   UNL     1       0.124   7.272   1.887  1.00  0.00     0.029 A 
ATOM     42  N   UNL     1      -0.325   6.029   3.651  1.00  0.00    -0.354 N 
ATOM     43  C   UNL     1      -3.108   2.323   2.663  1.00  0.00     0.074 A 
ATOM     44  C   UNL     1      -2.181   1.811   1.699  1.00  0.00     0.031 C 
ATOM     45  C   UNL     1       0.968   7.668   2.875  1.00  0.00     0.029 A 
ATOM     46  C   UNL     1       0.705   6.881   4.070  1.00  0.00     0.049 A 
ATOM     47  H   UNL     1      -0.792   5.423   4.271  1.00  0.00     0.167 HD
ATOM     48  C   UNL     1      -3.522   1.797   3.849  1.00  0.00     0.034 A 
ATOM     49  C   UNL     1       1.290   6.901   5.309  1.00  0.00     0.034 A 
ATOM     50  C   UNL     1      -4.216   2.817   4.615  1.00  0.00     0.049 A 
ATOM     51  C   UNL     1       0.316   6.269   6.223  1.00  0.00     0.074 A 
ATOM     52  C   UNL     1      -5.396   3.520   4.501  1.00  0.00     0.029 A 
ATOM     53  N   UNL     1      -3.391   3.544   5.441  1.00  0.00    -0.354 N 
ATOM     54  N   UNL     1      -0.843   6.805   6.493  1.00  0.00    -0.248 NA
ATOM     55  C   UNL     1       0.416   4.839   6.477  1.00  0.00     0.031 C 
ATOM     56  C   UNL     1      -5.147   4.799   5.088  1.00  0.00     0.029 A 
ATOM     57  C   UNL     1      -3.859   4.818   5.622  1.00  0.00     0.049 A 
ATOM     58  H   UNL     1      -2.568   3.193   5.851  1.00  0.00     0.167 HD
ATOM     59  C   UNL     1      -1.722   5.738   6.534  1.00  0.00     0.074 A 
ATOM     60  C   UNL     1      -0.874   4.556   6.679  1.00  0.00     0.031 C 
ATOM     61  C   UNL     1      -3.014   5.893   6.120  1.00  0.00     0.034 A 
BRANCH  48  62
ATOM     62  C   UNL     1      -2.841   0.623   4.547  1.00  0.00     0.023 A 
ATOM     63  C   UNL     1      -3.314   0.299   5.835  1.00  0.00     0.031 A 
ATOM     64  C   UNL     1      -1.618   0.007   4.183  1.00  0.00     0.131 A 
ATOM     65  C   UNL     1      -2.553  -0.496   6.711  1.00  0.00     0.055 A 
ATOM     66  C   UNL     1      -0.885  -0.812   5.045  1.00  0.00     0.041 A 
ATOM     67  F   UNL     1      -1.007   0.203   3.012  1.00  0.00    -0.206 F 
ATOM     68  C   UNL     1      -1.336  -1.048   6.327  1.00  0.00     0.022 A 
BRANCH  65  69
ATOM     69  S   UNL     1      -3.116  -0.686   8.419  1.00  0.00     0.124 S 
ATOM     70  O   UNL     1      -3.195   0.702   8.860  1.00  0.00    -0.237 OA
ATOM     71  O   UNL     1      -4.386  -1.383   8.239  1.00  0.00    -0.237 OA
ATOM     72  O   UNL     1      -2.055  -1.478   9.037  1.00  0.00    -0.744 OA
ENDBRANCH  65  69
ENDBRANCH  48  62
BRANCH  49  73
ATOM     73  C   UNL     1       2.749   6.975   5.642  1.00  0.00     0.023 A 
ATOM     74  C   UNL     1       3.301   7.442   6.859  1.00  0.00     0.031 A 
ATOM     75  C   UNL     1       3.631   6.263   4.808  1.00  0.00     0.131 A 
ATOM     76  C   UNL     1       4.684   7.253   7.139  1.00  0.00     0.055 A 
ATOM     77  C   UNL     1       5.001   6.135   5.048  1.00  0.00     0.041 A 
ATOM     78  F   UNL     1       3.139   5.532   3.799  1.00  0.00    -0.206 F 
ATOM     79  C   UNL     1       5.536   6.636   6.220  1.00  0.00     0.022 A 
BRANCH  76  80
ATOM     80  S   UNL     1       5.395   7.677   8.774  1.00  0.00     0.124 S 
ATOM     81  O   UNL     1       5.197   9.120   8.839  1.00  0.00    -0.237 OA
ATOM     82  O   UNL     1       4.592   6.866   9.681  1.00  0.00    -0.237 OA
ATOM     83  O   UNL     1       6.794   7.258   8.659  1.00  0.00    -0.744 OA
ENDBRANCH  76  80
ENDBRANCH  49  73
BRANCH  61  84
ATOM     84  C   UNL     1      -3.590   7.293   6.126  1.00  0.00     0.023 A 
ATOM     85  C   UNL     1      -3.192   8.375   5.306  1.00  0.00     0.031 A 
ATOM     86  C   UNL     1      -4.673   7.494   6.999  1.00  0.00     0.131 A 
ATOM     87  C   UNL     1      -3.890   9.601   5.385  1.00  0.00     0.055 A 
ATOM     88  C   UNL     1      -5.373   8.694   7.053  1.00  0.00     0.041 A 
ATOM     89  F   UNL     1      -5.092   6.500   7.799  1.00  0.00    -0.206 F 
ATOM     90  C   UNL     1      -4.982   9.755   6.247  1.00  0.00     0.022 A 
BRANCH  87  91
ATOM     91  S   UNL     1      -3.383  11.046   4.390  1.00  0.00     0.124 S 
ATOM     92  O   UNL     1      -1.945  11.129   4.620  1.00  0.00    -0.237 OA
ATOM     93  O   UNL     1      -3.793  10.662   3.042  1.00  0.00    -0.237 OA
ATOM     94  O   UNL     1      -4.156  12.147   4.968  1.00  0.00    -0.744 OA
ENDBRANCH  87  91
ENDBRANCH  61  84
ENDBRANCH  35  36
ENDBRANCH  28  30
ENDBRANCH  27  28
ENDBRANCH  26  27
ENDBRANCH  25  26
ENDBRANCH   1  25
TORSDOF 20
