REMARK SMILES CCc1cc(Nc2ccc(C(=O)OCCOCCOC(=O)c3ccc(-c4c5nc(c(-c6cc(S(=O)(=O)[O-])ccc6F)c6ccc([nH]6)c(-c6cc(S(=O)(=O)[O-])ccc6F)c6nc(c(-c7cc(S(=O)(=O)[O-])ccc7F)c7ccc4[nH]7)C=C6)C=C5)cc3)cc2)nc(C(C)C)n1
REMARK SMILES IDX 16 1 15 2 14 3 13 4 11 5 12 6 10 7 7 8 8 9 86 10 9 11 85 12
REMARK SMILES IDX 6 13 5 15 3 16 4 17 92 18 88 19 87 20 2 21 1 22 89 23 90 24
REMARK SMILES IDX 91 25 17 26 18 27 19 28 20 29 21 30 22 31 23 32 84 33 24 34
REMARK SMILES IDX 83 35 25 36 26 37 27 38 77 39 28 40 82 41 76 42 78 43 29 44
REMARK SMILES IDX 81 45 75 46 74 47 30 49 62 50 42 51 61 52 43 53 46 54 60 55
REMARK SMILES IDX 79 56 44 57 45 58 59 60 80 61 47 62 31 63 32 64 40 65 33 66
REMARK SMILES IDX 39 67 41 68 38 69 34 70 35 71 36 72 37 73 63 74 64 75 72 76
REMARK SMILES IDX 65 77 71 78 73 79 70 80 66 81 67 82 68 83 69 84 48 85 49 86
REMARK SMILES IDX 57 87 50 88 56 89 58 90 55 91 51 92 52 93 53 94 54 95
REMARK H PARENT 6 14 78 48 46 59
REMARK Flexibility Score: inf
ROOT
ATOM      1  O   UNL     1       2.026  10.577   7.323  1.00  0.00    -0.374 OA
ENDROOT
BRANCH   1   2
ATOM      2  C   UNL     1       3.070  10.113   8.180  1.00  0.00     0.202 C 
BRANCH   2   3
ATOM      3  C   UNL     1       2.825   8.761   8.856  1.00  0.00     0.261 C 
BRANCH   3   4
ATOM      4  O   UNL     1       2.716   7.711   7.882  1.00  0.00    -0.460 OA
BRANCH   4   5
ATOM      5  C   UNL     1       1.470   7.209   7.720  1.00  0.00     0.338 C 
ATOM      6  O   UNL     1       0.486   7.446   8.407  1.00  0.00    -0.246 OA
BRANCH   5   7
ATOM      7  C   UNL     1       1.391   6.430   6.464  1.00  0.00     0.060 A 
ATOM      8  C   UNL     1       1.045   4.879   4.149  1.00  0.00     0.040 A 
ATOM      9  C   UNL     1       0.007   5.693   4.617  1.00  0.00     0.027 A 
ATOM     10  C   UNL     1       2.277   4.902   4.821  1.00  0.00     0.027 A 
ATOM     11  C   UNL     1       0.175   6.455   5.772  1.00  0.00     0.018 A 
ATOM     12  C   UNL     1       2.461   5.683   5.967  1.00  0.00     0.018 A 
BRANCH   8  13
ATOM     13  N   UNL     1       0.770   3.944   3.131  1.00  0.00    -0.340 N 
ATOM     14  H   UNL     1       0.390   4.287   2.291  1.00  0.00     0.168 HD
BRANCH  13  15
ATOM     15  C   UNL     1       0.996   2.554   3.222  1.00  0.00     0.134 A 
ATOM     16  C   UNL     1       0.865   0.386   2.300  1.00  0.00     0.046 A 
ATOM     17  C   UNL     1       0.655   1.746   2.157  1.00  0.00     0.071 A 
ATOM     18  N   UNL     1       1.387  -0.143   3.426  1.00  0.00    -0.238 NA
ATOM     19  C   UNL     1       1.709   0.715   4.410  1.00  0.00     0.133 A 
ATOM     20  N   UNL     1       1.532   2.041   4.340  1.00  0.00    -0.216 NA
BRANCH  16  21
ATOM     21  C   UNL     1       0.459  -0.588   1.225  1.00  0.00     0.053 C 
ATOM     22  C   UNL     1       1.044  -0.271  -0.144  1.00  0.00     0.011 C 
ENDBRANCH  16  21
BRANCH  19  23
ATOM     23  C   UNL     1       2.299   0.179   5.694  1.00  0.00     0.051 C 
ATOM     24  C   UNL     1       1.356  -0.819   6.362  1.00  0.00     0.016 C 
ATOM     25  C   UNL     1       3.676  -0.431   5.447  1.00  0.00     0.016 C 
ENDBRANCH  19  23
ENDBRANCH  13  15
ENDBRANCH   8  13
ENDBRANCH   5   7
ENDBRANCH   4   5
ENDBRANCH   3   4
ENDBRANCH   2   3
ENDBRANCH   1   2
BRANCH   1  26
ATOM     26  C   UNL     1       2.027  10.079   5.983  1.00  0.00     0.202 C 
BRANCH  26  27
ATOM     27  C   UNL     1       3.003  10.751   5.010  1.00  0.00     0.261 C 
BRANCH  27  28
ATOM     28  O   UNL     1       4.372  10.432   5.322  1.00  0.00    -0.460 OA
BRANCH  28  29
ATOM     29  C   UNL     1       5.094  11.461   5.828  1.00  0.00     0.338 C 
ATOM     30  O   UNL     1       4.725  12.620   5.959  1.00  0.00    -0.246 OA
BRANCH  29  31
ATOM     31  C   UNL     1       6.362  10.960   6.394  1.00  0.00     0.060 A 
ATOM     32  C   UNL     1       6.685  11.354   7.699  1.00  0.00     0.016 A 
ATOM     33  C   UNL     1       7.247  10.175   5.652  1.00  0.00     0.016 A 
ATOM     34  C   UNL     1       7.917  11.007   8.250  1.00  0.00     0.010 A 
ATOM     35  C   UNL     1       8.488   9.835   6.205  1.00  0.00     0.010 A 
ATOM     36  C   UNL     1       8.843  10.277   7.493  1.00  0.00    -0.014 A 
BRANCH  36  37
ATOM     37  C   UNL     1      10.229  10.105   7.997  1.00  0.00     0.031 A 
ATOM     38  C   UNL     1      11.312  11.009   7.471  1.00  0.00     0.074 A 
ATOM     39  C   UNL     1      10.514   9.173   8.926  1.00  0.00     0.049 A 
ATOM     40  N   UNL     1      12.592  11.014   7.738  1.00  0.00    -0.248 NA
ATOM     41  C   UNL     1      10.894  12.045   6.511  1.00  0.00     0.031 C 
ATOM     42  C   UNL     1       9.541   8.268   9.538  1.00  0.00     0.029 A 
ATOM     43  N   UNL     1      11.707   8.827   9.511  1.00  0.00    -0.354 N 
ATOM     44  C   UNL     1      13.137  12.038   6.970  1.00  0.00     0.074 A 
ATOM     45  C   UNL     1      12.050  12.620   6.212  1.00  0.00     0.031 C 
ATOM     46  C   UNL     1      10.181   7.458  10.400  1.00  0.00     0.029 A 
ATOM     47  C   UNL     1      11.611   7.760  10.375  1.00  0.00     0.049 A 
ATOM     48  H   UNL     1      12.552   9.298   9.329  1.00  0.00     0.167 HD
ATOM     49  C   UNL     1      14.425  12.453   6.905  1.00  0.00     0.034 A 
ATOM     50  C   UNL     1      12.571   7.086  11.043  1.00  0.00     0.034 A 
ATOM     51  C   UNL     1      15.496  11.872   7.676  1.00  0.00     0.049 A 
ATOM     52  C   UNL     1      14.009   7.534  10.904  1.00  0.00     0.074 A 
ATOM     53  C   UNL     1      16.826  12.254   7.724  1.00  0.00     0.029 A 
ATOM     54  N   UNL     1      15.367  10.777   8.519  1.00  0.00    -0.354 N 
ATOM     55  N   UNL     1      14.502   8.532  10.206  1.00  0.00    -0.248 NA
ATOM     56  C   UNL     1      15.019   6.771  11.650  1.00  0.00     0.031 C 
ATOM     57  C   UNL     1      17.514  11.346   8.535  1.00  0.00     0.029 A 
ATOM     58  C   UNL     1      16.601  10.445   9.058  1.00  0.00     0.049 A 
ATOM     59  H   UNL     1      14.524  10.305   8.707  1.00  0.00     0.167 HD
ATOM     60  C   UNL     1      15.872   8.536  10.464  1.00  0.00     0.074 A 
ATOM     61  C   UNL     1      16.123   7.453  11.390  1.00  0.00     0.031 C 
ATOM     62  C   UNL     1      16.836   9.362   9.983  1.00  0.00     0.034 A 
BRANCH  49  63
ATOM     63  C   UNL     1      14.764  13.552   5.929  1.00  0.00     0.023 A 
ATOM     64  C   UNL     1      14.306  14.870   6.096  1.00  0.00     0.031 A 
ATOM     65  C   UNL     1      15.580  13.271   4.818  1.00  0.00     0.131 A 
ATOM     66  C   UNL     1      14.635  15.848   5.145  1.00  0.00     0.055 A 
ATOM     67  C   UNL     1      15.956  14.262   3.911  1.00  0.00     0.041 A 
ATOM     68  F   UNL     1      16.026  12.024   4.598  1.00  0.00    -0.206 F 
ATOM     69  C   UNL     1      15.476  15.558   4.067  1.00  0.00     0.022 A 
BRANCH  66  70
ATOM     70  S   UNL     1      13.872  17.488   5.280  1.00  0.00     0.124 S 
ATOM     71  O   UNL     1      12.453  17.164   5.157  1.00  0.00    -0.237 OA
ATOM     72  O   UNL     1      14.313  17.935   6.596  1.00  0.00    -0.237 OA
ATOM     73  O   UNL     1      14.437  18.223   4.150  1.00  0.00    -0.744 OA
ENDBRANCH  66  70
ENDBRANCH  49  63
BRANCH  50  74
ATOM     74  C   UNL     1      12.235   5.884  11.862  1.00  0.00     0.023 A 
ATOM     75  C   UNL     1      12.512   5.839  13.238  1.00  0.00     0.031 A 
ATOM     76  C   UNL     1      11.723   4.721  11.258  1.00  0.00     0.131 A 
ATOM     77  C   UNL     1      12.343   4.640  13.948  1.00  0.00     0.055 A 
ATOM     78  C   UNL     1      11.495   3.550  11.983  1.00  0.00     0.041 A 
ATOM     79  F   UNL     1      11.444   4.704   9.945  1.00  0.00    -0.206 F 
ATOM     80  C   UNL     1      11.824   3.499  13.333  1.00  0.00     0.022 A 
BRANCH  77  81
ATOM     81  S   UNL     1      12.937   4.555  15.661  1.00  0.00     0.124 S 
ATOM     82  O   UNL     1      14.327   4.972  15.513  1.00  0.00    -0.237 OA
ATOM     83  O   UNL     1      12.052   5.499  16.334  1.00  0.00    -0.237 OA
ATOM     84  O   UNL     1      12.740   3.152  16.019  1.00  0.00    -0.744 OA
ENDBRANCH  77  81
ENDBRANCH  50  74
BRANCH  62  85
ATOM     85  C   UNL     1      18.240   9.159  10.500  1.00  0.00     0.023 A 
ATOM     86  C   UNL     1      18.982   8.003  10.201  1.00  0.00     0.031 A 
ATOM     87  C   UNL     1      18.840  10.138  11.313  1.00  0.00     0.131 A 
ATOM     88  C   UNL     1      20.258   7.829  10.757  1.00  0.00     0.055 A 
ATOM     89  C   UNL     1      20.134   9.988  11.812  1.00  0.00     0.041 A 
ATOM     90  F   UNL     1      18.177  11.262  11.631  1.00  0.00    -0.206 F 
ATOM     91  C   UNL     1      20.845   8.822  11.546  1.00  0.00     0.022 A 
BRANCH  88  92
ATOM     92  S   UNL     1      21.110   6.247  10.509  1.00  0.00     0.124 S 
ATOM     93  O   UNL     1      20.162   5.298  11.083  1.00  0.00    -0.237 OA
ATOM     94  O   UNL     1      21.261   6.198   9.058  1.00  0.00    -0.237 OA
ATOM     95  O   UNL     1      22.356   6.407  11.255  1.00  0.00    -0.744 OA
ENDBRANCH  88  92
ENDBRANCH  62  85
ENDBRANCH  36  37
ENDBRANCH  29  31
ENDBRANCH  28  29
ENDBRANCH  27  28
ENDBRANCH  26  27
ENDBRANCH   1  26
TORSDOF 21
