REMARK SMILES CCCCCNC(=O)Oc1cccc(-c2ccc([C@@H](C)C(=O)OCCOCCOC(=O)c3ccc(-c4c5nc(c(-c6cc(S(=O)(=O)[O-])ccc6F)c6ccc([nH]6)c(-c6cc(S(=O)(=O)[O-])ccc6F)c6nc(c(-c7cc(S(=O)(=O)[O-])ccc7F)c7ccc4[nH]7)C=C6)C=C5)cc3)cc2F)c1
REMARK SMILES IDX 24 1 23 2 21 3 22 4 19 5 20 6 18 7 15 8 16 9 96 10 17 11
REMARK SMILES IDX 95 12 97 13 14 14 10 15 11 16 98 17 12 18 13 19 9 20 7 21
REMARK SMILES IDX 6 22 8 24 5 25 4 26 3 27 2 28 1 29 25 30 26 31 27 32 28 33
REMARK SMILES IDX 29 34 30 35 31 36 32 37 33 38 94 39 34 40 93 41 35 42 36 43
REMARK SMILES IDX 37 44 87 45 38 46 92 47 86 48 88 49 39 50 91 51 85 52 84 53
REMARK SMILES IDX 40 55 72 56 52 57 71 58 53 59 56 60 70 61 89 62 54 63 55 64
REMARK SMILES IDX 69 66 90 67 57 68 41 69 42 70 50 71 43 72 49 73 51 74 48 75
REMARK SMILES IDX 44 76 45 77 46 78 47 79 73 80 74 81 82 82 75 83 81 84 83 85
REMARK SMILES IDX 80 86 76 87 77 88 78 89 79 90 58 91 59 92 67 93 60 94 66 95
REMARK SMILES IDX 68 96 65 97 61 98 62 99 63 100 64 101
REMARK H PARENT 6 23 88 54 56 65
REMARK Flexibility Score: inf
ROOT
ATOM      1  C   UNL     1      -3.293   5.427 -13.531  1.00  0.00     0.261 C 
ENDROOT
BRANCH   1   2
ATOM      2  O   UNL     1      -3.401   3.993 -13.465  1.00  0.00    -0.463 OA
BRANCH   2   3
ATOM      3  C   UNL     1      -2.516   3.295 -14.222  1.00  0.00     0.313 C 
ATOM      4  O   UNL     1      -1.736   3.799 -15.025  1.00  0.00    -0.252 OA
BRANCH   3   5
ATOM      5  C   UNL     1      -2.589   1.789 -14.022  1.00  0.00     0.126 C 
ATOM      6  C   UNL     1      -3.452   1.175 -15.120  1.00  0.00     0.025 C 
BRANCH   5   7
ATOM      7  C   UNL     1      -2.961   1.266 -12.638  1.00  0.00    -0.031 A 
ATOM      8  C   UNL     1      -3.613   0.117 -10.104  1.00  0.00     0.018 A 
ATOM      9  C   UNL     1      -4.554   0.866 -10.829  1.00  0.00     0.012 A 
ATOM     10  C   UNL     1      -2.339  -0.024 -10.667  1.00  0.00     0.131 A 
ATOM     11  C   UNL     1      -4.235   1.431 -12.076  1.00  0.00     0.005 A 
ATOM     12  C   UNL     1      -2.013   0.536 -11.904  1.00  0.00     0.044 A 
ATOM     13  F   UNL     1      -1.392  -0.733 -10.032  1.00  0.00    -0.206 F 
BRANCH   8  14
ATOM     14  C   UNL     1      -3.954  -0.506  -8.814  1.00  0.00    -0.012 A 
ATOM     15  C   UNL     1      -3.531  -0.834  -6.442  1.00  0.00     0.133 A 
ATOM     16  C   UNL     1      -4.576  -1.750  -6.354  1.00  0.00     0.047 A 
ATOM     17  C   UNL     1      -3.205  -0.230  -7.659  1.00  0.00     0.056 A 
ATOM     18  C   UNL     1      -5.327  -2.038  -7.490  1.00  0.00     0.004 A 
ATOM     19  C   UNL     1      -5.021  -1.417  -8.707  1.00  0.00     0.009 A 
BRANCH  15  20
ATOM     20  O   UNL     1      -2.762  -0.627  -5.285  1.00  0.00    -0.410 OA
BRANCH  20  21
ATOM     21  C   UNL     1      -2.549   0.681  -4.880  1.00  0.00     0.412 C 
ATOM     22  N   UNL     1      -1.770   0.789  -3.764  1.00  0.00    -0.321 N 
ATOM     23  H   UNL     1      -1.589   1.701  -3.442  1.00  0.00     0.167 HD
ATOM     24  O   UNL     1      -2.994   1.689  -5.431  1.00  0.00    -0.224 OA
BRANCH  22  25
ATOM     25  C   UNL     1      -1.180  -0.293  -3.002  1.00  0.00     0.119 C 
BRANCH  25  26
ATOM     26  C   UNL     1       0.347  -0.210  -2.974  1.00  0.00     0.021 C 
BRANCH  26  27
ATOM     27  C   UNL     1       0.918   1.034  -2.281  1.00  0.00     0.002 C 
BRANCH  27  28
ATOM     28  C   UNL     1       0.503   1.231  -0.821  1.00  0.00    -0.003 C 
ATOM     29  C   UNL     1       0.935   0.095   0.093  1.00  0.00     0.004 C 
ENDBRANCH  27  28
ENDBRANCH  26  27
ENDBRANCH  25  26
ENDBRANCH  22  25
ENDBRANCH  20  21
ENDBRANCH  15  20
ENDBRANCH   8  14
ENDBRANCH   5   7
ENDBRANCH   3   5
ENDBRANCH   2   3
ENDBRANCH   1   2
BRANCH   1  30
ATOM     30  C   UNL     1      -2.835   6.021 -12.196  1.00  0.00     0.202 C 
BRANCH  30  31
ATOM     31  O   UNL     1      -1.525   5.665 -11.756  1.00  0.00    -0.374 OA
BRANCH  31  32
ATOM     32  C   UNL     1      -1.348   4.366 -11.193  1.00  0.00     0.202 C 
BRANCH  32  33
ATOM     33  C   UNL     1      -1.886   4.126  -9.776  1.00  0.00     0.261 C 
BRANCH  33  34
ATOM     34  O   UNL     1      -3.319   4.208  -9.700  1.00  0.00    -0.460 OA
BRANCH  34  35
ATOM     35  C   UNL     1      -3.783   5.296  -9.033  1.00  0.00     0.338 C 
ATOM     36  O   UNL     1      -3.116   6.159  -8.488  1.00  0.00    -0.246 OA
BRANCH  35  37
ATOM     37  C   UNL     1      -5.240   5.431  -9.235  1.00  0.00     0.060 A 
ATOM     38  C   UNL     1      -5.710   6.671  -9.687  1.00  0.00     0.016 A 
ATOM     39  C   UNL     1      -6.135   4.406  -8.921  1.00  0.00     0.016 A 
ATOM     40  C   UNL     1      -7.079   6.911  -9.776  1.00  0.00     0.010 A 
ATOM     41  C   UNL     1      -7.512   4.652  -9.006  1.00  0.00     0.010 A 
ATOM     42  C   UNL     1      -7.990   5.917  -9.398  1.00  0.00    -0.014 A 
BRANCH  42  43
ATOM     43  C   UNL     1      -9.429   6.265  -9.267  1.00  0.00     0.031 A 
ATOM     44  C   UNL     1      -9.992   6.529  -7.896  1.00  0.00     0.074 A 
ATOM     45  C   UNL     1     -10.210   6.397 -10.354  1.00  0.00     0.049 A 
ATOM     46  N   UNL     1     -11.216   6.826  -7.542  1.00  0.00    -0.248 NA
ATOM     47  C   UNL     1      -9.044   6.444  -6.774  1.00  0.00     0.031 C 
ATOM     48  C   UNL     1      -9.766   6.223 -11.737  1.00  0.00     0.029 A 
ATOM     49  N   UNL     1     -11.542   6.709 -10.467  1.00  0.00    -0.354 N 
ATOM     50  C   UNL     1     -11.189   6.960  -6.157  1.00  0.00     0.074 A 
ATOM     51  C   UNL     1      -9.834   6.670  -5.736  1.00  0.00     0.031 C 
ATOM     52  C   UNL     1     -10.810   6.426 -12.559  1.00  0.00     0.029 A 
ATOM     53  C   UNL     1     -12.004   6.702 -11.762  1.00  0.00     0.049 A 
ATOM     54  H   UNL     1     -12.113   6.918  -9.692  1.00  0.00     0.167 HD
ATOM     55  C   UNL     1     -12.198   7.301  -5.317  1.00  0.00     0.034 A 
ATOM     56  C   UNL     1     -13.251   6.872 -12.247  1.00  0.00     0.034 A 
ATOM     57  C   UNL     1     -13.546   7.576  -5.752  1.00  0.00     0.049 A 
ATOM     58  C   UNL     1     -14.380   7.156 -11.284  1.00  0.00     0.074 A 
ATOM     59  C   UNL     1     -14.641   7.942  -4.988  1.00  0.00     0.029 A 
ATOM     60  N   UNL     1     -13.991   7.500  -7.066  1.00  0.00    -0.354 N 
ATOM     61  N   UNL     1     -14.341   7.283  -9.977  1.00  0.00    -0.248 NA
ATOM     62  C   UNL     1     -15.719   7.327 -11.864  1.00  0.00     0.031 C 
ATOM     63  C   UNL     1     -15.759   8.011  -5.826  1.00  0.00     0.029 A 
ATOM     64  C   UNL     1     -15.349   7.774  -7.128  1.00  0.00     0.049 A 
ATOM     65  H   UNL     1     -13.424   7.284  -7.841  1.00  0.00     0.167 HD
ATOM     66  C   UNL     1     -15.645   7.580  -9.585  1.00  0.00     0.074 A 
ATOM     67  C   UNL     1     -16.441   7.626 -10.794  1.00  0.00     0.031 C 
ATOM     68  C   UNL     1     -16.138   7.803  -8.339  1.00  0.00     0.034 A 
BRANCH  55  69
ATOM     69  C   UNL     1     -11.887   7.335  -3.838  1.00  0.00     0.023 A 
ATOM     70  C   UNL     1     -10.960   8.242  -3.293  1.00  0.00     0.031 A 
ATOM     71  C   UNL     1     -12.505   6.423  -2.964  1.00  0.00     0.131 A 
ATOM     72  C   UNL     1     -10.626   8.168  -1.931  1.00  0.00     0.055 A 
ATOM     73  C   UNL     1     -12.229   6.409  -1.596  1.00  0.00     0.041 A 
ATOM     74  F   UNL     1     -13.381   5.518  -3.429  1.00  0.00    -0.206 F 
ATOM     75  C   UNL     1     -11.273   7.275  -1.075  1.00  0.00     0.022 A 
BRANCH  72  76
ATOM     76  S   UNL     1      -9.230   9.155  -1.325  1.00  0.00     0.124 S 
ATOM     77  O   UNL     1      -8.142   8.687  -2.180  1.00  0.00    -0.237 OA
ATOM     78  O   UNL     1      -9.684  10.521  -1.558  1.00  0.00    -0.237 OA
ATOM     79  O   UNL     1      -9.119   8.765   0.080  1.00  0.00    -0.744 OA
ENDBRANCH  72  76
ENDBRANCH  55  69
BRANCH  56  80
ATOM     80  C   UNL     1     -13.518   6.736 -13.709  1.00  0.00     0.023 A 
ATOM     81  C   UNL     1     -13.998   7.814 -14.467  1.00  0.00     0.031 A 
ATOM     82  C   UNL     1     -13.346   5.499 -14.357  1.00  0.00     0.131 A 
ATOM     83  C   UNL     1     -14.332   7.626 -15.818  1.00  0.00     0.055 A 
ATOM     84  C   UNL     1     -13.627   5.331 -15.714  1.00  0.00     0.041 A 
ATOM     85  F   UNL     1     -12.893   4.433 -13.679  1.00  0.00    -0.206 F 
ATOM     86  C   UNL     1     -14.136   6.395 -16.450  1.00  0.00     0.022 A 
BRANCH  83  87
ATOM     87  S   UNL     1     -15.111   8.993 -16.721  1.00  0.00     0.124 S 
ATOM     88  O   UNL     1     -16.306   9.235 -15.921  1.00  0.00    -0.237 OA
ATOM     89  O   UNL     1     -14.078  10.022 -16.662  1.00  0.00    -0.237 OA
ATOM     90  O   UNL     1     -15.351   8.430 -18.049  1.00  0.00    -0.744 OA
ENDBRANCH  83  87
ENDBRANCH  56  80
BRANCH  68  91
ATOM     91  C   UNL     1     -17.601   8.164  -8.230  1.00  0.00     0.023 A 
ATOM     92  C   UNL     1     -18.619   7.252  -8.560  1.00  0.00     0.031 A 
ATOM     93  C   UNL     1     -17.981   9.447  -7.797  1.00  0.00     0.131 A 
ATOM     94  C   UNL     1     -19.963   7.653  -8.505  1.00  0.00     0.055 A 
ATOM     95  C   UNL     1     -19.321   9.820  -7.683  1.00  0.00     0.041 A 
ATOM     96  F   UNL     1     -17.053  10.362  -7.471  1.00  0.00    -0.206 F 
ATOM     97  C   UNL     1     -20.321   8.925  -8.052  1.00  0.00     0.022 A 
BRANCH  94  98
ATOM     98  S   UNL     1     -21.238   6.522  -9.127  1.00  0.00     0.124 S 
ATOM     99  O   UNL     1     -20.809   6.310 -10.506  1.00  0.00    -0.237 OA
ATOM    100  O   UNL     1     -21.102   5.376  -8.234  1.00  0.00    -0.237 OA
ATOM    101  O   UNL     1     -22.477   7.283  -8.973  1.00  0.00    -0.744 OA
ENDBRANCH  94  98
ENDBRANCH  68  91
ENDBRANCH  42  43
ENDBRANCH  35  37
ENDBRANCH  34  35
ENDBRANCH  33  34
ENDBRANCH  32  33
ENDBRANCH  31  32
ENDBRANCH  30  31
ENDBRANCH   1  30
TORSDOF 25
