REMARK SMILES Cc1cccc(Cn2c(=O)c3sccc3n(CC(=O)OCCOCCOC(=O)c3ccc(-c4c5nc(c(-c6cc(S(=O)(=O)[O-])ccc6F)c6ccc([nH]6)c(-c6cc(S(=O)(=O)[O-])ccc6F)c6nc(c(-c7cc(S(=O)(=O)[O-])ccc7F)c7ccc4[nH]7)C=C6)C=C5)cc3)c2=O)c1
REMARK SMILES IDX 23 1 22 2 21 3 20 4 18 5 19 6 17 7 16 8 8 9 9 10 92 11 10 12
REMARK SMILES IDX 11 13 93 14 12 15 15 16 13 17 14 18 7 19 6 20 1 21 2 22 3 23
REMARK SMILES IDX 94 24 4 25 5 26 24 27 25 28 26 29 27 30 28 31 29 32 30 33
REMARK SMILES IDX 91 34 31 35 90 36 32 37 33 38 34 39 84 40 35 41 89 42 83 43
REMARK SMILES IDX 85 44 36 45 88 46 82 47 81 48 37 50 69 51 49 52 68 53 50 54
REMARK SMILES IDX 53 55 67 56 86 57 51 58 52 59 66 61 87 62 54 63 38 64 39 65
REMARK SMILES IDX 47 66 40 67 46 68 48 69 45 70 41 71 42 72 43 73 44 74 70 75
REMARK SMILES IDX 71 76 79 77 72 78 78 79 80 80 77 81 73 82 74 83 75 84 76 85
REMARK SMILES IDX 55 86 56 87 64 88 57 89 63 90 65 91 62 92 58 93 59 94 60 95
REMARK SMILES IDX 61 96
REMARK H PARENT 85 49 53 60
REMARK Flexibility Score: inf
ROOT
ATOM      1  O   UNL     1      -6.723   3.902  -4.413  1.00  0.00    -0.374 OA
ENDROOT
BRANCH   1   2
ATOM      2  C   UNL     1      -6.405   4.190  -3.051  1.00  0.00     0.202 C 
BRANCH   2   3
ATOM      3  C   UNL     1      -6.681   2.915  -2.330  1.00  0.00     0.261 C 
BRANCH   3   4
ATOM      4  O   UNL     1      -5.635   1.974  -2.548  1.00  0.00    -0.462 OA
BRANCH   4   5
ATOM      5  C   UNL     1      -5.777   0.921  -3.404  1.00  0.00     0.326 C 
ATOM      6  O   UNL     1      -6.800   0.546  -3.926  1.00  0.00    -0.250 OA
BRANCH   5   7
ATOM      7  C   UNL     1      -4.423   0.228  -3.575  1.00  0.00     0.250 C 
BRANCH   7   8
ATOM      8  N   UNL     1      -3.375   1.169  -3.165  1.00  0.00    -0.281 N 
ATOM      9  N   UNL     1      -2.196   2.199  -1.354  1.00  0.00    -0.254 N 
ATOM     10  C   UNL     1      -1.705   3.245  -2.140  1.00  0.00     0.274 A 
ATOM     11  C   UNL     1      -3.098   1.224  -1.792  1.00  0.00     0.332 A 
ATOM     12  O   UNL     1      -0.881   4.069  -1.742  1.00  0.00    -0.268 OA
ATOM     13  C   UNL     1      -2.198   3.220  -3.496  1.00  0.00     0.116 A 
ATOM     14  O   UNL     1      -3.651   0.421  -1.034  1.00  0.00    -0.247 OA
ATOM     15  S   UNL     1      -1.909   4.449  -4.634  1.00  0.00    -0.136 S 
ATOM     16  C   UNL     1      -2.971   2.210  -3.998  1.00  0.00     0.070 A 
ATOM     17  C   UNL     1      -2.831   3.631  -5.827  1.00  0.00     0.068 A 
ATOM     18  C   UNL     1      -3.335   2.437  -5.357  1.00  0.00     0.039 A 
BRANCH   9  19
ATOM     19  C   UNL     1      -1.814   2.151   0.053  1.00  0.00     0.166 C 
BRANCH  19  20
ATOM     20  C   UNL     1      -0.888   0.967   0.293  1.00  0.00    -0.028 A 
ATOM     21  C   UNL     1       2.776   0.021  -0.130  1.00  0.00     0.044 C 
ATOM     22  C   UNL     1       1.298  -0.075   0.089  1.00  0.00    -0.051 A 
ATOM     23  C   UNL     1       0.712  -1.331   0.294  1.00  0.00     0.003 A 
ATOM     24  C   UNL     1       0.489   1.069   0.061  1.00  0.00     0.009 A 
ATOM     25  C   UNL     1      -0.649  -1.438   0.557  1.00  0.00     0.001 A 
ATOM     26  C   UNL     1      -1.432  -0.291   0.598  1.00  0.00     0.005 A 
ENDBRANCH  19  20
ENDBRANCH   9  19
ENDBRANCH   7   8
ENDBRANCH   5   7
ENDBRANCH   4   5
ENDBRANCH   3   4
ENDBRANCH   2   3
ENDBRANCH   1   2
BRANCH   1  27
ATOM     27  C   UNL     1      -6.344   4.905  -5.328  1.00  0.00     0.202 C 
BRANCH  27  28
ATOM     28  C   UNL     1      -6.966   6.276  -5.047  1.00  0.00     0.261 C 
BRANCH  28  29
ATOM     29  O   UNL     1      -8.400   6.208  -5.188  1.00  0.00    -0.460 OA
BRANCH  29  30
ATOM     30  C   UNL     1      -9.097   6.320  -4.023  1.00  0.00     0.338 C 
ATOM     31  O   UNL     1      -9.080   7.296  -3.290  1.00  0.00    -0.246 OA
BRANCH  30  32
ATOM     32  C   UNL     1      -9.752   5.021  -3.697  1.00  0.00     0.060 A 
ATOM     33  C   UNL     1     -10.203   4.767  -2.390  1.00  0.00     0.016 A 
ATOM     34  C   UNL     1      -9.654   3.979  -4.616  1.00  0.00     0.016 A 
ATOM     35  C   UNL     1     -10.412   3.447  -1.965  1.00  0.00     0.010 A 
ATOM     36  C   UNL     1      -9.751   2.682  -4.161  1.00  0.00     0.010 A 
ATOM     37  C   UNL     1     -10.108   2.401  -2.832  1.00  0.00    -0.014 A 
BRANCH  37  38
ATOM     38  C   UNL     1     -10.086   0.976  -2.486  1.00  0.00     0.031 A 
ATOM     39  C   UNL     1     -11.082   0.110  -3.150  1.00  0.00     0.074 A 
ATOM     40  C   UNL     1      -9.094   0.414  -1.750  1.00  0.00     0.049 A 
ATOM     41  N   UNL     1     -11.395  -1.065  -2.736  1.00  0.00    -0.248 NA
ATOM     42  C   UNL     1     -11.877   0.520  -4.309  1.00  0.00     0.031 C 
ATOM     43  C   UNL     1      -8.727  -0.998  -1.621  1.00  0.00     0.029 A 
ATOM     44  N   UNL     1      -8.192   1.032  -0.877  1.00  0.00    -0.354 N 
ATOM     45  C   UNL     1     -12.094  -1.682  -3.744  1.00  0.00     0.074 A 
ATOM     46  C   UNL     1     -12.528  -0.610  -4.592  1.00  0.00     0.031 C 
ATOM     47  C   UNL     1      -7.959  -1.158  -0.524  1.00  0.00     0.029 A 
ATOM     48  C   UNL     1      -7.907   0.129   0.153  1.00  0.00     0.049 A 
ATOM     49  H   UNL     1      -7.823   1.940  -0.971  1.00  0.00     0.167 HD
ATOM     50  C   UNL     1     -12.059  -3.042  -3.806  1.00  0.00     0.034 A 
ATOM     51  C   UNL     1      -8.240   0.431   1.436  1.00  0.00     0.034 A 
ATOM     52  C   UNL     1     -11.459  -3.592  -2.575  1.00  0.00     0.049 A 
ATOM     53  C   UNL     1      -9.273  -0.573   1.892  1.00  0.00     0.074 A 
ATOM     54  C   UNL     1     -10.273  -4.247  -2.290  1.00  0.00     0.029 A 
ATOM     55  N   UNL     1     -11.982  -3.200  -1.337  1.00  0.00    -0.354 N 
ATOM     56  N   UNL     1      -9.974  -1.295   1.057  1.00  0.00    -0.248 NA
ATOM     57  C   UNL     1      -9.537  -0.918   3.281  1.00  0.00     0.031 C 
ATOM     58  C   UNL     1     -10.042  -4.143  -0.882  1.00  0.00     0.029 A 
ATOM     59  C   UNL     1     -11.109  -3.472  -0.301  1.00  0.00     0.049 A 
ATOM     60  H   UNL     1     -12.865  -2.781  -1.219  1.00  0.00     0.167 HD
ATOM     61  C   UNL     1     -10.699  -2.226   1.733  1.00  0.00     0.074 A 
ATOM     62  C   UNL     1     -10.408  -1.935   3.131  1.00  0.00     0.031 C 
ATOM     63  C   UNL     1     -11.471  -3.152   1.083  1.00  0.00     0.034 A 
BRANCH  50  64
ATOM     64  C   UNL     1     -12.366  -3.872  -5.048  1.00  0.00     0.023 A 
ATOM     65  C   UNL     1     -12.164  -5.268  -4.994  1.00  0.00     0.031 A 
ATOM     66  C   UNL     1     -12.763  -3.387  -6.318  1.00  0.00     0.131 A 
ATOM     67  C   UNL     1     -12.344  -6.088  -6.130  1.00  0.00     0.055 A 
ATOM     68  C   UNL     1     -12.983  -4.207  -7.433  1.00  0.00     0.041 A 
ATOM     69  F   UNL     1     -12.924  -2.091  -6.591  1.00  0.00    -0.206 F 
ATOM     70  C   UNL     1     -12.770  -5.566  -7.347  1.00  0.00     0.022 A 
BRANCH  67  71
ATOM     71  S   UNL     1     -11.979  -7.860  -6.017  1.00  0.00     0.124 S 
ATOM     72  O   UNL     1     -10.539  -7.860  -5.782  1.00  0.00    -0.237 OA
ATOM     73  O   UNL     1     -12.820  -8.281  -4.903  1.00  0.00    -0.237 OA
ATOM     74  O   UNL     1     -12.389  -8.374  -7.324  1.00  0.00    -0.744 OA
ENDBRANCH  67  71
ENDBRANCH  50  64
BRANCH  51  75
ATOM     75  C   UNL     1      -8.159   1.908   1.715  1.00  0.00     0.023 A 
ATOM     76  C   UNL     1      -6.896   2.557   1.576  1.00  0.00     0.031 A 
ATOM     77  C   UNL     1      -9.299   2.723   1.680  1.00  0.00     0.131 A 
ATOM     78  C   UNL     1      -6.815   3.936   1.288  1.00  0.00     0.055 A 
ATOM     79  C   UNL     1      -9.211   4.099   1.410  1.00  0.00     0.041 A 
ATOM     80  F   UNL     1     -10.524   2.188   1.776  1.00  0.00    -0.206 F 
ATOM     81  C   UNL     1      -7.976   4.702   1.173  1.00  0.00     0.022 A 
BRANCH  78  82
ATOM     82  S   UNL     1      -5.213   4.683   0.807  1.00  0.00     0.124 S 
ATOM     83  O   UNL     1      -4.552   4.860   2.094  1.00  0.00    -0.237 OA
ATOM     84  O   UNL     1      -4.620   3.680  -0.071  1.00  0.00    -0.237 OA
ATOM     85  O   UNL     1      -5.603   5.912   0.118  1.00  0.00    -0.744 OA
ENDBRANCH  78  82
ENDBRANCH  51  75
BRANCH  63  86
ATOM     86  C   UNL     1     -12.618  -3.886   1.734  1.00  0.00     0.023 A 
ATOM     87  C   UNL     1     -13.116  -3.533   2.993  1.00  0.00     0.031 A 
ATOM     88  C   UNL     1     -13.335  -4.902   1.058  1.00  0.00     0.131 A 
ATOM     89  C   UNL     1     -14.177  -4.231   3.582  1.00  0.00     0.055 A 
ATOM     90  C   UNL     1     -14.467  -5.518   1.597  1.00  0.00     0.041 A 
ATOM     91  F   UNL     1     -12.986  -5.331  -0.163  1.00  0.00    -0.206 F 
ATOM     92  C   UNL     1     -14.882  -5.202   2.881  1.00  0.00     0.022 A 
BRANCH  89  93
ATOM     93  S   UNL     1     -14.530  -3.893   5.322  1.00  0.00     0.124 S 
ATOM     94  O   UNL     1     -13.272  -4.277   5.960  1.00  0.00    -0.237 OA
ATOM     95  O   UNL     1     -14.820  -2.463   5.314  1.00  0.00    -0.237 OA
ATOM     96  O   UNL     1     -15.667  -4.760   5.617  1.00  0.00    -0.744 OA
ENDBRANCH  89  93
ENDBRANCH  63  86
ENDBRANCH  37  38
ENDBRANCH  30  32
ENDBRANCH  29  30
ENDBRANCH  28  29
ENDBRANCH  27  28
ENDBRANCH   1  27
TORSDOF 20
