REMARK SMILES O=C(OCCOCCOC(=O)c1ccc(S(=O)(=O)Cc2ncccn2)c(F)c1)c1ccc(-c2c3nc(c(-c4cc(S(=O)(=O)[O-])ccc4F)c4ccc([nH]4)c(-c4cc(S(=O)(=O)[O-])ccc4F)c4nc(c(-c5cc(S(=O)(=O)[O-])ccc5F)c5ccc2[nH]5)C=C4)C=C3)cc1
REMARK SMILES IDX 6 1 5 2 4 3 3 4 2 5 1 6 29 7 30 8 91 9 31 10 90 11 32 12
REMARK SMILES IDX 33 13 34 14 84 15 35 16 89 17 83 18 85 19 36 20 88 21 82 22
REMARK SMILES IDX 81 23 37 25 69 26 49 27 68 28 50 29 53 30 67 31 86 32 51 33
REMARK SMILES IDX 52 34 66 36 87 37 54 38 38 39 39 40 47 41 40 42 46 43 48 44
REMARK SMILES IDX 45 45 41 46 42 47 43 48 44 49 70 50 71 51 79 52 72 53 78 54
REMARK SMILES IDX 80 55 77 56 73 57 74 58 75 59 76 60 55 61 56 62 64 63 57 64
REMARK SMILES IDX 63 65 65 66 62 67 58 68 59 69 60 70 61 71 7 72 8 73 9 74
REMARK SMILES IDX 10 75 11 76 12 77 13 78 28 79 14 80 26 81 15 82 27 83 16 84
REMARK SMILES IDX 17 85 18 86 19 87 20 88 21 89 25 90 22 91 24 92 23 93
REMARK H PARENT 85 24 53 35
REMARK Flexibility Score: inf
ROOT
ATOM      1  O   UNL     1       4.091  -0.893  -1.557  1.00  0.00    -0.374 OA
ENDROOT
BRANCH   1   2
ATOM      2  C   UNL     1       4.249  -1.699  -0.387  1.00  0.00     0.202 C 
BRANCH   2   3
ATOM      3  C   UNL     1       3.861  -1.045   0.938  1.00  0.00     0.261 C 
BRANCH   3   4
ATOM      4  O   UNL     1       2.480  -0.652   0.909  1.00  0.00    -0.460 OA
BRANCH   4   5
ATOM      5  C   UNL     1       1.988   0.609   0.915  1.00  0.00     0.338 C 
ATOM      6  O   UNL     1       0.775   0.772   1.030  1.00  0.00    -0.246 OA
BRANCH   5   7
ATOM      7  C   UNL     1       2.856   1.814   0.784  1.00  0.00     0.060 A 
ATOM      8  C   UNL     1       4.030   1.858   0.029  1.00  0.00     0.016 A 
ATOM      9  C   UNL     1       2.402   3.002   1.378  1.00  0.00     0.016 A 
ATOM     10  C   UNL     1       4.784   3.018  -0.065  1.00  0.00     0.010 A 
ATOM     11  C   UNL     1       3.122   4.191   1.234  1.00  0.00     0.010 A 
ATOM     12  C   UNL     1       4.325   4.196   0.520  1.00  0.00    -0.014 A 
BRANCH  12  13
ATOM     13  C   UNL     1       5.158   5.406   0.397  1.00  0.00     0.031 A 
ATOM     14  C   UNL     1       5.936   5.870   1.589  1.00  0.00     0.074 A 
ATOM     15  C   UNL     1       5.299   5.986  -0.810  1.00  0.00     0.049 A 
ATOM     16  N   UNL     1       6.685   6.929   1.722  1.00  0.00    -0.248 NA
ATOM     17  C   UNL     1       5.873   5.017   2.788  1.00  0.00     0.031 C 
ATOM     18  C   UNL     1       4.672   5.512  -2.048  1.00  0.00     0.029 A 
ATOM     19  N   UNL     1       6.039   7.067  -1.207  1.00  0.00    -0.354 N 
ATOM     20  C   UNL     1       7.169   6.884   3.023  1.00  0.00     0.074 A 
ATOM     21  C   UNL     1       6.625   5.695   3.642  1.00  0.00     0.031 C 
ATOM     22  C   UNL     1       5.090   6.272  -3.072  1.00  0.00     0.029 A 
ATOM     23  C   UNL     1       5.944   7.334  -2.554  1.00  0.00     0.049 A 
ATOM     24  H   UNL     1       6.587   7.602  -0.589  1.00  0.00     0.167 HD
ATOM     25  C   UNL     1       7.986   7.770   3.638  1.00  0.00     0.034 A 
ATOM     26  C   UNL     1       6.463   8.347  -3.275  1.00  0.00     0.034 A 
ATOM     27  C   UNL     1       8.494   8.949   2.988  1.00  0.00     0.049 A 
ATOM     28  C   UNL     1       7.276   9.380  -2.541  1.00  0.00     0.074 A 
ATOM     29  C   UNL     1       9.247   9.978   3.521  1.00  0.00     0.029 A 
ATOM     30  N   UNL     1       8.296   9.251   1.645  1.00  0.00    -0.354 N 
ATOM     31  N   UNL     1       7.624   9.401  -1.274  1.00  0.00    -0.248 NA
ATOM     32  C   UNL     1       7.742  10.535  -3.316  1.00  0.00     0.031 C 
ATOM     33  C   UNL     1       9.463  10.924   2.512  1.00  0.00     0.029 A 
ATOM     34  C   UNL     1       8.896  10.457   1.335  1.00  0.00     0.049 A 
ATOM     35  H   UNL     1       7.800   8.688   1.007  1.00  0.00     0.167 HD
ATOM     36  C   UNL     1       8.350  10.572  -1.098  1.00  0.00     0.074 A 
ATOM     37  C   UNL     1       8.405  11.222  -2.395  1.00  0.00     0.031 C 
ATOM     38  C   UNL     1       8.916  11.072   0.029  1.00  0.00     0.034 A 
BRANCH  25  39
ATOM     39  C   UNL     1       8.287   7.530   5.092  1.00  0.00     0.023 A 
ATOM     40  C   UNL     1       9.103   6.467   5.516  1.00  0.00     0.031 A 
ATOM     41  C   UNL     1       7.700   8.348   6.074  1.00  0.00     0.131 A 
ATOM     42  C   UNL     1       9.268   6.220   6.888  1.00  0.00     0.055 A 
ATOM     43  C   UNL     1       7.918   8.134   7.435  1.00  0.00     0.041 A 
ATOM     44  F   UNL     1       6.888   9.357   5.723  1.00  0.00    -0.206 F 
ATOM     45  C   UNL     1       8.698   7.059   7.850  1.00  0.00     0.022 A 
BRANCH  42  46
ATOM     46  S   UNL     1      10.161   4.729   7.408  1.00  0.00     0.124 S 
ATOM     47  O   UNL     1       9.250   3.674   6.971  1.00  0.00    -0.237 OA
ATOM     48  O   UNL     1      11.415   4.833   6.672  1.00  0.00    -0.237 OA
ATOM     49  O   UNL     1      10.276   4.886   8.857  1.00  0.00    -0.744 OA
ENDBRANCH  42  46
ENDBRANCH  25  39
BRANCH  26  50
ATOM     50  C   UNL     1       6.162   8.472  -4.730  1.00  0.00     0.023 A 
ATOM     51  C   UNL     1       7.171   8.368  -5.699  1.00  0.00     0.031 A 
ATOM     52  C   UNL     1       4.844   8.697  -5.172  1.00  0.00     0.131 A 
ATOM     53  C   UNL     1       6.849   8.503  -7.061  1.00  0.00     0.055 A 
ATOM     54  C   UNL     1       4.523   8.787  -6.527  1.00  0.00     0.041 A 
ATOM     55  F   UNL     1       3.841   8.805  -4.287  1.00  0.00    -0.206 F 
ATOM     56  C   UNL     1       5.530   8.696  -7.481  1.00  0.00     0.022 A 
BRANCH  53  57
ATOM     57  S   UNL     1       8.185   8.457  -8.288  1.00  0.00     0.124 S 
ATOM     58  O   UNL     1       8.970   9.629  -7.916  1.00  0.00    -0.237 OA
ATOM     59  O   UNL     1       8.800   7.161  -8.022  1.00  0.00    -0.237 OA
ATOM     60  O   UNL     1       7.480   8.557  -9.564  1.00  0.00    -0.744 OA
ENDBRANCH  53  57
ENDBRANCH  26  50
BRANCH  38  61
ATOM     61  C   UNL     1       9.655  12.372  -0.103  1.00  0.00     0.023 A 
ATOM     62  C   UNL     1       8.968  13.589  -0.236  1.00  0.00     0.031 A 
ATOM     63  C   UNL     1      11.059  12.394  -0.036  1.00  0.00     0.131 A 
ATOM     64  C   UNL     1       9.691  14.785  -0.322  1.00  0.00     0.055 A 
ATOM     65  C   UNL     1      11.771  13.591  -0.081  1.00  0.00     0.041 A 
ATOM     66  F   UNL     1      11.753  11.253   0.096  1.00  0.00    -0.206 F 
ATOM     67  C   UNL     1      11.086  14.796  -0.228  1.00  0.00     0.022 A 
BRANCH  64  68
ATOM     68  S   UNL     1       8.785  16.334  -0.578  1.00  0.00     0.124 S 
ATOM     69  O   UNL     1       8.245  16.148  -1.921  1.00  0.00    -0.237 OA
ATOM     70  O   UNL     1       7.811  16.315   0.508  1.00  0.00    -0.237 OA
ATOM     71  O   UNL     1       9.820  17.359  -0.461  1.00  0.00    -0.744 OA
ENDBRANCH  64  68
ENDBRANCH  38  61
ENDBRANCH  12  13
ENDBRANCH   5   7
ENDBRANCH   4   5
ENDBRANCH   3   4
ENDBRANCH   2   3
ENDBRANCH   1   2
BRANCH   1  72
ATOM     72  C   UNL     1       2.759  -0.819  -2.087  1.00  0.00     0.202 C 
BRANCH  72  73
ATOM     73  C   UNL     1       2.802  -0.883  -3.619  1.00  0.00     0.261 C 
BRANCH  73  74
ATOM     74  O   UNL     1       3.299  -2.178  -4.002  1.00  0.00    -0.460 OA
BRANCH  74  75
ATOM     75  C   UNL     1       4.643  -2.227  -4.166  1.00  0.00     0.338 C 
ATOM     76  O   UNL     1       5.414  -1.312  -4.389  1.00  0.00    -0.246 OA
BRANCH  75  77
ATOM     77  C   UNL     1       5.074  -3.562  -3.733  1.00  0.00     0.063 A 
ATOM     78  C   UNL     1       4.667  -4.728  -4.381  1.00  0.00     0.017 A 
ATOM     79  C   UNL     1       5.849  -3.626  -2.576  1.00  0.00     0.056 A 
ATOM     80  C   UNL     1       5.123  -5.960  -3.904  1.00  0.00     0.024 A 
ATOM     81  C   UNL     1       6.168  -4.857  -2.030  1.00  0.00     0.142 A 
ATOM     82  C   UNL     1       5.902  -6.014  -2.736  1.00  0.00     0.103 A 
ATOM     83  F   UNL     1       6.694  -4.889  -0.800  1.00  0.00    -0.206 F 
BRANCH  82  84
ATOM     84  S   UNL     1       6.589  -7.562  -2.244  1.00  0.00     0.188 S 
ATOM     85  O   UNL     1       5.530  -8.207  -1.480  1.00  0.00    -0.223 OA
ATOM     86  O   UNL     1       7.053  -8.199  -3.467  1.00  0.00    -0.223 OA
BRANCH  84  87
ATOM     87  C   UNL     1       7.962  -7.371  -1.159  1.00  0.00     0.219 C 
BRANCH  87  88
ATOM     88  C   UNL     1       9.081  -6.615  -1.802  1.00  0.00     0.143 A 
ATOM     89  N   UNL     1       8.995  -5.273  -1.836  1.00  0.00    -0.240 NA
ATOM     90  N   UNL     1      10.208  -7.286  -2.103  1.00  0.00    -0.240 NA
ATOM     91  C   UNL     1      10.087  -4.576  -2.197  1.00  0.00     0.115 A 
ATOM     92  C   UNL     1      11.277  -6.544  -2.467  1.00  0.00     0.115 A 
ATOM     93  C   UNL     1      11.275  -5.171  -2.523  1.00  0.00     0.040 A 
ENDBRANCH  87  88
ENDBRANCH  84  87
ENDBRANCH  82  84
ENDBRANCH  75  77
ENDBRANCH  74  75
ENDBRANCH  73  74
ENDBRANCH  72  73
ENDBRANCH   1  72
TORSDOF 20
