REMARK SMILES C[C@H](C(=O)OCCOCCOC(=O)c1ccc(-c2c3nc(c(-c4cc(S(=O)(=O)[O-])ccc4F)c4ccc([nH]4)c(-c4cc(S(=O)(=O)[O-])ccc4F)c4nc(c(-c5cc(S(=O)(=O)[O-])ccc5F)c5ccc2[nH]5)C=C4)C=C3)cc1)[C@@H](C)Sc1ccc2c(c1)OCCCO2
REMARK SMILES IDX 6 1 5 2 3 3 4 4 2 5 1 6 77 7 78 8 79 9 80 10 81 11 85 12
REMARK SMILES IDX 82 13 84 14 83 15 86 16 87 17 88 18 90 20 89 21 7 23 8 24
REMARK SMILES IDX 9 25 10 26 11 27 12 28 13 29 14 30 15 31 76 32 16 33 75 34
REMARK SMILES IDX 17 35 18 36 19 37 69 38 20 39 74 40 68 41 70 42 21 43 73 44
REMARK SMILES IDX 67 45 66 46 22 48 54 49 34 50 53 51 35 52 38 53 52 54 71 55
REMARK SMILES IDX 36 56 37 57 51 59 72 60 39 61 23 62 24 63 32 64 25 65 31 66
REMARK SMILES IDX 33 67 30 68 26 69 27 70 28 71 29 72 55 73 56 74 64 75 57 76
REMARK SMILES IDX 63 77 65 78 62 79 58 80 59 81 60 82 61 83 40 84 41 85 49 86
REMARK SMILES IDX 42 87 48 88 50 89 47 90 43 91 44 92 45 93 46 94
REMARK H PARENT 70 47 38 58
REMARK Flexibility Score: 80.00
ROOT
ATOM      1  C   UNL     1       2.058   1.721   0.196  1.00  0.00     0.261 C 
ENDROOT
BRANCH   1   2
ATOM      2  O   UNL     1       1.180   0.718   0.733  1.00  0.00    -0.463 OA
BRANCH   2   3
ATOM      3  C   UNL     1       0.295   0.169  -0.140  1.00  0.00     0.309 C 
ATOM      4  O   UNL     1       0.041   0.640  -1.243  1.00  0.00    -0.252 OA
BRANCH   3   5
ATOM      5  C   UNL     1      -0.133  -1.238   0.287  1.00  0.00     0.109 C 
ATOM      6  C   UNL     1       0.264  -1.645   1.719  1.00  0.00     0.021 C 
BRANCH   5   7
ATOM      7  C   UNL     1      -1.600  -1.617   0.001  1.00  0.00     0.062 C 
ATOM      8  C   UNL     1      -2.199  -1.111  -1.313  1.00  0.00     0.020 C 
BRANCH   7   9
ATOM      9  S   UNL     1      -1.867  -3.486   0.249  1.00  0.00    -0.122 SA
BRANCH   9  10
ATOM     10  C   UNL     1      -1.208  -4.263  -1.218  1.00  0.00     0.011 A 
ATOM     11  C   UNL     1      -2.066  -5.139  -1.903  1.00  0.00     0.019 A 
ATOM     12  C   UNL     1       0.039  -3.968  -1.772  1.00  0.00     0.065 A 
ATOM     13  C   UNL     1      -1.831  -5.449  -3.238  1.00  0.00     0.051 A 
ATOM     14  C   UNL     1       0.233  -4.189  -3.125  1.00  0.00     0.162 A 
ATOM     15  C   UNL     1      -0.768  -4.813  -3.861  1.00  0.00     0.161 A 
BRANCH  14  16
ATOM     16  O   UNL     1       1.289  -3.634  -3.793  1.00  0.00    -0.490 OA
BRANCH  16  17
ATOM     17  C   UNL     1       1.000  -2.279  -4.152  1.00  0.00     0.233 C 
BRANCH  17  18
ATOM     18  C   UNL     1      -0.143  -2.071  -5.160  1.00  0.00     0.083 CG0
ATOM     19  G   UNL     1      -1.333  -3.030  -5.102  1.00  0.00     0.000 G0
ENDBRANCH  17  18
ENDBRANCH  16  17
ENDBRANCH  14  16
BRANCH  15  20
ATOM     20  O   UNL     1      -0.937  -4.421  -5.173  1.00  0.00    -0.490 OA
BRANCH  20  21
ATOM     21  C   UNL     1      -1.333  -3.030  -5.102  1.00  0.00     0.233 CG0
ATOM     22  G   UNL     1      -0.143  -2.071  -5.160  1.00  0.00     0.000 G0
ENDBRANCH  20  21
ENDBRANCH  15  20
ENDBRANCH   9  10
ENDBRANCH   7   9
ENDBRANCH   5   7
ENDBRANCH   3   5
ENDBRANCH   2   3
ENDBRANCH   1   2
BRANCH   1  23
ATOM     23  C   UNL     1       3.510   1.466   0.620  1.00  0.00     0.202 C 
BRANCH  23  24
ATOM     24  O   UNL     1       4.115   0.238   0.213  1.00  0.00    -0.374 OA
BRANCH  24  25
ATOM     25  C   UNL     1       3.606  -0.981   0.748  1.00  0.00     0.202 C 
BRANCH  25  26
ATOM     26  C   UNL     1       3.785  -1.264   2.249  1.00  0.00     0.261 C 
BRANCH  26  27
ATOM     27  O   UNL     1       3.213  -0.256   3.100  1.00  0.00    -0.460 OA
BRANCH  27  28
ATOM     28  C   UNL     1       4.125   0.437   3.819  1.00  0.00     0.338 C 
ATOM     29  O   UNL     1       5.339   0.228   3.862  1.00  0.00    -0.246 OA
BRANCH  28  30
ATOM     30  C   UNL     1       3.530   1.645   4.408  1.00  0.00     0.060 A 
ATOM     31  C   UNL     1       4.133   2.867   4.084  1.00  0.00     0.016 A 
ATOM     32  C   UNL     1       2.485   1.588   5.332  1.00  0.00     0.016 A 
ATOM     33  C   UNL     1       3.743   4.030   4.734  1.00  0.00     0.010 A 
ATOM     34  C   UNL     1       2.099   2.760   5.994  1.00  0.00     0.010 A 
ATOM     35  C   UNL     1       2.761   3.974   5.730  1.00  0.00    -0.014 A 
BRANCH  35  36
ATOM     36  C   UNL     1       2.585   5.154   6.610  1.00  0.00     0.031 A 
ATOM     37  C   UNL     1       3.250   5.152   7.960  1.00  0.00     0.074 A 
ATOM     38  C   UNL     1       1.922   6.239   6.173  1.00  0.00     0.049 A 
ATOM     39  N   UNL     1       3.248   6.069   8.891  1.00  0.00    -0.248 NA
ATOM     40  C   UNL     1       4.024   3.948   8.303  1.00  0.00     0.031 C 
ATOM     41  C   UNL     1       1.296   6.367   4.857  1.00  0.00     0.029 A 
ATOM     42  N   UNL     1       1.671   7.441   6.783  1.00  0.00    -0.354 N 
ATOM     43  C   UNL     1       4.018   5.556   9.931  1.00  0.00     0.074 A 
ATOM     44  C   UNL     1       4.432   4.228   9.531  1.00  0.00     0.031 C 
ATOM     45  C   UNL     1       0.729   7.581   4.760  1.00  0.00     0.029 A 
ATOM     46  C   UNL     1       0.916   8.299   6.019  1.00  0.00     0.049 A 
ATOM     47  H   UNL     1       2.001   7.668   7.682  1.00  0.00     0.167 HD
ATOM     48  C   UNL     1       4.357   6.146  11.104  1.00  0.00     0.034 A 
ATOM     49  C   UNL     1       0.412   9.514   6.316  1.00  0.00     0.034 A 
ATOM     50  C   UNL     1       3.920   7.467  11.483  1.00  0.00     0.049 A 
ATOM     51  C   UNL     1       0.724  10.114   7.665  1.00  0.00     0.074 A 
ATOM     52  C   UNL     1       4.191   8.168  12.644  1.00  0.00     0.029 A 
ATOM     53  N   UNL     1       3.105   8.286  10.708  1.00  0.00    -0.354 N 
ATOM     54  N   UNL     1       1.448   9.617   8.644  1.00  0.00    -0.248 NA
ATOM     55  C   UNL     1       0.164  11.441   7.946  1.00  0.00     0.031 C 
ATOM     56  C   UNL     1       3.482   9.373  12.605  1.00  0.00     0.029 A 
ATOM     57  C   UNL     1       2.837   9.467  11.382  1.00  0.00     0.049 A 
ATOM     58  H   UNL     1       2.768   8.059   9.812  1.00  0.00     0.167 HD
ATOM     59  C   UNL     1       1.450  10.585   9.645  1.00  0.00     0.074 A 
ATOM     60  C   UNL     1       0.672  11.700   9.141  1.00  0.00     0.031 C 
ATOM     61  C   UNL     1       2.045  10.561  10.866  1.00  0.00     0.034 A 
BRANCH  48  62
ATOM     62  C   UNL     1       5.189   5.338  12.074  1.00  0.00     0.023 A 
ATOM     63  C   UNL     1       6.491   4.909  11.760  1.00  0.00     0.031 A 
ATOM     64  C   UNL     1       4.655   4.955  13.317  1.00  0.00     0.131 A 
ATOM     65  C   UNL     1       7.184   4.064  12.642  1.00  0.00     0.055 A 
ATOM     66  C   UNL     1       5.382   4.183  14.227  1.00  0.00     0.041 A 
ATOM     67  F   UNL     1       3.408   5.310  13.665  1.00  0.00    -0.206 F 
ATOM     68  C   UNL     1       6.648   3.720  13.885  1.00  0.00     0.022 A 
BRANCH  65  69
ATOM     69  S   UNL     1       8.728   3.297  12.078  1.00  0.00     0.124 S 
ATOM     70  O   UNL     1       8.282   2.578  10.887  1.00  0.00    -0.237 OA
ATOM     71  O   UNL     1       9.587   4.452  11.843  1.00  0.00    -0.237 OA
ATOM     72  O   UNL     1       9.119   2.446  13.200  1.00  0.00    -0.744 OA
ENDBRANCH  65  69
ENDBRANCH  48  62
BRANCH  49  73
ATOM     73  C   UNL     1      -0.471  10.220   5.344  1.00  0.00     0.023 A 
ATOM     74  C   UNL     1      -0.111  11.459   4.790  1.00  0.00     0.031 A 
ATOM     75  C   UNL     1      -1.719   9.677   4.984  1.00  0.00     0.131 A 
ATOM     76  C   UNL     1      -1.004  12.131   3.940  1.00  0.00     0.055 A 
ATOM     77  C   UNL     1      -2.579  10.323   4.095  1.00  0.00     0.041 A 
ATOM     78  F   UNL     1      -2.116   8.496   5.485  1.00  0.00    -0.206 F 
ATOM     79  C   UNL     1      -2.228  11.565   3.576  1.00  0.00     0.022 A 
BRANCH  76  80
ATOM     80  S   UNL     1      -0.580  13.803   3.378  1.00  0.00     0.124 S 
ATOM     81  O   UNL     1      -0.407  14.506   4.644  1.00  0.00    -0.237 OA
ATOM     82  O   UNL     1       0.635  13.562   2.607  1.00  0.00    -0.237 OA
ATOM     83  O   UNL     1      -1.745  14.204   2.594  1.00  0.00    -0.744 OA
ENDBRANCH  76  80
ENDBRANCH  49  73
BRANCH  61  84
ATOM     84  C   UNL     1       1.905  11.799  11.720  1.00  0.00     0.023 A 
ATOM     85  C   UNL     1       0.663  12.209  12.232  1.00  0.00     0.031 A 
ATOM     86  C   UNL     1       3.035  12.583  12.016  1.00  0.00     0.131 A 
ATOM     87  C   UNL     1       0.568  13.404  12.962  1.00  0.00     0.055 A 
ATOM     88  C   UNL     1       2.946  13.734  12.799  1.00  0.00     0.041 A 
ATOM     89  F   UNL     1       4.247  12.240  11.550  1.00  0.00    -0.206 F 
ATOM     90  C   UNL     1       1.704  14.158  13.265  1.00  0.00     0.022 A 
BRANCH  87  91
ATOM     91  S   UNL     1      -1.076  14.013  13.423  1.00  0.00     0.124 S 
ATOM     92  O   UNL     1      -1.729  14.137  12.124  1.00  0.00    -0.237 OA
ATOM     93  O   UNL     1      -1.573  12.948  14.288  1.00  0.00    -0.237 OA
ATOM     94  O   UNL     1      -0.796  15.279  14.099  1.00  0.00    -0.744 OA
ENDBRANCH  87  91
ENDBRANCH  61  84
ENDBRANCH  35  36
ENDBRANCH  28  30
ENDBRANCH  27  28
ENDBRANCH  26  27
ENDBRANCH  25  26
ENDBRANCH  24  25
ENDBRANCH  23  24
ENDBRANCH   1  23
TORSDOF 20
