REMARK SMILES N#C/C(=C/c1ccc(-c2cccc(C(=O)OCCOCCOC(=O)c3ccc(-c4c5nc(c(-c6cc(S(=O)(=O)[O-])ccc6F)c6ccc([nH]6)c(-c6cc(S(=O)(=O)[O-])ccc6F)c6nc(c(-c7cc(S(=O)(=O)[O-])ccc7F)c7ccc4[nH]7)C=C6)C=C5)cc3)c2)o1)c1ccc(F)cc1
REMARK SMILES IDX 19 1 18 2 17 3 16 4 14 5 15 6 13 7 9 8 10 9 88 10 11 11
REMARK SMILES IDX 12 12 8 13 5 14 6 15 89 16 7 17 4 18 3 19 2 20 1 21 90 22
REMARK SMILES IDX 91 23 96 24 92 25 95 26 93 27 94 28 20 29 21 30 22 31 23 32
REMARK SMILES IDX 24 33 25 34 26 35 87 36 27 37 86 38 28 39 29 40 30 41 80 42
REMARK SMILES IDX 31 43 85 44 79 45 81 46 32 47 84 48 78 49 77 50 33 52 65 53
REMARK SMILES IDX 45 54 64 55 46 56 49 57 63 58 82 59 47 60 48 61 62 63 83 64
REMARK SMILES IDX 50 65 34 66 35 67 43 68 36 69 42 70 44 71 41 72 37 73 38 74
REMARK SMILES IDX 39 75 40 76 66 77 67 78 75 79 68 80 74 81 76 82 73 83 69 84
REMARK SMILES IDX 70 85 71 86 72 87 51 88 52 89 60 90 53 91 59 92 61 93 58 94
REMARK SMILES IDX 54 95 55 96 56 97 57 98
REMARK H PARENT 81 51 49 62
REMARK Flexibility Score: inf
ROOT
ATOM      1  O   UNL     1      13.290   3.426  -5.879  1.00  0.00    -0.374 OA
ENDROOT
BRANCH   1   2
ATOM      2  C   UNL     1      13.337   2.008  -6.043  1.00  0.00     0.202 C 
BRANCH   2   3
ATOM      3  C   UNL     1      13.592   1.184  -4.776  1.00  0.00     0.261 C 
BRANCH   3   4
ATOM      4  O   UNL     1      12.510   1.318  -3.838  1.00  0.00    -0.460 OA
BRANCH   4   5
ATOM      5  C   UNL     1      12.789   2.011  -2.709  1.00  0.00     0.338 C 
ATOM      6  O   UNL     1      13.884   2.414  -2.342  1.00  0.00    -0.246 OA
BRANCH   5   7
ATOM      7  C   UNL     1      11.523   2.385  -2.034  1.00  0.00     0.060 A 
ATOM      8  C   UNL     1       9.200   1.949  -1.431  1.00  0.00     0.018 A 
ATOM      9  C   UNL     1       9.149   3.202  -0.805  1.00  0.00     0.012 A 
ATOM     10  C   UNL     1      10.395   1.558  -2.062  1.00  0.00     0.027 A 
ATOM     11  C   UNL     1      10.274   4.034  -0.782  1.00  0.00     0.002 A 
ATOM     12  C   UNL     1      11.462   3.623  -1.385  1.00  0.00     0.016 A 
BRANCH   8  13
ATOM     13  C   UNL     1       8.082   1.013  -1.385  1.00  0.00     0.134 A 
ATOM     14  C   UNL     1       5.927   0.454  -1.246  1.00  0.00     0.128 A 
ATOM     15  C   UNL     1       6.676  -0.716  -1.337  1.00  0.00     0.051 A 
ATOM     16  O   UNL     1       6.811   1.517  -1.302  1.00  0.00    -0.457 OA
ATOM     17  C   UNL     1       8.036  -0.362  -1.394  1.00  0.00     0.051 A 
BRANCH  14  18
ATOM     18  C   UNL     1       4.511   0.585  -1.087  1.00  0.00     0.067 C 
ATOM     19  C   UNL     1       3.838  -0.019  -0.080  1.00  0.00     0.063 C 
BRANCH  19  20
ATOM     20  C   UNL     1       2.318  -0.019  -0.080  1.00  0.00     0.100 C 
ATOM     21  N   UNL     1       1.057  -0.019  -0.080  1.00  0.00    -0.192 NA
ENDBRANCH  19  20
BRANCH  19  22
ATOM     22  C   UNL     1       4.517  -0.754   1.023  1.00  0.00    -0.007 A 
ATOM     23  C   UNL     1       5.546  -0.142   1.767  1.00  0.00     0.012 A 
ATOM     24  C   UNL     1       4.196  -2.094   1.296  1.00  0.00     0.012 A 
ATOM     25  C   UNL     1       6.288  -0.872   2.697  1.00  0.00     0.040 A 
ATOM     26  C   UNL     1       4.927  -2.817   2.244  1.00  0.00     0.040 A 
ATOM     27  C   UNL     1       5.976  -2.206   2.921  1.00  0.00     0.123 A 
ATOM     28  F   UNL     1       6.702  -2.913   3.796  1.00  0.00    -0.207 F 
ENDBRANCH  19  22
ENDBRANCH  14  18
ENDBRANCH   8  13
ENDBRANCH   5   7
ENDBRANCH   4   5
ENDBRANCH   3   4
ENDBRANCH   2   3
ENDBRANCH   1   2
BRANCH   1  29
ATOM     29  C   UNL     1      12.075   3.989  -5.385  1.00  0.00     0.202 C 
BRANCH  29  30
ATOM     30  C   UNL     1      10.912   4.131  -6.375  1.00  0.00     0.261 C 
BRANCH  30  31
ATOM     31  O   UNL     1      10.381   2.861  -6.790  1.00  0.00    -0.460 OA
BRANCH  31  32
ATOM     32  C   UNL     1      10.708   2.494  -8.053  1.00  0.00     0.338 C 
ATOM     33  O   UNL     1      11.365   3.139  -8.858  1.00  0.00    -0.246 OA
BRANCH  32  34
ATOM     34  C   UNL     1      10.307   1.095  -8.284  1.00  0.00     0.060 A 
ATOM     35  C   UNL     1      11.272   0.207  -8.780  1.00  0.00     0.016 A 
ATOM     36  C   UNL     1       8.990   0.674  -8.087  1.00  0.00     0.016 A 
ATOM     37  C   UNL     1      10.913  -1.095  -9.126  1.00  0.00     0.010 A 
ATOM     38  C   UNL     1       8.631  -0.629  -8.444  1.00  0.00     0.010 A 
ATOM     39  C   UNL     1       9.581  -1.509  -8.997  1.00  0.00    -0.014 A 
BRANCH  39  40
ATOM     40  C   UNL     1       9.127  -2.789  -9.596  1.00  0.00     0.031 A 
ATOM     41  C   UNL     1       8.390  -2.741 -10.908  1.00  0.00     0.074 A 
ATOM     42  C   UNL     1       9.355  -3.967  -8.987  1.00  0.00     0.049 A 
ATOM     43  N   UNL     1       7.753  -3.691 -11.538  1.00  0.00    -0.248 NA
ATOM     44  C   UNL     1       8.366  -1.439 -11.594  1.00  0.00     0.031 C 
ATOM     45  C   UNL     1      10.120  -4.148  -7.755  1.00  0.00     0.029 A 
ATOM     46  N   UNL     1       8.945  -5.236  -9.317  1.00  0.00    -0.354 N 
ATOM     47  C   UNL     1       7.244  -3.103 -12.692  1.00  0.00     0.074 A 
ATOM     48  C   UNL     1       7.618  -1.705 -12.653  1.00  0.00     0.031 C 
ATOM     49  C   UNL     1      10.105  -5.451  -7.421  1.00  0.00     0.029 A 
ATOM     50  C   UNL     1       9.285  -6.186  -8.382  1.00  0.00     0.049 A 
ATOM     51  H   UNL     1       8.454  -5.445 -10.144  1.00  0.00     0.167 HD
ATOM     52  C   UNL     1       6.537  -3.679 -13.694  1.00  0.00     0.034 A 
ATOM     53  C   UNL     1       8.936  -7.487  -8.293  1.00  0.00     0.034 A 
ATOM     54  C   UNL     1       6.165  -5.071 -13.713  1.00  0.00     0.049 A 
ATOM     55  C   UNL     1       8.047  -8.082  -9.365  1.00  0.00     0.074 A 
ATOM     56  C   UNL     1       5.426  -5.754 -14.664  1.00  0.00     0.029 A 
ATOM     57  N   UNL     1       6.505  -5.996 -12.735  1.00  0.00    -0.354 N 
ATOM     58  N   UNL     1       7.541  -7.507 -10.433  1.00  0.00    -0.248 NA
ATOM     59  C   UNL     1       7.686  -9.500  -9.225  1.00  0.00     0.031 C 
ATOM     60  C   UNL     1       5.266  -7.073 -14.231  1.00  0.00     0.029 A 
ATOM     61  C   UNL     1       5.977  -7.237 -13.053  1.00  0.00     0.049 A 
ATOM     62  H   UNL     1       7.042  -5.800 -11.934  1.00  0.00     0.167 HD
ATOM     63  C   UNL     1       6.855  -8.511 -11.116  1.00  0.00     0.074 A 
ATOM     64  C   UNL     1       7.009  -9.722 -10.341  1.00  0.00     0.031 C 
ATOM     65  C   UNL     1       6.167  -8.442 -12.284  1.00  0.00     0.034 A 
BRANCH  52  66
ATOM     66  C   UNL     1       6.089  -2.796 -14.831  1.00  0.00     0.023 A 
ATOM     67  C   UNL     1       7.011  -2.198 -15.706  1.00  0.00     0.031 A 
ATOM     68  C   UNL     1       4.721  -2.552 -15.045  1.00  0.00     0.131 A 
ATOM     69  C   UNL     1       6.558  -1.345 -16.723  1.00  0.00     0.055 A 
ATOM     70  C   UNL     1       4.272  -1.763 -16.105  1.00  0.00     0.041 A 
ATOM     71  F   UNL     1       3.797  -3.077 -14.226  1.00  0.00    -0.206 F 
ATOM     72  C   UNL     1       5.193  -1.145 -16.946  1.00  0.00     0.022 A 
BRANCH  69  73
ATOM     73  S   UNL     1       7.781  -0.410 -17.680  1.00  0.00     0.124 S 
ATOM     74  O   UNL     1       8.425   0.385 -16.637  1.00  0.00    -0.237 OA
ATOM     75  O   UNL     1       8.594  -1.466 -18.272  1.00  0.00    -0.237 OA
ATOM     76  O   UNL     1       6.967   0.354 -18.624  1.00  0.00    -0.744 OA
ENDBRANCH  69  73
ENDBRANCH  52  66
BRANCH  53  77
ATOM     77  C   UNL     1       9.367  -8.322  -7.131  1.00  0.00     0.023 A 
ATOM     78  C   UNL     1      10.121  -9.490  -7.324  1.00  0.00     0.031 A 
ATOM     79  C   UNL     1       8.940  -8.026  -5.824  1.00  0.00     0.131 A 
ATOM     80  C   UNL     1      10.353 -10.360  -6.247  1.00  0.00     0.055 A 
ATOM     81  C   UNL     1       9.239  -8.857  -4.742  1.00  0.00     0.041 A 
ATOM     82  F   UNL     1       8.211  -6.925  -5.577  1.00  0.00    -0.206 F 
ATOM     83  C   UNL     1       9.931 -10.044  -4.955  1.00  0.00     0.022 A 
BRANCH  80  84
ATOM     84  S   UNL     1      11.083 -11.985  -6.592  1.00  0.00     0.124 S 
ATOM     85  O   UNL     1      10.164 -12.512  -7.594  1.00  0.00    -0.237 OA
ATOM     86  O   UNL     1      12.414 -11.622  -7.067  1.00  0.00    -0.237 OA
ATOM     87  O   UNL     1      11.046 -12.655  -5.294  1.00  0.00    -0.744 OA
ENDBRANCH  80  84
ENDBRANCH  53  77
BRANCH  65  88
ATOM     88  C   UNL     1       5.617  -9.729 -12.850  1.00  0.00     0.023 A 
ATOM     89  C   UNL     1       4.567 -10.432 -12.238  1.00  0.00     0.031 A 
ATOM     90  C   UNL     1       6.149 -10.242 -14.048  1.00  0.00     0.131 A 
ATOM     91  C   UNL     1       4.109 -11.632 -12.803  1.00  0.00     0.055 A 
ATOM     92  C   UNL     1       5.650 -11.404 -14.637  1.00  0.00     0.041 A 
ATOM     93  F   UNL     1       7.154  -9.610 -14.675  1.00  0.00    -0.206 F 
ATOM     94  C   UNL     1       4.630 -12.112 -14.008  1.00  0.00     0.022 A 
BRANCH  91  95
ATOM     95  S   UNL     1       2.862 -12.600 -11.909  1.00  0.00     0.124 S 
ATOM     96  O   UNL     1       3.538 -12.874 -10.646  1.00  0.00    -0.237 OA
ATOM     97  O   UNL     1       1.736 -11.673 -11.841  1.00  0.00    -0.237 OA
ATOM     98  O   UNL     1       2.652 -13.765 -12.767  1.00  0.00    -0.744 OA
ENDBRANCH  91  95
ENDBRANCH  65  88
ENDBRANCH  39  40
ENDBRANCH  32  34
ENDBRANCH  31  32
ENDBRANCH  30  31
ENDBRANCH  29  30
ENDBRANCH   1  29
TORSDOF 21
