REMARK SMILES COc1ccc(/C=C(/Sc2nc(C)n[nH]2)C(=O)OCCOCCOC(=O)c2ccc(-c3c4nc(c(-c5cc(S(=O)(=O)[O-])ccc5F)c5ccc([nH]5)c(-c5cc(S(=O)(=O)[O-])ccc5F)c5nc(c(-c6cc(S(=O)(=O)[O-])ccc6F)c6ccc3[nH]6)C=C5)C=C4)cc2)cc1OC
REMARK SMILES IDX 22 1 21 2 20 3 19 4 18 5 16 6 17 7 8 8 7 9 6 10 3 11 4 12
REMARK SMILES IDX 91 13 5 14 90 15 2 16 1 17 92 18 93 19 9 20 10 21 11 22
REMARK SMILES IDX 15 23 12 24 14 25 13 27 23 28 24 29 25 30 26 31 27 32 28 33
REMARK SMILES IDX 89 34 29 35 88 36 30 37 31 38 32 39 82 40 33 41 87 42 81 43
REMARK SMILES IDX 83 44 34 45 86 46 80 47 79 48 35 50 67 51 47 52 66 53 48 54
REMARK SMILES IDX 51 55 65 56 84 57 49 58 50 59 64 61 85 62 52 63 36 64 37 65
REMARK SMILES IDX 45 66 38 67 44 68 46 69 43 70 39 71 40 72 41 73 42 74 68 75
REMARK SMILES IDX 69 76 77 77 70 78 76 79 78 80 75 81 71 82 72 83 73 84 74 85
REMARK SMILES IDX 53 86 54 87 62 88 55 89 61 90 63 91 60 92 56 93 57 94 58 95
REMARK SMILES IDX 59 96
REMARK H PARENT 15 26 83 49 51 60
REMARK Flexibility Score: inf
ROOT
ATOM      1  C   UNL     1      -0.748  -5.754   2.403  1.00  0.00     0.202 C 
ENDROOT
BRANCH   1   2
ATOM      2  O   UNL     1      -2.133  -5.559   2.119  1.00  0.00    -0.374 OA
BRANCH   2   3
ATOM      3  C   UNL     1      -2.904  -6.646   1.598  1.00  0.00     0.202 C 
BRANCH   3   4
ATOM      4  C   UNL     1      -2.613  -7.080   0.160  1.00  0.00     0.261 C 
BRANCH   4   5
ATOM      5  O   UNL     1      -1.274  -7.582   0.052  1.00  0.00    -0.459 OA
BRANCH   5   6
ATOM      6  C   UNL     1      -0.553  -7.142  -1.014  1.00  0.00     0.345 C 
ATOM      7  O   UNL     1      -0.994  -6.582  -2.005  1.00  0.00    -0.246 OA
BRANCH   6   8
ATOM      8  C   UNL     1       0.892  -7.330  -0.715  1.00  0.00     0.101 C 
ATOM      9  C   UNL     1       1.680  -6.281  -0.395  1.00  0.00     0.031 C 
BRANCH   9  10
ATOM     10  C   UNL     1       1.446  -4.815  -0.282  1.00  0.00    -0.020 A 
ATOM     11  C   UNL     1       1.230  -2.067   0.401  1.00  0.00     0.160 A 
ATOM     12  C   UNL     1       0.089  -2.848   0.216  1.00  0.00     0.051 A 
ATOM     13  C   UNL     1       2.490  -2.637   0.205  1.00  0.00     0.161 A 
ATOM     14  C   UNL     1       0.200  -4.194  -0.160  1.00  0.00     0.012 A 
ATOM     15  C   UNL     1       2.581  -4.001  -0.119  1.00  0.00     0.058 A 
BRANCH  11  16
ATOM     16  O   UNL     1       1.110  -0.797   0.895  1.00  0.00    -0.493 OA
ATOM     17  C   UNL     1       0.335   0.057   0.058  1.00  0.00     0.278 C 
ENDBRANCH  11  16
BRANCH  13  18
ATOM     18  O   UNL     1       3.711  -2.026   0.334  1.00  0.00    -0.493 OA
ATOM     19  C   UNL     1       3.741  -0.611   0.206  1.00  0.00     0.278 C 
ENDBRANCH  13  18
ENDBRANCH   9  10
BRANCH   8  20
ATOM     20  S   UNL     1       1.341  -9.012  -0.573  1.00  0.00    -0.043 SA
BRANCH  20  21
ATOM     21  C   UNL     1       2.982  -9.058  -1.082  1.00  0.00     0.188 A 
ATOM     22  N   UNL     1       3.798  -8.094  -1.428  1.00  0.00    -0.206 NA
ATOM     23  N   UNL     1       3.643 -10.248  -1.119  1.00  0.00    -0.254 N 
ATOM     24  C   UNL     1       4.985  -8.750  -1.633  1.00  0.00     0.148 A 
ATOM     25  N   UNL     1       4.929 -10.080  -1.480  1.00  0.00    -0.158 NA
ATOM     26  H   UNL     1       3.234 -11.118  -0.909  1.00  0.00     0.192 HD
ATOM     27  C   UNL     1       6.231  -8.028  -1.951  1.00  0.00     0.092 C 
ENDBRANCH  20  21
ENDBRANCH   8  20
ENDBRANCH   6   8
ENDBRANCH   5   6
ENDBRANCH   4   5
ENDBRANCH   3   4
ENDBRANCH   2   3
ENDBRANCH   1   2
BRANCH   1  28
ATOM     28  C   UNL     1      -0.336  -6.532   3.634  1.00  0.00     0.261 C 
BRANCH  28  29
ATOM     29  O   UNL     1      -0.849  -7.846   3.583  1.00  0.00    -0.460 OA
BRANCH  29  30
ATOM     30  C   UNL     1      -2.000  -8.003   4.275  1.00  0.00     0.338 C 
ATOM     31  O   UNL     1      -2.737  -7.133   4.697  1.00  0.00    -0.246 OA
BRANCH  30  32
ATOM     32  C   UNL     1      -2.120  -9.427   4.583  1.00  0.00     0.060 A 
ATOM     33  C   UNL     1      -3.036  -9.733   5.588  1.00  0.00     0.016 A 
ATOM     34  C   UNL     1      -1.087 -10.296   4.201  1.00  0.00     0.016 A 
ATOM     35  C   UNL     1      -2.740 -10.787   6.412  1.00  0.00     0.010 A 
ATOM     36  C   UNL     1      -0.764 -11.313   5.055  1.00  0.00     0.010 A 
ATOM     37  C   UNL     1      -1.550 -11.486   6.191  1.00  0.00    -0.014 A 
BRANCH  37  38
ATOM     38  C   UNL     1      -1.204 -12.528   7.122  1.00  0.00     0.031 A 
ATOM     39  C   UNL     1      -1.923 -13.776   6.821  1.00  0.00     0.074 A 
ATOM     40  C   UNL     1      -0.245 -12.387   8.050  1.00  0.00     0.049 A 
ATOM     41  N   UNL     1      -2.946 -14.260   7.439  1.00  0.00    -0.248 NA
ATOM     42  C   UNL     1      -1.645 -14.414   5.522  1.00  0.00     0.031 C 
ATOM     43  C   UNL     1       0.719 -11.297   8.201  1.00  0.00     0.029 A 
ATOM     44  N   UNL     1       0.143 -13.279   8.994  1.00  0.00    -0.354 N 
ATOM     45  C   UNL     1      -3.250 -15.424   6.748  1.00  0.00     0.074 A 
ATOM     46  C   UNL     1      -2.657 -15.276   5.452  1.00  0.00     0.031 C 
ATOM     47  C   UNL     1       1.715 -11.706   9.020  1.00  0.00     0.029 A 
ATOM     48  C   UNL     1       1.401 -13.035   9.526  1.00  0.00     0.049 A 
ATOM     49  H   UNL     1      -0.419 -14.036   9.278  1.00  0.00     0.167 HD
ATOM     50  C   UNL     1      -3.642 -16.544   7.411  1.00  0.00     0.034 A 
ATOM     51  C   UNL     1       2.155 -13.919  10.233  1.00  0.00     0.034 A 
ATOM     52  C   UNL     1      -4.102 -16.213   8.748  1.00  0.00     0.049 A 
ATOM     53  C   UNL     1       1.235 -14.978  10.736  1.00  0.00     0.074 A 
ATOM     54  C   UNL     1      -5.048 -15.334   9.245  1.00  0.00     0.029 A 
ATOM     55  N   UNL     1      -3.285 -16.513   9.818  1.00  0.00    -0.354 N 
ATOM     56  N   UNL     1       0.302 -14.757  11.621  1.00  0.00    -0.248 NA
ATOM     57  C   UNL     1       1.013 -16.152   9.900  1.00  0.00     0.031 C 
ATOM     58  C   UNL     1      -4.460 -14.778  10.420  1.00  0.00     0.029 A 
ATOM     59  C   UNL     1      -3.230 -15.405  10.630  1.00  0.00     0.049 A 
ATOM     60  H   UNL     1      -2.823 -17.369   9.973  1.00  0.00     0.167 HD
ATOM     61  C   UNL     1      -0.803 -15.467  11.174  1.00  0.00     0.074 A 
ATOM     62  C   UNL     1      -0.274 -16.390  10.172  1.00  0.00     0.031 C 
ATOM     63  C   UNL     1      -2.076 -15.038  11.435  1.00  0.00     0.034 A 
BRANCH  50  64
ATOM     64  C   UNL     1      -3.222 -17.944   7.006  1.00  0.00     0.023 A 
ATOM     65  C   UNL     1      -3.680 -18.991   7.820  1.00  0.00     0.031 A 
ATOM     66  C   UNL     1      -2.215 -18.297   6.072  1.00  0.00     0.131 A 
ATOM     67  C   UNL     1      -3.069 -20.255   7.783  1.00  0.00     0.055 A 
ATOM     68  C   UNL     1      -1.657 -19.575   5.993  1.00  0.00     0.041 A 
ATOM     69  F   UNL     1      -1.642 -17.430   5.232  1.00  0.00    -0.206 F 
ATOM     70  C   UNL     1      -2.056 -20.555   6.879  1.00  0.00     0.022 A 
BRANCH  67  71
ATOM     71  S   UNL     1      -3.504 -21.442   9.074  1.00  0.00     0.124 S 
ATOM     72  O   UNL     1      -3.265 -20.656  10.280  1.00  0.00    -0.237 OA
ATOM     73  O   UNL     1      -4.899 -21.727   8.754  1.00  0.00    -0.237 OA
ATOM     74  O   UNL     1      -2.572 -22.542   8.847  1.00  0.00    -0.744 OA
ENDBRANCH  67  71
ENDBRANCH  50  64
BRANCH  51  75
ATOM     75  C   UNL     1       3.636 -14.068  10.194  1.00  0.00     0.023 A 
ATOM     76  C   UNL     1       4.356 -14.758  11.191  1.00  0.00     0.031 A 
ATOM     77  C   UNL     1       4.353 -13.717   9.026  1.00  0.00     0.131 A 
ATOM     78  C   UNL     1       5.725 -15.062  11.000  1.00  0.00     0.055 A 
ATOM     79  C   UNL     1       5.707 -14.007   8.849  1.00  0.00     0.041 A 
ATOM     80  F   UNL     1       3.741 -13.155   7.972  1.00  0.00    -0.206 F 
ATOM     81  C   UNL     1       6.398 -14.691   9.834  1.00  0.00     0.022 A 
BRANCH  78  82
ATOM     82  S   UNL     1       6.635 -16.048  12.234  1.00  0.00     0.124 S 
ATOM     83  O   UNL     1       6.763 -15.113  13.345  1.00  0.00    -0.237 OA
ATOM     84  O   UNL     1       5.748 -17.187  12.441  1.00  0.00    -0.237 OA
ATOM     85  O   UNL     1       7.890 -16.370  11.553  1.00  0.00    -0.744 OA
ENDBRANCH  78  82
ENDBRANCH  51  75
BRANCH  63  86
ATOM     86  C   UNL     1      -2.270 -13.952  12.481  1.00  0.00     0.023 A 
ATOM     87  C   UNL     1      -1.612 -12.700  12.481  1.00  0.00     0.031 A 
ATOM     88  C   UNL     1      -3.239 -14.171  13.476  1.00  0.00     0.131 A 
ATOM     89  C   UNL     1      -1.913 -11.740  13.468  1.00  0.00     0.055 A 
ATOM     90  C   UNL     1      -3.553 -13.209  14.437  1.00  0.00     0.041 A 
ATOM     91  F   UNL     1      -3.924 -15.326  13.519  1.00  0.00    -0.206 F 
ATOM     92  C   UNL     1      -2.882 -11.993  14.443  1.00  0.00     0.022 A 
BRANCH  89  93
ATOM     93  S   UNL     1      -1.019 -10.153  13.530  1.00  0.00     0.124 S 
ATOM     94  O   UNL     1       0.366 -10.525  13.272  1.00  0.00    -0.237 OA
ATOM     95  O   UNL     1      -1.680  -9.382  12.480  1.00  0.00    -0.237 OA
ATOM     96  O   UNL     1      -1.278  -9.674  14.890  1.00  0.00    -0.744 OA
ENDBRANCH  89  93
ENDBRANCH  63  86
ENDBRANCH  37  38
ENDBRANCH  30  32
ENDBRANCH  29  30
ENDBRANCH  28  29
ENDBRANCH   1  28
TORSDOF 22
