REMARK SMILES O=C(CCCC(=O)N1CCN(c2ncccn2)CC1)OCCOCCOC(=O)c1ccc(-c2c3nc(c(-c4cc(S(=O)(=O)[O-])ccc4F)c4ccc([nH]4)c(-c4cc(S(=O)(=O)[O-])ccc4F)c4nc(c(-c5cc(S(=O)(=O)[O-])ccc5F)c5ccc2[nH]5)C=C4)C=C3)cc1
REMARK SMILES IDX 22 1 21 2 20 3 2 4 1 5 3 6 4 7 5 8 6 9 7 10 8 11 9 12 19 13
REMARK SMILES IDX 10 14 18 15 11 16 12 17 13 18 17 19 14 20 16 21 15 22 23 23
REMARK SMILES IDX 24 24 25 25 26 26 27 27 28 28 29 29 30 30 91 31 31 32 90 33
REMARK SMILES IDX 32 34 33 35 34 36 84 37 35 38 89 39 83 40 85 41 36 42 88 43
REMARK SMILES IDX 82 44 81 45 37 47 69 48 49 49 68 50 50 51 53 52 67 53 86 54
REMARK SMILES IDX 51 55 52 56 66 58 87 59 54 60 38 61 39 62 47 63 40 64 46 65
REMARK SMILES IDX 48 66 45 67 41 68 42 69 43 70 44 71 70 72 71 73 79 74 72 75
REMARK SMILES IDX 78 76 80 77 77 78 73 79 74 80 75 81 76 82 55 83 56 84 64 85
REMARK SMILES IDX 57 86 63 87 65 88 62 89 58 90 59 91 60 92 61 93
REMARK H PARENT 85 46 53 57
REMARK Flexibility Score: inf
ROOT
ATOM      1  C   UNL     1       3.578   0.089   1.599  1.00  0.00     0.202 C 
ENDROOT
BRANCH   1   2
ATOM      2  C   UNL     1       3.277   1.590   1.567  1.00  0.00     0.261 C 
BRANCH   2   3
ATOM      3  O   UNL     1       3.502   2.105   0.247  1.00  0.00    -0.463 OA
BRANCH   3   4
ATOM      4  C   UNL     1       2.527   1.778  -0.630  1.00  0.00     0.305 C 
ATOM      5  O   UNL     1       1.327   1.867  -0.387  1.00  0.00    -0.252 OA
BRANCH   4   6
ATOM      6  C   UNL     1       3.062   1.108  -1.879  1.00  0.00     0.123 C 
BRANCH   6   7
ATOM      7  C   UNL     1       4.541   1.264  -2.262  1.00  0.00     0.022 C 
BRANCH   7   8
ATOM      8  C   UNL     1       5.666   0.877  -1.298  1.00  0.00     0.101 C 
BRANCH   8   9
ATOM      9  C   UNL     1       6.364  -0.467  -1.026  1.00  0.00     0.222 C 
ATOM     10  O   UNL     1       7.498  -0.371  -0.523  1.00  0.00    -0.275 OA
ATOM     11  N   UNL     1       5.815  -1.718  -1.186  1.00  0.00    -0.339 N 
ATOM     12  C   UNL     1       6.584  -2.858  -0.645  1.00  0.00     0.141 C 
ATOM     13  C   UNL     1       4.833  -2.094  -2.185  1.00  0.00     0.141 C 
ATOM     14  C   UNL     1       5.845  -4.203  -0.433  1.00  0.00     0.141 C 
ATOM     15  C   UNL     1       3.928  -3.242  -1.734  1.00  0.00     0.141 C 
ATOM     16  N   UNL     1       4.700  -4.416  -1.326  1.00  0.00    -0.337 N 
BRANCH  16  17
ATOM     17  C   UNL     1       3.850  -5.472  -0.995  1.00  0.00     0.225 A 
ATOM     18  N   UNL     1       3.774  -5.913   0.273  1.00  0.00    -0.221 NA
ATOM     19  N   UNL     1       3.061  -5.957  -1.972  1.00  0.00    -0.221 NA
ATOM     20  C   UNL     1       2.839  -6.837   0.567  1.00  0.00     0.117 A 
ATOM     21  C   UNL     1       2.180  -6.920  -1.643  1.00  0.00     0.117 A 
ATOM     22  C   UNL     1       2.005  -7.390  -0.368  1.00  0.00     0.040 A 
ENDBRANCH  16  17
ENDBRANCH   8   9
ENDBRANCH   7   8
ENDBRANCH   6   7
ENDBRANCH   4   6
ENDBRANCH   3   4
ENDBRANCH   2   3
ENDBRANCH   1   2
BRANCH   1  23
ATOM     23  O   UNL     1       2.869  -0.650   0.598  1.00  0.00    -0.374 OA
BRANCH  23  24
ATOM     24  C   UNL     1       1.539  -1.033   0.945  1.00  0.00     0.202 C 
BRANCH  24  25
ATOM     25  C   UNL     1       1.432  -2.462   1.497  1.00  0.00     0.261 C 
BRANCH  25  26
ATOM     26  O   UNL     1       2.167  -2.639   2.716  1.00  0.00    -0.460 OA
BRANCH  26  27
ATOM     27  C   UNL     1       3.485  -2.889   2.500  1.00  0.00     0.338 C 
ATOM     28  O   UNL     1       4.030  -2.978   1.426  1.00  0.00    -0.246 OA
BRANCH  27  29
ATOM     29  C   UNL     1       4.257  -2.804   3.743  1.00  0.00     0.060 A 
ATOM     30  C   UNL     1       5.523  -2.201   3.669  1.00  0.00     0.016 A 
ATOM     31  C   UNL     1       3.749  -3.282   4.947  1.00  0.00     0.016 A 
ATOM     32  C   UNL     1       6.284  -2.054   4.817  1.00  0.00     0.010 A 
ATOM     33  C   UNL     1       4.510  -3.127   6.097  1.00  0.00     0.010 A 
ATOM     34  C   UNL     1       5.771  -2.507   6.035  1.00  0.00    -0.014 A 
BRANCH  34  35
ATOM     35  C   UNL     1       6.536  -2.347   7.283  1.00  0.00     0.031 A 
ATOM     36  C   UNL     1       7.112  -3.564   7.930  1.00  0.00     0.074 A 
ATOM     37  C   UNL     1       6.592  -1.131   7.852  1.00  0.00     0.049 A 
ATOM     38  N   UNL     1       7.577  -3.715   9.139  1.00  0.00    -0.248 NA
ATOM     39  C   UNL     1       7.135  -4.785   7.110  1.00  0.00     0.031 C 
ATOM     40  C   UNL     1       6.073   0.103   7.255  1.00  0.00     0.029 A 
ATOM     41  N   UNL     1       7.071  -0.738   9.071  1.00  0.00    -0.354 N 
ATOM     42  C   UNL     1       7.917  -5.059   9.242  1.00  0.00     0.074 A 
ATOM     43  C   UNL     1       7.582  -5.680   7.978  1.00  0.00     0.031 C 
ATOM     44  C   UNL     1       6.241   1.112   8.123  1.00  0.00     0.029 A 
ATOM     45  C   UNL     1       6.812   0.583   9.355  1.00  0.00     0.049 A 
ATOM     46  H   UNL     1       7.553  -1.339   9.684  1.00  0.00     0.167 HD
ATOM     47  C   UNL     1       8.452  -5.699  10.310  1.00  0.00     0.034 A 
ATOM     48  C   UNL     1       6.971   1.266  10.503  1.00  0.00     0.034 A 
ATOM     49  C   UNL     1       8.755  -5.025  11.550  1.00  0.00     0.049 A 
ATOM     50  C   UNL     1       7.527   0.523  11.690  1.00  0.00     0.074 A 
ATOM     51  C   UNL     1       9.317  -5.543  12.702  1.00  0.00     0.029 A 
ATOM     52  N   UNL     1       8.507  -3.678  11.799  1.00  0.00    -0.354 N 
ATOM     53  N   UNL     1       7.847  -0.749  11.790  1.00  0.00    -0.248 NA
ATOM     54  C   UNL     1       7.749   1.301  12.911  1.00  0.00     0.031 C 
ATOM     55  C   UNL     1       9.340  -4.530  13.668  1.00  0.00     0.029 A 
ATOM     56  C   UNL     1       8.877  -3.355  13.094  1.00  0.00     0.049 A 
ATOM     57  H   UNL     1       8.123  -3.045  11.149  1.00  0.00     0.167 HD
ATOM     58  C   UNL     1       8.339  -0.916  13.079  1.00  0.00     0.074 A 
ATOM     59  C   UNL     1       8.285   0.390  13.710  1.00  0.00     0.031 C 
ATOM     60  C   UNL     1       8.798  -2.040  13.691  1.00  0.00     0.034 A 
BRANCH  47  61
ATOM     61  C   UNL     1       8.671  -7.189  10.194  1.00  0.00     0.023 A 
ATOM     62  C   UNL     1       9.539  -7.743   9.235  1.00  0.00     0.031 A 
ATOM     63  C   UNL     1       7.967  -8.076  11.028  1.00  0.00     0.131 A 
ATOM     64  C   UNL     1       9.620  -9.136   9.083  1.00  0.00     0.055 A 
ATOM     65  C   UNL     1       8.118  -9.461  10.929  1.00  0.00     0.041 A 
ATOM     66  F   UNL     1       7.101  -7.612  11.943  1.00  0.00    -0.206 F 
ATOM     67  C   UNL     1       8.937  -9.999   9.942  1.00  0.00     0.022 A 
BRANCH  64  68
ATOM     68  S   UNL     1      10.513  -9.803   7.651  1.00  0.00     0.124 S 
ATOM     69  O   UNL     1       9.771  -9.210   6.541  1.00  0.00    -0.237 OA
ATOM     70  O   UNL     1      11.865  -9.299   7.859  1.00  0.00    -0.237 OA
ATOM     71  O   UNL     1      10.357 -11.249   7.793  1.00  0.00    -0.744 OA
ENDBRANCH  64  68
ENDBRANCH  47  61
BRANCH  48  72
ATOM     72  C   UNL     1       6.573   2.699  10.591  1.00  0.00     0.023 A 
ATOM     73  C   UNL     1       7.528   3.699  10.826  1.00  0.00     0.031 A 
ATOM     74  C   UNL     1       5.229   3.094  10.448  1.00  0.00     0.131 A 
ATOM     75  C   UNL     1       7.126   5.037  10.951  1.00  0.00     0.055 A 
ATOM     76  C   UNL     1       4.841   4.434  10.517  1.00  0.00     0.041 A 
ATOM     77  F   UNL     1       4.273   2.181  10.215  1.00  0.00    -0.206 F 
ATOM     78  C   UNL     1       5.792   5.414  10.783  1.00  0.00     0.022 A 
BRANCH  75  79
ATOM     79  S   UNL     1       8.367   6.273  11.420  1.00  0.00     0.124 S 
ATOM     80  O   UNL     1       8.868   5.728  12.676  1.00  0.00    -0.237 OA
ATOM     81  O   UNL     1       9.285   6.224  10.287  1.00  0.00    -0.237 OA
ATOM     82  O   UNL     1       7.591   7.506  11.539  1.00  0.00    -0.744 OA
ENDBRANCH  75  79
ENDBRANCH  48  72
BRANCH  60  83
ATOM     83  C   UNL     1       9.322  -1.875  15.095  1.00  0.00     0.023 A 
ATOM     84  C   UNL     1       8.479  -1.526  16.163  1.00  0.00     0.031 A 
ATOM     85  C   UNL     1      10.691  -2.058  15.360  1.00  0.00     0.131 A 
ATOM     86  C   UNL     1       9.024  -1.307  17.435  1.00  0.00     0.055 A 
ATOM     87  C   UNL     1      11.215  -1.910  16.643  1.00  0.00     0.041 A 
ATOM     88  F   UNL     1      11.540  -2.387  14.373  1.00  0.00    -0.206 F 
ATOM     89  C   UNL     1      10.383  -1.517  17.687  1.00  0.00     0.022 A 
BRANCH  86  90
ATOM     90  S   UNL     1       7.952  -0.634  18.733  1.00  0.00     0.124 S 
ATOM     91  O   UNL     1       7.500   0.617  18.132  1.00  0.00    -0.237 OA
ATOM     92  O   UNL     1       6.940  -1.676  18.874  1.00  0.00    -0.237 OA
ATOM     93  O   UNL     1       8.851  -0.484  19.876  1.00  0.00    -0.744 OA
ENDBRANCH  86  90
ENDBRANCH  60  83
ENDBRANCH  34  35
ENDBRANCH  27  29
ENDBRANCH  26  27
ENDBRANCH  25  26
ENDBRANCH  24  25
ENDBRANCH  23  24
ENDBRANCH   1  23
TORSDOF 21
