REMARK SMILES C[C@@H]1C[N@@H+](CC(C)(C)C(=O)OCCOCCOC(=O)c2ccc(-c3c4nc(c(-c5cc(S(=O)(=O)[O-])ccc5F)c5ccc([nH]5)c(-c5cc(S(=O)(=O)[O-])ccc5F)c5nc(c(-c6cc(S(=O)(=O)[O-])ccc6F)c6ccc3[nH]6)C=C5)C=C4)cc2)CC[C@@H]1[NH3+]
REMARK SMILES IDX 14 1 13 2 12 3 11 4 9 5 10 6 6 7 7 8 8 9 5 10 4 11 1 12 2 13
REMARK SMILES IDX 3 14 85 15 84 16 83 17 86 19 15 23 16 24 17 25 18 26 19 27
REMARK SMILES IDX 20 28 21 29 82 30 22 31 81 32 23 33 24 34 25 35 75 36 26 37
REMARK SMILES IDX 80 38 74 39 76 40 27 41 79 42 73 43 72 44 28 46 60 47 40 48
REMARK SMILES IDX 59 49 41 50 44 51 58 52 77 53 42 54 43 55 57 57 78 58 45 59
REMARK SMILES IDX 29 60 30 61 38 62 31 63 37 64 39 65 36 66 32 67 33 68 34 69
REMARK SMILES IDX 35 70 61 71 62 72 70 73 63 74 69 75 71 76 68 77 64 78 65 79
REMARK SMILES IDX 66 80 67 81 46 82 47 83 55 84 48 85 54 86 56 87 53 88 49 89
REMARK SMILES IDX 50 90 51 91 52 92
REMARK H PARENT 4 18 86 20 86 21 86 22 76 45 44 56
REMARK Flexibility Score: inf
ROOT
ATOM      1  O   UNL     1       2.757  -4.473   3.256  1.00  0.00    -0.374 OA
ENDROOT
BRANCH   1   2
ATOM      2  C   UNL     1       2.029  -4.707   4.456  1.00  0.00     0.202 C 
BRANCH   2   3
ATOM      3  C   UNL     1       0.480  -4.690   4.547  1.00  0.00     0.261 C 
BRANCH   3   4
ATOM      4  O   UNL     1      -0.257  -5.177   3.412  1.00  0.00    -0.463 OA
BRANCH   4   5
ATOM      5  C   UNL     1      -0.248  -4.244   2.427  1.00  0.00     0.317 C 
ATOM      6  O   UNL     1       0.437  -3.244   2.560  1.00  0.00    -0.251 OA
BRANCH   5   7
ATOM      7  C   UNL     1      -1.095  -4.562   1.191  1.00  0.00     0.111 C 
ATOM      8  C   UNL     1      -2.574  -4.365   1.540  1.00  0.00     0.029 C 
ATOM      9  C   UNL     1      -0.909  -6.061   0.828  1.00  0.00     0.029 C 
BRANCH   7  10
ATOM     10  C   UNL     1      -0.634  -3.716  -0.081  1.00  0.00     0.280 C 
BRANCH  10  11
ATOM     11  N   UNL     1      -0.663  -2.229  -0.249  1.00  0.00    -0.333 N 
ATOM     12  C   UNL     1       1.073   0.481  -0.585  1.00  0.00     0.020 C 
ATOM     13  C   UNL     1       0.315  -0.019   0.639  1.00  0.00     0.099 C 
ATOM     14  C   UNL     1       0.228  -1.542   0.692  1.00  0.00     0.271 C 
ATOM     15  C   UNL     1      -1.129   0.480   0.811  1.00  0.00     0.194 C 
ATOM     16  C   UNL     1      -2.018  -0.105  -0.293  1.00  0.00     0.126 C 
ATOM     17  C   UNL     1      -2.006  -1.645  -0.251  1.00  0.00     0.268 C 
ATOM     18  H   UNL     1      -0.301  -2.070  -1.189  1.00  0.00     0.348 HD
BRANCH  15  19
ATOM     19  N   UNL     1      -1.217   1.936   0.903  1.00  0.00    -0.355 N 
ATOM     20  H   UNL     1      -0.881   2.352   0.034  1.00  0.00     0.344 HD
ATOM     21  H   UNL     1      -0.643   2.263   1.680  1.00  0.00     0.344 HD
ATOM     22  H   UNL     1      -2.187   2.209   1.058  1.00  0.00     0.344 HD
ENDBRANCH  15  19
ENDBRANCH  10  11
ENDBRANCH   7  10
ENDBRANCH   5   7
ENDBRANCH   4   5
ENDBRANCH   3   4
ENDBRANCH   2   3
ENDBRANCH   1   2
BRANCH   1  23
ATOM     23  C   UNL     1       2.643  -5.339   2.135  1.00  0.00     0.202 C 
BRANCH  23  24
ATOM     24  C   UNL     1       2.912  -6.839   2.267  1.00  0.00     0.261 C 
BRANCH  24  25
ATOM     25  O   UNL     1       2.128  -7.463   3.290  1.00  0.00    -0.460 OA
BRANCH  25  26
ATOM     26  C   UNL     1       2.866  -7.863   4.357  1.00  0.00     0.338 C 
ATOM     27  O   UNL     1       4.077  -7.806   4.473  1.00  0.00    -0.246 OA
BRANCH  26  28
ATOM     28  C   UNL     1       1.978  -8.155   5.495  1.00  0.00     0.060 A 
ATOM     29  C   UNL     1       2.251  -7.486   6.696  1.00  0.00     0.016 A 
ATOM     30  C   UNL     1       0.971  -9.117   5.419  1.00  0.00     0.016 A 
ATOM     31  C   UNL     1       1.569  -7.830   7.851  1.00  0.00     0.010 A 
ATOM     32  C   UNL     1       0.303  -9.483   6.590  1.00  0.00     0.010 A 
ATOM     33  C   UNL     1       0.647  -8.881   7.814  1.00  0.00    -0.014 A 
BRANCH  33  34
ATOM     34  C   UNL     1       0.277  -9.503   9.105  1.00  0.00     0.031 A 
ATOM     35  C   UNL     1       1.033 -10.730   9.539  1.00  0.00     0.074 A 
ATOM     36  C   UNL     1      -0.610  -8.910   9.920  1.00  0.00     0.049 A 
ATOM     37  N   UNL     1       0.934 -11.421  10.643  1.00  0.00    -0.248 NA
ATOM     38  C   UNL     1       2.040 -11.245   8.595  1.00  0.00     0.031 C 
ATOM     39  C   UNL     1      -1.336  -7.676   9.622  1.00  0.00     0.029 A 
ATOM     40  N   UNL     1      -1.035  -9.259  11.174  1.00  0.00    -0.354 N 
ATOM     41  C   UNL     1       1.863 -12.451  10.527  1.00  0.00     0.074 A 
ATOM     42  C   UNL     1       2.478 -12.323   9.225  1.00  0.00     0.031 C 
ATOM     43  C   UNL     1      -2.116  -7.367  10.672  1.00  0.00     0.029 A 
ATOM     44  C   UNL     1      -1.970  -8.399  11.697  1.00  0.00     0.049 A 
ATOM     45  H   UNL     1      -0.703 -10.051  11.655  1.00  0.00     0.167 HD
ATOM     46  C   UNL     1       2.183 -13.407  11.434  1.00  0.00     0.034 A 
ATOM     47  C   UNL     1      -2.640  -8.454  12.865  1.00  0.00     0.034 A 
ATOM     48  C   UNL     1       1.549 -13.518  12.725  1.00  0.00     0.049 A 
ATOM     49  C   UNL     1      -2.332  -9.583  13.819  1.00  0.00     0.074 A 
ATOM     50  C   UNL     1       1.779 -14.448  13.722  1.00  0.00     0.029 A 
ATOM     51  N   UNL     1       0.552 -12.671  13.194  1.00  0.00    -0.354 N 
ATOM     52  N   UNL     1      -1.461 -10.560  13.697  1.00  0.00    -0.248 NA
ATOM     53  C   UNL     1      -3.088  -9.604  15.077  1.00  0.00     0.031 C 
ATOM     54  C   UNL     1       0.869 -14.212  14.758  1.00  0.00     0.029 A 
ATOM     55  C   UNL     1       0.134 -13.078  14.452  1.00  0.00     0.049 A 
ATOM     56  H   UNL     1       0.194 -11.895  12.705  1.00  0.00     0.167 HD
ATOM     57  C   UNL     1      -1.542 -11.291  14.881  1.00  0.00     0.074 A 
ATOM     58  C   UNL     1      -2.527 -10.624  15.708  1.00  0.00     0.031 C 
ATOM     59  C   UNL     1      -0.864 -12.408  15.255  1.00  0.00     0.034 A 
BRANCH  46  60
ATOM     60  C   UNL     1       3.216 -14.431  11.026  1.00  0.00     0.023 A 
ATOM     61  C   UNL     1       4.545 -14.076  10.733  1.00  0.00     0.031 A 
ATOM     62  C   UNL     1       2.852 -15.783  10.885  1.00  0.00     0.131 A 
ATOM     63  C   UNL     1       5.438 -15.043  10.245  1.00  0.00     0.055 A 
ATOM     64  C   UNL     1       3.769 -16.755  10.482  1.00  0.00     0.041 A 
ATOM     65  F   UNL     1       1.591 -16.179  11.119  1.00  0.00    -0.206 F 
ATOM     66  C   UNL     1       5.067 -16.385  10.145  1.00  0.00     0.022 A 
BRANCH  63  67
ATOM     67  S   UNL     1       7.043 -14.496   9.598  1.00  0.00     0.124 S 
ATOM     68  O   UNL     1       6.635 -13.572   8.543  1.00  0.00    -0.237 OA
ATOM     69  O   UNL     1       7.667 -13.894  10.770  1.00  0.00    -0.237 OA
ATOM     70  O   UNL     1       7.662 -15.733   9.127  1.00  0.00    -0.744 OA
ENDBRANCH  63  67
ENDBRANCH  46  60
BRANCH  47  71
ATOM     71  C   UNL     1      -3.683  -7.439  13.189  1.00  0.00     0.023 A 
ATOM     72  C   UNL     1      -3.565  -6.604  14.311  1.00  0.00     0.031 A 
ATOM     73  C   UNL     1      -4.851  -7.336  12.412  1.00  0.00     0.131 A 
ATOM     74  C   UNL     1      -4.619  -5.744  14.656  1.00  0.00     0.055 A 
ATOM     75  C   UNL     1      -5.870  -6.435  12.725  1.00  0.00     0.041 A 
ATOM     76  F   UNL     1      -5.019  -8.112  11.329  1.00  0.00    -0.206 F 
ATOM     77  C   UNL     1      -5.763  -5.643  13.863  1.00  0.00     0.022 A 
BRANCH  74  78
ATOM     78  S   UNL     1      -4.515  -4.830  16.220  1.00  0.00     0.124 S 
ATOM     79  O   UNL     1      -4.359  -5.912  17.185  1.00  0.00    -0.237 OA
ATOM     80  O   UNL     1      -3.343  -3.990  16.001  1.00  0.00    -0.237 OA
ATOM     81  O   UNL     1      -5.789  -4.116  16.280  1.00  0.00    -0.744 OA
ENDBRANCH  74  78
ENDBRANCH  47  71
BRANCH  59  82
ATOM     82  C   UNL     1      -1.142 -12.941  16.642  1.00  0.00     0.023 A 
ATOM     83  C   UNL     1      -2.413 -13.416  17.012  1.00  0.00     0.031 A 
ATOM     84  C   UNL     1      -0.131 -12.936  17.620  1.00  0.00     0.131 A 
ATOM     85  C   UNL     1      -2.663 -13.781  18.343  1.00  0.00     0.055 A 
ATOM     86  C   UNL     1      -0.364 -13.378  18.922  1.00  0.00     0.041 A 
ATOM     87  F   UNL     1       1.103 -12.494  17.327  1.00  0.00    -0.206 F 
ATOM     88  C   UNL     1      -1.642 -13.784  19.296  1.00  0.00     0.022 A 
BRANCH  85  89
ATOM     89  S   UNL     1      -4.374 -14.113  18.843  1.00  0.00     0.124 S 
ATOM     90  O   UNL     1      -5.051 -12.884  18.441  1.00  0.00    -0.237 OA
ATOM     91  O   UNL     1      -4.700 -15.304  18.065  1.00  0.00    -0.237 OA
ATOM     92  O   UNL     1      -4.275 -14.323  20.286  1.00  0.00    -0.744 OA
ENDBRANCH  85  89
ENDBRANCH  59  82
ENDBRANCH  33  34
ENDBRANCH  26  28
ENDBRANCH  25  26
ENDBRANCH  24  25
ENDBRANCH  23  24
ENDBRANCH   1  23
TORSDOF 20
