REMARK SMILES O=C(OCCOCCOC(=O)[C@@H]1CC[C@@H](CNC(=O)c2ccno2)O1)c1ccc(-c2c3nc(c(-c4cc(S(=O)(=O)[O-])ccc4F)c4ccc([nH]4)c(-c4cc(S(=O)(=O)[O-])ccc4F)c4nc(c(-c5cc(S(=O)(=O)[O-])ccc5F)c5ccc2[nH]5)C=C4)C=C3)cc1
REMARK SMILES IDX 6 1 5 2 4 3 3 4 2 5 1 6 26 7 27 8 88 9 28 10 87 11 29 12
REMARK SMILES IDX 30 13 31 14 81 15 32 16 86 17 80 18 82 19 33 20 85 21 79 22
REMARK SMILES IDX 78 23 34 25 66 26 46 27 65 28 47 29 50 30 64 31 83 32 48 33
REMARK SMILES IDX 49 34 63 36 84 37 51 38 35 39 36 40 44 41 37 42 43 43 45 44
REMARK SMILES IDX 42 45 38 46 39 47 40 48 41 49 67 50 68 51 76 52 69 53 75 54
REMARK SMILES IDX 77 55 74 56 70 57 71 58 72 59 73 60 52 61 53 62 61 63 54 64
REMARK SMILES IDX 60 65 62 66 59 67 55 68 56 69 57 70 58 71 7 72 8 73 9 74
REMARK SMILES IDX 10 75 11 76 12 77 13 78 25 79 14 80 15 81 16 82 17 83 18 84
REMARK SMILES IDX 19 86 20 87 21 88 24 89 22 90 23 91
REMARK H PARENT 82 24 50 35 17 85
REMARK Flexibility Score: inf
ROOT
ATOM      1  O   UNL     1       4.029   1.115  -1.220  1.00  0.00    -0.374 OA
ENDROOT
BRANCH   1   2
ATOM      2  C   UNL     1       4.268  -0.222  -1.658  1.00  0.00     0.202 C 
BRANCH   2   3
ATOM      3  C   UNL     1       4.046  -1.295  -0.586  1.00  0.00     0.261 C 
BRANCH   3   4
ATOM      4  O   UNL     1       2.677  -1.282  -0.144  1.00  0.00    -0.460 OA
BRANCH   4   5
ATOM      5  C   UNL     1       2.129  -0.583   0.879  1.00  0.00     0.338 C 
ATOM      6  O   UNL     1       0.905  -0.613   1.008  1.00  0.00    -0.246 OA
BRANCH   5   7
ATOM      7  C   UNL     1       2.920   0.203   1.876  1.00  0.00     0.060 A 
ATOM      8  C   UNL     1       4.188   0.737   1.655  1.00  0.00     0.016 A 
ATOM      9  C   UNL     1       2.304   0.474   3.112  1.00  0.00     0.016 A 
ATOM     10  C   UNL     1       4.855   1.462   2.624  1.00  0.00     0.010 A 
ATOM     11  C   UNL     1       2.957   1.230   4.093  1.00  0.00     0.010 A 
ATOM     12  C   UNL     1       4.248   1.705   3.849  1.00  0.00    -0.014 A 
BRANCH  12  13
ATOM     13  C   UNL     1       5.099   2.323   4.877  1.00  0.00     0.031 A 
ATOM     14  C   UNL     1       5.739   1.418   5.883  1.00  0.00     0.074 A 
ATOM     15  C   UNL     1       5.455   3.612   4.738  1.00  0.00     0.049 A 
ATOM     16  N   UNL     1       6.590   1.701   6.829  1.00  0.00    -0.248 NA
ATOM     17  C   UNL     1       5.388  -0.009   5.791  1.00  0.00     0.031 C 
ATOM     18  C   UNL     1       4.989   4.499   3.666  1.00  0.00     0.029 A 
ATOM     19  N   UNL     1       6.331   4.382   5.449  1.00  0.00    -0.354 N 
ATOM     20  C   UNL     1       6.860   0.493   7.461  1.00  0.00     0.074 A 
ATOM     21  C   UNL     1       6.076  -0.523   6.796  1.00  0.00     0.031 C 
ATOM     22  C   UNL     1       5.620   5.679   3.769  1.00  0.00     0.029 A 
ATOM     23  C   UNL     1       6.472   5.657   4.952  1.00  0.00     0.049 A 
ATOM     24  H   UNL     1       6.816   4.056   6.241  1.00  0.00     0.167 HD
ATOM     25  C   UNL     1       7.686   0.268   8.511  1.00  0.00     0.034 A 
ATOM     26  C   UNL     1       7.195   6.690   5.427  1.00  0.00     0.034 A 
ATOM     27  C   UNL     1       8.431   1.325   9.148  1.00  0.00     0.049 A 
ATOM     28  C   UNL     1       8.008   6.443   6.673  1.00  0.00     0.074 A 
ATOM     29  C   UNL     1       9.227   1.271  10.275  1.00  0.00     0.029 A 
ATOM     30  N   UNL     1       8.459   2.645   8.702  1.00  0.00    -0.354 N 
ATOM     31  N   UNL     1       8.185   5.318   7.333  1.00  0.00    -0.248 NA
ATOM     32  C   UNL     1       8.709   7.596   7.243  1.00  0.00     0.031 C 
ATOM     33  C   UNL     1       9.679   2.568  10.549  1.00  0.00     0.029 A 
ATOM     34  C   UNL     1       9.234   3.419   9.547  1.00  0.00     0.049 A 
ATOM     35  H   UNL     1       7.995   2.978   7.900  1.00  0.00     0.167 HD
ATOM     36  C   UNL     1       9.037   5.626   8.387  1.00  0.00     0.074 A 
ATOM     37  C   UNL     1       9.355   7.037   8.255  1.00  0.00     0.031 C 
ATOM     38  C   UNL     1       9.515   4.828   9.378  1.00  0.00     0.034 A 
BRANCH  25  39
ATOM     39  C   UNL     1       7.696  -1.131   9.078  1.00  0.00     0.023 A 
ATOM     40  C   UNL     1       8.143  -2.239   8.335  1.00  0.00     0.031 A 
ATOM     41  C   UNL     1       7.127  -1.373  10.341  1.00  0.00     0.131 A 
ATOM     42  C   UNL     1       7.928  -3.540   8.821  1.00  0.00     0.055 A 
ATOM     43  C   UNL     1       6.994  -2.664  10.855  1.00  0.00     0.041 A 
ATOM     44  F   UNL     1       6.648  -0.360  11.080  1.00  0.00    -0.206 F 
ATOM     45  C   UNL     1       7.377  -3.759  10.086  1.00  0.00     0.022 A 
BRANCH  42  46
ATOM     46  S   UNL     1       8.203  -4.944   7.702  1.00  0.00     0.124 S 
ATOM     47  O   UNL     1       7.287  -4.634   6.607  1.00  0.00    -0.237 OA
ATOM     48  O   UNL     1       9.624  -4.833   7.397  1.00  0.00    -0.237 OA
ATOM     49  O   UNL     1       7.826  -6.104   8.508  1.00  0.00    -0.744 OA
ENDBRANCH  42  46
ENDBRANCH  25  39
BRANCH  26  50
ATOM     50  C   UNL     1       7.129   8.037   4.785  1.00  0.00     0.023 A 
ATOM     51  C   UNL     1       8.280   8.680   4.301  1.00  0.00     0.031 A 
ATOM     52  C   UNL     1       5.907   8.733   4.696  1.00  0.00     0.131 A 
ATOM     53  C   UNL     1       8.193   9.987   3.790  1.00  0.00     0.055 A 
ATOM     54  C   UNL     1       5.816  10.008   4.134  1.00  0.00     0.041 A 
ATOM     55  F   UNL     1       4.773   8.178   5.152  1.00  0.00    -0.206 F 
ATOM     56  C   UNL     1       6.966  10.648   3.690  1.00  0.00     0.022 A 
BRANCH  53  57
ATOM     57  S   UNL     1       9.723  10.856   3.347  1.00  0.00     0.124 S 
ATOM     58  O   UNL     1      10.475  10.790   4.595  1.00  0.00    -0.237 OA
ATOM     59  O   UNL     1      10.228  10.039   2.249  1.00  0.00    -0.237 OA
ATOM     60  O   UNL     1       9.259  12.189   2.967  1.00  0.00    -0.744 OA
ENDBRANCH  53  57
ENDBRANCH  26  50
BRANCH  38  61
ATOM     61  C   UNL     1      10.462   5.473  10.357  1.00  0.00     0.023 A 
ATOM     62  C   UNL     1      10.034   6.473  11.245  1.00  0.00     0.031 A 
ATOM     63  C   UNL     1      11.814   5.090  10.383  1.00  0.00     0.131 A 
ATOM     64  C   UNL     1      10.966   7.107  12.077  1.00  0.00     0.055 A 
ATOM     65  C   UNL     1      12.723   5.677  11.262  1.00  0.00     0.041 A 
ATOM     66  F   UNL     1      12.272   4.139   9.553  1.00  0.00    -0.206 F 
ATOM     67  C   UNL     1      12.303   6.703  12.105  1.00  0.00     0.022 A 
BRANCH  64  68
ATOM     68  S   UNL     1      10.427   8.543  13.044  1.00  0.00     0.124 S 
ATOM     69  O   UNL     1       9.934   9.441  12.005  1.00  0.00    -0.237 OA
ATOM     70  O   UNL     1       9.414   7.965  13.921  1.00  0.00    -0.237 OA
ATOM     71  O   UNL     1      11.650   8.981  13.715  1.00  0.00    -0.744 OA
ENDBRANCH  64  68
ENDBRANCH  38  61
ENDBRANCH  12  13
ENDBRANCH   5   7
ENDBRANCH   4   5
ENDBRANCH   3   4
ENDBRANCH   2   3
ENDBRANCH   1   2
BRANCH   1  72
ATOM     72  C   UNL     1       2.724   1.632  -1.489  1.00  0.00     0.202 C 
BRANCH  72  73
ATOM     73  C   UNL     1       2.776   2.614  -2.656  1.00  0.00     0.261 C 
BRANCH  73  74
ATOM     74  O   UNL     1       3.094   1.887  -3.856  1.00  0.00    -0.461 OA
BRANCH  74  75
ATOM     75  C   UNL     1       4.412   1.839  -4.201  1.00  0.00     0.335 C 
ATOM     76  O   UNL     1       5.292   2.541  -3.719  1.00  0.00    -0.249 OA
BRANCH  75  77
ATOM     77  C   UNL     1       4.685   0.715  -5.210  1.00  0.00     0.228 C 
ATOM     78  C   UNL     1       3.476   0.254  -6.020  1.00  0.00     0.047 C 
ATOM     79  O   UNL     1       5.218  -0.472  -4.577  1.00  0.00    -0.361 OA
ATOM     80  C   UNL     1       3.815  -1.191  -6.300  1.00  0.00     0.037 C 
ATOM     81  C   UNL     1       4.419  -1.604  -4.971  1.00  0.00     0.138 C 
BRANCH  81  82
ATOM     82  C   UNL     1       5.248  -2.899  -4.910  1.00  0.00     0.148 C 
BRANCH  82  83
ATOM     83  N   UNL     1       5.245  -3.666  -6.145  1.00  0.00    -0.347 N 
ATOM     84  C   UNL     1       6.083  -3.534  -7.225  1.00  0.00     0.289 C 
ATOM     85  H   UNL     1       4.556  -4.366  -6.215  1.00  0.00     0.164 HD
ATOM     86  O   UNL     1       5.699  -4.024  -8.296  1.00  0.00    -0.266 OA
BRANCH  84  87
ATOM     87  C   UNL     1       7.329  -2.839  -7.072  1.00  0.00     0.224 A 
ATOM     88  C   UNL     1       8.342  -2.904  -6.140  1.00  0.00     0.079 A 
ATOM     89  O   UNL     1       7.678  -1.935  -8.033  1.00  0.00    -0.351 OA
ATOM     90  C   UNL     1       9.280  -1.956  -6.579  1.00  0.00     0.159 A 
ATOM     91  N   UNL     1       8.898  -1.361  -7.711  1.00  0.00    -0.088 NA
ENDBRANCH  84  87
ENDBRANCH  82  83
ENDBRANCH  81  82
ENDBRANCH  75  77
ENDBRANCH  74  75
ENDBRANCH  73  74
ENDBRANCH  72  73
ENDBRANCH   1  72
TORSDOF 20
