REMARK SMILES [NH3+][C@H]1CCCCC[C@@H]1C(=O)N[C@@H](CCO)C(=O)OCCOCCOC(=O)c1ccc(-c2c3nc(c(-c4cc(S(=O)(=O)[O-])ccc4F)c4ccc([nH]4)c(-c4cc(S(=O)(=O)[O-])ccc4F)c4nc(c(-c5cc(S(=O)(=O)[O-])ccc5F)c5ccc2[nH]5)C=C4)C=C3)cc1
REMARK SMILES IDX 20 1 19 2 18 3 16 4 17 5 12 6 11 7 9 8 10 9 8 11 2 12 1 13
REMARK SMILES IDX 3 17 4 18 7 20 6 21 5 22 13 24 14 25 15 26 21 28 22 29 23 30
REMARK SMILES IDX 24 31 25 32 26 33 27 34 28 35 89 36 29 37 88 38 30 39 31 40
REMARK SMILES IDX 32 41 82 42 33 43 87 44 81 45 83 46 34 47 86 48 80 49 79 50
REMARK SMILES IDX 35 52 67 53 47 54 66 55 48 56 51 57 65 58 84 59 49 60 50 61
REMARK SMILES IDX 64 63 85 64 52 65 36 66 37 67 45 68 38 69 44 70 46 71 43 72
REMARK SMILES IDX 39 73 40 74 41 75 42 76 68 77 69 78 77 79 70 80 76 81 78 82
REMARK SMILES IDX 75 83 71 84 72 85 73 86 74 87 53 88 54 89 62 90 55 91 61 92
REMARK SMILES IDX 63 93 60 94 56 95 57 96 58 97 59 98
REMARK H PARENT 11 10 1 14 1 15 1 16 15 27 83 51 51 62
REMARK Flexibility Score: 90.00
ROOT
ATOM      1  C   UNL     1      -5.312   3.860   2.269  1.00  0.00     0.202 C 
ENDROOT
BRANCH   1   2
ATOM      2  C   UNL     1      -4.423   5.055   2.624  1.00  0.00     0.261 C 
BRANCH   2   3
ATOM      3  O   UNL     1      -3.159   4.984   1.931  1.00  0.00    -0.462 OA
BRANCH   3   4
ATOM      4  C   UNL     1      -2.056   5.204   2.703  1.00  0.00     0.328 C 
ATOM      5  O   UNL     1      -2.079   5.569   3.873  1.00  0.00    -0.250 OA
BRANCH   4   6
ATOM      6  C   UNL     1      -0.738   5.036   1.916  1.00  0.00     0.194 C 
BRANCH   6   7
ATOM      7  N   UNL     1      -0.752   4.047   0.825  1.00  0.00    -0.342 N 
ATOM      8  C   UNL     1      -0.234   2.801   0.660  1.00  0.00     0.229 C 
ATOM      9  O   UNL     1      -0.560   2.264  -0.409  1.00  0.00    -0.275 OA
ATOM     10  H   UNL     1      -1.250   4.359   0.036  1.00  0.00     0.164 HD
BRANCH   8  11
ATOM     11  C   UNL     1       0.774   2.071   1.597  1.00  0.00     0.136 C 
BRANCH  11  12
ATOM     12  C   UNL     1       0.695   0.531   1.335  1.00  0.00     0.193 C 
BRANCH  12  13
ATOM     13  N   UNL     1       1.835  -0.199   1.920  1.00  0.00    -0.354 N 
ATOM     14  H   UNL     1       1.738  -1.195   1.722  1.00  0.00     0.344 HD
ATOM     15  H   UNL     1       1.851  -0.053   2.929  1.00  0.00     0.344 HD
ATOM     16  H   UNL     1       2.705   0.145   1.512  1.00  0.00     0.344 HD
ENDBRANCH  12  13
BRANCH  12  17
ATOM     17  C   UNL     1      -0.626  -0.110   1.802  1.00  0.00     0.066 C 
BRANCH  17  18
ATOM     18  C   UNL     1      -0.811  -0.359   3.299  1.00  0.00     0.006 CG0
ATOM     19  G   UNL     1      -0.961   0.831   4.246  1.00  0.00     0.000 G0
ENDBRANCH  17  18
ENDBRANCH  12  17
ENDBRANCH  11  12
BRANCH  11  20
ATOM     20  C   UNL     1       0.771   2.350   3.103  1.00  0.00     0.020 C 
BRANCH  20  21
ATOM     21  C   UNL     1      -0.594   2.221   3.756  1.00  0.00     0.001 C 
BRANCH  21  22
ATOM     22  C   UNL     1      -0.961   0.831   4.246  1.00  0.00     0.000 CG0
ATOM     23  G   UNL     1      -0.811  -0.359   3.299  1.00  0.00     0.000 G0
ENDBRANCH  21  22
ENDBRANCH  20  21
ENDBRANCH  11  20
ENDBRANCH   8  11
ENDBRANCH   6   7
BRANCH   6  24
ATOM     24  C   UNL     1      -0.231   6.403   1.439  1.00  0.00     0.065 C 
BRANCH  24  25
ATOM     25  C   UNL     1      -1.103   7.111   0.407  1.00  0.00     0.159 C 
BRANCH  25  26
ATOM     26  O   UNL     1      -2.342   7.492   0.978  1.00  0.00    -0.396 OA
ATOM     27  H   UNL     1      -2.812   6.702   1.287  1.00  0.00     0.210 HD
ENDBRANCH  25  26
ENDBRANCH  24  25
ENDBRANCH   6  24
ENDBRANCH   4   6
ENDBRANCH   3   4
ENDBRANCH   2   3
ENDBRANCH   1   2
BRANCH   1  28
ATOM     28  O   UNL     1      -4.828   2.573   2.654  1.00  0.00    -0.374 OA
BRANCH  28  29
ATOM     29  C   UNL     1      -3.738   2.040   1.910  1.00  0.00     0.202 C 
BRANCH  29  30
ATOM     30  C   UNL     1      -4.029   1.346   0.579  1.00  0.00     0.261 C 
BRANCH  30  31
ATOM     31  O   UNL     1      -4.665   2.216  -0.352  1.00  0.00    -0.460 OA
BRANCH  31  32
ATOM     32  C   UNL     1      -6.003   2.041  -0.427  1.00  0.00     0.338 C 
ATOM     33  O   UNL     1      -6.679   1.209   0.159  1.00  0.00    -0.246 OA
BRANCH  32  34
ATOM     34  C   UNL     1      -6.563   3.171  -1.174  1.00  0.00     0.060 A 
ATOM     35  C   UNL     1      -7.649   3.840  -0.599  1.00  0.00     0.016 A 
ATOM     36  C   UNL     1      -6.033   3.566  -2.405  1.00  0.00     0.016 A 
ATOM     37  C   UNL     1      -8.257   4.875  -1.289  1.00  0.00     0.010 A 
ATOM     38  C   UNL     1      -6.648   4.602  -3.100  1.00  0.00     0.010 A 
ATOM     39  C   UNL     1      -7.787   5.224  -2.561  1.00  0.00    -0.014 A 
BRANCH  39  40
ATOM     40  C   UNL     1      -8.616   6.104  -3.405  1.00  0.00     0.031 A 
ATOM     41  C   UNL     1      -9.483   5.466  -4.451  1.00  0.00     0.074 A 
ATOM     42  C   UNL     1      -8.624   7.430  -3.195  1.00  0.00     0.049 A 
ATOM     43  N   UNL     1     -10.270   6.025  -5.329  1.00  0.00    -0.248 NA
ATOM     44  C   UNL     1      -9.450   3.995  -4.518  1.00  0.00     0.031 C 
ATOM     45  C   UNL     1      -7.852   8.123  -2.163  1.00  0.00     0.029 A 
ATOM     46  N   UNL     1      -9.304   8.428  -3.837  1.00  0.00    -0.354 N 
ATOM     47  C   UNL     1     -10.825   4.976  -6.056  1.00  0.00     0.074 A 
ATOM     48  C   UNL     1     -10.246   3.753  -5.547  1.00  0.00     0.031 C 
ATOM     49  C   UNL     1      -8.101   9.440  -2.247  1.00  0.00     0.029 A 
ATOM     50  C   UNL     1      -9.010   9.684  -3.364  1.00  0.00     0.049 A 
ATOM     51  H   UNL     1      -9.943   8.262  -4.568  1.00  0.00     0.167 HD
ATOM     52  C   UNL     1     -11.744   5.038  -7.049  1.00  0.00     0.034 A 
ATOM     53  C   UNL     1      -9.412  10.889  -3.809  1.00  0.00     0.034 A 
ATOM     54  C   UNL     1     -12.288   6.279  -7.540  1.00  0.00     0.049 A 
ATOM     55  C   UNL     1     -10.365  10.938  -4.979  1.00  0.00     0.074 A 
ATOM     56  C   UNL     1     -13.223   6.476  -8.539  1.00  0.00     0.029 A 
ATOM     57  N   UNL     1     -11.932   7.540  -7.073  1.00  0.00    -0.354 N 
ATOM     58  N   UNL     1     -10.887   9.943  -5.662  1.00  0.00    -0.248 NA
ATOM     59  C   UNL     1     -10.790  12.267  -5.431  1.00  0.00     0.031 C 
ATOM     60  C   UNL     1     -13.370   7.853  -8.732  1.00  0.00     0.029 A 
ATOM     61  C   UNL     1     -12.601   8.519  -7.789  1.00  0.00     0.049 A 
ATOM     62  H   UNL     1     -11.298   7.712  -6.340  1.00  0.00     0.167 HD
ATOM     63  C   UNL     1     -11.729  10.529  -6.604  1.00  0.00     0.074 A 
ATOM     64  C   UNL     1     -11.654  11.960  -6.387  1.00  0.00     0.031 C 
ATOM     65  C   UNL     1     -12.499   9.942  -7.558  1.00  0.00     0.034 A 
BRANCH  52  66
ATOM     66  C   UNL     1     -12.159   3.738  -7.694  1.00  0.00     0.023 A 
ATOM     67  C   UNL     1     -12.804   2.720  -6.969  1.00  0.00     0.031 A 
ATOM     68  C   UNL     1     -11.868   3.495  -9.048  1.00  0.00     0.131 A 
ATOM     69  C   UNL     1     -13.070   1.485  -7.580  1.00  0.00     0.055 A 
ATOM     70  C   UNL     1     -12.213   2.296  -9.673  1.00  0.00     0.041 A 
ATOM     71  F   UNL     1     -11.225   4.415  -9.785  1.00  0.00    -0.206 F 
ATOM     72  C   UNL     1     -12.805   1.276  -8.935  1.00  0.00     0.022 A 
BRANCH  69  73
ATOM     73  S   UNL     1     -13.627   0.105  -6.542  1.00  0.00     0.124 S 
ATOM     74  O   UNL     1     -12.531  -0.002  -5.582  1.00  0.00    -0.237 OA
ATOM     75  O   UNL     1     -14.894   0.598  -6.014  1.00  0.00    -0.237 OA
ATOM     76  O   UNL     1     -13.733  -1.010  -7.481  1.00  0.00    -0.744 OA
ENDBRANCH  69  73
ENDBRANCH  52  66
BRANCH  53  77
ATOM     77  C   UNL     1      -8.893  12.137  -3.182  1.00  0.00     0.023 A 
ATOM     78  C   UNL     1      -9.754  13.050  -2.555  1.00  0.00     0.031 A 
ATOM     79  C   UNL     1      -7.523  12.457  -3.239  1.00  0.00     0.131 A 
ATOM     80  C   UNL     1      -9.246  14.259  -2.054  1.00  0.00     0.055 A 
ATOM     81  C   UNL     1      -7.014  13.632  -2.685  1.00  0.00     0.041 A 
ATOM     82  F   UNL     1      -6.654  11.620  -3.828  1.00  0.00    -0.206 F 
ATOM     83  C   UNL     1      -7.881  14.549  -2.100  1.00  0.00     0.022 A 
BRANCH  80  84
ATOM     84  S   UNL     1     -10.416  15.497  -1.430  1.00  0.00     0.124 S 
ATOM     85  O   UNL     1     -11.279  15.699  -2.588  1.00  0.00    -0.237 OA
ATOM     86  O   UNL     1     -11.015  14.801  -0.296  1.00  0.00    -0.237 OA
ATOM     87  O   UNL     1      -9.560  16.629  -1.083  1.00  0.00    -0.744 OA
ENDBRANCH  80  84
ENDBRANCH  53  77
BRANCH  65  88
ATOM     88  C   UNL     1     -13.356  10.855  -8.401  1.00  0.00     0.023 A 
ATOM     89  C   UNL     1     -12.795  11.790  -9.287  1.00  0.00     0.031 A 
ATOM     90  C   UNL     1     -14.758  10.788  -8.310  1.00  0.00     0.131 A 
ATOM     91  C   UNL     1     -13.629  12.664  -9.999  1.00  0.00     0.055 A 
ATOM     92  C   UNL     1     -15.584  11.610  -9.077  1.00  0.00     0.041 A 
ATOM     93  F   UNL     1     -15.349   9.916  -7.478  1.00  0.00    -0.206 F 
ATOM     94  C   UNL     1     -15.020  12.565  -9.916  1.00  0.00     0.022 A 
BRANCH  91  95
ATOM     95  S   UNL     1     -12.869  14.006 -10.953  1.00  0.00     0.124 S 
ATOM     96  O   UNL     1     -12.108  14.712  -9.927  1.00  0.00    -0.237 OA
ATOM     97  O   UNL     1     -12.082  13.279 -11.943  1.00  0.00    -0.237 OA
ATOM     98  O   UNL     1     -14.015  14.738 -11.488  1.00  0.00    -0.744 OA
ENDBRANCH  91  95
ENDBRANCH  65  88
ENDBRANCH  39  40
ENDBRANCH  32  34
ENDBRANCH  31  32
ENDBRANCH  30  31
ENDBRANCH  29  30
ENDBRANCH  28  29
ENDBRANCH   1  28
TORSDOF 23
