REMARK SMILES O=C(OCCOCCOC(=O)c1nn(Cc2ccc(F)cc2)c2c1CN(C(=O)[C@H]1CC1(F)F)CC2)c1ccc(-c2c3nc(c(-c4cc(S(=O)(=O)[O-])ccc4F)c4ccc([nH]4)c(-c4cc(S(=O)(=O)[O-])ccc4F)c4nc(c(-c5cc(S(=O)(=O)[O-])ccc5F)c5ccc2[nH]5)C=C4)C=C3)cc1
REMARK SMILES IDX 5 1 4 2 3 3 2 4 1 5 36 6 37 7 98 8 38 9 97 10 39 11 40 12
REMARK SMILES IDX 41 13 91 14 42 15 96 16 90 17 92 18 43 19 95 20 89 21 88 22
REMARK SMILES IDX 44 24 76 25 56 26 75 27 57 28 60 29 74 30 93 31 58 32 59 33
REMARK SMILES IDX 73 35 94 36 61 37 45 38 46 39 54 40 47 41 53 42 55 43 52 44
REMARK SMILES IDX 48 45 49 46 50 47 51 48 77 49 78 50 86 51 79 52 85 53 87 54
REMARK SMILES IDX 84 55 80 56 81 57 82 58 83 59 62 60 63 61 71 62 64 63 70 64
REMARK SMILES IDX 72 65 69 66 65 67 66 68 67 69 68 70 6 71 7 72 8 73 9 74
REMARK SMILES IDX 10 75 11 76 12 77 13 78 24 79 14 80 23 81 25 82 35 83 26 84
REMARK SMILES IDX 34 85 15 86 16 87 17 88 22 89 18 90 21 91 19 92 20 93 27 94
REMARK SMILES IDX 28 95 29 96 30 97 31 98 32 99 33 100
REMARK H PARENT 92 23 60 34
REMARK Flexibility Score: inf
ROOT
ATOM      1  C   UNL     1      14.750  -2.015   0.784  1.00  0.00     0.202 C 
ENDROOT
BRANCH   1   2
ATOM      2  C   UNL     1      13.733  -1.118   1.499  1.00  0.00     0.261 C 
BRANCH   2   3
ATOM      3  O   UNL     1      14.384  -0.040   2.186  1.00  0.00    -0.460 OA
BRANCH   3   4
ATOM      4  C   UNL     1      15.158  -0.162   3.288  1.00  0.00     0.338 C 
ATOM      5  O   UNL     1      16.078   0.633   3.471  1.00  0.00    -0.246 OA
BRANCH   4   6
ATOM      6  C   UNL     1      14.805  -1.122   4.364  1.00  0.00     0.060 A 
ATOM      7  C   UNL     1      14.064  -2.294   4.201  1.00  0.00     0.016 A 
ATOM      8  C   UNL     1      15.170  -0.725   5.656  1.00  0.00     0.016 A 
ATOM      9  C   UNL     1      13.397  -2.840   5.275  1.00  0.00     0.010 A 
ATOM     10  C   UNL     1      14.595  -1.340   6.750  1.00  0.00     0.010 A 
ATOM     11  C   UNL     1      13.600  -2.291   6.533  1.00  0.00    -0.014 A 
BRANCH  11  12
ATOM     12  C   UNL     1      12.725  -2.739   7.603  1.00  0.00     0.031 A 
ATOM     13  C   UNL     1      12.795  -4.187   7.941  1.00  0.00     0.074 A 
ATOM     14  C   UNL     1      11.997  -1.838   8.292  1.00  0.00     0.049 A 
ATOM     15  N   UNL     1      11.830  -5.033   8.108  1.00  0.00    -0.248 NA
ATOM     16  C   UNL     1      14.138  -4.791   8.011  1.00  0.00     0.031 C 
ATOM     17  C   UNL     1      12.047  -0.375   8.183  1.00  0.00     0.029 A 
ATOM     18  N   UNL     1      11.193  -2.036   9.368  1.00  0.00    -0.354 N 
ATOM     19  C   UNL     1      12.435  -6.228   8.490  1.00  0.00     0.074 A 
ATOM     20  C   UNL     1      13.850  -6.061   8.284  1.00  0.00     0.031 C 
ATOM     21  C   UNL     1      11.572   0.164   9.324  1.00  0.00     0.029 A 
ATOM     22  C   UNL     1      11.076  -0.907  10.170  1.00  0.00     0.049 A 
ATOM     23  H   UNL     1      10.740  -2.889   9.560  1.00  0.00     0.167 HD
ATOM     24  C   UNL     1      11.766  -7.219   9.139  1.00  0.00     0.034 A 
ATOM     25  C   UNL     1      10.747  -0.887  11.486  1.00  0.00     0.034 A 
ATOM     26  C   UNL     1      10.346  -7.144   8.942  1.00  0.00     0.049 A 
ATOM     27  C   UNL     1      10.041  -2.163  11.772  1.00  0.00     0.074 A 
ATOM     28  C   UNL     1       9.527  -7.194   7.830  1.00  0.00     0.029 A 
ATOM     29  N   UNL     1       9.564  -6.629   9.948  1.00  0.00    -0.354 N 
ATOM     30  N   UNL     1       8.901  -2.500  11.232  1.00  0.00    -0.248 NA
ATOM     31  C   UNL     1      10.822  -3.269  12.308  1.00  0.00     0.031 C 
ATOM     32  C   UNL     1       8.496  -6.246   8.089  1.00  0.00     0.029 A 
ATOM     33  C   UNL     1       8.724  -5.714   9.360  1.00  0.00     0.049 A 
ATOM     34  H   UNL     1       9.598  -6.869  10.903  1.00  0.00     0.167 HD
ATOM     35  C   UNL     1       9.006  -3.861  10.986  1.00  0.00     0.074 A 
ATOM     36  C   UNL     1      10.168  -4.296  11.757  1.00  0.00     0.031 C 
ATOM     37  C   UNL     1       8.322  -4.462   9.968  1.00  0.00     0.034 A 
BRANCH  24  38
ATOM     38  C   UNL     1      12.412  -8.095  10.178  1.00  0.00     0.023 A 
ATOM     39  C   UNL     1      11.757  -9.262  10.606  1.00  0.00     0.031 A 
ATOM     40  C   UNL     1      13.532  -7.689  10.944  1.00  0.00     0.131 A 
ATOM     41  C   UNL     1      12.207  -9.955  11.746  1.00  0.00     0.055 A 
ATOM     42  C   UNL     1      14.015  -8.417  12.031  1.00  0.00     0.041 A 
ATOM     43  F   UNL     1      14.151  -6.518  10.734  1.00  0.00    -0.206 F 
ATOM     44  C   UNL     1      13.341  -9.550  12.449  1.00  0.00     0.022 A 
BRANCH  41  45
ATOM     45  S   UNL     1      11.201 -11.317  12.395  1.00  0.00     0.124 S 
ATOM     46  O   UNL     1       9.897 -10.680  12.552  1.00  0.00    -0.237 OA
ATOM     47  O   UNL     1      11.309 -12.307  11.329  1.00  0.00    -0.237 OA
ATOM     48  O   UNL     1      11.873 -11.671  13.643  1.00  0.00    -0.744 OA
ENDBRANCH  41  45
ENDBRANCH  24  38
BRANCH  25  49
ATOM     49  C   UNL     1      11.371  -0.023  12.526  1.00  0.00     0.023 A 
ATOM     50  C   UNL     1      10.782   0.147  13.792  1.00  0.00     0.031 A 
ATOM     51  C   UNL     1      12.684   0.484  12.367  1.00  0.00     0.131 A 
ATOM     52  C   UNL     1      11.487   0.811  14.822  1.00  0.00     0.055 A 
ATOM     53  C   UNL     1      13.366   1.161  13.379  1.00  0.00     0.041 A 
ATOM     54  F   UNL     1      13.392   0.265  11.248  1.00  0.00    -0.206 F 
ATOM     55  C   UNL     1      12.772   1.320  14.618  1.00  0.00     0.022 A 
BRANCH  52  56
ATOM     56  S   UNL     1      10.787   0.902  16.498  1.00  0.00     0.124 S 
ATOM     57  O   UNL     1       9.850   2.014  16.375  1.00  0.00    -0.237 OA
ATOM     58  O   UNL     1      10.201  -0.422  16.672  1.00  0.00    -0.237 OA
ATOM     59  O   UNL     1      11.956   1.168  17.336  1.00  0.00    -0.744 OA
ENDBRANCH  52  56
ENDBRANCH  25  49
BRANCH  37  60
ATOM     60  C   UNL     1       7.240  -3.681   9.253  1.00  0.00     0.023 A 
ATOM     61  C   UNL     1       7.470  -2.506   8.501  1.00  0.00     0.031 A 
ATOM     62  C   UNL     1       5.960  -4.257   9.193  1.00  0.00     0.131 A 
ATOM     63  C   UNL     1       6.430  -1.951   7.727  1.00  0.00     0.055 A 
ATOM     64  C   UNL     1       4.938  -3.712   8.416  1.00  0.00     0.041 A 
ATOM     65  F   UNL     1       5.695  -5.397   9.854  1.00  0.00    -0.206 F 
ATOM     66  C   UNL     1       5.169  -2.555   7.681  1.00  0.00     0.022 A 
BRANCH  63  67
ATOM     67  S   UNL     1       6.712  -0.445   6.739  1.00  0.00     0.124 S 
ATOM     68  O   UNL     1       7.202   0.516   7.722  1.00  0.00    -0.237 OA
ATOM     69  O   UNL     1       7.678  -0.891   5.739  1.00  0.00    -0.237 OA
ATOM     70  O   UNL     1       5.386  -0.136   6.199  1.00  0.00    -0.744 OA
ENDBRANCH  63  67
ENDBRANCH  37  60
ENDBRANCH  11  12
ENDBRANCH   4   6
ENDBRANCH   3   4
ENDBRANCH   2   3
ENDBRANCH   1   2
BRANCH   1  71
ATOM     71  O   UNL     1      15.695  -2.739   1.564  1.00  0.00    -0.374 OA
BRANCH  71  72
ATOM     72  C   UNL     1      17.000  -2.167   1.716  1.00  0.00     0.202 C 
BRANCH  72  73
ATOM     73  C   UNL     1      17.941  -2.189   0.501  1.00  0.00     0.261 C 
BRANCH  73  74
ATOM     74  O   UNL     1      17.565  -1.234  -0.509  1.00  0.00    -0.458 OA
BRANCH  74  75
ATOM     75  C   UNL     1      16.852  -1.719  -1.570  1.00  0.00     0.359 C 
ATOM     76  O   UNL     1      16.612  -2.908  -1.759  1.00  0.00    -0.244 OA
BRANCH  75  77
ATOM     77  C   UNL     1      16.213  -0.650  -2.352  1.00  0.00     0.175 A 
ATOM     78  N   UNL     1      16.883   0.437  -2.787  1.00  0.00    -0.165 NA
ATOM     79  C   UNL     1      14.841  -0.581  -2.733  1.00  0.00     0.028 A 
ATOM     80  N   UNL     1      15.954   1.189  -3.422  1.00  0.00    -0.264 N 
ATOM     81  C   UNL     1      14.713   0.625  -3.389  1.00  0.00     0.046 A 
ATOM     82  C   UNL     1      13.702  -1.509  -2.472  1.00  0.00     0.159 C 
ATOM     83  C   UNL     1      13.442   1.141  -3.962  1.00  0.00     0.078 C 
ATOM     84  N   UNL     1      12.531  -1.079  -3.251  1.00  0.00    -0.337 N 
ATOM     85  C   UNL     1      12.269   0.376  -3.311  1.00  0.00     0.126 C 
BRANCH  80  86
ATOM     86  C   UNL     1      16.377   2.356  -4.186  1.00  0.00     0.180 C 
BRANCH  86  87
ATOM     87  C   UNL     1      16.637   3.568  -3.327  1.00  0.00    -0.026 A 
ATOM     88  C   UNL     1      17.755   3.609  -2.475  1.00  0.00     0.008 A 
ATOM     89  C   UNL     1      15.797   4.691  -3.399  1.00  0.00     0.008 A 
ATOM     90  C   UNL     1      18.037   4.752  -1.726  1.00  0.00     0.039 A 
ATOM     91  C   UNL     1      16.083   5.835  -2.650  1.00  0.00     0.039 A 
ATOM     92  C   UNL     1      17.203   5.857  -1.827  1.00  0.00     0.123 A 
ATOM     93  F   UNL     1      17.486   6.964  -1.128  1.00  0.00    -0.207 F 
ENDBRANCH  86  87
ENDBRANCH  80  86
BRANCH  84  94
ATOM     94  C   UNL     1      11.678  -2.064  -3.723  1.00  0.00     0.232 C 
ATOM     95  O   UNL     1      11.819  -3.255  -3.478  1.00  0.00    -0.274 OA
BRANCH  94  96
ATOM     96  C   UNL     1      10.548  -1.627  -4.562  1.00  0.00     0.154 C 
ATOM     97  C   UNL     1      10.815  -1.100  -5.964  1.00  0.00     0.097 C 
ATOM     98  C   UNL     1      10.165  -2.416  -5.757  1.00  0.00     0.260 C 
ATOM     99  F   UNL     1      10.828  -3.547  -6.169  1.00  0.00    -0.206 F 
ATOM    100  F   UNL     1       8.845  -2.559  -6.123  1.00  0.00    -0.206 F 
ENDBRANCH  94  96
ENDBRANCH  84  94
ENDBRANCH  75  77
ENDBRANCH  74  75
ENDBRANCH  73  74
ENDBRANCH  72  73
ENDBRANCH  71  72
ENDBRANCH   1  71
TORSDOF 21
