REMARK SMILES CC1=C([C@H](NC(=O)[C@@H]2[C@H](C)c3cc(F)ccc3N2C)C(=O)OCCOCCOC(=O)c2ccc(-c3c4nc(c(-c5cc(S(=O)(=O)[O-])ccc5F)c5ccc([nH]5)c(-c5cc(S(=O)(=O)[O-])ccc5F)c5nc(c(-c6cc(S(=O)(=O)[O-])ccc6F)c6ccc3[nH]6)C=C5)C=C4)cc2)[C@@H](C)N=N1
REMARK SMILES IDX 26 1 25 2 24 3 23 4 22 5 20 6 21 7 4 8 3 9 1 10 2 11 97 12
REMARK SMILES IDX 94 13 96 14 95 15 5 16 6 17 7 19 8 20 9 21 18 22 11 23 10 24
REMARK SMILES IDX 17 25 19 26 12 27 16 28 13 29 15 30 14 31 27 32 28 33 29 34
REMARK SMILES IDX 30 35 31 36 32 37 93 38 33 39 92 40 34 41 35 42 36 43 86 44
REMARK SMILES IDX 37 45 91 46 85 47 87 48 38 49 90 50 84 51 83 52 39 54 71 55
REMARK SMILES IDX 51 56 70 57 52 58 55 59 69 60 88 61 53 62 54 63 68 65 89 66
REMARK SMILES IDX 56 67 40 68 41 69 49 70 42 71 48 72 50 73 47 74 43 75 44 76
REMARK SMILES IDX 45 77 46 78 72 79 73 80 81 81 74 82 80 83 82 84 79 85 75 86
REMARK SMILES IDX 76 87 77 88 78 89 57 90 58 91 66 92 59 93 65 94 67 95 64 96
REMARK SMILES IDX 60 97 61 98 62 99 63 100
REMARK H PARENT 5 18 87 53 55 64
REMARK Flexibility Score: inf
ROOT
ATOM      1  C   UNL     1      -3.182  -0.773   0.949  1.00  0.00     0.202 C 
ENDROOT
BRANCH   1   2
ATOM      2  O   UNL     1      -4.570  -0.458   0.847  1.00  0.00    -0.374 OA
BRANCH   2   3
ATOM      3  C   UNL     1      -5.425  -1.377   0.181  1.00  0.00     0.202 C 
BRANCH   3   4
ATOM      4  C   UNL     1      -5.168  -1.622  -1.301  1.00  0.00     0.261 C 
BRANCH   4   5
ATOM      5  O   UNL     1      -3.795  -1.825  -1.622  1.00  0.00    -0.461 OA
BRANCH   5   6
ATOM      6  C   UNL     1      -3.329  -0.800  -2.357  1.00  0.00     0.333 C 
ATOM      7  O   UNL     1      -4.001   0.176  -2.683  1.00  0.00    -0.249 OA
BRANCH   6   8
ATOM      8  C   UNL     1      -1.846  -0.901  -2.701  1.00  0.00     0.223 C 
BRANCH   8   9
ATOM      9  C   UNL     1      -1.838  -0.885  -4.197  1.00  0.00     0.012 C 
ATOM     10  C   UNL     1      -0.686   2.046  -5.414  1.00  0.00     0.069 C 
ATOM     11  C   UNL     1      -1.517   0.055  -5.198  1.00  0.00     0.064 C 
ATOM     12  N   UNL     1      -1.810  -0.804  -6.382  1.00  0.00    -0.160 NA
ATOM     13  C   UNL     1      -2.091  -2.268  -4.799  1.00  0.00     0.156 C 
ATOM     14  N   UNL     1      -1.911  -2.026  -6.205  1.00  0.00    -0.181 NA
ATOM     15  C   UNL     1      -3.433  -2.987  -4.677  1.00  0.00     0.040 C 
ENDBRANCH   8   9
BRANCH   8  16
ATOM     16  N   UNL     1      -0.828  -1.843  -2.250  1.00  0.00    -0.337 N 
ATOM     17  C   UNL     1       0.544  -1.695  -2.333  1.00  0.00     0.244 C 
ATOM     18  H   UNL     1      -1.154  -2.678  -1.842  1.00  0.00     0.164 HD
ATOM     19  O   UNL     1       1.225  -2.628  -1.886  1.00  0.00    -0.273 OA
BRANCH  17  20
ATOM     20  C   UNL     1       1.279  -0.416  -2.921  1.00  0.00     0.178 C 
ATOM     21  C   UNL     1       0.626   0.953  -2.509  1.00  0.00     0.050 C 
ATOM     22  N   UNL     1       1.519  -0.441  -4.445  1.00  0.00    -0.362 N 
ATOM     23  C   UNL     1      -0.349   1.095  -3.635  1.00  0.00    -0.016 A 
ATOM     24  C   UNL     1       0.183   1.141  -1.063  1.00  0.00     0.015 C 
ATOM     25  C   UNL     1       0.573   0.429  -5.023  1.00  0.00     0.041 A 
ATOM     26  C   UNL     1       1.759  -1.693  -5.133  1.00  0.00     0.144 C 
ATOM     27  C   UNL     1      -2.026   1.747  -3.869  1.00  0.00     0.045 A 
ATOM     28  C   UNL     1      -0.055   0.573  -6.722  1.00  0.00     0.029 A 
ATOM     29  C   UNL     1      -2.734   1.791  -5.537  1.00  0.00     0.123 A 
ATOM     30  C   UNL     1      -1.735   1.294  -6.989  1.00  0.00     0.041 A 
ATOM     31  F   UNL     1      -3.963   2.293  -5.710  1.00  0.00    -0.207 F 
ENDBRANCH  17  20
ENDBRANCH   8  16
ENDBRANCH   6   8
ENDBRANCH   5   6
ENDBRANCH   4   5
ENDBRANCH   3   4
ENDBRANCH   2   3
ENDBRANCH   1   2
BRANCH   1  32
ATOM     32  C   UNL     1      -2.739  -2.169   1.446  1.00  0.00     0.261 C 
BRANCH  32  33
ATOM     33  O   UNL     1      -3.170  -3.248   0.593  1.00  0.00    -0.460 OA
BRANCH  33  34
ATOM     34  C   UNL     1      -3.832  -4.279   1.196  1.00  0.00     0.338 C 
ATOM     35  O   UNL     1      -3.864  -4.524   2.389  1.00  0.00    -0.246 OA
BRANCH  34  36
ATOM     36  C   UNL     1      -4.808  -4.797   0.203  1.00  0.00     0.060 A 
ATOM     37  C   UNL     1      -4.433  -5.071  -1.113  1.00  0.00     0.016 A 
ATOM     38  C   UNL     1      -6.165  -4.676   0.549  1.00  0.00     0.016 A 
ATOM     39  C   UNL     1      -5.413  -5.043  -2.107  1.00  0.00     0.010 A 
ATOM     40  C   UNL     1      -7.129  -4.591  -0.452  1.00  0.00     0.010 A 
ATOM     41  C   UNL     1      -6.742  -4.689  -1.787  1.00  0.00    -0.014 A 
BRANCH  41  42
ATOM     42  C   UNL     1      -7.736  -4.578  -2.868  1.00  0.00     0.031 A 
ATOM     43  C   UNL     1      -8.045  -5.930  -3.416  1.00  0.00     0.074 A 
ATOM     44  C   UNL     1      -8.399  -3.460  -3.268  1.00  0.00     0.049 A 
ATOM     45  N   UNL     1      -7.771  -6.394  -4.589  1.00  0.00    -0.248 NA
ATOM     46  C   UNL     1      -8.506  -6.955  -2.461  1.00  0.00     0.031 C 
ATOM     47  C   UNL     1      -8.423  -2.123  -2.664  1.00  0.00     0.029 A 
ATOM     48  N   UNL     1      -9.272  -3.299  -4.316  1.00  0.00    -0.354 N 
ATOM     49  C   UNL     1      -8.216  -7.715  -4.585  1.00  0.00     0.074 A 
ATOM     50  C   UNL     1      -8.475  -8.053  -3.212  1.00  0.00     0.031 C 
ATOM     51  C   UNL     1      -9.410  -1.373  -3.212  1.00  0.00     0.029 A 
ATOM     52  C   UNL     1     -10.021  -2.115  -4.293  1.00  0.00     0.049 A 
ATOM     53  H   UNL     1      -9.365  -3.968  -5.032  1.00  0.00     0.167 HD
ATOM     54  C   UNL     1      -8.533  -8.374  -5.734  1.00  0.00     0.034 A 
ATOM     55  C   UNL     1     -11.092  -1.784  -5.073  1.00  0.00     0.034 A 
ATOM     56  C   UNL     1      -7.999  -7.694  -6.879  1.00  0.00     0.049 A 
ATOM     57  C   UNL     1     -11.077  -2.684  -6.248  1.00  0.00     0.074 A 
ATOM     58  C   UNL     1      -6.727  -7.474  -7.363  1.00  0.00     0.029 A 
ATOM     59  N   UNL     1      -8.809  -6.774  -7.496  1.00  0.00    -0.354 N 
ATOM     60  N   UNL     1     -10.161  -2.630  -7.173  1.00  0.00    -0.248 NA
ATOM     61  C   UNL     1     -11.765  -3.957  -6.095  1.00  0.00     0.031 C 
ATOM     62  C   UNL     1      -6.752  -6.145  -7.866  1.00  0.00     0.029 A 
ATOM     63  C   UNL     1      -8.057  -5.659  -7.760  1.00  0.00     0.049 A 
ATOM     64  H   UNL     1      -9.762  -6.894  -7.711  1.00  0.00     0.167 HD
ATOM     65  C   UNL     1      -9.831  -3.956  -7.390  1.00  0.00     0.074 A 
ATOM     66  C   UNL     1     -10.870  -4.732  -6.713  1.00  0.00     0.031 C 
ATOM     67  C   UNL     1      -8.595  -4.316  -7.833  1.00  0.00     0.034 A 
BRANCH  54  68
ATOM     68  C   UNL     1      -9.589  -9.446  -5.827  1.00  0.00     0.023 A 
ATOM     69  C   UNL     1     -10.517  -9.703  -4.799  1.00  0.00     0.031 A 
ATOM     70  C   UNL     1      -9.831 -10.099  -7.051  1.00  0.00     0.131 A 
ATOM     71  C   UNL     1     -11.596 -10.577  -4.982  1.00  0.00     0.055 A 
ATOM     72  C   UNL     1     -10.948 -10.918  -7.258  1.00  0.00     0.041 A 
ATOM     73  F   UNL     1      -9.016  -9.922  -8.103  1.00  0.00    -0.206 F 
ATOM     74  C   UNL     1     -11.838 -11.163  -6.219  1.00  0.00     0.022 A 
BRANCH  71  75
ATOM     75  S   UNL     1     -12.712 -10.965  -3.605  1.00  0.00     0.124 S 
ATOM     76  O   UNL     1     -14.004 -10.539  -4.131  1.00  0.00    -0.237 OA
ATOM     77  O   UNL     1     -12.527 -12.409  -3.476  1.00  0.00    -0.237 OA
ATOM     78  O   UNL     1     -12.181 -10.174  -2.499  1.00  0.00    -0.744 OA
ENDBRANCH  71  75
ENDBRANCH  54  68
BRANCH  55  79
ATOM     79  C   UNL     1     -12.391  -1.211  -4.605  1.00  0.00     0.023 A 
ATOM     80  C   UNL     1     -12.815  -1.493  -3.295  1.00  0.00     0.031 A 
ATOM     81  C   UNL     1     -13.369  -0.731  -5.502  1.00  0.00     0.131 A 
ATOM     82  C   UNL     1     -14.165  -1.367  -2.934  1.00  0.00     0.055 A 
ATOM     83  C   UNL     1     -14.714  -0.568  -5.127  1.00  0.00     0.041 A 
ATOM     84  F   UNL     1     -13.057  -0.489  -6.785  1.00  0.00    -0.206 F 
ATOM     85  C   UNL     1     -15.121  -0.907  -3.840  1.00  0.00     0.022 A 
BRANCH  82  86
ATOM     86  S   UNL     1     -14.720  -1.943  -1.305  1.00  0.00     0.124 S 
ATOM     87  O   UNL     1     -15.486  -0.798  -0.819  1.00  0.00    -0.237 OA
ATOM     88  O   UNL     1     -15.503  -3.121  -1.661  1.00  0.00    -0.237 OA
ATOM     89  O   UNL     1     -13.472  -2.199  -0.592  1.00  0.00    -0.744 OA
ENDBRANCH  82  86
ENDBRANCH  55  79
BRANCH  67  90
ATOM     90  C   UNL     1      -7.626  -3.241  -8.268  1.00  0.00     0.023 A 
ATOM     91  C   UNL     1      -7.050  -3.422  -9.534  1.00  0.00     0.031 A 
ATOM     92  C   UNL     1      -7.061  -2.264  -7.425  1.00  0.00     0.131 A 
ATOM     93  C   UNL     1      -5.894  -2.726  -9.892  1.00  0.00     0.055 A 
ATOM     94  C   UNL     1      -5.952  -1.504  -7.822  1.00  0.00     0.041 A 
ATOM     95  F   UNL     1      -7.495  -2.090  -6.169  1.00  0.00    -0.206 F 
ATOM     96  C   UNL     1      -5.344  -1.756  -9.050  1.00  0.00     0.022 A 
BRANCH  93  97
ATOM     97  S   UNL     1      -4.982  -3.228 -11.373  1.00  0.00     0.124 S 
ATOM     98  O   UNL     1      -5.041  -2.023 -12.196  1.00  0.00    -0.237 OA
ATOM     99  O   UNL     1      -3.665  -3.558 -10.832  1.00  0.00    -0.237 OA
ATOM    100  O   UNL     1      -5.738  -4.368 -11.885  1.00  0.00    -0.744 OA
ENDBRANCH  93  97
ENDBRANCH  67  90
ENDBRANCH  41  42
ENDBRANCH  34  36
ENDBRANCH  33  34
ENDBRANCH  32  33
ENDBRANCH   1  32
TORSDOF 20
