REMARK SMILES COc1cc([C@H]2CC(c3ccc(S(C)(=O)=O)cc3)=NN2c2ccc(C(=O)OCCOCCOC(=O)c3ccc(-c4c5nc(c(-c6cc(S(=O)(=O)[O-])ccc6F)c6ccc([nH]6)c(-c6cc(S(=O)(=O)[O-])ccc6F)c6nc(c(-c7cc(S(=O)(=O)[O-])ccc7F)c7ccc4[nH]7)C=C6)C=C5)cc3)cc2)cc(OC)c1OC
REMARK SMILES IDX 30 1 29 2 28 3 27 4 25 5 26 6 24 7 21 8 22 9 100 10 23 11
REMARK SMILES IDX 99 12 20 13 6 14 7 15 8 16 19 17 5 18 3 19 4 20 105 21
REMARK SMILES IDX 102 22 101 23 2 24 1 25 106 26 107 27 103 28 104 29 9 30
REMARK SMILES IDX 10 31 18 32 11 33 17 34 12 35 13 36 14 37 15 38 16 39 31 40
REMARK SMILES IDX 32 41 33 42 34 43 35 44 36 45 37 46 98 47 38 48 97 49 39 50
REMARK SMILES IDX 40 51 41 52 91 53 42 54 96 55 90 56 92 57 43 58 95 59 89 60
REMARK SMILES IDX 88 61 44 63 76 64 56 65 75 66 57 67 60 68 74 69 93 70 58 71
REMARK SMILES IDX 59 72 73 74 94 75 61 76 45 77 46 78 54 79 47 80 53 81 55 82
REMARK SMILES IDX 52 83 48 84 49 85 50 86 51 87 77 88 78 89 86 90 79 91 85 92
REMARK SMILES IDX 87 93 84 94 80 95 81 96 82 97 83 98 62 99 63 100 71 101
REMARK SMILES IDX 64 102 70 103 72 104 69 105 65 106 66 107 67 108 68 109
REMARK H PARENT 92 62 60 73
REMARK Flexibility Score: inf
ROOT
ATOM      1  O   UNL     1       2.765  -3.726  -9.806  1.00  0.00    -0.374 OA
ENDROOT
BRANCH   1   2
ATOM      2  C   UNL     1       1.941  -4.688  -9.146  1.00  0.00     0.202 C 
BRANCH   2   3
ATOM      3  C   UNL     1       1.831  -4.529  -7.627  1.00  0.00     0.261 C 
BRANCH   3   4
ATOM      4  O   UNL     1       1.217  -3.277  -7.278  1.00  0.00    -0.460 OA
BRANCH   4   5
ATOM      5  C   UNL     1       2.059  -2.357  -6.750  1.00  0.00     0.338 C 
ATOM      6  O   UNL     1       3.223  -2.524  -6.426  1.00  0.00    -0.246 OA
BRANCH   5   7
ATOM      7  C   UNL     1       1.415  -1.025  -6.741  1.00  0.00     0.060 A 
ATOM      8  C   UNL     1       0.371   1.574  -6.551  1.00  0.00     0.060 A 
ATOM      9  C   UNL     1       1.702   1.368  -6.933  1.00  0.00     0.029 A 
ATOM     10  C   UNL     1      -0.453   0.453  -6.359  1.00  0.00     0.029 A 
ATOM     11  C   UNL     1       2.231   0.081  -7.000  1.00  0.00     0.018 A 
ATOM     12  C   UNL     1       0.058  -0.845  -6.467  1.00  0.00     0.018 A 
BRANCH   8  13
ATOM     13  N   UNL     1      -0.085   2.857  -6.251  1.00  0.00    -0.257 N 
ATOM     14  C   UNL     1      -0.463   3.220  -4.875  1.00  0.00     0.144 C 
ATOM     15  C   UNL     1      -0.471   4.756  -4.926  1.00  0.00     0.091 C 
ATOM     16  C   UNL     1       0.025   4.983  -6.327  1.00  0.00     0.071 C 
ATOM     17  N   UNL     1       0.258   3.920  -7.030  1.00  0.00    -0.176 NA
BRANCH  14  18
ATOM     18  C   UNL     1       0.479   2.637  -3.824  1.00  0.00    -0.015 A 
ATOM     19  C   UNL     1       0.926   0.979  -2.087  1.00  0.00     0.164 A 
ATOM     20  C   UNL     1       0.060   1.565  -3.023  1.00  0.00     0.056 A 
ATOM     21  C   UNL     1       2.252   1.423  -1.942  1.00  0.00     0.203 A 
ATOM     22  C   UNL     1       2.686   2.485  -2.757  1.00  0.00     0.164 A 
ATOM     23  C   UNL     1       1.804   3.076  -3.679  1.00  0.00     0.056 A 
BRANCH  19  24
ATOM     24  O   UNL     1       0.434  -0.087  -1.377  1.00  0.00    -0.493 OA
ATOM     25  C   UNL     1      -0.191   0.336  -0.166  1.00  0.00     0.278 C 
ENDBRANCH  19  24
BRANCH  21  26
ATOM     26  O   UNL     1       3.121   0.959  -0.990  1.00  0.00    -0.490 OA
ATOM     27  C   UNL     1       3.070  -0.424  -0.660  1.00  0.00     0.278 C 
ENDBRANCH  21  26
BRANCH  22  28
ATOM     28  O   UNL     1       3.926   3.079  -2.764  1.00  0.00    -0.493 OA
ATOM     29  C   UNL     1       5.031   2.285  -2.351  1.00  0.00     0.278 C 
ENDBRANCH  22  28
ENDBRANCH  14  18
BRANCH  16  30
ATOM     30  C   UNL     1       0.159   6.343  -6.873  1.00  0.00    -0.002 A 
ATOM     31  C   UNL     1      -0.507   6.650  -8.065  1.00  0.00     0.011 A 
ATOM     32  C   UNL     1       0.914   7.314  -6.210  1.00  0.00     0.011 A 
ATOM     33  C   UNL     1      -0.442   7.943  -8.588  1.00  0.00     0.021 A 
ATOM     34  C   UNL     1       1.004   8.603  -6.746  1.00  0.00     0.021 A 
ATOM     35  C   UNL     1       0.322   8.911  -7.929  1.00  0.00     0.067 A 
BRANCH  35  36
ATOM     36  S   UNL     1       0.388  10.562  -8.591  1.00  0.00     0.175 S 
ATOM     37  C   UNL     1       1.093  10.368 -10.206  1.00  0.00     0.163 C 
ATOM     38  O   UNL     1      -0.983  11.009  -8.740  1.00  0.00    -0.224 OA
ATOM     39  O   UNL     1       1.335  11.318  -7.792  1.00  0.00    -0.224 OA
ENDBRANCH  35  36
ENDBRANCH  16  30
ENDBRANCH   8  13
ENDBRANCH   5   7
ENDBRANCH   4   5
ENDBRANCH   3   4
ENDBRANCH   2   3
ENDBRANCH   1   2
BRANCH   1  40
ATOM     40  C   UNL     1       2.144  -2.485 -10.152  1.00  0.00     0.202 C 
BRANCH  40  41
ATOM     41  C   UNL     1       1.297  -2.497 -11.429  1.00  0.00     0.261 C 
BRANCH  41  42
ATOM     42  O   UNL     1       0.080  -3.244 -11.248  1.00  0.00    -0.460 OA
BRANCH  42  43
ATOM     43  C   UNL     1       0.018  -4.410 -11.939  1.00  0.00     0.338 C 
ATOM     44  O   UNL     1       0.830  -4.825 -12.748  1.00  0.00    -0.246 OA
BRANCH  43  45
ATOM     45  C   UNL     1      -1.106  -5.230 -11.441  1.00  0.00     0.060 A 
ATOM     46  C   UNL     1      -0.839  -6.572 -11.142  1.00  0.00     0.016 A 
ATOM     47  C   UNL     1      -2.403  -4.723 -11.319  1.00  0.00     0.016 A 
ATOM     48  C   UNL     1      -1.876  -7.425 -10.769  1.00  0.00     0.010 A 
ATOM     49  C   UNL     1      -3.444  -5.584 -10.953  1.00  0.00     0.010 A 
ATOM     50  C   UNL     1      -3.191  -6.946 -10.708  1.00  0.00    -0.014 A 
BRANCH  50  51
ATOM     51  C   UNL     1      -4.311  -7.905 -10.537  1.00  0.00     0.031 A 
ATOM     52  C   UNL     1      -5.060  -8.372 -11.757  1.00  0.00     0.074 A 
ATOM     53  C   UNL     1      -4.634  -8.379  -9.321  1.00  0.00     0.049 A 
ATOM     54  N   UNL     1      -6.082  -9.183 -11.845  1.00  0.00    -0.248 NA
ATOM     55  C   UNL     1      -4.590  -7.850 -13.049  1.00  0.00     0.031 C 
ATOM     56  C   UNL     1      -3.954  -8.033  -8.074  1.00  0.00     0.029 A 
ATOM     57  N   UNL     1      -5.621  -9.251  -8.935  1.00  0.00    -0.354 N 
ATOM     58  C   UNL     1      -6.381  -9.270 -13.201  1.00  0.00     0.074 A 
ATOM     59  C   UNL     1      -5.453  -8.398 -13.891  1.00  0.00     0.031 C 
ATOM     60  C   UNL     1      -4.553  -8.679  -7.058  1.00  0.00     0.029 A 
ATOM     61  C   UNL     1      -5.677  -9.456  -7.577  1.00  0.00     0.049 A 
ATOM     62  H   UNL     1      -6.232  -9.688  -9.571  1.00  0.00     0.167 HD
ATOM     63  C   UNL     1      -7.333 -10.016 -13.814  1.00  0.00     0.034 A 
ATOM     64  C   UNL     1      -6.551 -10.168  -6.837  1.00  0.00     0.034 A 
ATOM     65  C   UNL     1      -8.261 -10.869 -13.112  1.00  0.00     0.049 A 
ATOM     66  C   UNL     1      -7.658 -10.922  -7.533  1.00  0.00     0.074 A 
ATOM     67  C   UNL     1      -9.256 -11.677 -13.635  1.00  0.00     0.029 A 
ATOM     68  N   UNL     1      -8.318 -11.015 -11.732  1.00  0.00    -0.354 N 
ATOM     69  N   UNL     1      -7.923 -11.004  -8.816  1.00  0.00    -0.248 NA
ATOM     70  C   UNL     1      -8.579 -11.686  -6.679  1.00  0.00     0.031 C 
ATOM     71  C   UNL     1      -9.956 -12.257 -12.570  1.00  0.00     0.029 A 
ATOM     72  C   UNL     1      -9.352 -11.871 -11.384  1.00  0.00     0.049 A 
ATOM     73  H   UNL     1      -7.712 -10.575 -11.093  1.00  0.00     0.167 HD
ATOM     74  C   UNL     1      -9.024 -11.852  -8.924  1.00  0.00     0.074 A 
ATOM     75  C   UNL     1      -9.364 -12.262  -7.577  1.00  0.00     0.031 C 
ATOM     76  C   UNL     1      -9.689 -12.260 -10.035  1.00  0.00     0.034 A 
BRANCH  63  77
ATOM     77  C   UNL     1      -7.446  -9.892 -15.314  1.00  0.00     0.023 A 
ATOM     78  C   UNL     1      -6.414 -10.312 -16.172  1.00  0.00     0.031 A 
ATOM     79  C   UNL     1      -8.589  -9.314 -15.893  1.00  0.00     0.131 A 
ATOM     80  C   UNL     1      -6.515 -10.083 -17.553  1.00  0.00     0.055 A 
ATOM     81  C   UNL     1      -8.716  -9.158 -17.275  1.00  0.00     0.041 A 
ATOM     82  F   UNL     1      -9.597  -8.874 -15.123  1.00  0.00    -0.206 F 
ATOM     83  C   UNL     1      -7.669  -9.530 -18.112  1.00  0.00     0.022 A 
BRANCH  80  84
ATOM     84  S   UNL     1      -5.061 -10.391 -18.593  1.00  0.00     0.124 S 
ATOM     85  O   UNL     1      -4.069  -9.508 -17.983  1.00  0.00    -0.237 OA
ATOM     86  O   UNL     1      -4.840 -11.821 -18.411  1.00  0.00    -0.237 OA
ATOM     87  O   UNL     1      -5.503  -9.992 -19.927  1.00  0.00    -0.744 OA
ENDBRANCH  80  84
ENDBRANCH  63  77
BRANCH  64  88
ATOM     88  C   UNL     1      -6.451 -10.173  -5.349  1.00  0.00     0.023 A 
ATOM     89  C   UNL     1      -6.170 -11.352  -4.641  1.00  0.00     0.031 A 
ATOM     90  C   UNL     1      -6.692  -9.001  -4.610  1.00  0.00     0.131 A 
ATOM     91  C   UNL     1      -6.180 -11.343  -3.237  1.00  0.00     0.055 A 
ATOM     92  C   UNL     1      -6.653  -8.986  -3.216  1.00  0.00     0.041 A 
ATOM     93  F   UNL     1      -6.966  -7.846  -5.239  1.00  0.00    -0.206 F 
ATOM     94  C   UNL     1      -6.407 -10.165  -2.520  1.00  0.00     0.022 A 
BRANCH  91  95
ATOM     95  S   UNL     1      -5.968 -12.914  -2.355  1.00  0.00     0.124 S 
ATOM     96  O   UNL     1      -7.081 -13.699  -2.876  1.00  0.00    -0.237 OA
ATOM     97  O   UNL     1      -4.636 -13.324  -2.784  1.00  0.00    -0.237 OA
ATOM     98  O   UNL     1      -6.077 -12.531  -0.949  1.00  0.00    -0.744 OA
ENDBRANCH  91  95
ENDBRANCH  64  88
BRANCH  76  99
ATOM     99  C   UNL     1     -10.824 -13.235  -9.835  1.00  0.00     0.023 A 
ATOM    100  C   UNL     1     -12.016 -12.862  -9.190  1.00  0.00     0.031 A 
ATOM    101  C   UNL     1     -10.704 -14.560 -10.290  1.00  0.00     0.131 A 
ATOM    102  C   UNL     1     -13.021 -13.818  -8.970  1.00  0.00     0.055 A 
ATOM    103  C   UNL     1     -11.729 -15.492 -10.119  1.00  0.00     0.041 A 
ATOM    104  F   UNL     1      -9.588 -14.971 -10.912  1.00  0.00    -0.206 F 
ATOM    105  C   UNL     1     -12.891 -15.126  -9.444  1.00  0.00     0.022 A 
BRANCH 102 106
ATOM    106  S   UNL     1     -14.468 -13.351  -7.981  1.00  0.00     0.124 S 
ATOM    107  O   UNL     1     -13.857 -12.951  -6.718  1.00  0.00    -0.237 OA
ATOM    108  O   UNL     1     -15.055 -12.276  -8.774  1.00  0.00    -0.237 OA
ATOM    109  O   UNL     1     -15.257 -14.581  -7.926  1.00  0.00    -0.744 OA
ENDBRANCH 102 106
ENDBRANCH  76  99
ENDBRANCH  50  51
ENDBRANCH  43  45
ENDBRANCH  42  43
ENDBRANCH  41  42
ENDBRANCH  40  41
ENDBRANCH   1  40
TORSDOF 24
