REMARK SMILES Cc1ccc(NC(=O)N2CCCC[C@@H]2C(=O)OCCOCCOC(=O)c2ccc(-c3c4nc(c(-c5cc(S(=O)(=O)[O-])ccc5F)c5ccc([nH]5)c(-c5cc(S(=O)(=O)[O-])ccc5F)c5nc(c(-c6cc(S(=O)(=O)[O-])ccc6F)c6ccc3[nH]6)C=C5)C=C4)cc2)cc1
REMARK SMILES IDX 21 1 20 2 19 3 18 4 17 5 15 6 16 7 14 8 9 9 10 10 11 11
REMARK SMILES IDX 13 12 12 13 7 14 6 15 8 17 5 18 1 19 2 20 3 21 90 22 4 23
REMARK SMILES IDX 89 24 22 25 23 26 24 27 25 28 26 29 27 30 88 31 28 32 87 33
REMARK SMILES IDX 29 34 30 35 31 36 81 37 32 38 86 39 80 40 82 41 33 42 85 43
REMARK SMILES IDX 79 44 78 45 34 47 66 48 46 49 65 50 47 51 50 52 64 53 83 54
REMARK SMILES IDX 48 55 49 56 63 58 84 59 51 60 35 61 36 62 44 63 37 64 43 65
REMARK SMILES IDX 45 66 42 67 38 68 39 69 40 70 41 71 67 72 68 73 76 74 69 75
REMARK SMILES IDX 75 76 77 77 74 78 70 79 71 80 72 81 73 82 52 83 53 84 61 85
REMARK SMILES IDX 54 86 60 87 62 88 59 89 55 90 56 91 57 92 58 93
REMARK H PARENT 6 16 82 46 50 57
REMARK Flexibility Score: inf
ROOT
ATOM      1  C   UNL     1       0.436  -2.520   4.793  1.00  0.00     0.202 C 
ENDROOT
BRANCH   1   2
ATOM      2  O   UNL     1      -0.679  -2.108   4.023  1.00  0.00    -0.374 OA
BRANCH   2   3
ATOM      3  C   UNL     1      -1.933  -2.683   4.398  1.00  0.00     0.202 C 
BRANCH   3   4
ATOM      4  C   UNL     1      -2.991  -1.974   3.589  1.00  0.00     0.261 C 
BRANCH   4   5
ATOM      5  O   UNL     1      -3.103  -2.492   2.252  1.00  0.00    -0.462 OA
BRANCH   5   6
ATOM      6  C   UNL     1      -2.175  -2.099   1.334  1.00  0.00     0.329 C 
ATOM      7  O   UNL     1      -1.527  -1.067   1.420  1.00  0.00    -0.250 OA
BRANCH   6   8
ATOM      8  C   UNL     1      -2.002  -3.171   0.227  1.00  0.00     0.196 C 
ATOM      9  N   UNL     1      -2.820  -3.052  -1.022  1.00  0.00    -0.311 N 
ATOM     10  C   UNL     1      -3.243  -4.279  -1.704  1.00  0.00     0.122 C 
ATOM     11  C   UNL     1      -3.432  -5.514  -0.846  1.00  0.00     0.022 C 
ATOM     12  C   UNL     1      -2.133  -4.540   0.958  1.00  0.00     0.037 C 
ATOM     13  C   UNL     1      -2.218  -5.726   0.030  1.00  0.00     0.005 C 
BRANCH   9  14
ATOM     14  C   UNL     1      -2.996  -1.930  -1.817  1.00  0.00     0.322 C 
ATOM     15  N   UNL     1      -2.293  -0.792  -1.654  1.00  0.00    -0.308 N 
ATOM     16  H   UNL     1      -2.842   0.020  -1.747  1.00  0.00     0.171 HD
ATOM     17  O   UNL     1      -3.873  -1.904  -2.690  1.00  0.00    -0.248 OA
BRANCH  15  18
ATOM     18  C   UNL     1      -0.951  -0.519  -1.380  1.00  0.00     0.042 A 
ATOM     19  C   UNL     1       3.006   0.343   0.041  1.00  0.00     0.044 C 
ATOM     20  C   UNL     1       1.658   0.090  -0.560  1.00  0.00    -0.051 A 
ATOM     21  C   UNL     1       1.359  -1.161  -1.115  1.00  0.00     0.005 A 
ATOM     22  C   UNL     1       0.659   1.067  -0.506  1.00  0.00     0.005 A 
ATOM     23  C   UNL     1       0.065  -1.454  -1.546  1.00  0.00     0.026 A 
ATOM     24  C   UNL     1      -0.633   0.770  -0.940  1.00  0.00     0.026 A 
ENDBRANCH  15  18
ENDBRANCH   9  14
ENDBRANCH   6   8
ENDBRANCH   5   6
ENDBRANCH   4   5
ENDBRANCH   3   4
ENDBRANCH   2   3
ENDBRANCH   1   2
BRANCH   1  25
ATOM     25  C   UNL     1       0.366  -2.108   6.271  1.00  0.00     0.261 C 
BRANCH  25  26
ATOM     26  O   UNL     1       0.302  -0.673   6.370  1.00  0.00    -0.460 OA
BRANCH  26  27
ATOM     27  C   UNL     1      -0.884  -0.174   6.804  1.00  0.00     0.338 C 
ATOM     28  O   UNL     1      -1.440  -0.490   7.852  1.00  0.00    -0.246 OA
BRANCH  27  29
ATOM     29  C   UNL     1      -1.477   0.700   5.758  1.00  0.00     0.060 A 
ATOM     30  C   UNL     1      -2.838   1.052   5.818  1.00  0.00     0.016 A 
ATOM     31  C   UNL     1      -0.740   0.967   4.603  1.00  0.00     0.016 A 
ATOM     32  C   UNL     1      -3.485   1.559   4.680  1.00  0.00     0.010 A 
ATOM     33  C   UNL     1      -1.395   1.408   3.469  1.00  0.00     0.010 A 
ATOM     34  C   UNL     1      -2.772   1.676   3.485  1.00  0.00    -0.014 A 
BRANCH  34  35
ATOM     35  C   UNL     1      -3.365   1.911   2.164  1.00  0.00     0.031 A 
ATOM     36  C   UNL     1      -2.928   3.076   1.362  1.00  0.00     0.074 A 
ATOM     37  C   UNL     1      -4.102   0.950   1.557  1.00  0.00     0.049 A 
ATOM     38  N   UNL     1      -3.501   3.444   0.270  1.00  0.00    -0.248 NA
ATOM     39  C   UNL     1      -1.833   3.966   1.734  1.00  0.00     0.031 C 
ATOM     40  C   UNL     1      -4.386   0.804   0.132  1.00  0.00     0.029 A 
ATOM     41  N   UNL     1      -4.814  -0.108   2.127  1.00  0.00    -0.354 N 
ATOM     42  C   UNL     1      -2.671   4.324  -0.377  1.00  0.00     0.074 A 
ATOM     43  C   UNL     1      -1.743   4.736   0.644  1.00  0.00     0.031 C 
ATOM     44  C   UNL     1      -5.360  -0.101  -0.051  1.00  0.00     0.029 A 
ATOM     45  C   UNL     1      -5.873  -0.427   1.260  1.00  0.00     0.049 A 
ATOM     46  H   UNL     1      -4.610  -0.551   2.982  1.00  0.00     0.167 HD
ATOM     47  C   UNL     1      -2.813   4.463  -1.729  1.00  0.00     0.034 A 
ATOM     48  C   UNL     1      -7.158  -0.301   1.681  1.00  0.00     0.034 A 
ATOM     49  C   UNL     1      -4.048   3.794  -2.203  1.00  0.00     0.049 A 
ATOM     50  C   UNL     1      -7.848   0.793   0.895  1.00  0.00     0.074 A 
ATOM     51  C   UNL     1      -4.330   2.756  -3.077  1.00  0.00     0.029 A 
ATOM     52  N   UNL     1      -5.258   4.066  -1.550  1.00  0.00    -0.354 N 
ATOM     53  N   UNL     1      -7.210   1.641   0.128  1.00  0.00    -0.248 NA
ATOM     54  C   UNL     1      -9.286   0.991   0.843  1.00  0.00     0.031 C 
ATOM     55  C   UNL     1      -5.700   2.380  -2.896  1.00  0.00     0.029 A 
ATOM     56  C   UNL     1      -6.271   3.215  -1.947  1.00  0.00     0.049 A 
ATOM     57  H   UNL     1      -5.372   4.782  -0.884  1.00  0.00     0.167 HD
ATOM     58  C   UNL     1      -8.084   2.444  -0.545  1.00  0.00     0.074 A 
ATOM     59  C   UNL     1      -9.380   1.999  -0.046  1.00  0.00     0.031 C 
ATOM     60  C   UNL     1      -7.641   3.391  -1.435  1.00  0.00     0.034 A 
BRANCH  47  61
ATOM     61  C   UNL     1      -1.765   5.055  -2.675  1.00  0.00     0.023 A 
ATOM     62  C   UNL     1      -1.996   5.031  -4.071  1.00  0.00     0.031 A 
ATOM     63  C   UNL     1      -0.505   5.584  -2.306  1.00  0.00     0.131 A 
ATOM     64  C   UNL     1      -1.028   5.490  -4.996  1.00  0.00     0.055 A 
ATOM     65  C   UNL     1       0.436   6.078  -3.221  1.00  0.00     0.041 A 
ATOM     66  F   UNL     1      -0.074   5.630  -1.045  1.00  0.00    -0.206 F 
ATOM     67  C   UNL     1       0.182   6.028  -4.575  1.00  0.00     0.022 A 
BRANCH  64  68
ATOM     68  S   UNL     1      -1.346   5.355  -6.779  1.00  0.00     0.124 S 
ATOM     69  O   UNL     1      -1.386   3.910  -6.974  1.00  0.00    -0.237 OA
ATOM     70  O   UNL     1      -2.609   6.068  -6.927  1.00  0.00    -0.237 OA
ATOM     71  O   UNL     1      -0.191   6.023  -7.381  1.00  0.00    -0.744 OA
ENDBRANCH  64  68
ENDBRANCH  47  61
BRANCH  48  72
ATOM     72  C   UNL     1      -7.312  -0.722   3.111  1.00  0.00     0.023 A 
ATOM     73  C   UNL     1      -7.009  -2.079   3.418  1.00  0.00     0.031 A 
ATOM     74  C   UNL     1      -7.268   0.200   4.166  1.00  0.00     0.131 A 
ATOM     75  C   UNL     1      -6.555  -2.448   4.698  1.00  0.00     0.055 A 
ATOM     76  C   UNL     1      -6.842  -0.179   5.450  1.00  0.00     0.041 A 
ATOM     77  F   UNL     1      -7.497   1.502   3.944  1.00  0.00    -0.206 F 
ATOM     78  C   UNL     1      -6.447  -1.493   5.711  1.00  0.00     0.022 A 
BRANCH  75  79
ATOM     79  S   UNL     1      -5.796  -4.094   4.966  1.00  0.00     0.124 S 
ATOM     80  O   UNL     1      -6.881  -4.838   5.595  1.00  0.00    -0.237 OA
ATOM     81  O   UNL     1      -5.426  -4.524   3.621  1.00  0.00    -0.237 OA
ATOM     82  O   UNL     1      -4.654  -3.794   5.831  1.00  0.00    -0.744 OA
ENDBRANCH  75  79
ENDBRANCH  48  72
BRANCH  60  83
ATOM     83  C   UNL     1      -8.455   4.572  -1.943  1.00  0.00     0.023 A 
ATOM     84  C   UNL     1      -9.793   4.796  -1.601  1.00  0.00     0.031 A 
ATOM     85  C   UNL     1      -7.868   5.594  -2.735  1.00  0.00     0.131 A 
ATOM     86  C   UNL     1     -10.492   5.938  -2.030  1.00  0.00     0.055 A 
ATOM     87  C   UNL     1      -8.546   6.755  -3.123  1.00  0.00     0.041 A 
ATOM     88  F   UNL     1      -6.595   5.539  -3.150  1.00  0.00    -0.206 F 
ATOM     89  C   UNL     1      -9.872   6.933  -2.773  1.00  0.00     0.022 A 
BRANCH  86  90
ATOM     90  S   UNL     1     -12.243   6.067  -1.589  1.00  0.00     0.124 S 
ATOM     91  O   UNL     1     -12.807   4.886  -2.237  1.00  0.00    -0.237 OA
ATOM     92  O   UNL     1     -12.199   6.024  -0.131  1.00  0.00    -0.237 OA
ATOM     93  O   UNL     1     -12.650   7.347  -2.163  1.00  0.00    -0.744 OA
ENDBRANCH  86  90
ENDBRANCH  60  83
ENDBRANCH  34  35
ENDBRANCH  27  29
ENDBRANCH  26  27
ENDBRANCH  25  26
ENDBRANCH   1  25
TORSDOF 19
