REMARK SMILES C[C@](NC(=O)CSCc1cccs1)(C(=O)OCCOCCOC(=O)c1ccc(-c2c3nc(c(-c4cc(S(=O)(=O)[O-])ccc4F)c4ccc([nH]4)c(-c4cc(S(=O)(=O)[O-])ccc4F)c4nc(c(-c5cc(S(=O)(=O)[O-])ccc5F)c5ccc2[nH]5)C=C4)C=C3)cc1)C(F)(F)F
REMARK SMILES IDX 18 1 17 2 16 3 14 4 15 5 2 6 1 7 88 8 89 9 90 10 91 11 3 12
REMARK SMILES IDX 4 13 5 15 6 16 7 17 8 18 9 19 10 20 13 21 11 22 12 23 19 24
REMARK SMILES IDX 20 25 21 26 22 27 23 28 24 29 25 30 26 31 87 32 27 33 86 34
REMARK SMILES IDX 28 35 29 36 30 37 80 38 31 39 85 40 79 41 81 42 32 43 84 44
REMARK SMILES IDX 78 45 77 46 33 48 65 49 45 50 64 51 46 52 49 53 63 54 82 55
REMARK SMILES IDX 47 56 48 57 62 59 83 60 50 61 34 62 35 63 43 64 36 65 42 66
REMARK SMILES IDX 44 67 41 68 37 69 38 70 39 71 40 72 66 73 67 74 75 75 68 76
REMARK SMILES IDX 74 77 76 78 73 79 69 80 70 81 71 82 72 83 51 84 52 85 60 86
REMARK SMILES IDX 53 87 59 88 61 89 58 90 54 91 55 92 56 93 57 94
REMARK H PARENT 3 14 81 47 49 58
REMARK Flexibility Score: inf
ROOT
ATOM      1  C   UNL     1      -3.534   0.195  -0.723  1.00  0.00     0.202 C 
ENDROOT
BRANCH   1   2
ATOM      2  C   UNL     1      -2.759  -0.471  -1.864  1.00  0.00     0.261 C 
BRANCH   2   3
ATOM      3  O   UNL     1      -1.340  -0.456  -1.614  1.00  0.00    -0.461 OA
BRANCH   3   4
ATOM      4  C   UNL     1      -0.568   0.153  -2.557  1.00  0.00     0.341 C 
ATOM      5  O   UNL     1      -0.992   0.556  -3.634  1.00  0.00    -0.249 OA
BRANCH   4   6
ATOM      6  C   UNL     1       0.904   0.268  -2.136  1.00  0.00     0.231 C 
ATOM      7  C   UNL     1       1.756  -0.377  -3.231  1.00  0.00     0.058 C 
BRANCH   6   8
ATOM      8  C   UNL     1       1.192   1.786  -2.157  1.00  0.00     0.422 C 
ATOM      9  F   UNL     1       0.511   2.434  -1.182  1.00  0.00    -0.168 F 
ATOM     10  F   UNL     1       2.511   2.010  -1.905  1.00  0.00    -0.168 F 
ATOM     11  F   UNL     1       0.919   2.393  -3.327  1.00  0.00    -0.168 F 
ENDBRANCH   6   8
BRANCH   6  12
ATOM     12  N   UNL     1       1.167  -0.252  -0.742  1.00  0.00    -0.332 N 
ATOM     13  C   UNL     1       1.530  -1.425  -0.174  1.00  0.00     0.231 C 
ATOM     14  H   UNL     1       1.039   0.452  -0.065  1.00  0.00     0.164 HD
ATOM     15  O   UNL     1       1.437  -1.487   1.056  1.00  0.00    -0.274 OA
BRANCH  13  16
ATOM     16  C   UNL     1       2.082  -2.586  -0.962  1.00  0.00     0.169 C 
BRANCH  16  17
ATOM     17  S   UNL     1       0.767  -3.536  -1.775  1.00  0.00    -0.146 SA
BRANCH  17  18
ATOM     18  C   UNL     1      -0.075  -4.239  -0.327  1.00  0.00     0.116 C 
BRANCH  18  19
ATOM     19  C   UNL     1       0.623  -5.331   0.440  1.00  0.00     0.014 A 
ATOM     20  C   UNL     1       0.187  -5.858   1.645  1.00  0.00     0.016 A 
ATOM     21  S   UNL     1       2.030  -6.153  -0.100  1.00  0.00    -0.148 S 
ATOM     22  C   UNL     1       1.026  -6.898   2.134  1.00  0.00     0.012 A 
ATOM     23  C   UNL     1       2.083  -7.143   1.290  1.00  0.00     0.065 A 
ENDBRANCH  18  19
ENDBRANCH  17  18
ENDBRANCH  16  17
ENDBRANCH  13  16
ENDBRANCH   6  12
ENDBRANCH   4   6
ENDBRANCH   3   4
ENDBRANCH   2   3
ENDBRANCH   1   2
BRANCH   1  24
ATOM     24  O   UNL     1      -3.207   1.560  -0.460  1.00  0.00    -0.374 OA
BRANCH  24  25
ATOM     25  C   UNL     1      -2.007   1.813   0.269  1.00  0.00     0.202 C 
BRANCH  25  26
ATOM     26  C   UNL     1      -2.031   1.583   1.784  1.00  0.00     0.261 C 
BRANCH  26  27
ATOM     27  O   UNL     1      -2.241   0.202   2.120  1.00  0.00    -0.460 OA
BRANCH  27  28
ATOM     28  C   UNL     1      -3.464  -0.059   2.637  1.00  0.00     0.338 C 
ATOM     29  O   UNL     1      -4.339   0.761   2.888  1.00  0.00    -0.246 OA
BRANCH  28  30
ATOM     30  C   UNL     1      -3.712  -1.512   2.693  1.00  0.00     0.060 A 
ATOM     31  C   UNL     1      -4.947  -1.960   2.209  1.00  0.00     0.016 A 
ATOM     32  C   UNL     1      -2.817  -2.405   3.289  1.00  0.00     0.016 A 
ATOM     33  C   UNL     1      -5.335  -3.281   2.401  1.00  0.00     0.010 A 
ATOM     34  C   UNL     1      -3.211  -3.734   3.487  1.00  0.00     0.010 A 
ATOM     35  C   UNL     1      -4.494  -4.161   3.094  1.00  0.00    -0.014 A 
BRANCH  35  36
ATOM     36  C   UNL     1      -5.061  -5.441   3.587  1.00  0.00     0.031 A 
ATOM     37  C   UNL     1      -5.531  -5.516   5.017  1.00  0.00     0.074 A 
ATOM     38  C   UNL     1      -5.234  -6.487   2.761  1.00  0.00     0.049 A 
ATOM     39  N   UNL     1      -6.089  -6.508   5.661  1.00  0.00    -0.248 NA
ATOM     40  C   UNL     1      -5.339  -4.304   5.827  1.00  0.00     0.031 C 
ATOM     41  C   UNL     1      -4.873  -6.512   1.345  1.00  0.00     0.029 A 
ATOM     42  N   UNL     1      -5.770  -7.727   2.995  1.00  0.00    -0.354 N 
ATOM     43  C   UNL     1      -6.310  -6.043   6.954  1.00  0.00     0.074 A 
ATOM     44  C   UNL     1      -5.782  -4.697   7.011  1.00  0.00     0.031 C 
ATOM     45  C   UNL     1      -5.207  -7.709   0.833  1.00  0.00     0.029 A 
ATOM     46  C   UNL     1      -5.774  -8.544   1.890  1.00  0.00     0.049 A 
ATOM     47  H   UNL     1      -6.120  -8.006   3.872  1.00  0.00     0.167 HD
ATOM     48  C   UNL     1      -6.909  -6.675   7.995  1.00  0.00     0.034 A 
ATOM     49  C   UNL     1      -6.181  -9.822   1.752  1.00  0.00     0.034 A 
ATOM     50  C   UNL     1      -7.425  -8.021   7.923  1.00  0.00     0.049 A 
ATOM     51  C   UNL     1      -6.772 -10.536   2.944  1.00  0.00     0.074 A 
ATOM     52  C   UNL     1      -8.057  -8.758   8.909  1.00  0.00     0.029 A 
ATOM     53  N   UNL     1      -7.355  -8.841   6.802  1.00  0.00    -0.354 N 
ATOM     54  N   UNL     1      -6.978 -10.087   4.161  1.00  0.00    -0.248 NA
ATOM     55  C   UNL     1      -7.196 -11.927   2.736  1.00  0.00     0.031 C 
ATOM     56  C   UNL     1      -8.302 -10.043   8.410  1.00  0.00     0.029 A 
ATOM     57  C   UNL     1      -7.901 -10.084   7.084  1.00  0.00     0.049 A 
ATOM     58  H   UNL     1      -6.974  -8.576   5.934  1.00  0.00     0.167 HD
ATOM     59  C   UNL     1      -7.595 -11.129   4.851  1.00  0.00     0.074 A 
ATOM     60  C   UNL     1      -7.729 -12.224   3.912  1.00  0.00     0.031 C 
ATOM     61  C   UNL     1      -8.021 -11.173   6.141  1.00  0.00     0.034 A 
BRANCH  48  62
ATOM     62  C   UNL     1      -6.971  -5.930   9.309  1.00  0.00     0.023 A 
ATOM     63  C   UNL     1      -7.672  -4.719   9.447  1.00  0.00     0.031 A 
ATOM     64  C   UNL     1      -6.262  -6.407  10.426  1.00  0.00     0.131 A 
ATOM     65  C   UNL     1      -7.573  -3.983  10.638  1.00  0.00     0.055 A 
ATOM     66  C   UNL     1      -6.241  -5.714  11.639  1.00  0.00     0.041 A 
ATOM     67  F   UNL     1      -5.553  -7.545  10.352  1.00  0.00    -0.206 F 
ATOM     68  C   UNL     1      -6.883  -4.484  11.744  1.00  0.00     0.022 A 
BRANCH  65  69
ATOM     69  S   UNL     1      -8.205  -2.281  10.661  1.00  0.00     0.124 S 
ATOM     70  O   UNL     1      -7.471  -1.679   9.550  1.00  0.00    -0.237 OA
ATOM     71  O   UNL     1      -9.635  -2.474  10.453  1.00  0.00    -0.237 OA
ATOM     72  O   UNL     1      -7.826  -1.793  11.985  1.00  0.00    -0.744 OA
ENDBRANCH  65  69
ENDBRANCH  48  62
BRANCH  49  73
ATOM     73  C   UNL     1      -6.033 -10.521   0.444  1.00  0.00     0.023 A 
ATOM     74  C   UNL     1      -7.155 -10.947  -0.284  1.00  0.00     0.031 A 
ATOM     75  C   UNL     1      -4.759 -10.810  -0.076  1.00  0.00     0.131 A 
ATOM     76  C   UNL     1      -6.982 -11.673  -1.473  1.00  0.00     0.055 A 
ATOM     77  C   UNL     1      -4.593 -11.490  -1.284  1.00  0.00     0.041 A 
ATOM     78  F   UNL     1      -3.654 -10.425   0.581  1.00  0.00    -0.206 F 
ATOM     79  C   UNL     1      -5.709 -11.936  -1.984  1.00  0.00     0.022 A 
BRANCH  76  80
ATOM     80  S   UNL     1      -8.450 -12.328  -2.312  1.00  0.00     0.124 S 
ATOM     81  O   UNL     1      -9.013 -13.201  -1.289  1.00  0.00    -0.237 OA
ATOM     82  O   UNL     1      -9.201 -11.111  -2.603  1.00  0.00    -0.237 OA
ATOM     83  O   UNL     1      -7.897 -13.010  -3.481  1.00  0.00    -0.744 OA
ENDBRANCH  76  80
ENDBRANCH  49  73
BRANCH  61  84
ATOM     84  C   UNL     1      -8.730 -12.431   6.588  1.00  0.00     0.023 A 
ATOM     85  C   UNL     1      -8.071 -13.671   6.669  1.00  0.00     0.031 A 
ATOM     86  C   UNL     1     -10.097 -12.388   6.920  1.00  0.00     0.131 A 
ATOM     87  C   UNL     1      -8.793 -14.826   7.009  1.00  0.00     0.055 A 
ATOM     88  C   UNL     1     -10.794 -13.529   7.320  1.00  0.00     0.041 A 
ATOM     89  F   UNL     1     -10.779 -11.233   6.859  1.00  0.00    -0.206 F 
ATOM     90  C   UNL     1     -10.146 -14.760   7.351  1.00  0.00     0.022 A 
BRANCH  87  91
ATOM     91  S   UNL     1      -7.966 -16.437   6.892  1.00  0.00     0.124 S 
ATOM     92  O   UNL     1      -7.511 -16.444   5.505  1.00  0.00    -0.237 OA
ATOM     93  O   UNL     1      -6.922 -16.326   7.905  1.00  0.00    -0.237 OA
ATOM     94  O   UNL     1      -9.030 -17.391   7.199  1.00  0.00    -0.744 OA
ENDBRANCH  87  91
ENDBRANCH  61  84
ENDBRANCH  35  36
ENDBRANCH  28  30
ENDBRANCH  27  28
ENDBRANCH  26  27
ENDBRANCH  25  26
ENDBRANCH  24  25
ENDBRANCH   1  24
TORSDOF 23
