REMARK SMILES O=C(Nc1ccccc1C(=O)OCCOCCOC(=O)c1ccc(-c2c3nc(c(-c4cc(S(=O)(=O)[O-])ccc4F)c4ccc([nH]4)c(-c4cc(S(=O)(=O)[O-])ccc4F)c4nc(c(-c5cc(S(=O)(=O)[O-])ccc5F)c5ccc2[nH]5)C=C4)C=C3)cc1)c1ccc(C[NH+]2CCOCC2)cc1
REMARK SMILES IDX 14 1 13 2 12 3 10 4 11 5 9 6 4 7 5 8 6 9 8 10 7 11 3 12 1 13
REMARK SMILES IDX 2 14 84 16 85 17 96 18 86 19 95 20 87 21 88 22 89 23 90 24
REMARK SMILES IDX 94 25 91 27 93 28 92 29 15 30 16 31 17 32 18 33 19 34 20 35
REMARK SMILES IDX 21 36 22 37 83 38 23 39 82 40 24 41 25 42 26 43 76 44 27 45
REMARK SMILES IDX 81 46 75 47 77 48 28 49 80 50 74 51 73 52 29 54 61 55 41 56
REMARK SMILES IDX 60 57 42 58 45 59 59 60 78 61 43 62 44 63 58 65 79 66 46 67
REMARK SMILES IDX 30 68 31 69 39 70 32 71 38 72 40 73 37 74 33 75 34 76 35 77
REMARK SMILES IDX 36 78 62 79 63 80 71 81 64 82 70 83 72 84 69 85 65 86 66 87
REMARK SMILES IDX 67 88 68 89 47 90 48 91 56 92 49 93 55 94 57 95 54 96 50 97
REMARK SMILES IDX 51 98 52 99 53 100
REMARK H PARENT 3 15 89 26 77 53 45 64
REMARK Flexibility Score: inf
ROOT
ATOM      1  C   UNL     1       2.867   0.031  -4.607  1.00  0.00     0.202 C 
ENDROOT
BRANCH   1   2
ATOM      2  C   UNL     1       2.607  -0.515  -3.196  1.00  0.00     0.261 C 
BRANCH   2   3
ATOM      3  O   UNL     1       3.048   0.282  -2.077  1.00  0.00    -0.460 OA
BRANCH   3   4
ATOM      4  C   UNL     1       4.217  -0.150  -1.555  1.00  0.00     0.340 C 
ATOM      5  O   UNL     1       4.911  -1.026  -2.048  1.00  0.00    -0.246 OA
BRANCH   4   6
ATOM      6  C   UNL     1       4.724   0.589  -0.391  1.00  0.00     0.083 A 
ATOM      7  C   UNL     1       4.006   0.865   0.779  1.00  0.00     0.056 A 
ATOM      8  C   UNL     1       4.642   1.634   1.773  1.00  0.00     0.027 A 
ATOM      9  C   UNL     1       5.987   2.014   1.657  1.00  0.00     0.002 A 
ATOM     10  C   UNL     1       6.078   0.980  -0.500  1.00  0.00     0.018 A 
ATOM     11  C   UNL     1       6.712   1.673   0.524  1.00  0.00     0.001 A 
BRANCH   7  12
ATOM     12  N   UNL     1       2.703   0.421   1.092  1.00  0.00    -0.321 N 
ATOM     13  O   UNL     1       0.802  -0.784   0.858  1.00  0.00    -0.269 OA
ATOM     14  C   UNL     1       2.023  -0.733   0.746  1.00  0.00     0.255 C 
ATOM     15  H   UNL     1       2.186   1.041   1.655  1.00  0.00     0.170 HD
BRANCH  14  16
ATOM     16  C   UNL     1       2.763  -1.950   0.324  1.00  0.00     0.040 A 
ATOM     17  C   UNL     1       3.936  -2.346   0.964  1.00  0.00     0.014 A 
ATOM     18  C   UNL     1       2.304  -2.680  -0.773  1.00  0.00     0.014 A 
ATOM     19  C   UNL     1       4.732  -3.349   0.399  1.00  0.00     0.010 A 
ATOM     20  C   UNL     1       3.139  -3.639  -1.368  1.00  0.00     0.010 A 
ATOM     21  C   UNL     1       4.412  -3.926  -0.840  1.00  0.00     0.006 A 
BRANCH  21  22
ATOM     22  C   UNL     1       5.324  -4.923  -1.539  1.00  0.00     0.299 C 
BRANCH  22  23
ATOM     23  N   UNL     1       6.692  -4.573  -1.946  1.00  0.00    -0.327 N 
ATOM     24  C   UNL     1       7.593  -3.923  -1.001  1.00  0.00     0.291 C 
ATOM     25  C   UNL     1       6.909  -4.067  -3.305  1.00  0.00     0.291 C 
ATOM     26  H   UNL     1       6.983  -5.550  -1.942  1.00  0.00     0.348 HD
ATOM     27  C   UNL     1       7.618  -2.394  -1.135  1.00  0.00     0.221 C 
ATOM     28  C   UNL     1       7.078  -2.547  -3.438  1.00  0.00     0.221 C 
ATOM     29  O   UNL     1       7.975  -1.992  -2.464  1.00  0.00    -0.370 OA
ENDBRANCH  22  23
ENDBRANCH  21  22
ENDBRANCH  14  16
ENDBRANCH   7  12
ENDBRANCH   4   6
ENDBRANCH   3   4
ENDBRANCH   2   3
ENDBRANCH   1   2
BRANCH   1  30
ATOM     30  O   UNL     1       4.121   0.611  -4.920  1.00  0.00    -0.374 OA
BRANCH  30  31
ATOM     31  C   UNL     1       4.560   1.736  -4.173  1.00  0.00     0.202 C 
BRANCH  31  32
ATOM     32  C   UNL     1       3.634   2.946  -3.956  1.00  0.00     0.261 C 
BRANCH  32  33
ATOM     33  O   UNL     1       2.354   2.653  -3.365  1.00  0.00    -0.460 OA
BRANCH  33  34
ATOM     34  C   UNL     1       1.289   2.826  -4.188  1.00  0.00     0.338 C 
ATOM     35  O   UNL     1       1.321   3.182  -5.355  1.00  0.00    -0.246 OA
BRANCH  34  36
ATOM     36  C   UNL     1       0.041   2.384  -3.537  1.00  0.00     0.060 A 
ATOM     37  C   UNL     1      -0.631   1.266  -4.050  1.00  0.00     0.016 A 
ATOM     38  C   UNL     1      -0.551   3.172  -2.551  1.00  0.00     0.016 A 
ATOM     39  C   UNL     1      -1.918   0.957  -3.607  1.00  0.00     0.010 A 
ATOM     40  C   UNL     1      -1.846   2.867  -2.117  1.00  0.00     0.010 A 
ATOM     41  C   UNL     1      -2.552   1.782  -2.669  1.00  0.00    -0.014 A 
BRANCH  41  42
ATOM     42  C   UNL     1      -4.002   1.611  -2.387  1.00  0.00     0.031 A 
ATOM     43  C   UNL     1      -4.983   2.571  -3.009  1.00  0.00     0.074 A 
ATOM     44  C   UNL     1      -4.443   0.606  -1.609  1.00  0.00     0.049 A 
ATOM     45  N   UNL     1      -6.272   2.685  -2.817  1.00  0.00    -0.248 NA
ATOM     46  C   UNL     1      -4.432   3.536  -3.973  1.00  0.00     0.031 C 
ATOM     47  C   UNL     1      -3.599  -0.419  -0.997  1.00  0.00     0.029 A 
ATOM     48  N   UNL     1      -5.713   0.292  -1.188  1.00  0.00    -0.354 N 
ATOM     49  C   UNL     1      -6.688   3.731  -3.635  1.00  0.00     0.074 A 
ATOM     50  C   UNL     1      -5.504   4.247  -4.290  1.00  0.00     0.031 C 
ATOM     51  C   UNL     1      -4.373  -1.238  -0.263  1.00  0.00     0.029 A 
ATOM     52  C   UNL     1      -5.755  -0.766  -0.309  1.00  0.00     0.049 A 
ATOM     53  H   UNL     1      -6.516   0.777  -1.486  1.00  0.00     0.167 HD
ATOM     54  C   UNL     1      -7.942   4.208  -3.832  1.00  0.00     0.034 A 
ATOM     55  C   UNL     1      -6.783  -1.266   0.410  1.00  0.00     0.034 A 
ATOM     56  C   UNL     1      -9.112   3.694  -3.161  1.00  0.00     0.049 A 
ATOM     57  C   UNL     1      -8.154  -0.642   0.261  1.00  0.00     0.074 A 
ATOM     58  C   UNL     1     -10.425   4.117  -3.272  1.00  0.00     0.029 A 
ATOM     59  N   UNL     1      -9.111   2.645  -2.250  1.00  0.00    -0.354 N 
ATOM     60  N   UNL     1      -8.531   0.358  -0.503  1.00  0.00    -0.248 NA
ATOM     61  C   UNL     1      -9.240  -1.222   1.064  1.00  0.00     0.031 C 
ATOM     62  C   UNL     1     -11.204   3.374  -2.379  1.00  0.00     0.029 A 
ATOM     63  C   UNL     1     -10.395   2.426  -1.775  1.00  0.00     0.049 A 
ATOM     64  H   UNL     1      -8.315   2.133  -1.981  1.00  0.00     0.167 HD
ATOM     65  C   UNL     1      -9.903   0.496  -0.299  1.00  0.00     0.074 A 
ATOM     66  C   UNL     1     -10.289  -0.532   0.642  1.00  0.00     0.031 C 
ATOM     67  C   UNL     1     -10.769   1.391  -0.841  1.00  0.00     0.034 A 
BRANCH  54  68
ATOM     68  C   UNL     1      -8.109   5.366  -4.785  1.00  0.00     0.023 A 
ATOM     69  C   UNL     1      -7.828   5.237  -6.157  1.00  0.00     0.031 A 
ATOM     70  C   UNL     1      -8.558   6.615  -4.321  1.00  0.00     0.131 A 
ATOM     71  C   UNL     1      -7.947   6.349  -7.004  1.00  0.00     0.055 A 
ATOM     72  C   UNL     1      -8.749   7.697  -5.183  1.00  0.00     0.041 A 
ATOM     73  F   UNL     1      -8.819   6.806  -3.018  1.00  0.00    -0.206 F 
ATOM     74  C   UNL     1      -8.433   7.570  -6.532  1.00  0.00     0.022 A 
BRANCH  71  75
ATOM     75  S   UNL     1      -7.343   6.210  -8.708  1.00  0.00     0.124 S 
ATOM     76  O   UNL     1      -5.935   5.883  -8.496  1.00  0.00    -0.237 OA
ATOM     77  O   UNL     1      -8.172   5.141  -9.252  1.00  0.00    -0.237 OA
ATOM     78  O   UNL     1      -7.589   7.537  -9.269  1.00  0.00    -0.744 OA
ENDBRANCH  71  75
ENDBRANCH  54  68
BRANCH  55  79
ATOM     79  C   UNL     1      -6.563  -2.373   1.389  1.00  0.00     0.023 A 
ATOM     80  C   UNL     1      -7.258  -3.588   1.283  1.00  0.00     0.031 A 
ATOM     81  C   UNL     1      -5.729  -2.191   2.508  1.00  0.00     0.131 A 
ATOM     82  C   UNL     1      -7.165  -4.541   2.311  1.00  0.00     0.055 A 
ATOM     83  C   UNL     1      -5.580  -3.174   3.488  1.00  0.00     0.041 A 
ATOM     84  F   UNL     1      -5.051  -1.044   2.672  1.00  0.00    -0.206 F 
ATOM     85  C   UNL     1      -6.318  -4.350   3.403  1.00  0.00     0.022 A 
BRANCH  82  86
ATOM     86  S   UNL     1      -8.285  -5.968   2.271  1.00  0.00     0.124 S 
ATOM     87  O   UNL     1      -9.588  -5.319   2.190  1.00  0.00    -0.237 OA
ATOM     88  O   UNL     1      -7.840  -6.669   1.071  1.00  0.00    -0.237 OA
ATOM     89  O   UNL     1      -8.006  -6.654   3.531  1.00  0.00    -0.744 OA
ENDBRANCH  82  86
ENDBRANCH  55  79
BRANCH  67  90
ATOM     90  C   UNL     1     -12.230   1.250  -0.480  1.00  0.00     0.023 A 
ATOM     91  C   UNL     1     -12.699   1.450   0.830  1.00  0.00     0.031 A 
ATOM     92  C   UNL     1     -13.169   0.900  -1.469  1.00  0.00     0.131 A 
ATOM     93  C   UNL     1     -14.054   1.240   1.129  1.00  0.00     0.055 A 
ATOM     94  C   UNL     1     -14.527   0.761  -1.180  1.00  0.00     0.041 A 
ATOM     95  F   UNL     1     -12.780   0.693  -2.737  1.00  0.00    -0.206 F 
ATOM     96  C   UNL     1     -14.974   0.917   0.128  1.00  0.00     0.022 A 
BRANCH  93  97
ATOM     97  S   UNL     1     -14.584   1.296   2.863  1.00  0.00     0.124 S 
ATOM     98  O   UNL     1     -13.743   0.271   3.471  1.00  0.00    -0.237 OA
ATOM     99  O   UNL     1     -14.282   2.674   3.238  1.00  0.00    -0.237 OA
ATOM    100  O   UNL     1     -16.008   0.971   2.797  1.00  0.00    -0.744 OA
ENDBRANCH  93  97
ENDBRANCH  67  90
ENDBRANCH  41  42
ENDBRANCH  34  36
ENDBRANCH  33  34
ENDBRANCH  32  33
ENDBRANCH  31  32
ENDBRANCH  30  31
ENDBRANCH   1  30
TORSDOF 21
