REMARK SMILES O=C1C[C@H](c2cn[nH]c2C(=O)OCCOCCOC(=O)c2ccc(-c3c4nc(c(-c5cc(S(=O)(=O)[O-])ccc5F)c5ccc([nH]5)c(-c5cc(S(=O)(=O)[O-])ccc5F)c5nc(c(-c6cc(S(=O)(=O)[O-])ccc6F)c6ccc3[nH]6)C=C5)C=C4)cc2)c2c(-c3cccs3)n[nH]c2N1
REMARK SMILES IDX 16 1 15 2 14 3 13 4 12 5 10 6 11 7 9 8 5 9 6 10 7 11 8 12
REMARK SMILES IDX 4 14 1 15 2 16 3 17 94 18 93 19 84 21 92 22 85 23 91 24
REMARK SMILES IDX 86 26 87 27 90 28 88 29 89 30 17 31 18 32 19 33 20 34 21 35
REMARK SMILES IDX 22 36 83 37 23 38 82 39 24 40 25 41 26 42 76 43 27 44 81 45
REMARK SMILES IDX 75 46 77 47 28 48 80 49 74 50 73 51 29 53 61 54 41 55 60 56
REMARK SMILES IDX 42 57 45 58 59 59 78 60 43 61 44 62 58 64 79 65 46 66 30 67
REMARK SMILES IDX 31 68 39 69 32 70 38 71 40 72 37 73 33 74 34 75 35 76 36 77
REMARK SMILES IDX 62 78 63 79 71 80 64 81 70 82 72 83 69 84 65 85 66 86 67 87
REMARK SMILES IDX 68 88 47 89 48 90 56 91 49 92 55 93 57 94 54 95 50 96 51 97
REMARK SMILES IDX 52 98 53 99
REMARK H PARENT 8 13 94 20 92 25 77 52 45 63
REMARK Flexibility Score: inf
ROOT
ATOM      1  C   UNL     1       5.098  -1.690  -4.553  1.00  0.00     0.202 C 
ENDROOT
BRANCH   1   2
ATOM      2  O   UNL     1       6.110  -2.650  -4.262  1.00  0.00    -0.374 OA
BRANCH   2   3
ATOM      3  C   UNL     1       6.475  -2.877  -2.898  1.00  0.00     0.202 C 
BRANCH   3   4
ATOM      4  C   UNL     1       7.253  -1.752  -2.230  1.00  0.00     0.261 C 
BRANCH   4   5
ATOM      5  O   UNL     1       6.406  -0.613  -1.974  1.00  0.00    -0.459 OA
BRANCH   5   6
ATOM      6  C   UNL     1       6.765   0.531  -2.604  1.00  0.00     0.356 C 
ATOM      7  O   UNL     1       7.723   0.637  -3.361  1.00  0.00    -0.244 OA
BRANCH   6   8
ATOM      8  C   UNL     1       5.795   1.583  -2.443  1.00  0.00     0.147 A 
ATOM      9  C   UNL     1       4.925   2.078  -1.467  1.00  0.00     0.013 A 
ATOM     10  C   UNL     1       4.385   3.249  -2.089  1.00  0.00     0.140 A 
ATOM     11  N   UNL     1       4.814   3.444  -3.330  1.00  0.00    -0.183 NA
ATOM     12  N   UNL     1       5.652   2.426  -3.520  1.00  0.00    -0.271 N 
ATOM     13  H   UNL     1       6.132   2.287  -4.368  1.00  0.00     0.190 HD
BRANCH   9  14
ATOM     14  C   UNL     1       4.596   1.737  -0.018  1.00  0.00     0.069 C 
ATOM     15  O   UNL     1       1.240   0.154   0.035  1.00  0.00    -0.275 OA
ATOM     16  C   UNL     1       2.439   0.296   0.266  1.00  0.00     0.226 C 
ATOM     17  C   UNL     1       3.072   1.678   0.245  1.00  0.00     0.114 C 
ATOM     18  N   UNL     1       3.207  -0.769   0.670  1.00  0.00    -0.311 N 
ATOM     19  C   UNL     1       4.553  -0.615   0.804  1.00  0.00     0.132 A 
ATOM     20  H   UNL     1       2.787  -1.638   0.862  1.00  0.00     0.171 HD
ATOM     21  C   UNL     1       5.249   0.531   0.542  1.00  0.00     0.031 A 
ATOM     22  N   UNL     1       5.459  -1.566   1.156  1.00  0.00    -0.262 N 
ATOM     23  C   UNL     1       6.583   0.212   0.878  1.00  0.00     0.108 A 
ATOM     24  N   UNL     1       6.725  -1.090   1.177  1.00  0.00    -0.173 NA
ATOM     25  H   UNL     1       5.220  -2.496   1.371  1.00  0.00     0.192 HD
BRANCH  23  26
ATOM     26  C   UNL     1       7.731   1.155   0.750  1.00  0.00     0.055 A 
ATOM     27  C   UNL     1       8.847   0.902  -0.015  1.00  0.00     0.022 A 
ATOM     28  S   UNL     1       7.756   2.718   1.432  1.00  0.00    -0.142 S 
ATOM     29  C   UNL     1       9.666   2.062  -0.148  1.00  0.00     0.012 A 
ATOM     30  C   UNL     1       9.217   3.102   0.635  1.00  0.00     0.065 A 
ENDBRANCH  23  26
ENDBRANCH   9  14
ENDBRANCH   6   8
ENDBRANCH   5   6
ENDBRANCH   4   5
ENDBRANCH   3   4
ENDBRANCH   2   3
ENDBRANCH   1   2
BRANCH   1  31
ATOM     31  C   UNL     1       3.671  -2.070  -4.216  1.00  0.00     0.261 C 
BRANCH  31  32
ATOM     32  O   UNL     1       3.568  -2.494  -2.874  1.00  0.00    -0.460 OA
BRANCH  32  33
ATOM     33  C   UNL     1       3.434  -3.835  -2.710  1.00  0.00     0.338 C 
ATOM     34  O   UNL     1       3.871  -4.721  -3.405  1.00  0.00    -0.246 OA
BRANCH  33  35
ATOM     35  C   UNL     1       2.550  -3.995  -1.554  1.00  0.00     0.060 A 
ATOM     36  C   UNL     1       2.285  -5.270  -1.058  1.00  0.00     0.016 A 
ATOM     37  C   UNL     1       1.819  -2.873  -1.144  1.00  0.00     0.016 A 
ATOM     38  C   UNL     1       1.117  -5.439  -0.342  1.00  0.00     0.010 A 
ATOM     39  C   UNL     1       0.749  -3.022  -0.327  1.00  0.00     0.010 A 
ATOM     40  C   UNL     1       0.318  -4.313  -0.110  1.00  0.00    -0.014 A 
BRANCH  40  41
ATOM     41  C   UNL     1      -1.041  -4.412   0.351  1.00  0.00     0.031 A 
ATOM     42  C   UNL     1      -1.093  -4.740   1.782  1.00  0.00     0.074 A 
ATOM     43  C   UNL     1      -2.070  -3.992  -0.416  1.00  0.00     0.049 A 
ATOM     44  N   UNL     1      -1.225  -5.917   2.291  1.00  0.00    -0.248 NA
ATOM     45  C   UNL     1      -0.613  -3.728   2.742  1.00  0.00     0.031 C 
ATOM     46  C   UNL     1      -2.055  -3.338  -1.732  1.00  0.00     0.029 A 
ATOM     47  N   UNL     1      -3.388  -3.994  -0.113  1.00  0.00    -0.354 N 
ATOM     48  C   UNL     1      -1.182  -5.715   3.659  1.00  0.00     0.074 A 
ATOM     49  C   UNL     1      -0.481  -4.476   3.839  1.00  0.00     0.031 C 
ATOM     50  C   UNL     1      -3.280  -2.819  -1.998  1.00  0.00     0.029 A 
ATOM     51  C   UNL     1      -4.200  -3.235  -0.955  1.00  0.00     0.049 A 
ATOM     52  H   UNL     1      -3.750  -4.498   0.652  1.00  0.00     0.167 HD
ATOM     53  C   UNL     1      -2.028  -6.394   4.480  1.00  0.00     0.034 A 
ATOM     54  C   UNL     1      -5.519  -2.956  -0.743  1.00  0.00     0.034 A 
ATOM     55  C   UNL     1      -2.668  -7.476   3.752  1.00  0.00     0.049 A 
ATOM     56  C   UNL     1      -5.999  -3.989   0.224  1.00  0.00     0.074 A 
ATOM     57  C   UNL     1      -2.200  -8.586   3.074  1.00  0.00     0.029 A 
ATOM     58  N   UNL     1      -3.941  -7.251   3.263  1.00  0.00    -0.354 N 
ATOM     59  N   UNL     1      -6.037  -5.265  -0.070  1.00  0.00    -0.248 NA
ATOM     60  C   UNL     1      -5.874  -3.694   1.647  1.00  0.00     0.031 C 
ATOM     61  C   UNL     1      -2.991  -8.652   1.889  1.00  0.00     0.029 A 
ATOM     62  C   UNL     1      -3.979  -7.665   1.952  1.00  0.00     0.049 A 
ATOM     63  H   UNL     1      -4.692  -6.861   3.767  1.00  0.00     0.167 HD
ATOM     64  C   UNL     1      -5.528  -5.918   1.047  1.00  0.00     0.074 A 
ATOM     65  C   UNL     1      -5.507  -4.900   2.100  1.00  0.00     0.031 C 
ATOM     66  C   UNL     1      -4.865  -7.112   0.936  1.00  0.00     0.034 A 
BRANCH  53  67
ATOM     67  C   UNL     1      -2.591  -5.858   5.777  1.00  0.00     0.023 A 
ATOM     68  C   UNL     1      -3.477  -6.705   6.464  1.00  0.00     0.031 A 
ATOM     69  C   UNL     1      -2.533  -4.525   6.245  1.00  0.00     0.131 A 
ATOM     70  C   UNL     1      -4.332  -6.204   7.457  1.00  0.00     0.055 A 
ATOM     71  C   UNL     1      -3.345  -4.045   7.276  1.00  0.00     0.041 A 
ATOM     72  F   UNL     1      -1.761  -3.582   5.697  1.00  0.00    -0.206 F 
ATOM     73  C   UNL     1      -4.277  -4.876   7.865  1.00  0.00     0.022 A 
BRANCH  70  74
ATOM     74  S   UNL     1      -5.639  -7.288   8.074  1.00  0.00     0.124 S 
ATOM     75  O   UNL     1      -6.293  -7.694   6.835  1.00  0.00    -0.237 OA
ATOM     76  O   UNL     1      -4.870  -8.318   8.765  1.00  0.00    -0.237 OA
ATOM     77  O   UNL     1      -6.425  -6.410   8.937  1.00  0.00    -0.744 OA
ENDBRANCH  70  74
ENDBRANCH  53  67
BRANCH  54  78
ATOM     78  C   UNL     1      -6.209  -1.647  -0.980  1.00  0.00     0.023 A 
ATOM     79  C   UNL     1      -7.609  -1.500  -1.135  1.00  0.00     0.031 A 
ATOM     80  C   UNL     1      -5.471  -0.451  -0.822  1.00  0.00     0.131 A 
ATOM     81  C   UNL     1      -8.201  -0.208  -1.136  1.00  0.00     0.055 A 
ATOM     82  C   UNL     1      -6.060   0.818  -0.818  1.00  0.00     0.041 A 
ATOM     83  F   UNL     1      -4.151  -0.480  -0.584  1.00  0.00    -0.206 F 
ATOM     84  C   UNL     1      -7.430   0.945  -0.969  1.00  0.00     0.022 A 
BRANCH  81  85
ATOM     85  S   UNL     1     -10.009   0.006  -1.303  1.00  0.00     0.124 S 
ATOM     86  O   UNL     1     -10.267  -0.528  -2.635  1.00  0.00    -0.237 OA
ATOM     87  O   UNL     1     -10.523  -0.772  -0.181  1.00  0.00    -0.237 OA
ATOM     88  O   UNL     1     -10.199   1.453  -1.178  1.00  0.00    -0.744 OA
ENDBRANCH  81  85
ENDBRANCH  54  78
BRANCH  66  89
ATOM     89  C   UNL     1      -4.907  -7.849  -0.395  1.00  0.00     0.023 A 
ATOM     90  C   UNL     1      -4.387  -7.373  -1.625  1.00  0.00     0.031 A 
ATOM     91  C   UNL     1      -5.366  -9.178  -0.358  1.00  0.00     0.131 A 
ATOM     92  C   UNL     1      -4.341  -8.228  -2.750  1.00  0.00     0.055 A 
ATOM     93  C   UNL     1      -5.295 -10.024  -1.463  1.00  0.00     0.041 A 
ATOM     94  F   UNL     1      -5.848  -9.696   0.783  1.00  0.00    -0.206 F 
ATOM     95  C   UNL     1      -4.785  -9.552  -2.665  1.00  0.00     0.022 A 
BRANCH  92  96
ATOM     96  S   UNL     1      -3.712  -7.640  -4.361  1.00  0.00     0.124 S 
ATOM     97  O   UNL     1      -4.429  -6.387  -4.567  1.00  0.00    -0.237 OA
ATOM     98  O   UNL     1      -2.277  -7.524  -4.118  1.00  0.00    -0.237 OA
ATOM     99  O   UNL     1      -4.086  -8.713  -5.286  1.00  0.00    -0.744 OA
ENDBRANCH  92  96
ENDBRANCH  66  89
ENDBRANCH  40  41
ENDBRANCH  33  35
ENDBRANCH  32  33
ENDBRANCH  31  32
ENDBRANCH   1  31
TORSDOF 19
