REMARK SMILES O=C(OCCOCCOC(=O)[C@@H]1CCCC[C@@H]1C(=O)Nc1cc(C(F)(F)F)cc(C(F)(F)F)c1)c1ccc(-c2c3nc(c(-c4cc(S(=O)(=O)[O-])ccc4F)c4ccc([nH]4)c(-c4cc(S(=O)(=O)[O-])ccc4F)c4nc(c(-c5cc(S(=O)(=O)[O-])ccc5F)c5ccc2[nH]5)C=C4)C=C3)cc1
REMARK SMILES IDX 6 1 5 2 4 3 3 4 2 5 1 6 35 7 36 8 97 9 37 10 96 11 38 12
REMARK SMILES IDX 39 13 40 14 90 15 41 16 95 17 89 18 91 19 42 20 94 21 88 22
REMARK SMILES IDX 87 23 43 25 75 26 55 27 74 28 56 29 59 30 73 31 92 32 57 33
REMARK SMILES IDX 58 34 72 36 93 37 60 38 44 39 45 40 53 41 46 42 52 43 54 44
REMARK SMILES IDX 51 45 47 46 48 47 49 48 50 49 76 50 77 51 85 52 78 53 84 54
REMARK SMILES IDX 86 55 83 56 79 57 80 58 81 59 82 60 61 61 62 62 70 63 63 64
REMARK SMILES IDX 69 65 71 66 68 67 64 68 65 69 66 70 67 71 7 72 8 73 9 74
REMARK SMILES IDX 10 75 11 76 12 77 13 78 17 79 14 80 16 81 15 82 18 83 19 84
REMARK SMILES IDX 20 85 21 87 22 88 34 89 23 90 29 91 28 92 24 93 25 94 26 95
REMARK SMILES IDX 27 96 30 97 31 98 32 99 33 100
REMARK H PARENT 91 24 59 35 20 86
REMARK Flexibility Score: inf
ROOT
ATOM      1  O   UNL     1       4.443  -2.027  -2.340  1.00  0.00    -0.374 OA
ENDROOT
BRANCH   1   2
ATOM      2  C   UNL     1       5.136  -1.822  -1.108  1.00  0.00     0.202 C 
BRANCH   2   3
ATOM      3  C   UNL     1       4.694  -0.764  -0.071  1.00  0.00     0.261 C 
BRANCH   3   4
ATOM      4  O   UNL     1       3.268  -0.640   0.132  1.00  0.00    -0.460 OA
BRANCH   4   5
ATOM      5  C   UNL     1       2.500   0.448  -0.177  1.00  0.00     0.338 C 
ATOM      6  O   UNL     1       1.393   0.607   0.345  1.00  0.00    -0.246 OA
BRANCH   5   7
ATOM      7  C   UNL     1       2.954   1.407  -1.213  1.00  0.00     0.060 A 
ATOM      8  C   UNL     1       3.958   1.044  -2.093  1.00  0.00     0.016 A 
ATOM      9  C   UNL     1       2.354   2.658  -1.384  1.00  0.00     0.016 A 
ATOM     10  C   UNL     1       4.519   1.903  -2.978  1.00  0.00     0.010 A 
ATOM     11  C   UNL     1       2.794   3.495  -2.419  1.00  0.00     0.010 A 
ATOM     12  C   UNL     1       3.880   3.098  -3.211  1.00  0.00    -0.014 A 
BRANCH  12  13
ATOM     13  C   UNL     1       4.498   3.872  -4.282  1.00  0.00     0.031 A 
ATOM     14  C   UNL     1       5.328   5.035  -3.885  1.00  0.00     0.074 A 
ATOM     15  C   UNL     1       4.524   3.329  -5.515  1.00  0.00     0.049 A 
ATOM     16  N   UNL     1       5.928   5.907  -4.636  1.00  0.00    -0.248 NA
ATOM     17  C   UNL     1       5.515   5.236  -2.438  1.00  0.00     0.031 C 
ATOM     18  C   UNL     1       3.922   2.033  -5.881  1.00  0.00     0.029 A 
ATOM     19  N   UNL     1       5.128   3.740  -6.665  1.00  0.00    -0.354 N 
ATOM     20  C   UNL     1       6.502   6.812  -3.756  1.00  0.00     0.074 A 
ATOM     21  C   UNL     1       6.200   6.366  -2.416  1.00  0.00     0.031 C 
ATOM     22  C   UNL     1       4.220   1.750  -7.155  1.00  0.00     0.029 A 
ATOM     23  C   UNL     1       4.893   2.902  -7.730  1.00  0.00     0.049 A 
ATOM     24  H   UNL     1       5.678   4.553  -6.726  1.00  0.00     0.167 HD
ATOM     25  C   UNL     1       7.183   7.934  -4.082  1.00  0.00     0.034 A 
ATOM     26  C   UNL     1       5.112   3.107  -9.040  1.00  0.00     0.034 A 
ATOM     27  C   UNL     1       7.415   8.294  -5.459  1.00  0.00     0.049 A 
ATOM     28  C   UNL     1       5.742   4.423  -9.400  1.00  0.00     0.074 A 
ATOM     29  C   UNL     1       7.980   9.438  -5.981  1.00  0.00     0.029 A 
ATOM     30  N   UNL     1       7.067   7.487  -6.546  1.00  0.00    -0.354 N 
ATOM     31  N   UNL     1       6.152   5.379  -8.591  1.00  0.00    -0.248 NA
ATOM     32  C   UNL     1       5.922   4.710 -10.822  1.00  0.00     0.031 C 
ATOM     33  C   UNL     1       7.901   9.356  -7.377  1.00  0.00     0.029 A 
ATOM     34  C   UNL     1       7.376   8.120  -7.734  1.00  0.00     0.049 A 
ATOM     35  H   UNL     1       6.659   6.593  -6.475  1.00  0.00     0.167 HD
ATOM     36  C   UNL     1       6.655   6.381  -9.406  1.00  0.00     0.074 A 
ATOM     37  C   UNL     1       6.501   5.903 -10.771  1.00  0.00     0.031 C 
ATOM     38  C   UNL     1       7.198   7.579  -9.067  1.00  0.00     0.034 A 
BRANCH  25  39
ATOM     39  C   UNL     1       7.522   8.865  -2.945  1.00  0.00     0.023 A 
ATOM     40  C   UNL     1       8.337   8.470  -1.868  1.00  0.00     0.031 A 
ATOM     41  C   UNL     1       6.865  10.104  -2.847  1.00  0.00     0.131 A 
ATOM     42  C   UNL     1       8.366   9.241  -0.694  1.00  0.00     0.055 A 
ATOM     43  C   UNL     1       6.984  10.917  -1.718  1.00  0.00     0.041 A 
ATOM     44  F   UNL     1       6.040  10.521  -3.821  1.00  0.00    -0.206 F 
ATOM     45  C   UNL     1       7.716  10.475  -0.621  1.00  0.00     0.022 A 
BRANCH  42  46
ATOM     46  S   UNL     1       9.061   8.498   0.812  1.00  0.00     0.124 S 
ATOM     47  O   UNL     1       8.224   7.310   0.966  1.00  0.00    -0.237 OA
ATOM     48  O   UNL     1      10.448   8.257   0.435  1.00  0.00    -0.237 OA
ATOM     49  O   UNL     1       8.859   9.528   1.829  1.00  0.00    -0.744 OA
ENDBRANCH  42  46
ENDBRANCH  25  39
BRANCH  26  50
ATOM     50  C   UNL     1       4.602   2.133 -10.047  1.00  0.00     0.023 A 
ATOM     51  C   UNL     1       5.458   1.454 -10.925  1.00  0.00     0.031 A 
ATOM     52  C   UNL     1       3.222   1.843 -10.124  1.00  0.00     0.131 A 
ATOM     53  C   UNL     1       4.927   0.529 -11.843  1.00  0.00     0.055 A 
ATOM     54  C   UNL     1       2.707   0.886 -10.999  1.00  0.00     0.041 A 
ATOM     55  F   UNL     1       2.350   2.464  -9.312  1.00  0.00    -0.206 F 
ATOM     56  C   UNL     1       3.562   0.228 -11.873  1.00  0.00     0.022 A 
BRANCH  53  57
ATOM     57  S   UNL     1       6.041  -0.244 -13.048  1.00  0.00     0.124 S 
ATOM     58  O   UNL     1       6.592   0.921 -13.732  1.00  0.00    -0.237 OA
ATOM     59  O   UNL     1       6.960  -0.977 -12.185  1.00  0.00    -0.237 OA
ATOM     60  O   UNL     1       5.149  -1.075 -13.854  1.00  0.00    -0.744 OA
ENDBRANCH  53  57
ENDBRANCH  26  50
BRANCH  38  61
ATOM     61  C   UNL     1       7.724   8.413 -10.198  1.00  0.00     0.023 A 
ATOM     62  C   UNL     1       6.868   9.056 -11.104  1.00  0.00     0.031 A 
ATOM     63  C   UNL     1       9.111   8.605 -10.325  1.00  0.00     0.131 A 
ATOM     64  C   UNL     1       7.414   9.847 -12.122  1.00  0.00     0.055 A 
ATOM     65  C   UNL     1       9.644   9.441 -11.301  1.00  0.00     0.041 A 
ATOM     66  F   UNL     1       9.963   8.004  -9.479  1.00  0.00    -0.206 F 
ATOM     67  C   UNL     1       8.793  10.063 -12.211  1.00  0.00     0.022 A 
BRANCH  64  68
ATOM     68  S   UNL     1       6.301  10.550 -13.366  1.00  0.00     0.124 S 
ATOM     69  O   UNL     1       5.735   9.350 -13.975  1.00  0.00    -0.237 OA
ATOM     70  O   UNL     1       5.385  11.346 -12.555  1.00  0.00    -0.237 OA
ATOM     71  O   UNL     1       7.195  11.321 -14.227  1.00  0.00    -0.744 OA
ENDBRANCH  64  68
ENDBRANCH  38  61
ENDBRANCH  12  13
ENDBRANCH   5   7
ENDBRANCH   4   5
ENDBRANCH   3   4
ENDBRANCH   2   3
ENDBRANCH   1   2
BRANCH   1  72
ATOM     72  C   UNL     1       3.025  -2.169  -2.400  1.00  0.00     0.202 C 
BRANCH  72  73
ATOM     73  C   UNL     1       2.449  -3.497  -1.940  1.00  0.00     0.261 C 
BRANCH  73  74
ATOM     74  O   UNL     1       2.860  -3.779  -0.600  1.00  0.00    -0.463 OA
BRANCH  74  75
ATOM     75  C   UNL     1       3.912  -4.616  -0.523  1.00  0.00     0.309 C 
ATOM     76  O   UNL     1       4.455  -5.147  -1.489  1.00  0.00    -0.252 OA
BRANCH  75  77
ATOM     77  C   UNL     1       4.443  -4.827   0.880  1.00  0.00     0.111 C 
ATOM     78  C   UNL     1       4.360  -6.342   1.084  1.00  0.00     0.016 C 
ATOM     79  C   UNL     1       3.993  -3.912   2.063  1.00  0.00     0.093 C 
ATOM     80  C   UNL     1       4.870  -6.775   2.437  1.00  0.00     0.001 C 
ATOM     81  C   UNL     1       4.398  -4.520   3.424  1.00  0.00     0.014 C 
ATOM     82  C   UNL     1       4.120  -6.023   3.519  1.00  0.00     0.001 C 
BRANCH  79  83
ATOM     83  C   UNL     1       2.525  -3.520   2.179  1.00  0.00     0.228 C 
ATOM     84  O   UNL     1       1.655  -4.353   1.890  1.00  0.00    -0.274 OA
ATOM     85  N   UNL     1       2.080  -2.332   2.706  1.00  0.00    -0.326 N 
ATOM     86  H   UNL     1       1.107  -2.365   2.853  1.00  0.00     0.169 HD
BRANCH  85  87
ATOM     87  C   UNL     1       2.599  -1.069   3.103  1.00  0.00     0.042 A 
ATOM     88  C   UNL     1       1.637  -0.072   3.374  1.00  0.00     0.039 A 
ATOM     89  C   UNL     1       3.936  -0.679   3.127  1.00  0.00     0.039 A 
ATOM     90  C   UNL     1       1.974   1.290   3.529  1.00  0.00     0.058 A 
ATOM     91  C   UNL     1       4.298   0.693   3.184  1.00  0.00     0.058 A 
ATOM     92  C   UNL     1       3.312   1.665   3.400  1.00  0.00     0.026 A 
BRANCH  90  93
ATOM     93  C   UNL     1       0.902   2.327   3.773  1.00  0.00     0.416 C 
ATOM     94  F   UNL     1      -0.159   2.222   2.928  1.00  0.00    -0.166 F 
ATOM     95  F   UNL     1       0.383   2.233   5.031  1.00  0.00    -0.166 F 
ATOM     96  F   UNL     1       1.347   3.610   3.657  1.00  0.00    -0.166 F 
ENDBRANCH  90  93
BRANCH  91  97
ATOM     97  C   UNL     1       5.707   1.156   2.869  1.00  0.00     0.416 C 
ATOM     98  F   UNL     1       5.736   1.934   1.751  1.00  0.00    -0.166 F 
ATOM     99  F   UNL     1       6.264   1.886   3.867  1.00  0.00    -0.166 F 
ATOM    100  F   UNL     1       6.563   0.126   2.618  1.00  0.00    -0.166 F 
ENDBRANCH  91  97
ENDBRANCH  85  87
ENDBRANCH  79  83
ENDBRANCH  75  77
ENDBRANCH  74  75
ENDBRANCH  73  74
ENDBRANCH  72  73
ENDBRANCH   1  72
TORSDOF 21
