REMARK SMILES O=C(CC1(C[S@](=O)C[C@H]2Cc3ccccc3S2)CC1)OCCOCCOC(=O)c1ccc(-c2c3nc(c(-c4cc(S(=O)(=O)[O-])ccc4F)c4ccc([nH]4)c(-c4cc(S(=O)(=O)[O-])ccc4F)c4nc(c(-c5cc(S(=O)(=O)[O-])ccc5F)c5ccc2[nH]5)C=C4)C=C3)cc1
REMARK SMILES IDX 22 1 21 2 20 3 2 4 1 5 3 6 4 7 18 8 19 9 5 10 6 11 7 12 8 13
REMARK SMILES IDX 9 14 10 15 17 16 11 17 16 18 12 19 15 20 13 21 14 22 23 23
REMARK SMILES IDX 24 24 25 25 26 26 27 27 28 28 29 29 30 30 91 31 31 32 90 33
REMARK SMILES IDX 32 34 33 35 34 36 84 37 35 38 89 39 83 40 85 41 36 42 88 43
REMARK SMILES IDX 82 44 81 45 37 47 69 48 49 49 68 50 50 51 53 52 67 53 86 54
REMARK SMILES IDX 51 55 52 56 66 58 87 59 54 60 38 61 39 62 47 63 40 64 46 65
REMARK SMILES IDX 48 66 45 67 41 68 42 69 43 70 44 71 70 72 71 73 79 74 72 75
REMARK SMILES IDX 78 76 80 77 77 78 73 79 74 80 75 81 76 82 55 83 56 84 64 85
REMARK SMILES IDX 57 86 63 87 65 88 62 89 58 90 59 91 60 92 61 93
REMARK H PARENT 85 46 53 57
REMARK Flexibility Score: inf
ROOT
ATOM      1  C   UNL     1      -0.374   0.607   4.457  1.00  0.00     0.202 C 
ENDROOT
BRANCH   1   2
ATOM      2  C   UNL     1      -0.545   1.214   5.856  1.00  0.00     0.261 C 
BRANCH   2   3
ATOM      3  O   UNL     1      -0.416   2.632   5.945  1.00  0.00    -0.463 OA
BRANCH   3   4
ATOM      4  C   UNL     1       0.742   3.111   6.463  1.00  0.00     0.306 C 
ATOM      5  O   UNL     1       0.745   3.891   7.411  1.00  0.00    -0.252 OA
BRANCH   4   6
ATOM      6  C   UNL     1       1.992   2.810   5.675  1.00  0.00     0.130 C 
BRANCH   6   7
ATOM      7  C   UNL     1       3.054   1.879   6.234  1.00  0.00    -0.008 C 
ATOM      8  C   UNL     1       2.917   1.386   7.670  1.00  0.00     0.009 C 
ATOM      9  C   UNL     1       2.785   0.411   6.547  1.00  0.00     0.009 C 
BRANCH   7  10
ATOM     10  C   UNL     1       4.421   2.154   5.635  1.00  0.00     0.112 C 
BRANCH  10  11
ATOM     11  S   UNL     1       4.545   1.499   3.922  1.00  0.00     0.023 S 
ATOM     12  O   UNL     1       4.046   0.088   3.876  1.00  0.00    -0.260 OA
BRANCH  11  13
ATOM     13  C   UNL     1       6.353   1.476   3.813  1.00  0.00     0.120 C 
BRANCH  13  14
ATOM     14  C   UNL     1       7.092   0.207   4.264  1.00  0.00     0.068 C 
ATOM     15  C   UNL     1       6.592  -0.559   5.505  1.00  0.00     0.052 C 
ATOM     16  S   UNL     1       7.325  -1.009   2.904  1.00  0.00    -0.121 SA
ATOM     17  C   UNL     1       6.343  -1.991   5.149  1.00  0.00    -0.033 A 
ATOM     18  C   UNL     1       6.719  -2.361   3.862  1.00  0.00     0.011 A 
ATOM     19  C   UNL     1       5.761  -2.920   6.009  1.00  0.00     0.005 A 
ATOM     20  C   UNL     1       6.572  -3.671   3.429  1.00  0.00     0.015 A 
ATOM     21  C   UNL     1       5.587  -4.233   5.573  1.00  0.00     0.000 A 
ATOM     22  C   UNL     1       6.005  -4.611   4.293  1.00  0.00     0.001 A 
ENDBRANCH  13  14
ENDBRANCH  11  13
ENDBRANCH  10  11
ENDBRANCH   7  10
ENDBRANCH   6   7
ENDBRANCH   4   6
ENDBRANCH   3   4
ENDBRANCH   2   3
ENDBRANCH   1   2
BRANCH   1  23
ATOM     23  O   UNL     1       0.369   1.317   3.477  1.00  0.00    -0.374 OA
BRANCH  23  24
ATOM     24  C   UNL     1      -0.220   2.495   2.919  1.00  0.00     0.202 C 
BRANCH  24  25
ATOM     25  C   UNL     1      -1.249   2.252   1.815  1.00  0.00     0.261 C 
BRANCH  25  26
ATOM     26  O   UNL     1      -2.497   1.851   2.397  1.00  0.00    -0.460 OA
BRANCH  26  27
ATOM     27  C   UNL     1      -2.854   0.557   2.203  1.00  0.00     0.338 C 
ATOM     28  O   UNL     1      -2.333  -0.244   1.446  1.00  0.00    -0.246 OA
BRANCH  27  29
ATOM     29  C   UNL     1      -3.798   0.196   3.284  1.00  0.00     0.060 A 
ATOM     30  C   UNL     1      -4.792   1.082   3.708  1.00  0.00     0.016 A 
ATOM     31  C   UNL     1      -3.607  -1.029   3.942  1.00  0.00     0.016 A 
ATOM     32  C   UNL     1      -5.618   0.725   4.773  1.00  0.00     0.010 A 
ATOM     33  C   UNL     1      -4.424  -1.379   5.013  1.00  0.00     0.010 A 
ATOM     34  C   UNL     1      -5.453  -0.515   5.413  1.00  0.00    -0.014 A 
BRANCH  34  35
ATOM     35  C   UNL     1      -6.509  -1.013   6.320  1.00  0.00     0.031 A 
ATOM     36  C   UNL     1      -6.368  -0.989   7.806  1.00  0.00     0.074 A 
ATOM     37  C   UNL     1      -7.604  -1.535   5.737  1.00  0.00     0.049 A 
ATOM     38  N   UNL     1      -7.249  -1.328   8.709  1.00  0.00    -0.248 NA
ATOM     39  C   UNL     1      -5.082  -0.537   8.353  1.00  0.00     0.031 C 
ATOM     40  C   UNL     1      -7.796  -1.638   4.289  1.00  0.00     0.029 A 
ATOM     41  N   UNL     1      -8.745  -2.075   6.267  1.00  0.00    -0.354 N 
ATOM     42  C   UNL     1      -6.633  -1.128   9.936  1.00  0.00     0.074 A 
ATOM     43  C   UNL     1      -5.288  -0.668   9.659  1.00  0.00     0.031 C 
ATOM     44  C   UNL     1      -8.989  -2.192   4.045  1.00  0.00     0.029 A 
ATOM     45  C   UNL     1      -9.633  -2.517   5.315  1.00  0.00     0.049 A 
ATOM     46  H   UNL     1      -8.913  -2.142   7.235  1.00  0.00     0.167 HD
ATOM     47  C   UNL     1      -7.162  -1.307  11.170  1.00  0.00     0.034 A 
ATOM     48  C   UNL     1     -10.831  -3.120   5.443  1.00  0.00     0.034 A 
ATOM     49  C   UNL     1      -8.508  -1.774  11.400  1.00  0.00     0.049 A 
ATOM     50  C   UNL     1     -11.391  -3.316   6.824  1.00  0.00     0.074 A 
ATOM     51  C   UNL     1      -9.172  -1.892  12.608  1.00  0.00     0.029 A 
ATOM     52  N   UNL     1      -9.383  -2.223  10.419  1.00  0.00    -0.354 N 
ATOM     53  N   UNL     1     -10.857  -2.985   7.976  1.00  0.00    -0.248 NA
ATOM     54  C   UNL     1     -12.710  -3.949   6.933  1.00  0.00     0.031 C 
ATOM     55  C   UNL     1     -10.406  -2.495  12.368  1.00  0.00     0.029 A 
ATOM     56  C   UNL     1     -10.558  -2.672  11.001  1.00  0.00     0.049 A 
ATOM     57  H   UNL     1      -9.196  -2.222   9.452  1.00  0.00     0.167 HD
ATOM     58  C   UNL     1     -11.781  -3.353   8.948  1.00  0.00     0.074 A 
ATOM     59  C   UNL     1     -12.917  -3.914   8.245  1.00  0.00     0.031 C 
ATOM     60  C   UNL     1     -11.690  -3.232  10.296  1.00  0.00     0.034 A 
BRANCH  47  61
ATOM     61  C   UNL     1      -6.320  -0.998  12.384  1.00  0.00     0.023 A 
ATOM     62  C   UNL     1      -6.037  -2.013  13.319  1.00  0.00     0.031 A 
ATOM     63  C   UNL     1      -5.939   0.318  12.700  1.00  0.00     0.131 A 
ATOM     64  C   UNL     1      -5.428  -1.690  14.538  1.00  0.00     0.055 A 
ATOM     65  C   UNL     1      -5.296   0.629  13.900  1.00  0.00     0.041 A 
ATOM     66  F   UNL     1      -6.195   1.325  11.848  1.00  0.00    -0.206 F 
ATOM     67  C   UNL     1      -5.051  -0.376  14.831  1.00  0.00     0.022 A 
BRANCH  64  68
ATOM     68  S   UNL     1      -5.173  -2.946  15.823  1.00  0.00     0.124 S 
ATOM     69  O   UNL     1      -3.719  -2.931  15.969  1.00  0.00    -0.237 OA
ATOM     70  O   UNL     1      -5.917  -2.388  16.949  1.00  0.00    -0.237 OA
ATOM     71  O   UNL     1      -5.726  -4.163  15.240  1.00  0.00    -0.744 OA
ENDBRANCH  64  68
ENDBRANCH  47  61
BRANCH  48  72
ATOM     72  C   UNL     1     -11.571  -3.487   4.203  1.00  0.00     0.023 A 
ATOM     73  C   UNL     1     -11.023  -4.408   3.290  1.00  0.00     0.031 A 
ATOM     74  C   UNL     1     -12.726  -2.784   3.824  1.00  0.00     0.131 A 
ATOM     75  C   UNL     1     -11.574  -4.528   2.008  1.00  0.00     0.055 A 
ATOM     76  C   UNL     1     -13.316  -2.965   2.573  1.00  0.00     0.041 A 
ATOM     77  F   UNL     1     -13.270  -1.882   4.654  1.00  0.00    -0.206 F 
ATOM     78  C   UNL     1     -12.726  -3.824   1.649  1.00  0.00     0.022 A 
BRANCH  75  79
ATOM     79  S   UNL     1     -10.718  -5.471   0.715  1.00  0.00     0.124 S 
ATOM     80  O   UNL     1     -11.741  -6.429   0.308  1.00  0.00    -0.237 OA
ATOM     81  O   UNL     1     -10.409  -4.426  -0.258  1.00  0.00    -0.237 OA
ATOM     82  O   UNL     1      -9.564  -6.037   1.407  1.00  0.00    -0.744 OA
ENDBRANCH  75  79
ENDBRANCH  48  72
BRANCH  60  83
ATOM     83  C   UNL     1     -12.835  -3.724  11.148  1.00  0.00     0.023 A 
ATOM     84  C   UNL     1     -13.534  -2.820  11.971  1.00  0.00     0.031 A 
ATOM     85  C   UNL     1     -13.094  -5.097  11.296  1.00  0.00     0.131 A 
ATOM     86  C   UNL     1     -14.404  -3.303  12.955  1.00  0.00     0.055 A 
ATOM     87  C   UNL     1     -14.005  -5.571  12.242  1.00  0.00     0.041 A 
ATOM     88  F   UNL     1     -12.449  -5.998  10.539  1.00  0.00    -0.206 F 
ATOM     89  C   UNL     1     -14.649  -4.674  13.091  1.00  0.00     0.022 A 
BRANCH  86  90
ATOM     90  S   UNL     1     -15.162  -2.183  14.164  1.00  0.00     0.124 S 
ATOM     91  O   UNL     1     -16.586  -2.453  13.978  1.00  0.00    -0.237 OA
ATOM     92  O   UNL     1     -14.596  -2.661  15.422  1.00  0.00    -0.237 OA
ATOM     93  O   UNL     1     -14.723  -0.857  13.740  1.00  0.00    -0.744 OA
ENDBRANCH  86  90
ENDBRANCH  60  83
ENDBRANCH  34  35
ENDBRANCH  27  29
ENDBRANCH  26  27
ENDBRANCH  25  26
ENDBRANCH  24  25
ENDBRANCH  23  24
ENDBRANCH   1  23
TORSDOF 22
