REMARK SMILES Cc1ccc(C(=O)N[C@@H]2CCCCC[C@@H]2C(=O)OCCOCCOC(=O)c2ccc(-c3c4nc(c(-c5cc(S(=O)(=O)[O-])ccc5F)c5ccc([nH]5)c(-c5cc(S(=O)(=O)[O-])ccc5F)c5nc(c(-c6cc(S(=O)(=O)[O-])ccc6F)c6ccc3[nH]6)C=C5)C=C4)cc2)c(C)n1
REMARK SMILES IDX 21 1 20 2 19 3 18 4 16 5 17 6 15 7 9 8 8 9 6 10 7 11 5 13
REMARK SMILES IDX 1 14 2 15 3 16 92 17 4 18 90 19 91 20 10 21 11 22 14 24
REMARK SMILES IDX 13 25 12 26 22 28 23 29 24 30 25 31 26 32 27 33 28 34 89 35
REMARK SMILES IDX 29 36 88 37 30 38 31 39 32 40 82 41 33 42 87 43 81 44 83 45
REMARK SMILES IDX 34 46 86 47 80 48 79 49 35 51 67 52 47 53 66 54 48 55 51 56
REMARK SMILES IDX 65 57 84 58 49 59 50 60 64 62 85 63 52 64 36 65 37 66 45 67
REMARK SMILES IDX 38 68 44 69 46 70 43 71 39 72 40 73 41 74 42 75 68 76 69 77
REMARK SMILES IDX 77 78 70 79 76 80 78 81 75 82 71 83 72 84 73 85 74 86 53 87
REMARK SMILES IDX 54 88 62 89 55 90 61 91 63 92 60 93 56 94 57 95 58 96 59 97
REMARK H PARENT 8 12 83 50 51 61
REMARK Flexibility Score: 100.00
ROOT
ATOM      1  O   UNL     1       3.220  -6.748  -4.252  1.00  0.00    -0.374 OA
ENDROOT
BRANCH   1   2
ATOM      2  C   UNL     1       4.458  -6.361  -3.659  1.00  0.00     0.202 C 
BRANCH   2   3
ATOM      3  C   UNL     1       4.445  -5.169  -2.697  1.00  0.00     0.261 C 
BRANCH   3   4
ATOM      4  O   UNL     1       3.632  -5.406  -1.537  1.00  0.00    -0.463 OA
BRANCH   4   5
ATOM      5  C   UNL     1       2.400  -4.844  -1.585  1.00  0.00     0.311 C 
ATOM      6  O   UNL     1       1.977  -4.139  -2.496  1.00  0.00    -0.252 OA
BRANCH   5   7
ATOM      7  C   UNL     1       1.529  -5.218  -0.400  1.00  0.00     0.121 C 
BRANCH   7   8
ATOM      8  C   UNL     1       1.146  -3.936   0.357  1.00  0.00     0.096 C 
BRANCH   8   9
ATOM      9  N   UNL     1       2.189  -2.916   0.398  1.00  0.00    -0.348 N 
ATOM     10  C   UNL     1       2.182  -1.545   0.242  1.00  0.00     0.253 C 
ATOM     11  O   UNL     1       3.308  -1.054   0.162  1.00  0.00    -0.269 OA
ATOM     12  H   UNL     1       3.085  -3.283   0.572  1.00  0.00     0.164 HD
BRANCH  10  13
ATOM     13  C   UNL     1       0.953  -0.665   0.177  1.00  0.00     0.061 A 
ATOM     14  C   UNL     1      -2.470   1.931  -0.070  1.00  0.00     0.067 C 
ATOM     15  C   UNL     1      -1.298   1.006   0.006  1.00  0.00     0.038 A 
ATOM     16  C   UNL     1      -1.480  -0.347   0.161  1.00  0.00     0.024 A 
ATOM     17  N   UNL     1      -0.066   1.548  -0.032  1.00  0.00    -0.258 NA
ATOM     18  C   UNL     1      -0.355  -1.162   0.262  1.00  0.00     0.017 A 
ATOM     19  C   UNL     1       1.042   0.736   0.064  1.00  0.00     0.050 A 
ATOM     20  C   UNL     1       2.307   1.544   0.025  1.00  0.00     0.067 C 
ENDBRANCH  10  13
ENDBRANCH   8   9
BRANCH   8  21
ATOM     21  C   UNL     1       0.625  -4.152   1.782  1.00  0.00     0.026 C 
BRANCH  21  22
ATOM     22  C   UNL     1      -0.534  -5.136   1.853  1.00  0.00     0.002 CG0
ATOM     23  G   UNL     1      -0.068  -6.566   2.099  1.00  0.00     0.000 G0
ENDBRANCH  21  22
ENDBRANCH   8  21
ENDBRANCH   7   8
BRANCH   7  24
ATOM     24  C   UNL     1       1.955  -6.420   0.457  1.00  0.00     0.017 C 
BRANCH  24  25
ATOM     25  C   UNL     1       0.739  -7.212   0.974  1.00  0.00     0.001 C 
BRANCH  25  26
ATOM     26  C   UNL     1      -0.068  -6.566   2.099  1.00  0.00     0.000 CG0
ATOM     27  G   UNL     1      -0.534  -5.136   1.853  1.00  0.00     0.000 G0
ENDBRANCH  25  26
ENDBRANCH  24  25
ENDBRANCH   7  24
ENDBRANCH   5   7
ENDBRANCH   4   5
ENDBRANCH   3   4
ENDBRANCH   2   3
ENDBRANCH   1   2
BRANCH   1  28
ATOM     28  C   UNL     1       2.281  -7.480  -3.467  1.00  0.00     0.202 C 
BRANCH  28  29
ATOM     29  C   UNL     1       2.624  -8.922  -3.081  1.00  0.00     0.261 C 
BRANCH  29  30
ATOM     30  O   UNL     1       3.740  -9.001  -2.176  1.00  0.00    -0.460 OA
BRANCH  30  31
ATOM     31  C   UNL     1       4.837  -9.604  -2.695  1.00  0.00     0.338 C 
ATOM     32  O   UNL     1       4.934 -10.118  -3.803  1.00  0.00    -0.246 OA
BRANCH  31  33
ATOM     33  C   UNL     1       6.002  -9.398  -1.817  1.00  0.00     0.060 A 
ATOM     34  C   UNL     1       7.145  -8.822  -2.387  1.00  0.00     0.016 A 
ATOM     35  C   UNL     1       6.016  -9.848  -0.495  1.00  0.00     0.016 A 
ATOM     36  C   UNL     1       8.326  -8.744  -1.655  1.00  0.00     0.010 A 
ATOM     37  C   UNL     1       7.208  -9.779   0.235  1.00  0.00     0.010 A 
ATOM     38  C   UNL     1       8.377  -9.264  -0.355  1.00  0.00    -0.014 A 
BRANCH  38  39
ATOM     39  C   UNL     1       9.695  -9.426   0.308  1.00  0.00     0.031 A 
ATOM     40  C   UNL     1      10.361 -10.776   0.271  1.00  0.00     0.074 A 
ATOM     41  C   UNL     1      10.313  -8.379   0.882  1.00  0.00     0.049 A 
ATOM     42  N   UNL     1      11.490 -11.162   0.805  1.00  0.00    -0.248 NA
ATOM     43  C   UNL     1       9.652 -11.831  -0.470  1.00  0.00     0.031 C 
ATOM     44  C   UNL     1       9.796  -7.012   0.922  1.00  0.00     0.029 A 
ATOM     45  N   UNL     1      11.514  -8.303   1.542  1.00  0.00    -0.354 N 
ATOM     46  C   UNL     1      11.634 -12.502   0.460  1.00  0.00     0.074 A 
ATOM     47  C   UNL     1      10.451 -12.872  -0.289  1.00  0.00     0.031 C 
ATOM     48  C   UNL     1      10.672  -6.234   1.580  1.00  0.00     0.029 A 
ATOM     49  C   UNL     1      11.791  -7.053   2.042  1.00  0.00     0.049 A 
ATOM     50  H   UNL     1      12.120  -9.072   1.648  1.00  0.00     0.167 HD
ATOM     51  C   UNL     1      12.664 -13.342   0.730  1.00  0.00     0.034 A 
ATOM     52  C   UNL     1      12.818  -6.628   2.806  1.00  0.00     0.034 A 
ATOM     53  C   UNL     1      13.827 -12.964   1.494  1.00  0.00     0.049 A 
ATOM     54  C   UNL     1      13.899  -7.612   3.192  1.00  0.00     0.074 A 
ATOM     55  C   UNL     1      14.921 -13.738   1.843  1.00  0.00     0.029 A 
ATOM     56  N   UNL     1      14.046 -11.704   2.036  1.00  0.00    -0.354 N 
ATOM     57  N   UNL     1      14.017  -8.880   2.870  1.00  0.00    -0.248 NA
ATOM     58  C   UNL     1      14.987  -7.104   4.038  1.00  0.00     0.031 C 
ATOM     59  C   UNL     1      15.765 -12.967   2.650  1.00  0.00     0.029 A 
ATOM     60  C   UNL     1      15.240 -11.688   2.740  1.00  0.00     0.049 A 
ATOM     61  H   UNL     1      13.441 -10.934   1.935  1.00  0.00     0.167 HD
ATOM     62  C   UNL     1      15.212  -9.308   3.444  1.00  0.00     0.074 A 
ATOM     63  C   UNL     1      15.781  -8.161   4.120  1.00  0.00     0.031 C 
ATOM     64  C   UNL     1      15.792 -10.535   3.413  1.00  0.00     0.034 A 
BRANCH  51  65
ATOM     65  C   UNL     1      12.545 -14.762   0.232  1.00  0.00     0.023 A 
ATOM     66  C   UNL     1      12.507 -15.063  -1.141  1.00  0.00     0.031 A 
ATOM     67  C   UNL     1      12.435 -15.829   1.142  1.00  0.00     0.131 A 
ATOM     68  C   UNL     1      12.295 -16.384  -1.564  1.00  0.00     0.055 A 
ATOM     69  C   UNL     1      12.304 -17.151   0.714  1.00  0.00     0.041 A 
ATOM     70  F   UNL     1      12.440 -15.601   2.465  1.00  0.00    -0.206 F 
ATOM     71  C   UNL     1      12.219 -17.434  -0.646  1.00  0.00     0.022 A 
BRANCH  68  72
ATOM     72  S   UNL     1      11.980 -16.692  -3.323  1.00  0.00     0.124 S 
ATOM     73  O   UNL     1      10.791 -15.877  -3.557  1.00  0.00    -0.237 OA
ATOM     74  O   UNL     1      13.211 -16.224  -3.951  1.00  0.00    -0.237 OA
ATOM     75  O   UNL     1      11.759 -18.136  -3.384  1.00  0.00    -0.744 OA
ENDBRANCH  68  72
ENDBRANCH  51  65
BRANCH  52  76
ATOM     76  C   UNL     1      12.867  -5.221   3.302  1.00  0.00     0.023 A 
ATOM     77  C   UNL     1      13.922  -4.364   2.955  1.00  0.00     0.031 A 
ATOM     78  C   UNL     1      11.895  -4.739   4.198  1.00  0.00     0.131 A 
ATOM     79  C   UNL     1      14.014  -3.093   3.544  1.00  0.00     0.055 A 
ATOM     80  C   UNL     1      11.957  -3.452   4.734  1.00  0.00     0.041 A 
ATOM     81  F   UNL     1      10.865  -5.518   4.568  1.00  0.00    -0.206 F 
ATOM     82  C   UNL     1      13.032  -2.626   4.420  1.00  0.00     0.022 A 
BRANCH  79  83
ATOM     83  S   UNL     1      15.500  -2.099   3.234  1.00  0.00     0.124 S 
ATOM     84  O   UNL     1      16.557  -2.999   3.679  1.00  0.00    -0.237 OA
ATOM     85  O   UNL     1      15.415  -1.870   1.796  1.00  0.00    -0.237 OA
ATOM     86  O   UNL     1      15.296  -0.915   4.066  1.00  0.00    -0.744 OA
ENDBRANCH  79  83
ENDBRANCH  52  76
BRANCH  64  87
ATOM     87  C   UNL     1      17.137 -10.678   4.084  1.00  0.00     0.023 A 
ATOM     88  C   UNL     1      17.288 -10.565   5.477  1.00  0.00     0.031 A 
ATOM     89  C   UNL     1      18.288 -10.919   3.312  1.00  0.00     0.131 A 
ATOM     90  C   UNL     1      18.567 -10.636   6.050  1.00  0.00     0.055 A 
ATOM     91  C   UNL     1      19.550 -11.049   3.894  1.00  0.00     0.041 A 
ATOM     92  F   UNL     1      18.203 -11.036   1.977  1.00  0.00    -0.206 F 
ATOM     93  C   UNL     1      19.696 -10.894   5.269  1.00  0.00     0.022 A 
BRANCH  90  94
ATOM     94  S   UNL     1      18.748 -10.299   7.823  1.00  0.00     0.124 S 
ATOM     95  O   UNL     1      18.208  -8.948   7.933  1.00  0.00    -0.237 OA
ATOM     96  O   UNL     1      17.945 -11.357   8.426  1.00  0.00    -0.237 OA
ATOM     97  O   UNL     1      20.188 -10.411   8.049  1.00  0.00    -0.744 OA
ENDBRANCH  90  94
ENDBRANCH  64  87
ENDBRANCH  38  39
ENDBRANCH  31  33
ENDBRANCH  30  31
ENDBRANCH  29  30
ENDBRANCH  28  29
ENDBRANCH   1  28
TORSDOF 19
