REMARK SMILES COc1cc([C@@H]2CC(=O)Nc3c(C(=O)OCCOCCOC(=O)c4ccc(-c5c6nc(c(-c7cc(S(=O)(=O)[O-])ccc7F)c7ccc([nH]7)c(-c7cc(S(=O)(=O)[O-])ccc7F)c7nc(c(-c8cc(S(=O)(=O)[O-])ccc8F)c8ccc5[nH]8)C=C7)C=C6)cc4)cn(-c4ccc(F)cc4)c32)c(OC)c2c1OCO2
REMARK SMILES IDX 19 1 18 2 17 3 16 4 15 5 13 6 14 7 12 8 6 9 7 10 96 11 8 12
REMARK SMILES IDX 11 13 88 14 9 15 10 16 87 17 5 19 3 20 4 21 101 22 100 23
REMARK SMILES IDX 102 24 97 25 104 26 103 27 2 28 1 29 98 30 99 31 89 32 90 33
REMARK SMILES IDX 95 34 91 35 94 36 92 37 93 38 20 39 21 40 22 41 23 42 24 43
REMARK SMILES IDX 25 44 86 45 26 46 85 47 27 48 28 49 29 50 79 51 30 52 84 53
REMARK SMILES IDX 78 54 80 55 31 56 83 57 77 58 76 59 32 61 64 62 44 63 63 64
REMARK SMILES IDX 45 65 48 66 62 67 81 68 46 69 47 70 61 72 82 73 49 74 33 75
REMARK SMILES IDX 34 76 42 77 35 78 41 79 43 80 40 81 36 82 37 83 38 84 39 85
REMARK SMILES IDX 65 86 66 87 74 88 67 89 73 90 75 91 72 92 68 93 69 94 70 95
REMARK SMILES IDX 71 96 50 97 51 98 59 99 52 100 58 101 60 102 57 103 53 104
REMARK SMILES IDX 54 105 55 106 56 107
REMARK H PARENT 10 18 80 60 48 71
REMARK Flexibility Score: inf
ROOT
ATOM      1  C   UNL     1      -4.782  10.664   1.038  1.00  0.00     0.202 C 
ENDROOT
BRANCH   1   2
ATOM      2  O   UNL     1      -4.323  11.906   1.561  1.00  0.00    -0.374 OA
BRANCH   2   3
ATOM      3  C   UNL     1      -3.209  12.565   0.960  1.00  0.00     0.202 C 
BRANCH   3   4
ATOM      4  C   UNL     1      -1.810  12.003   1.226  1.00  0.00     0.261 C 
BRANCH   4   5
ATOM      5  O   UNL     1      -1.608  10.693   0.670  1.00  0.00    -0.460 OA
BRANCH   5   6
ATOM      6  C   UNL     1      -1.712   9.672   1.572  1.00  0.00     0.341 C 
ATOM      7  O   UNL     1      -1.883   9.819   2.773  1.00  0.00    -0.246 OA
BRANCH   6   8
ATOM      8  C   UNL     1      -1.720   8.361   0.941  1.00  0.00     0.102 A 
ATOM      9  C   UNL     1      -0.807   5.658  -1.444  1.00  0.00     0.082 C 
ATOM     10  C   UNL     1      -0.376   6.543  -2.631  1.00  0.00     0.115 C 
ATOM     11  C   UNL     1      -1.312   6.523  -0.325  1.00  0.00     0.055 A 
ATOM     12  C   UNL     1       0.196   7.908  -2.264  1.00  0.00     0.225 C 
ATOM     13  C   UNL     1      -1.081   7.878  -0.223  1.00  0.00     0.078 A 
ATOM     14  N   UNL     1      -2.180   6.168   0.686  1.00  0.00    -0.317 N 
ATOM     15  O   UNL     1       0.991   8.494  -3.000  1.00  0.00    -0.275 OA
ATOM     16  N   UNL     1      -0.299   8.530  -1.145  1.00  0.00    -0.324 N 
ATOM     17  C   UNL     1      -2.466   7.294   1.423  1.00  0.00     0.109 A 
ATOM     18  H   UNL     1      -0.085   9.480  -0.997  1.00  0.00     0.170 HD
BRANCH   9  19
ATOM     19  C   UNL     1       0.277   4.638  -1.076  1.00  0.00     0.012 A 
ATOM     20  C   UNL     1       0.875   2.246  -0.958  1.00  0.00     0.165 A 
ATOM     21  C   UNL     1      -0.038   3.261  -1.251  1.00  0.00     0.059 A 
ATOM     22  C   UNL     1       2.145   2.627  -0.579  1.00  0.00     0.211 A 
ATOM     23  C   UNL     1       2.485   3.960  -0.422  1.00  0.00     0.211 A 
ATOM     24  O   UNL     1       3.201   1.796  -0.343  1.00  0.00    -0.449 OA
ATOM     25  C   UNL     1       1.571   4.989  -0.634  1.00  0.00     0.168 A 
ATOM     26  O   UNL     1       3.794   4.092  -0.050  1.00  0.00    -0.449 OA
ATOM     27  C   UNL     1       4.263   2.741  -0.158  1.00  0.00     0.468 C 
BRANCH  20  28
ATOM     28  O   UNL     1       0.430   0.969  -1.138  1.00  0.00    -0.493 OA
ATOM     29  C   UNL     1       0.877   0.038  -0.156  1.00  0.00     0.278 C 
ENDBRANCH  20  28
BRANCH  25  30
ATOM     30  O   UNL     1       1.803   6.319  -0.450  1.00  0.00    -0.492 OA
ATOM     31  C   UNL     1       3.144   6.759  -0.292  1.00  0.00     0.278 C 
ENDBRANCH  25  30
ENDBRANCH   9  19
BRANCH  14  32
ATOM     32  C   UNL     1      -2.687   4.889   0.979  1.00  0.00     0.046 A 
ATOM     33  C   UNL     1      -1.798   3.881   1.363  1.00  0.00     0.029 A 
ATOM     34  C   UNL     1      -4.063   4.647   0.901  1.00  0.00     0.029 A 
ATOM     35  C   UNL     1      -2.278   2.595   1.592  1.00  0.00     0.041 A 
ATOM     36  C   UNL     1      -4.534   3.352   1.127  1.00  0.00     0.041 A 
ATOM     37  C   UNL     1      -3.638   2.338   1.457  1.00  0.00     0.123 A 
ATOM     38  F   UNL     1      -4.091   1.093   1.653  1.00  0.00    -0.207 F 
ENDBRANCH  14  32
ENDBRANCH   6   8
ENDBRANCH   5   6
ENDBRANCH   4   5
ENDBRANCH   3   4
ENDBRANCH   2   3
ENDBRANCH   1   2
BRANCH   1  39
ATOM     39  C   UNL     1      -5.440  10.642  -0.331  1.00  0.00     0.261 C 
BRANCH  39  40
ATOM     40  O   UNL     1      -4.566  11.109  -1.343  1.00  0.00    -0.460 OA
BRANCH  40  41
ATOM     41  C   UNL     1      -4.841  12.367  -1.770  1.00  0.00     0.338 C 
ATOM     42  O   UNL     1      -5.480  13.217  -1.185  1.00  0.00    -0.246 OA
BRANCH  41  43
ATOM     43  C   UNL     1      -4.368  12.481  -3.153  1.00  0.00     0.060 A 
ATOM     44  C   UNL     1      -4.724  13.647  -3.833  1.00  0.00     0.016 A 
ATOM     45  C   UNL     1      -3.932  11.327  -3.819  1.00  0.00     0.016 A 
ATOM     46  C   UNL     1      -4.904  13.566  -5.194  1.00  0.00     0.010 A 
ATOM     47  C   UNL     1      -4.145  11.239  -5.168  1.00  0.00     0.010 A 
ATOM     48  C   UNL     1      -4.721  12.328  -5.816  1.00  0.00    -0.014 A 
BRANCH  48  49
ATOM     49  C   UNL     1      -4.998  12.204  -7.227  1.00  0.00     0.031 A 
ATOM     50  C   UNL     1      -3.893  12.766  -8.029  1.00  0.00     0.074 A 
ATOM     51  C   UNL     1      -6.060  11.531  -7.709  1.00  0.00     0.049 A 
ATOM     52  N   UNL     1      -3.869  13.920  -8.605  1.00  0.00    -0.248 NA
ATOM     53  C   UNL     1      -2.572  12.116  -7.939  1.00  0.00     0.031 C 
ATOM     54  C   UNL     1      -7.058  10.743  -6.984  1.00  0.00     0.029 A 
ATOM     55  N   UNL     1      -6.421  11.344  -9.004  1.00  0.00    -0.354 N 
ATOM     56  C   UNL     1      -2.618  13.992  -9.199  1.00  0.00     0.074 A 
ATOM     57  C   UNL     1      -1.798  13.042  -8.505  1.00  0.00     0.031 C 
ATOM     58  C   UNL     1      -7.757   9.986  -7.865  1.00  0.00     0.029 A 
ATOM     59  C   UNL     1      -7.342  10.321  -9.219  1.00  0.00     0.049 A 
ATOM     60  H   UNL     1      -6.058  11.891  -9.738  1.00  0.00     0.167 HD
ATOM     61  C   UNL     1      -2.465  14.564 -10.422  1.00  0.00     0.034 A 
ATOM     62  C   UNL     1      -7.659   9.763 -10.424  1.00  0.00     0.034 A 
ATOM     63  C   UNL     1      -3.624  15.362 -10.764  1.00  0.00     0.049 A 
ATOM     64  C   UNL     1      -7.262  10.758 -11.461  1.00  0.00     0.074 A 
ATOM     65  C   UNL     1      -4.265  16.430 -10.164  1.00  0.00     0.029 A 
ATOM     66  N   UNL     1      -4.544  14.818 -11.636  1.00  0.00    -0.354 N 
ATOM     67  N   UNL     1      -7.848  11.921 -11.584  1.00  0.00    -0.248 NA
ATOM     68  C   UNL     1      -5.896  10.704 -11.970  1.00  0.00     0.031 C 
ATOM     69  C   UNL     1      -5.656  16.160 -10.324  1.00  0.00     0.029 A 
ATOM     70  C   UNL     1      -5.797  15.008 -11.101  1.00  0.00     0.049 A 
ATOM     71  H   UNL     1      -4.340  14.371 -12.489  1.00  0.00     0.167 HD
ATOM     72  C   UNL     1      -6.815  12.831 -11.762  1.00  0.00     0.074 A 
ATOM     73  C   UNL     1      -5.639  12.014 -12.067  1.00  0.00     0.031 C 
ATOM     74  C   UNL     1      -6.928  14.127 -11.339  1.00  0.00     0.034 A 
BRANCH  61  75
ATOM     75  C   UNL     1      -1.478  14.084 -11.461  1.00  0.00     0.023 A 
ATOM     76  C   UNL     1      -1.413  14.819 -12.657  1.00  0.00     0.031 A 
ATOM     77  C   UNL     1      -0.818  12.831 -11.474  1.00  0.00     0.131 A 
ATOM     78  C   UNL     1      -0.815  14.274 -13.804  1.00  0.00     0.055 A 
ATOM     79  C   UNL     1      -0.161  12.326 -12.597  1.00  0.00     0.041 A 
ATOM     80  F   UNL     1      -0.845  11.975 -10.447  1.00  0.00    -0.206 F 
ATOM     81  C   UNL     1      -0.184  13.034 -13.783  1.00  0.00     0.022 A 
BRANCH  78  82
ATOM     82  S   UNL     1      -1.033  15.145 -15.373  1.00  0.00     0.124 S 
ATOM     83  O   UNL     1      -2.486  15.239 -15.456  1.00  0.00    -0.237 OA
ATOM     84  O   UNL     1      -0.319  16.393 -15.124  1.00  0.00    -0.237 OA
ATOM     85  O   UNL     1      -0.408  14.251 -16.345  1.00  0.00    -0.744 OA
ENDBRANCH  78  82
ENDBRANCH  61  75
BRANCH  62  86
ATOM     86  C   UNL     1      -7.906   8.315 -10.719  1.00  0.00     0.023 A 
ATOM     87  C   UNL     1      -8.514   7.846 -11.911  1.00  0.00     0.031 A 
ATOM     88  C   UNL     1      -7.307   7.330  -9.899  1.00  0.00     0.131 A 
ATOM     89  C   UNL     1      -8.506   6.460 -12.226  1.00  0.00     0.055 A 
ATOM     90  C   UNL     1      -7.300   5.970 -10.217  1.00  0.00     0.041 A 
ATOM     91  F   UNL     1      -6.626   7.666  -8.793  1.00  0.00    -0.206 F 
ATOM     92  C   UNL     1      -7.892   5.529 -11.387  1.00  0.00     0.022 A 
BRANCH  89  93
ATOM     93  S   UNL     1      -9.232   5.836 -13.784  1.00  0.00     0.124 S 
ATOM     94  O   UNL     1     -10.656   6.081 -13.585  1.00  0.00    -0.237 OA
ATOM     95  O   UNL     1      -8.567   6.653 -14.792  1.00  0.00    -0.237 OA
ATOM     96  O   UNL     1      -8.852   4.422 -13.798  1.00  0.00    -0.744 OA
ENDBRANCH  89  93
ENDBRANCH  62  86
BRANCH  74  97
ATOM     97  C   UNL     1      -8.294  14.636 -10.907  1.00  0.00     0.023 A 
ATOM     98  C   UNL     1      -9.088  14.080  -9.874  1.00  0.00     0.031 A 
ATOM     99  C   UNL     1      -8.743  15.829 -11.498  1.00  0.00     0.131 A 
ATOM    100  C   UNL     1     -10.285  14.720  -9.483  1.00  0.00     0.055 A 
ATOM    101  C   UNL     1      -9.911  16.471 -11.091  1.00  0.00     0.041 A 
ATOM    102  F   UNL     1      -8.024  16.420 -12.468  1.00  0.00    -0.206 F 
ATOM    103  C   UNL     1     -10.690  15.915 -10.085  1.00  0.00     0.022 A 
BRANCH 100 104
ATOM    104  S   UNL     1     -11.358  13.997  -8.196  1.00  0.00     0.124 S 
ATOM    105  O   UNL     1     -11.469  12.598  -8.592  1.00  0.00    -0.237 OA
ATOM    106  O   UNL     1     -10.604  14.258  -6.973  1.00  0.00    -0.237 OA
ATOM    107  O   UNL     1     -12.599  14.765  -8.318  1.00  0.00    -0.744 OA
ENDBRANCH 100 104
ENDBRANCH  74  97
ENDBRANCH  48  49
ENDBRANCH  41  43
ENDBRANCH  40  41
ENDBRANCH  39  40
ENDBRANCH   1  39
TORSDOF 21
