REMARK SMILES Nc1oc2ccc(F)cc2c(=O)c1[C@@H]1[NH2+][C@H](C(=O)OCCOCCOC(=O)c2ccc(-c3c4nc(c(-c5cc(S(=O)(=O)[O-])ccc5F)c5ccc([nH]5)c(-c5cc(S(=O)(=O)[O-])ccc5F)c5nc(c(-c6cc(S(=O)(=O)[O-])ccc6F)c6ccc3[nH]6)C=C5)C=C4)cc2)CS1
REMARK SMILES IDX 23 1 22 2 21 3 20 4 19 5 17 6 18 7 16 8 14 9 15 10 92 11
REMARK SMILES IDX 91 14 13 15 2 16 3 17 4 18 11 19 5 20 10 21 12 22 6 23 9 24
REMARK SMILES IDX 7 25 8 26 1 27 24 30 25 31 26 32 27 33 28 34 29 35 90 36
REMARK SMILES IDX 30 37 89 38 31 39 32 40 33 41 83 42 34 43 88 44 82 45 84 46
REMARK SMILES IDX 35 47 87 48 81 49 80 50 36 52 68 53 48 54 67 55 49 56 52 57
REMARK SMILES IDX 66 58 85 59 50 60 51 61 65 63 86 64 53 65 37 66 38 67 46 68
REMARK SMILES IDX 39 69 45 70 47 71 44 72 40 73 41 74 42 75 43 76 69 77 70 78
REMARK SMILES IDX 78 79 71 80 77 81 79 82 76 83 72 84 73 85 74 86 75 87 54 88
REMARK SMILES IDX 55 89 63 90 56 91 62 92 64 93 61 94 57 95 58 96 59 97 60 98
REMARK H PARENT 15 12 15 13 1 28 1 29 84 51 52 62
REMARK Flexibility Score: inf
ROOT
ATOM      1  C   UNL     1      -1.520  -0.907   3.487  1.00  0.00     0.202 C 
ENDROOT
BRANCH   1   2
ATOM      2  O   UNL     1      -2.332   0.228   3.181  1.00  0.00    -0.374 OA
BRANCH   2   3
ATOM      3  C   UNL     1      -2.440   0.603   1.806  1.00  0.00     0.202 C 
BRANCH   3   4
ATOM      4  C   UNL     1      -1.218   1.286   1.195  1.00  0.00     0.261 C 
BRANCH   4   5
ATOM      5  O   UNL     1      -0.095   0.399   1.249  1.00  0.00    -0.459 OA
BRANCH   5   6
ATOM      6  C   UNL     1       1.058   0.901   1.749  1.00  0.00     0.365 C 
ATOM      7  O   UNL     1       1.247   2.085   2.019  1.00  0.00    -0.245 OA
BRANCH   6   8
ATOM      8  C   UNL     1       2.122  -0.166   2.036  1.00  0.00     0.304 C 
ATOM      9  C   UNL     1       2.188  -2.071   0.541  1.00  0.00     0.283 C 
ATOM     10  N   UNL     1       1.700  -1.579   1.835  1.00  0.00    -0.319 N 
ATOM     11  S   UNL     1       3.755  -1.229   0.196  1.00  0.00    -0.087 SA
ATOM     12  H   UNL     1       2.084  -2.155   2.583  1.00  0.00     0.348 HD
ATOM     13  H   UNL     1       0.681  -1.628   1.848  1.00  0.00     0.348 HD
ATOM     14  C   UNL     1       3.410   0.164   1.293  1.00  0.00     0.153 C 
BRANCH   9  15
ATOM     15  C   UNL     1       1.181  -2.012  -0.577  1.00  0.00     0.128 A 
ATOM     16  C   UNL     1       0.850  -0.964  -1.365  1.00  0.00     0.205 A 
ATOM     17  O   UNL     1      -0.147  -1.019  -2.319  1.00  0.00    -0.440 OA
ATOM     18  C   UNL     1      -0.461  -2.238  -2.838  1.00  0.00     0.140 A 
ATOM     19  C   UNL     1       0.515  -3.321  -0.879  1.00  0.00     0.205 A 
ATOM     20  C   UNL     1      -1.058  -2.259  -4.093  1.00  0.00     0.051 A 
ATOM     21  C   UNL     1      -0.189  -3.419  -2.166  1.00  0.00     0.068 A 
ATOM     22  O   UNL     1       0.618  -4.304  -0.154  1.00  0.00    -0.288 OA
ATOM     23  C   UNL     1      -1.403  -3.476  -4.675  1.00  0.00     0.043 A 
ATOM     24  C   UNL     1      -0.534  -4.646  -2.736  1.00  0.00     0.055 A 
ATOM     25  C   UNL     1      -1.139  -4.657  -3.990  1.00  0.00     0.124 A 
ATOM     26  F   UNL     1      -1.486  -5.827  -4.539  1.00  0.00    -0.207 F 
BRANCH  16  27
ATOM     27  N   UNL     1       1.437   0.270  -1.344  1.00  0.00    -0.369 N 
ATOM     28  H   UNL     1       1.126   0.973  -1.959  1.00  0.00     0.159 HD
ATOM     29  H   UNL     1       2.171   0.455  -0.715  1.00  0.00     0.159 HD
ENDBRANCH  16  27
ENDBRANCH   9  15
ENDBRANCH   6   8
ENDBRANCH   5   6
ENDBRANCH   4   5
ENDBRANCH   3   4
ENDBRANCH   2   3
ENDBRANCH   1   2
BRANCH   1  30
ATOM     30  C   UNL     1      -2.090  -2.301   3.189  1.00  0.00     0.261 C 
BRANCH  30  31
ATOM     31  O   UNL     1      -2.459  -2.508   1.818  1.00  0.00    -0.460 OA
BRANCH  31  32
ATOM     32  C   UNL     1      -3.787  -2.408   1.563  1.00  0.00     0.338 C 
ATOM     33  O   UNL     1      -4.677  -2.167   2.369  1.00  0.00    -0.246 OA
BRANCH  32  34
ATOM     34  C   UNL     1      -4.012  -2.460   0.106  1.00  0.00     0.060 A 
ATOM     35  C   UNL     1      -3.565  -3.542  -0.644  1.00  0.00     0.016 A 
ATOM     36  C   UNL     1      -4.732  -1.426  -0.507  1.00  0.00     0.016 A 
ATOM     37  C   UNL     1      -3.852  -3.581  -2.011  1.00  0.00     0.010 A 
ATOM     38  C   UNL     1      -5.017  -1.475  -1.878  1.00  0.00     0.010 A 
ATOM     39  C   UNL     1      -4.580  -2.554  -2.653  1.00  0.00    -0.014 A 
BRANCH  39  40
ATOM     40  C   UNL     1      -4.949  -2.710  -4.093  1.00  0.00     0.031 A 
ATOM     41  C   UNL     1      -4.427  -1.801  -5.174  1.00  0.00     0.074 A 
ATOM     42  C   UNL     1      -5.712  -3.763  -4.453  1.00  0.00     0.049 A 
ATOM     43  N   UNL     1      -4.366  -2.036  -6.462  1.00  0.00    -0.248 NA
ATOM     44  C   UNL     1      -3.857  -0.503  -4.783  1.00  0.00     0.031 C 
ATOM     45  C   UNL     1      -6.316  -4.710  -3.517  1.00  0.00     0.029 A 
ATOM     46  N   UNL     1      -6.096  -4.224  -5.690  1.00  0.00    -0.354 N 
ATOM     47  C   UNL     1      -3.654  -0.980  -7.014  1.00  0.00     0.074 A 
ATOM     48  C   UNL     1      -3.380  -0.053  -5.939  1.00  0.00     0.031 C 
ATOM     49  C   UNL     1      -6.966  -5.654  -4.209  1.00  0.00     0.029 A 
ATOM     50  C   UNL     1      -6.884  -5.349  -5.636  1.00  0.00     0.049 A 
ATOM     51  H   UNL     1      -5.832  -3.789  -6.533  1.00  0.00     0.167 HD
ATOM     52  C   UNL     1      -3.240  -0.821  -8.292  1.00  0.00     0.034 A 
ATOM     53  C   UNL     1      -7.499  -6.052  -6.612  1.00  0.00     0.034 A 
ATOM     54  C   UNL     1      -3.668  -1.647  -9.392  1.00  0.00     0.049 A 
ATOM     55  C   UNL     1      -7.251  -5.684  -8.050  1.00  0.00     0.074 A 
ATOM     56  C   UNL     1      -3.335  -1.520 -10.729  1.00  0.00     0.029 A 
ATOM     57  N   UNL     1      -4.584  -2.683  -9.307  1.00  0.00    -0.354 N 
ATOM     58  N   UNL     1      -6.412  -4.801  -8.538  1.00  0.00    -0.248 NA
ATOM     59  C   UNL     1      -8.018  -6.406  -9.074  1.00  0.00     0.031 C 
ATOM     60  C   UNL     1      -4.150  -2.382 -11.462  1.00  0.00     0.029 A 
ATOM     61  C   UNL     1      -4.908  -3.132 -10.577  1.00  0.00     0.049 A 
ATOM     62  H   UNL     1      -4.950  -3.047  -8.468  1.00  0.00     0.167 HD
ATOM     63  C   UNL     1      -6.534  -4.877  -9.923  1.00  0.00     0.074 A 
ATOM     64  C   UNL     1      -7.513  -5.907 -10.196  1.00  0.00     0.031 C 
ATOM     65  C   UNL     1      -5.886  -4.155 -10.871  1.00  0.00     0.034 A 
BRANCH  52  66
ATOM     66  C   UNL     1      -2.276   0.291  -8.610  1.00  0.00     0.023 A 
ATOM     67  C   UNL     1      -2.676   1.370  -9.417  1.00  0.00     0.031 A 
ATOM     68  C   UNL     1      -0.914   0.169  -8.278  1.00  0.00     0.131 A 
ATOM     69  C   UNL     1      -1.714   2.263  -9.905  1.00  0.00     0.055 A 
ATOM     70  C   UNL     1       0.037   1.075  -8.751  1.00  0.00     0.041 A 
ATOM     71  F   UNL     1      -0.489  -0.849  -7.511  1.00  0.00    -0.206 F 
ATOM     72  C   UNL     1      -0.361   2.120  -9.580  1.00  0.00     0.022 A 
BRANCH  69  73
ATOM     73  S   UNL     1      -2.175   3.605 -11.034  1.00  0.00     0.124 S 
ATOM     74  O   UNL     1      -1.714   4.781 -10.300  1.00  0.00    -0.237 OA
ATOM     75  O   UNL     1      -1.409   3.275 -12.231  1.00  0.00    -0.237 OA
ATOM     76  O   UNL     1      -3.624   3.479 -11.152  1.00  0.00    -0.744 OA
ENDBRANCH  69  73
ENDBRANCH  52  66
BRANCH  53  77
ATOM     77  C   UNL     1      -8.415  -7.165  -6.221  1.00  0.00     0.023 A 
ATOM     78  C   UNL     1      -9.507  -6.907  -5.369  1.00  0.00     0.031 A 
ATOM     79  C   UNL     1      -8.165  -8.496  -6.585  1.00  0.00     0.131 A 
ATOM     80  C   UNL     1     -10.243  -7.967  -4.832  1.00  0.00     0.055 A 
ATOM     81  C   UNL     1      -8.958  -9.546  -6.115  1.00  0.00     0.041 A 
ATOM     82  F   UNL     1      -7.136  -8.796  -7.392  1.00  0.00    -0.206 F 
ATOM     83  C   UNL     1      -9.988  -9.286  -5.215  1.00  0.00     0.022 A 
BRANCH  80  84
ATOM     84  S   UNL     1     -11.443  -7.675  -3.502  1.00  0.00     0.124 S 
ATOM     85  O   UNL     1     -12.683  -8.157  -4.099  1.00  0.00    -0.237 OA
ATOM     86  O   UNL     1     -10.898  -8.498  -2.424  1.00  0.00    -0.237 OA
ATOM     87  O   UNL     1     -11.367  -6.235  -3.279  1.00  0.00    -0.744 OA
ENDBRANCH  80  84
ENDBRANCH  53  77
BRANCH  65  88
ATOM     88  C   UNL     1      -6.197  -4.405 -12.330  1.00  0.00     0.023 A 
ATOM     89  C   UNL     1      -5.169  -4.798 -13.209  1.00  0.00     0.031 A 
ATOM     90  C   UNL     1      -7.447  -4.075 -12.880  1.00  0.00     0.131 A 
ATOM     91  C   UNL     1      -5.386  -4.780 -14.592  1.00  0.00     0.055 A 
ATOM     92  C   UNL     1      -7.679  -4.123 -14.257  1.00  0.00     0.041 A 
ATOM     93  F   UNL     1      -8.460  -3.685 -12.089  1.00  0.00    -0.206 F 
ATOM     94  C   UNL     1      -6.639  -4.455 -15.121  1.00  0.00     0.022 A 
BRANCH  91  95
ATOM     95  S   UNL     1      -4.021  -5.058 -15.756  1.00  0.00     0.124 S 
ATOM     96  O   UNL     1      -4.494  -6.219 -16.505  1.00  0.00    -0.237 OA
ATOM     97  O   UNL     1      -3.995  -3.803 -16.502  1.00  0.00    -0.237 OA
ATOM     98  O   UNL     1      -2.868  -5.300 -14.895  1.00  0.00    -0.744 OA
ENDBRANCH  91  95
ENDBRANCH  65  88
ENDBRANCH  39  40
ENDBRANCH  32  34
ENDBRANCH  31  32
ENDBRANCH  30  31
ENDBRANCH   1  30
TORSDOF 19
