REMARK SMILES NC(=O)c1c(-c2ccc(Cl)cc2)csc1NC(=O)[C@H]1[C@@H](C(=O)OCCOCCOC(=O)c2ccc(-c3c4nc(c(-c5cc(S(=O)(=O)[O-])ccc5F)c5ccc([nH]5)c(-c5cc(S(=O)(=O)[O-])ccc5F)c5nc(c(-c6cc(S(=O)(=O)[O-])ccc6F)c6ccc3[nH]6)C=C5)C=C4)cc2)[C@@H]2CC[C@H]1O2
REMARK SMILES IDX 26 1 25 2 24 3 23 4 21 5 22 6 20 7 19 8 98 9 95 10 97 11
REMARK SMILES IDX 99 12 96 13 17 14 16 15 18 17 15 18 4 19 5 20 13 21 14 22
REMARK SMILES IDX 2 23 1 24 3 27 6 28 7 29 12 30 8 31 11 32 9 33 10 34 27 35
REMARK SMILES IDX 28 36 29 37 30 38 31 39 32 40 33 41 94 42 34 43 93 44 35 45
REMARK SMILES IDX 36 46 37 47 87 48 38 49 92 50 86 51 88 52 39 53 91 54 85 55
REMARK SMILES IDX 84 56 40 58 72 59 52 60 71 61 53 62 56 63 70 64 89 65 54 66
REMARK SMILES IDX 55 67 69 69 90 70 57 71 41 72 42 73 50 74 43 75 49 76 51 77
REMARK SMILES IDX 48 78 44 79 45 80 46 81 47 82 73 83 74 84 82 85 75 86 81 87
REMARK SMILES IDX 83 88 80 89 76 90 77 91 78 92 79 93 58 94 59 95 67 96 60 97
REMARK SMILES IDX 66 98 68 99 65 100 61 101 62 102 63 103 64 104
REMARK H PARENT 16 16 1 25 1 26 88 57 56 68
REMARK Flexibility Score: inf
ROOT
ATOM      1  O   UNL     1      -0.596 -10.660  -2.208  1.00  0.00    -0.374 OA
ENDROOT
BRANCH   1   2
ATOM      2  C   UNL     1      -0.231 -11.560  -1.182  1.00  0.00     0.202 C 
BRANCH   2   3
ATOM      3  C   UNL     1      -0.191 -11.216   0.326  1.00  0.00     0.261 C 
BRANCH   3   4
ATOM      4  O   UNL     1      -0.482  -9.910   0.825  1.00  0.00    -0.463 OA
BRANCH   4   5
ATOM      5  C   UNL     1       0.394  -8.971   0.396  1.00  0.00     0.312 C 
ATOM      6  O   UNL     1       1.109  -9.131  -0.582  1.00  0.00    -0.252 OA
BRANCH   5   7
ATOM      7  C   UNL     1       0.216  -7.654   1.087  1.00  0.00     0.143 C 
ATOM      8  C   UNL     1       1.302  -6.629   0.750  1.00  0.00     0.124 C 
ATOM      9  C   UNL     1       1.477  -5.908   2.076  1.00  0.00     0.132 C 
ATOM     10  C   UNL     1       0.186  -7.583   2.626  1.00  0.00     0.133 C 
ATOM     11  C   UNL     1       0.174  -5.211   2.514  1.00  0.00     0.035 C 
ATOM     12  O   UNL     1       1.474  -7.024   2.981  1.00  0.00    -0.373 OA
ATOM     13  C   UNL     1      -0.648  -6.383   3.082  1.00  0.00     0.036 C 
BRANCH   8  14
ATOM     14  C   UNL     1       2.642  -6.965   0.059  1.00  0.00     0.231 C 
ATOM     15  N   UNL     1       3.461  -8.049   0.189  1.00  0.00    -0.317 N 
ATOM     16  H   UNL     1       4.239  -8.020  -0.414  1.00  0.00     0.170 HD
ATOM     17  O   UNL     1       3.019  -6.126  -0.784  1.00  0.00    -0.274 OA
BRANCH  15  18
ATOM     18  C   UNL     1       3.434  -9.181   0.987  1.00  0.00     0.108 A 
ATOM     19  C   UNL     1       3.596 -10.510   0.584  1.00  0.00     0.082 A 
ATOM     20  C   UNL     1       3.357 -11.405   1.713  1.00  0.00     0.007 A 
ATOM     21  C   UNL     1       3.236 -10.698   2.894  1.00  0.00     0.076 A 
ATOM     22  S   UNL     1       3.437  -9.025   2.666  1.00  0.00    -0.125 S 
BRANCH  19  23
ATOM     23  C   UNL     1       3.845 -10.832  -0.825  1.00  0.00     0.252 C 
ATOM     24  N   UNL     1       3.434 -12.048  -1.286  1.00  0.00    -0.365 N 
ATOM     25  H   UNL     1       3.587 -12.295  -2.227  1.00  0.00     0.159 HD
ATOM     26  H   UNL     1       2.986 -12.679  -0.678  1.00  0.00     0.159 HD
ATOM     27  O   UNL     1       4.400 -10.049  -1.593  1.00  0.00    -0.269 OA
ENDBRANCH  19  23
BRANCH  20  28
ATOM     28  C   UNL     1       3.179 -12.857   1.735  1.00  0.00    -0.017 A 
ATOM     29  C   UNL     1       1.935 -13.396   2.101  1.00  0.00     0.010 A 
ATOM     30  C   UNL     1       4.198 -13.724   1.327  1.00  0.00     0.010 A 
ATOM     31  C   UNL     1       1.690 -14.763   1.970  1.00  0.00     0.021 A 
ATOM     32  C   UNL     1       3.960 -15.103   1.244  1.00  0.00     0.021 A 
ATOM     33  C   UNL     1       2.702 -15.615   1.551  1.00  0.00     0.041 A 
ATOM     34  Cl  UNL     1       2.382 -17.295   1.393  1.00  0.00    -0.084 Cl
ENDBRANCH  20  28
ENDBRANCH  15  18
ENDBRANCH   8  14
ENDBRANCH   5   7
ENDBRANCH   4   5
ENDBRANCH   3   4
ENDBRANCH   2   3
ENDBRANCH   1   2
BRANCH   1  35
ATOM     35  C   UNL     1      -1.631  -9.718  -2.028  1.00  0.00     0.202 C 
BRANCH  35  36
ATOM     36  C   UNL     1      -3.033 -10.207  -1.661  1.00  0.00     0.261 C 
BRANCH  36  37
ATOM     37  O   UNL     1      -3.057 -11.215  -0.642  1.00  0.00    -0.460 OA
BRANCH  37  38
ATOM     38  C   UNL     1      -3.314 -12.470  -1.106  1.00  0.00     0.338 C 
ATOM     39  O   UNL     1      -3.565 -12.786  -2.248  1.00  0.00    -0.246 OA
BRANCH  38  40
ATOM     40  C   UNL     1      -3.038 -13.454  -0.032  1.00  0.00     0.060 A 
ATOM     41  C   UNL     1      -2.221 -14.547  -0.347  1.00  0.00     0.016 A 
ATOM     42  C   UNL     1      -3.575 -13.322   1.251  1.00  0.00     0.016 A 
ATOM     43  C   UNL     1      -1.964 -15.527   0.610  1.00  0.00     0.010 A 
ATOM     44  C   UNL     1      -3.356 -14.332   2.198  1.00  0.00     0.010 A 
ATOM     45  C   UNL     1      -2.579 -15.456   1.870  1.00  0.00    -0.014 A 
BRANCH  45  46
ATOM     46  C   UNL     1      -2.619 -16.685   2.707  1.00  0.00     0.031 A 
ATOM     47  C   UNL     1      -3.603 -17.756   2.316  1.00  0.00     0.074 A 
ATOM     48  C   UNL     1      -1.785 -16.880   3.745  1.00  0.00     0.049 A 
ATOM     49  N   UNL     1      -3.810 -18.930   2.850  1.00  0.00    -0.248 NA
ATOM     50  C   UNL     1      -4.485 -17.447   1.177  1.00  0.00     0.031 C 
ATOM     51  C   UNL     1      -0.807 -15.915   4.231  1.00  0.00     0.029 A 
ATOM     52  N   UNL     1      -1.606 -17.972   4.559  1.00  0.00    -0.354 N 
ATOM     53  C   UNL     1      -4.845 -19.500   2.118  1.00  0.00     0.074 A 
ATOM     54  C   UNL     1      -5.226 -18.541   1.104  1.00  0.00     0.031 C 
ATOM     55  C   UNL     1      -0.065 -16.489   5.195  1.00  0.00     0.029 A 
ATOM     56  C   UNL     1      -0.578 -17.831   5.466  1.00  0.00     0.049 A 
ATOM     57  H   UNL     1      -2.161 -18.783   4.499  1.00  0.00     0.167 HD
ATOM     58  C   UNL     1      -5.444 -20.703   2.288  1.00  0.00     0.034 A 
ATOM     59  C   UNL     1      -0.129 -18.676   6.420  1.00  0.00     0.034 A 
ATOM     60  C   UNL     1      -5.106 -21.624   3.341  1.00  0.00     0.049 A 
ATOM     61  C   UNL     1      -0.850 -19.995   6.615  1.00  0.00     0.074 A 
ATOM     62  C   UNL     1      -5.699 -22.837   3.647  1.00  0.00     0.029 A 
ATOM     63  N   UNL     1      -4.095 -21.429   4.271  1.00  0.00    -0.354 N 
ATOM     64  N   UNL     1      -1.843 -20.510   5.924  1.00  0.00    -0.248 NA
ATOM     65  C   UNL     1      -0.406 -20.835   7.737  1.00  0.00     0.031 C 
ATOM     66  C   UNL     1      -5.088 -23.343   4.800  1.00  0.00     0.029 A 
ATOM     67  C   UNL     1      -4.062 -22.487   5.166  1.00  0.00     0.049 A 
ATOM     68  H   UNL     1      -3.490 -20.653   4.293  1.00  0.00     0.167 HD
ATOM     69  C   UNL     1      -2.133 -21.732   6.529  1.00  0.00     0.074 A 
ATOM     70  C   UNL     1      -1.180 -21.901   7.604  1.00  0.00     0.031 C 
ATOM     71  C   UNL     1      -3.112 -22.630   6.242  1.00  0.00     0.034 A 
BRANCH  58  72
ATOM     72  C   UNL     1      -6.582 -21.032   1.360  1.00  0.00     0.023 A 
ATOM     73  C   UNL     1      -6.375 -21.242  -0.014  1.00  0.00     0.031 A 
ATOM     74  C   UNL     1      -7.900 -21.086   1.848  1.00  0.00     0.131 A 
ATOM     75  C   UNL     1      -7.474 -21.436  -0.863  1.00  0.00     0.055 A 
ATOM     76  C   UNL     1      -8.982 -21.355   1.010  1.00  0.00     0.041 A 
ATOM     77  F   UNL     1      -8.157 -20.858   3.145  1.00  0.00    -0.206 F 
ATOM     78  C   UNL     1      -8.774 -21.520  -0.356  1.00  0.00     0.022 A 
BRANCH  75  79
ATOM     79  S   UNL     1      -7.195 -21.447  -2.654  1.00  0.00     0.124 S 
ATOM     80  O   UNL     1      -6.664 -20.104  -2.876  1.00  0.00    -0.237 OA
ATOM     81  O   UNL     1      -6.249 -22.544  -2.821  1.00  0.00    -0.237 OA
ATOM     82  O   UNL     1      -8.527 -21.682  -3.207  1.00  0.00    -0.744 OA
ENDBRANCH  75  79
ENDBRANCH  58  72
BRANCH  59  83
ATOM     83  C   UNL     1       1.002 -18.305   7.332  1.00  0.00     0.023 A 
ATOM     84  C   UNL     1       2.137 -19.128   7.452  1.00  0.00     0.031 A 
ATOM     85  C   UNL     1       0.912 -17.194   8.190  1.00  0.00     0.131 A 
ATOM     86  C   UNL     1       3.091 -18.871   8.451  1.00  0.00     0.055 A 
ATOM     87  C   UNL     1       1.904 -16.897   9.127  1.00  0.00     0.041 A 
ATOM     88  F   UNL     1      -0.154 -16.380   8.142  1.00  0.00    -0.206 F 
ATOM     89  C   UNL     1       2.991 -17.750   9.277  1.00  0.00     0.022 A 
BRANCH  86  90
ATOM     90  S   UNL     1       4.383 -20.109   8.764  1.00  0.00     0.124 S 
ATOM     91  O   UNL     1       3.589 -21.307   9.012  1.00  0.00    -0.237 OA
ATOM     92  O   UNL     1       5.136 -20.083   7.515  1.00  0.00    -0.237 OA
ATOM     93  O   UNL     1       5.089 -19.576   9.927  1.00  0.00    -0.744 OA
ENDBRANCH  86  90
ENDBRANCH  59  83
BRANCH  71  94
ATOM     94  C   UNL     1      -3.176 -23.876   7.094  1.00  0.00     0.023 A 
ATOM     95  C   UNL     1      -3.483 -23.817   8.465  1.00  0.00     0.031 A 
ATOM     96  C   UNL     1      -2.912 -25.136   6.530  1.00  0.00     0.131 A 
ATOM     97  C   UNL     1      -3.455 -24.987   9.240  1.00  0.00     0.055 A 
ATOM     98  C   UNL     1      -2.948 -26.305   7.292  1.00  0.00     0.041 A 
ATOM     99  F   UNL     1      -2.615 -25.253   5.226  1.00  0.00    -0.206 F 
ATOM    100  C   UNL     1      -3.205 -26.232   8.658  1.00  0.00     0.022 A 
BRANCH  97 101
ATOM    101  S   UNL     1      -3.647 -24.846  11.038  1.00  0.00     0.124 S 
ATOM    102  O   UNL     1      -2.568 -23.929  11.389  1.00  0.00    -0.237 OA
ATOM    103  O   UNL     1      -5.001 -24.316  11.166  1.00  0.00    -0.237 OA
ATOM    104  O   UNL     1      -3.473 -26.219  11.510  1.00  0.00    -0.744 OA
ENDBRANCH  97 101
ENDBRANCH  71  94
ENDBRANCH  45  46
ENDBRANCH  38  40
ENDBRANCH  37  38
ENDBRANCH  36  37
ENDBRANCH  35  36
ENDBRANCH   1  35
TORSDOF 21
