REMARK SMILES O=C(OCCOCCOC(=O)c1cc(Br)cc2c1OCC2)c1ccc(-c2c3nc(c(-c4cc(S(=O)(=O)[O-])ccc4F)c4ccc([nH]4)c(-c4cc(S(=O)(=O)[O-])ccc4F)c4nc(c(-c5cc(S(=O)(=O)[O-])ccc5F)c5ccc2[nH]5)C=C4)C=C3)cc1
REMARK SMILES IDX 4 1 3 2 2 3 1 4 22 5 23 6 84 7 24 8 83 9 25 10 26 11 27 12
REMARK SMILES IDX 77 13 28 14 82 15 76 16 78 17 29 18 81 19 75 20 74 21 30 23
REMARK SMILES IDX 62 24 42 25 61 26 43 27 46 28 60 29 79 30 44 31 45 32 59 34
REMARK SMILES IDX 80 35 47 36 31 37 32 38 40 39 33 40 39 41 41 42 38 43 34 44
REMARK SMILES IDX 35 45 36 46 37 47 63 48 64 49 72 50 65 51 71 52 73 53 70 54
REMARK SMILES IDX 66 55 67 56 68 57 69 58 48 59 49 60 57 61 50 62 56 63 58 64
REMARK SMILES IDX 55 65 51 66 52 67 53 68 54 69 5 70 6 71 7 72 8 73 9 74 10 75
REMARK SMILES IDX 11 76 12 77 13 78 18 79 14 80 17 81 19 82 15 83 16 84 21 85
REMARK SMILES IDX 20 86
REMARK H PARENT 78 22 46 33
REMARK Flexibility Score: inf
ROOT
ATOM      1  C   UNL     1       3.730  -0.455  -1.169  1.00  0.00     0.261 C 
ENDROOT
BRANCH   1   2
ATOM      2  O   UNL     1       2.350  -0.599  -0.797  1.00  0.00    -0.460 OA
BRANCH   2   3
ATOM      3  C   UNL     1       1.867  -1.050   0.387  1.00  0.00     0.338 C 
ATOM      4  O   UNL     1       0.654  -1.216   0.503  1.00  0.00    -0.246 OA
BRANCH   3   5
ATOM      5  C   UNL     1       2.737  -1.365   1.560  1.00  0.00     0.060 A 
ATOM      6  C   UNL     1       3.950  -0.734   1.829  1.00  0.00     0.016 A 
ATOM      7  C   UNL     1       2.263  -2.296   2.499  1.00  0.00     0.016 A 
ATOM      8  C   UNL     1       4.708  -1.046   2.940  1.00  0.00     0.010 A 
ATOM      9  C   UNL     1       2.994  -2.579   3.660  1.00  0.00     0.010 A 
ATOM     10  C   UNL     1       4.226  -1.952   3.876  1.00  0.00    -0.014 A 
BRANCH  10  11
ATOM     11  C   UNL     1       5.111  -2.254   5.014  1.00  0.00     0.031 A 
ATOM     12  C   UNL     1       5.858  -3.549   5.008  1.00  0.00     0.074 A 
ATOM     13  C   UNL     1       5.374  -1.281   5.908  1.00  0.00     0.049 A 
ATOM     14  N   UNL     1       6.688  -4.029   5.891  1.00  0.00    -0.248 NA
ATOM     15  C   UNL     1       5.654  -4.413   3.833  1.00  0.00     0.031 C 
ATOM     16  C   UNL     1       4.793   0.067   5.876  1.00  0.00     0.029 A 
ATOM     17  N   UNL     1       6.226  -1.247   6.977  1.00  0.00    -0.354 N 
ATOM     18  C   UNL     1       7.100  -5.257   5.388  1.00  0.00     0.074 A 
ATOM     19  C   UNL     1       6.409  -5.458   4.133  1.00  0.00     0.031 C 
ATOM     20  C   UNL     1       5.335   0.802   6.858  1.00  0.00     0.029 A 
ATOM     21  C   UNL     1       6.227  -0.041   7.642  1.00  0.00     0.049 A 
ATOM     22  H   UNL     1       6.786  -2.011   7.245  1.00  0.00     0.167 HD
ATOM     23  C   UNL     1       7.977  -6.129   5.937  1.00  0.00     0.034 A 
ATOM     24  C   UNL     1       6.848   0.315   8.783  1.00  0.00     0.034 A 
ATOM     25  C   UNL     1       8.618  -5.889   7.206  1.00  0.00     0.049 A 
ATOM     26  C   UNL     1       7.714  -0.728   9.445  1.00  0.00     0.074 A 
ATOM     27  C   UNL     1       9.419  -6.732   7.952  1.00  0.00     0.029 A 
ATOM     28  N   UNL     1       8.524  -4.695   7.917  1.00  0.00    -0.354 N 
ATOM     29  N   UNL     1       8.005  -1.943   9.029  1.00  0.00    -0.248 NA
ATOM     30  C   UNL     1       8.328  -0.365  10.725  1.00  0.00     0.031 C 
ATOM     31  C   UNL     1       9.764  -6.068   9.136  1.00  0.00     0.029 A 
ATOM     32  C   UNL     1       9.241  -4.784   9.098  1.00  0.00     0.049 A 
ATOM     33  H   UNL     1       8.021  -3.902   7.622  1.00  0.00     0.167 HD
ATOM     34  C   UNL     1       8.847  -2.483   9.993  1.00  0.00     0.074 A 
ATOM     35  C   UNL     1       9.045  -1.447  10.990  1.00  0.00     0.031 C 
ATOM     36  C   UNL     1       9.402  -3.722  10.065  1.00  0.00     0.034 A 
BRANCH  23  37
ATOM     37  C   UNL     1       8.184  -7.432   5.207  1.00  0.00     0.023 A 
ATOM     38  C   UNL     1       8.766  -7.480   3.927  1.00  0.00     0.031 A 
ATOM     39  C   UNL     1       7.691  -8.631   5.751  1.00  0.00     0.131 A 
ATOM     40  C   UNL     1       8.762  -8.682   3.201  1.00  0.00     0.055 A 
ATOM     41  C   UNL     1       7.764  -9.841   5.056  1.00  0.00     0.041 A 
ATOM     42  F   UNL     1       7.093  -8.642   6.952  1.00  0.00    -0.206 F 
ATOM     43  C   UNL     1       8.286  -9.868   3.766  1.00  0.00     0.022 A 
BRANCH  40  44
ATOM     44  S   UNL     1       9.236  -8.643   1.449  1.00  0.00     0.124 S 
ATOM     45  O   UNL     1       8.226  -7.747   0.890  1.00  0.00    -0.237 OA
ATOM     46  O   UNL     1      10.596  -8.120   1.499  1.00  0.00    -0.237 OA
ATOM     47  O   UNL     1       9.120 -10.039   1.030  1.00  0.00    -0.744 OA
ENDBRANCH  40  44
ENDBRANCH  23  37
BRANCH  24  48
ATOM     48  C   UNL     1       6.603   1.648   9.414  1.00  0.00     0.023 A 
ATOM     49  C   UNL     1       7.654   2.531   9.713  1.00  0.00     0.031 A 
ATOM     50  C   UNL     1       5.303   2.032   9.799  1.00  0.00     0.131 A 
ATOM     51  C   UNL     1       7.395   3.718  10.421  1.00  0.00     0.055 A 
ATOM     52  C   UNL     1       5.042   3.244  10.440  1.00  0.00     0.041 A 
ATOM     53  F   UNL     1       4.255   1.228   9.557  1.00  0.00    -0.206 F 
ATOM     54  C   UNL     1       6.094   4.088  10.771  1.00  0.00     0.022 A 
BRANCH  51  55
ATOM     55  S   UNL     1       8.798   4.717  10.994  1.00  0.00     0.124 S 
ATOM     56  O   UNL     1       9.590   3.730  11.719  1.00  0.00    -0.237 OA
ATOM     57  O   UNL     1       9.363   5.195   9.737  1.00  0.00    -0.237 OA
ATOM     58  O   UNL     1       8.169   5.743  11.823  1.00  0.00    -0.744 OA
ENDBRANCH  51  55
ENDBRANCH  24  48
BRANCH  36  59
ATOM     59  C   UNL     1      10.297  -3.982  11.248  1.00  0.00     0.023 A 
ATOM     60  C   UNL     1       9.787  -4.036  12.556  1.00  0.00     0.031 A 
ATOM     61  C   UNL     1      11.679  -4.154  11.062  1.00  0.00     0.131 A 
ATOM     62  C   UNL     1      10.664  -4.191  13.637  1.00  0.00     0.055 A 
ATOM     63  C   UNL     1      12.539  -4.373  12.137  1.00  0.00     0.041 A 
ATOM     64  F   UNL     1      12.214  -4.109   9.831  1.00  0.00    -0.206 F 
ATOM     65  C   UNL     1      12.035  -4.377  13.435  1.00  0.00     0.022 A 
BRANCH  62  66
ATOM     66  S   UNL     1      10.002  -4.039  15.318  1.00  0.00     0.124 S 
ATOM     67  O   UNL     1       9.426  -2.699  15.297  1.00  0.00    -0.237 OA
ATOM     68  O   UNL     1       9.049  -5.142  15.377  1.00  0.00    -0.237 OA
ATOM     69  O   UNL     1      11.183  -4.195  16.165  1.00  0.00    -0.744 OA
ENDBRANCH  62  66
ENDBRANCH  36  59
ENDBRANCH  10  11
ENDBRANCH   3   5
ENDBRANCH   2   3
ENDBRANCH   1   2
BRANCH   1  70
ATOM     70  C   UNL     1       4.150   1.017  -1.139  1.00  0.00     0.202 C 
BRANCH  70  71
ATOM     71  O   UNL     1       3.863   1.696   0.080  1.00  0.00    -0.374 OA
BRANCH  71  72
ATOM     72  C   UNL     1       2.584   2.316   0.173  1.00  0.00     0.202 C 
BRANCH  72  73
ATOM     73  C   UNL     1       2.782   3.819   0.373  1.00  0.00     0.261 C 
BRANCH  73  74
ATOM     74  O   UNL     1       3.353   4.362  -0.831  1.00  0.00    -0.460 OA
BRANCH  74  75
ATOM     75  C   UNL     1       4.712   4.410  -0.874  1.00  0.00     0.342 C 
ATOM     76  O   UNL     1       5.489   4.330   0.059  1.00  0.00    -0.246 OA
BRANCH  75  77
ATOM     77  C   UNL     1       5.083   4.457  -2.300  1.00  0.00     0.103 A 
ATOM     78  C   UNL     1       4.410   5.323  -3.173  1.00  0.00     0.035 A 
ATOM     79  C   UNL     1       6.012   3.575  -2.832  1.00  0.00     0.137 A 
ATOM     80  C   UNL     1       4.678   5.278  -4.546  1.00  0.00     0.019 A 
ATOM     81  C   UNL     1       6.256   3.523  -4.199  1.00  0.00    -0.000 A 
ATOM     82  O   UNL     1       6.750   2.651  -2.137  1.00  0.00    -0.492 OA
ATOM     83  Br  UNL     1       3.749   6.446  -5.708  1.00  0.00    -0.051 Br
ATOM     84  C   UNL     1       5.604   4.375  -5.074  1.00  0.00     0.023 A 
ATOM     85  C   UNL     1       7.280   2.489  -4.480  1.00  0.00     0.081 C 
ATOM     86  C   UNL     1       7.228   1.740  -3.152  1.00  0.00     0.234 C 
ENDBRANCH  75  77
ENDBRANCH  74  75
ENDBRANCH  73  74
ENDBRANCH  72  73
ENDBRANCH  71  72
ENDBRANCH  70  71
ENDBRANCH   1  70
TORSDOF 17
