REMARK SMILES CN1N[C@H](C(=O)N[C@@H](CC2=c3ccccc3=NC2)C(=O)OCCOCCOC(=O)c2ccc(-c3c4nc(c(-c5cc(S(=O)(=O)[O-])ccc5F)c5ccc([nH]5)c(-c5cc(S(=O)(=O)[O-])ccc5F)c5nc(c(-c6cc(S(=O)(=O)[O-])ccc6F)c6ccc3[nH]6)C=C5)C=C4)cc2)c2ccccc2C1=O
REMARK SMILES IDX 25 1 24 2 23 3 22 4 21 5 19 6 20 7 8 8 7 9 5 10 6 11 4 13
REMARK SMILES IDX 1 14 2 15 3 16 99 17 98 19 100 20 93 21 97 22 94 23 96 24
REMARK SMILES IDX 95 25 9 26 10 27 11 28 18 29 12 30 16 31 17 32 13 33 15 34
REMARK SMILES IDX 14 35 26 36 27 37 28 38 29 39 30 40 31 41 92 42 32 43 91 44
REMARK SMILES IDX 33 45 34 46 35 47 85 48 36 49 90 50 84 51 86 52 37 53 89 54
REMARK SMILES IDX 83 55 82 56 38 58 70 59 50 60 69 61 51 62 54 63 68 64 87 65
REMARK SMILES IDX 52 66 53 67 67 69 88 70 55 71 39 72 40 73 48 74 41 75 47 76
REMARK SMILES IDX 49 77 46 78 42 79 43 80 44 81 45 82 71 83 72 84 80 85 73 86
REMARK SMILES IDX 79 87 81 88 78 89 74 90 75 91 76 92 77 93 56 94 57 95 65 96
REMARK SMILES IDX 58 97 64 98 66 99 63 100 59 101 60 102 61 103 62 104
REMARK H PARENT 7 12 3 18 86 57 54 68
REMARK Flexibility Score: inf
ROOT
ATOM      1  C   UNL     1       0.636  -1.644  -7.613  1.00  0.00     0.202 C 
ENDROOT
BRANCH   1   2
ATOM      2  O   UNL     1      -0.214  -2.520  -8.348  1.00  0.00    -0.374 OA
BRANCH   2   3
ATOM      3  C   UNL     1      -1.389  -1.948  -8.919  1.00  0.00     0.202 C 
BRANCH   3   4
ATOM      4  C   UNL     1      -2.519  -1.673  -7.930  1.00  0.00     0.261 C 
BRANCH   4   5
ATOM      5  O   UNL     1      -2.126  -0.610  -7.045  1.00  0.00    -0.462 OA
BRANCH   5   6
ATOM      6  C   UNL     1      -2.229  -0.886  -5.720  1.00  0.00     0.329 C 
ATOM      7  O   UNL     1      -2.804  -1.862  -5.250  1.00  0.00    -0.250 OA
BRANCH   6   8
ATOM      8  C   UNL     1      -1.668   0.237  -4.847  1.00  0.00     0.196 C 
BRANCH   8   9
ATOM      9  N   UNL     1      -0.518   1.005  -5.363  1.00  0.00    -0.341 N 
ATOM     10  C   UNL     1       0.700   1.297  -4.809  1.00  0.00     0.244 C 
ATOM     11  O   UNL     1       1.427   2.081  -5.432  1.00  0.00    -0.273 OA
ATOM     12  H   UNL     1      -0.650   1.374  -6.266  1.00  0.00     0.164 HD
BRANCH  10  13
ATOM     13  C   UNL     1       1.242   0.617  -3.517  1.00  0.00     0.195 C 
ATOM     14  C   UNL     1       0.423   0.214  -0.018  1.00  0.00     0.169 C 
ATOM     15  N   UNL     1       0.404  -0.209  -1.405  1.00  0.00    -0.276 N 
ATOM     16  N   UNL     1       0.259   0.760  -2.428  1.00  0.00    -0.215 NA
ATOM     17  C   UNL     1       0.503  -1.567  -1.722  1.00  0.00     0.268 C 
ATOM     18  H   UNL     1       0.368   1.686  -2.014  1.00  0.00     0.149 HD
ATOM     19  C   UNL     1       1.127  -1.865  -3.039  1.00  0.00     0.046 A 
ATOM     20  O   UNL     1       0.271  -2.478  -0.933  1.00  0.00    -0.268 OA
ATOM     21  C   UNL     1       1.652  -0.812  -3.797  1.00  0.00    -0.007 A 
ATOM     22  C   UNL     1       1.396  -3.193  -3.388  1.00  0.00     0.014 A 
ATOM     23  C   UNL     1       2.606  -1.104  -4.785  1.00  0.00     0.007 A 
ATOM     24  C   UNL     1       2.285  -3.472  -4.425  1.00  0.00     0.001 A 
ATOM     25  C   UNL     1       2.933  -2.428  -5.082  1.00  0.00     0.000 A 
ENDBRANCH  10  13
ENDBRANCH   8   9
BRANCH   8  26
ATOM     26  C   UNL     1      -2.863   1.147  -4.479  1.00  0.00     0.070 C 
BRANCH  26  27
ATOM     27  C   UNL     1      -3.445   2.158  -5.484  1.00  0.00    -0.037 C 
ATOM     28  C   UNL     1      -2.681   2.811  -6.370  1.00  0.00     0.001 A 
ATOM     29  C   UNL     1      -4.265   3.206  -4.756  1.00  0.00     0.174 C 
ATOM     30  C   UNL     1      -2.688   2.808  -7.812  1.00  0.00     0.010 A 
ATOM     31  C   UNL     1      -2.624   4.165  -5.761  1.00  0.00     0.065 A 
ATOM     32  N   UNL     1      -3.429   4.426  -4.779  1.00  0.00    -0.280 NA
ATOM     33  C   UNL     1      -2.079   3.837  -8.431  1.00  0.00     0.001 A 
ATOM     34  C   UNL     1      -1.627   5.066  -6.371  1.00  0.00     0.028 A 
ATOM     35  C   UNL     1      -1.369   4.858  -7.673  1.00  0.00     0.002 A 
ENDBRANCH  26  27
ENDBRANCH   8  26
ENDBRANCH   6   8
ENDBRANCH   5   6
ENDBRANCH   4   5
ENDBRANCH   3   4
ENDBRANCH   2   3
ENDBRANCH   1   2
BRANCH   1  36
ATOM     36  C   UNL     1       1.664  -0.851  -8.423  1.00  0.00     0.261 C 
BRANCH  36  37
ATOM     37  O   UNL     1       1.024   0.151  -9.225  1.00  0.00    -0.460 OA
BRANCH  37  38
ATOM     38  C   UNL     1       0.943  -0.144 -10.543  1.00  0.00     0.338 C 
ATOM     39  O   UNL     1       1.445  -1.101 -11.117  1.00  0.00    -0.246 OA
BRANCH  38  40
ATOM     40  C   UNL     1      -0.056   0.744 -11.159  1.00  0.00     0.060 A 
ATOM     41  C   UNL     1      -0.017   2.128 -10.982  1.00  0.00     0.016 A 
ATOM     42  C   UNL     1      -1.067   0.149 -11.925  1.00  0.00     0.016 A 
ATOM     43  C   UNL     1      -0.978   2.918 -11.614  1.00  0.00     0.010 A 
ATOM     44  C   UNL     1      -2.042   0.938 -12.527  1.00  0.00     0.010 A 
ATOM     45  C   UNL     1      -1.993   2.330 -12.390  1.00  0.00    -0.014 A 
BRANCH  45  46
ATOM     46  C   UNL     1      -2.876   3.169 -13.231  1.00  0.00     0.031 A 
ATOM     47  C   UNL     1      -4.320   3.385 -12.903  1.00  0.00     0.074 A 
ATOM     48  C   UNL     1      -2.342   3.676 -14.358  1.00  0.00     0.049 A 
ATOM     49  N   UNL     1      -5.201   4.107 -13.543  1.00  0.00    -0.248 NA
ATOM     50  C   UNL     1      -4.849   2.706 -11.711  1.00  0.00     0.031 C 
ATOM     51  C   UNL     1      -0.954   3.472 -14.779  1.00  0.00     0.029 A 
ATOM     52  N   UNL     1      -2.885   4.443 -15.354  1.00  0.00    -0.354 N 
ATOM     53  C   UNL     1      -6.387   3.989 -12.829  1.00  0.00     0.074 A 
ATOM     54  C   UNL     1      -6.122   3.088 -11.726  1.00  0.00     0.031 C 
ATOM     55  C   UNL     1      -0.752   4.106 -15.940  1.00  0.00     0.029 A 
ATOM     56  C   UNL     1      -2.002   4.726 -16.368  1.00  0.00     0.049 A 
ATOM     57  H   UNL     1      -3.817   4.760 -15.344  1.00  0.00     0.167 HD
ATOM     58  C   UNL     1      -7.575   4.593 -13.073  1.00  0.00     0.034 A 
ATOM     59  C   UNL     1      -2.177   5.401 -17.522  1.00  0.00     0.034 A 
ATOM     60  C   UNL     1      -7.810   5.464 -14.200  1.00  0.00     0.049 A 
ATOM     61  C   UNL     1      -3.519   6.025 -17.791  1.00  0.00     0.074 A 
ATOM     62  C   UNL     1      -8.957   6.177 -14.502  1.00  0.00     0.029 A 
ATOM     63  N   UNL     1      -6.901   5.726 -15.216  1.00  0.00    -0.354 N 
ATOM     64  N   UNL     1      -4.595   6.012 -17.038  1.00  0.00    -0.248 NA
ATOM     65  C   UNL     1      -3.676   6.763 -19.050  1.00  0.00     0.031 C 
ATOM     66  C   UNL     1      -8.770   6.802 -15.735  1.00  0.00     0.029 A 
ATOM     67  C   UNL     1      -7.478   6.550 -16.169  1.00  0.00     0.049 A 
ATOM     68  H   UNL     1      -5.981   5.377 -15.254  1.00  0.00     0.167 HD
ATOM     69  C   UNL     1      -5.551   6.752 -17.725  1.00  0.00     0.074 A 
ATOM     70  C   UNL     1      -4.917   7.221 -18.940  1.00  0.00     0.031 C 
ATOM     71  C   UNL     1      -6.837   7.013 -17.380  1.00  0.00     0.034 A 
BRANCH  58  72
ATOM     72  C   UNL     1      -8.719   4.376 -12.112  1.00  0.00     0.023 A 
ATOM     73  C   UNL     1      -9.920   3.789 -12.558  1.00  0.00     0.031 A 
ATOM     74  C   UNL     1      -8.680   4.895 -10.806  1.00  0.00     0.131 A 
ATOM     75  C   UNL     1     -11.041   3.772 -11.717  1.00  0.00     0.055 A 
ATOM     76  C   UNL     1      -9.789   4.842  -9.960  1.00  0.00     0.041 A 
ATOM     77  F   UNL     1      -7.561   5.471 -10.336  1.00  0.00    -0.206 F 
ATOM     78  C   UNL     1     -10.981   4.291 -10.420  1.00  0.00     0.022 A 
BRANCH  75  79
ATOM     79  S   UNL     1     -12.641   3.140 -12.296  1.00  0.00     0.124 S 
ATOM     80  O   UNL     1     -12.906   2.074 -11.332  1.00  0.00    -0.237 OA
ATOM     81  O   UNL     1     -13.496   4.317 -12.174  1.00  0.00    -0.237 OA
ATOM     82  O   UNL     1     -12.370   2.692 -13.657  1.00  0.00    -0.744 OA
ENDBRANCH  75  79
ENDBRANCH  58  72
BRANCH  59  83
ATOM     83  C   UNL     1      -1.016   5.556 -18.444  1.00  0.00     0.023 A 
ATOM     84  C   UNL     1      -0.391   4.432 -19.016  1.00  0.00     0.031 A 
ATOM     85  C   UNL     1      -0.425   6.814 -18.643  1.00  0.00     0.131 A 
ATOM     86  C   UNL     1       0.828   4.580 -19.689  1.00  0.00     0.055 A 
ATOM     87  C   UNL     1       0.751   6.966 -19.378  1.00  0.00     0.041 A 
ATOM     88  F   UNL     1      -0.974   7.912 -18.100  1.00  0.00    -0.206 F 
ATOM     89  C   UNL     1       1.395   5.843 -19.888  1.00  0.00     0.022 A 
BRANCH  86  90
ATOM     90  S   UNL     1       1.795   3.128 -20.190  1.00  0.00     0.124 S 
ATOM     91  O   UNL     1       1.884   3.307 -21.636  1.00  0.00    -0.237 OA
ATOM     92  O   UNL     1       3.039   3.330 -19.451  1.00  0.00    -0.237 OA
ATOM     93  O   UNL     1       0.984   2.002 -19.741  1.00  0.00    -0.744 OA
ENDBRANCH  86  90
ENDBRANCH  59  83
BRANCH  71  94
ATOM     94  C   UNL     1      -7.684   7.832 -18.324  1.00  0.00     0.023 A 
ATOM     95  C   UNL     1      -8.211   9.069 -17.906  1.00  0.00     0.031 A 
ATOM     96  C   UNL     1      -8.107   7.312 -19.559  1.00  0.00     0.131 A 
ATOM     97  C   UNL     1      -9.175   9.716 -18.688  1.00  0.00     0.055 A 
ATOM     98  C   UNL     1      -9.028   7.987 -20.361  1.00  0.00     0.041 A 
ATOM     99  F   UNL     1      -7.638   6.132 -19.998  1.00  0.00    -0.206 F 
ATOM    100  C   UNL     1      -9.580   9.185 -19.918  1.00  0.00     0.022 A 
BRANCH  97 101
ATOM    101  S   UNL     1     -10.009  11.214 -18.096  1.00  0.00     0.124 S 
ATOM    102  O   UNL     1      -9.705  12.170 -19.159  1.00  0.00    -0.237 OA
ATOM    103  O   UNL     1     -11.402  10.781 -18.026  1.00  0.00    -0.237 OA
ATOM    104  O   UNL     1      -9.371  11.489 -16.814  1.00  0.00    -0.744 OA
ENDBRANCH  97 101
ENDBRANCH  71  94
ENDBRANCH  45  46
ENDBRANCH  38  40
ENDBRANCH  37  38
ENDBRANCH  36  37
ENDBRANCH   1  36
TORSDOF 21
