REMARK SMILES C[C@]1(C(=O)OCCOCCOC(=O)c2ccc(-c3c4nc(c(-c5cc(S(=O)(=O)[O-])ccc5F)c5ccc([nH]5)c(-c5cc(S(=O)(=O)[O-])ccc5F)c5nc(c(-c6cc(S(=O)(=O)[O-])ccc6F)c6ccc3[nH]6)C=C5)C=C4)cc2)COC[C@@H]1NC(=O)[C@H]1C=C[C@@H]([NH3+])C1
REMARK SMILES IDX 8 1 7 2 6 3 5 4 3 5 4 6 2 7 1 8 77 9 80 10 78 11 79 12 81 13
REMARK SMILES IDX 82 14 83 16 84 17 85 18 89 19 86 20 87 21 88 22 9 26 10 27
REMARK SMILES IDX 11 28 12 29 13 30 14 31 15 32 76 33 16 34 75 35 17 36 18 37
REMARK SMILES IDX 19 38 69 39 20 40 74 41 68 42 70 43 21 44 73 45 67 46 66 47
REMARK SMILES IDX 22 49 54 50 34 51 53 52 35 53 38 54 52 55 71 56 36 57 37 58
REMARK SMILES IDX 51 60 72 61 39 62 23 63 24 64 32 65 25 66 31 67 33 68 30 69
REMARK SMILES IDX 26 70 27 71 28 72 29 73 55 74 56 75 64 76 57 77 63 78 65 79
REMARK SMILES IDX 62 80 58 81 59 82 60 83 61 84 40 85 41 86 49 87 42 88 48 89
REMARK SMILES IDX 50 90 47 91 43 92 44 93 45 94 46 95
REMARK H PARENT 81 15 88 23 88 24 88 25 70 48 38 59
REMARK Flexibility Score: inf
ROOT
ATOM      1  O   UNL     1       1.026  -2.008  -1.952  1.00  0.00    -0.374 OA
ENDROOT
BRANCH   1   2
ATOM      2  C   UNL     1       1.103  -2.614  -0.659  1.00  0.00     0.202 C 
BRANCH   2   3
ATOM      3  C   UNL     1       1.835  -1.803   0.414  1.00  0.00     0.261 C 
BRANCH   3   4
ATOM      4  O   UNL     1       1.044  -0.658   0.787  1.00  0.00    -0.463 OA
BRANCH   4   5
ATOM      5  C   UNL     1       1.594   0.557   0.546  1.00  0.00     0.316 C 
ATOM      6  O   UNL     1       2.771   0.738   0.254  1.00  0.00    -0.251 OA
BRANCH   5   7
ATOM      7  C   UNL     1       0.578   1.694   0.622  1.00  0.00     0.111 C 
ATOM      8  C   UNL     1      -0.884   1.274   0.882  1.00  0.00     0.028 C 
ATOM      9  C   UNL     1       1.044   2.625   1.738  1.00  0.00     0.181 C 
ATOM     10  C   UNL     1       0.765   2.602  -0.623  1.00  0.00     0.127 C 
ATOM     11  O   UNL     1       0.594   3.931   1.369  1.00  0.00    -0.378 OA
ATOM     12  C   UNL     1       0.693   4.025  -0.055  1.00  0.00     0.186 C 
BRANCH  10  13
ATOM     13  N   UNL     1      -0.174   2.414  -1.734  1.00  0.00    -0.349 N 
ATOM     14  C   UNL     1      -0.010   2.703  -3.064  1.00  0.00     0.227 C 
ATOM     15  H   UNL     1      -1.045   2.025  -1.490  1.00  0.00     0.163 HD
ATOM     16  O   UNL     1      -0.996   2.573  -3.792  1.00  0.00    -0.274 OA
BRANCH  14  17
ATOM     17  C   UNL     1       1.369   3.104  -3.599  1.00  0.00     0.107 C 
ATOM     18  C   UNL     1       2.000   1.950  -4.329  1.00  0.00    -0.012 C 
ATOM     19  C   UNL     1       1.292   4.168  -4.708  1.00  0.00     0.087 C 
ATOM     20  C   UNL     1       2.544   2.330  -5.491  1.00  0.00     0.033 C 
ATOM     21  C   UNL     1       2.398   3.798  -5.706  1.00  0.00     0.205 C 
BRANCH  21  22
ATOM     22  N   UNL     1       2.042   4.141  -7.069  1.00  0.00    -0.352 N 
ATOM     23  H   UNL     1       1.169   3.676  -7.319  1.00  0.00     0.345 HD
ATOM     24  H   UNL     1       2.783   3.837  -7.701  1.00  0.00     0.345 HD
ATOM     25  H   UNL     1       1.923   5.151  -7.145  1.00  0.00     0.345 HD
ENDBRANCH  21  22
ENDBRANCH  14  17
ENDBRANCH  10  13
ENDBRANCH   5   7
ENDBRANCH   4   5
ENDBRANCH   3   4
ENDBRANCH   2   3
ENDBRANCH   1   2
BRANCH   1  26
ATOM     26  C   UNL     1       0.059  -0.977  -2.138  1.00  0.00     0.202 C 
BRANCH  26  27
ATOM     27  C   UNL     1      -1.398  -1.397  -2.362  1.00  0.00     0.261 C 
BRANCH  27  28
ATOM     28  O   UNL     1      -1.949  -2.092  -1.232  1.00  0.00    -0.460 OA
BRANCH  28  29
ATOM     29  C   UNL     1      -2.069  -3.430  -1.410  1.00  0.00     0.338 C 
ATOM     30  O   UNL     1      -1.822  -4.057  -2.434  1.00  0.00    -0.246 OA
BRANCH  29  31
ATOM     31  C   UNL     1      -2.353  -4.094  -0.126  1.00  0.00     0.060 A 
ATOM     32  C   UNL     1      -1.560  -5.198   0.209  1.00  0.00     0.016 A 
ATOM     33  C   UNL     1      -3.398  -3.692   0.710  1.00  0.00     0.016 A 
ATOM     34  C   UNL     1      -1.841  -5.939   1.353  1.00  0.00     0.010 A 
ATOM     35  C   UNL     1      -3.682  -4.441   1.858  1.00  0.00     0.010 A 
ATOM     36  C   UNL     1      -2.928  -5.589   2.165  1.00  0.00    -0.014 A 
BRANCH  36  37
ATOM     37  C   UNL     1      -3.346  -6.515   3.246  1.00  0.00     0.031 A 
ATOM     38  C   UNL     1      -4.513  -7.435   3.008  1.00  0.00     0.074 A 
ATOM     39  C   UNL     1      -2.657  -6.577   4.400  1.00  0.00     0.049 A 
ATOM     40  N   UNL     1      -5.046  -8.325   3.805  1.00  0.00    -0.248 NA
ATOM     41  C   UNL     1      -5.166  -7.335   1.693  1.00  0.00     0.031 C 
ATOM     42  C   UNL     1      -1.481  -5.768   4.722  1.00  0.00     0.029 A 
ATOM     43  N   UNL     1      -2.843  -7.357   5.512  1.00  0.00    -0.354 N 
ATOM     44  C   UNL     1      -6.096  -8.893   3.091  1.00  0.00     0.074 A 
ATOM     45  C   UNL     1      -6.149  -8.214   1.813  1.00  0.00     0.031 C 
ATOM     46  C   UNL     1      -1.052  -6.095   5.953  1.00  0.00     0.029 A 
ATOM     47  C   UNL     1      -1.942  -7.106   6.521  1.00  0.00     0.049 A 
ATOM     48  H   UNL     1      -3.554  -8.034   5.582  1.00  0.00     0.167 HD
ATOM     49  C   UNL     1      -6.930  -9.896   3.463  1.00  0.00     0.034 A 
ATOM     50  C   UNL     1      -1.860  -7.617   7.766  1.00  0.00     0.034 A 
ATOM     51  C   UNL     1      -6.870 -10.554   4.746  1.00  0.00     0.049 A 
ATOM     52  C   UNL     1      -2.857  -8.668   8.190  1.00  0.00     0.074 A 
ATOM     53  C   UNL     1      -7.655 -11.590   5.221  1.00  0.00     0.029 A 
ATOM     54  N   UNL     1      -5.982 -10.232   5.765  1.00  0.00    -0.354 N 
ATOM     55  N   UNL     1      -3.838  -9.206   7.501  1.00  0.00    -0.248 NA
ATOM     56  C   UNL     1      -2.729  -9.188   9.557  1.00  0.00     0.031 C 
ATOM     57  C   UNL     1      -7.295 -11.841   6.549  1.00  0.00     0.029 A 
ATOM     58  C   UNL     1      -6.228 -11.021   6.879  1.00  0.00     0.049 A 
ATOM     59  H   UNL     1      -5.282  -9.543   5.706  1.00  0.00     0.167 HD
ATOM     60  C   UNL     1      -4.423 -10.148   8.344  1.00  0.00     0.074 A 
ATOM     61  C   UNL     1      -3.673 -10.117   9.582  1.00  0.00     0.031 C 
ATOM     62  C   UNL     1      -5.482 -10.967   8.116  1.00  0.00     0.034 A 
BRANCH  49  63
ATOM     63  C   UNL     1      -8.010 -10.299   2.487  1.00  0.00     0.023 A 
ATOM     64  C   UNL     1      -7.707 -10.860   1.234  1.00  0.00     0.031 A 
ATOM     65  C   UNL     1      -9.364 -10.095   2.806  1.00  0.00     0.131 A 
ATOM     66  C   UNL     1      -8.738 -11.135   0.322  1.00  0.00     0.055 A 
ATOM     67  C   UNL     1     -10.390 -10.444   1.925  1.00  0.00     0.041 A 
ATOM     68  F   UNL     1      -9.714  -9.540   3.977  1.00  0.00    -0.206 F 
ATOM     69  C   UNL     1     -10.079 -10.955   0.669  1.00  0.00     0.022 A 
BRANCH  66  70
ATOM     70  S   UNL     1      -8.296 -11.600  -1.375  1.00  0.00     0.124 S 
ATOM     71  O   UNL     1      -7.502 -10.449  -1.798  1.00  0.00    -0.237 OA
ATOM     72  O   UNL     1      -7.564 -12.845  -1.180  1.00  0.00    -0.237 OA
ATOM     73  O   UNL     1      -9.590 -11.734  -2.042  1.00  0.00    -0.744 OA
ENDBRANCH  66  70
ENDBRANCH  49  63
BRANCH  50  74
ATOM     74  C   UNL     1      -0.829  -7.119   8.721  1.00  0.00     0.023 A 
ATOM     75  C   UNL     1       0.160  -7.971   9.238  1.00  0.00     0.031 A 
ATOM     76  C   UNL     1      -0.857  -5.789   9.180  1.00  0.00     0.131 A 
ATOM     77  C   UNL     1       1.048  -7.499  10.217  1.00  0.00     0.055 A 
ATOM     78  C   UNL     1       0.065  -5.309  10.112  1.00  0.00     0.041 A 
ATOM     79  F   UNL     1      -1.782  -4.931   8.721  1.00  0.00    -0.206 F 
ATOM     80  C   UNL     1       1.016  -6.171  10.647  1.00  0.00     0.022 A 
BRANCH  77  81
ATOM     81  S   UNL     1       2.193  -8.675  10.991  1.00  0.00     0.124 S 
ATOM     82  O   UNL     1       1.274  -9.666  11.539  1.00  0.00    -0.237 OA
ATOM     83  O   UNL     1       2.998  -9.105   9.853  1.00  0.00    -0.237 OA
ATOM     84  O   UNL     1       2.898  -7.862  11.979  1.00  0.00    -0.744 OA
ENDBRANCH  77  81
ENDBRANCH  50  74
BRANCH  62  85
ATOM     85  C   UNL     1      -5.861 -11.923   9.223  1.00  0.00     0.023 A 
ATOM     86  C   UNL     1      -6.354 -11.467  10.459  1.00  0.00     0.031 A 
ATOM     87  C   UNL     1      -5.707 -13.310   9.046  1.00  0.00     0.131 A 
ATOM     88  C   UNL     1      -6.614 -12.383  11.490  1.00  0.00     0.055 A 
ATOM     89  C   UNL     1      -6.031 -14.221  10.052  1.00  0.00     0.041 A 
ATOM     90  F   UNL     1      -5.239 -13.803   7.888  1.00  0.00    -0.206 F 
ATOM     91  C   UNL     1      -6.473 -13.758  11.289  1.00  0.00     0.022 A 
BRANCH  88  92
ATOM     92  S   UNL     1      -7.037 -11.746  13.135  1.00  0.00     0.124 S 
ATOM     93  O   UNL     1      -5.883 -10.908  13.442  1.00  0.00    -0.237 OA
ATOM     94  O   UNL     1      -8.289 -11.039  12.882  1.00  0.00    -0.237 OA
ATOM     95  O   UNL     1      -7.162 -12.953  13.949  1.00  0.00    -0.744 OA
ENDBRANCH  88  92
ENDBRANCH  62  85
ENDBRANCH  36  37
ENDBRANCH  29  31
ENDBRANCH  28  29
ENDBRANCH  27  28
ENDBRANCH  26  27
ENDBRANCH   1  26
TORSDOF 20
