REMARK SMILES CC[C@@H](C)Oc1cccc(C(=O)Nc2ccc(Cl)c(C(=O)OCCOCCOC(=O)c3ccc(-c4c5nc(c(-c6cc(S(=O)(=O)[O-])ccc6F)c6ccc([nH]6)c(-c6cc(S(=O)(=O)[O-])ccc6F)c6nc(c(-c7cc(S(=O)(=O)[O-])ccc7F)c7ccc4[nH]7)C=C6)C=C5)cc3)c2)c1
REMARK SMILES IDX 24 1 23 2 22 3 20 4 21 5 19 6 14 7 15 8 94 9 16 10 17 11
REMARK SMILES IDX 18 12 13 13 11 14 12 15 10 17 6 18 7 19 95 20 8 21 9 22 5 23
REMARK SMILES IDX 3 24 4 25 2 26 1 27 25 28 26 29 27 30 28 31 29 32 30 33
REMARK SMILES IDX 31 34 32 35 93 36 33 37 92 38 34 39 35 40 36 41 86 42 37 43
REMARK SMILES IDX 91 44 85 45 87 46 38 47 90 48 84 49 83 50 39 52 71 53 51 54
REMARK SMILES IDX 70 55 52 56 55 57 69 58 88 59 53 60 54 61 68 63 89 64 56 65
REMARK SMILES IDX 40 66 41 67 49 68 42 69 48 70 50 71 47 72 43 73 44 74 45 75
REMARK SMILES IDX 46 76 72 77 73 78 81 79 74 80 80 81 82 82 79 83 75 84 76 85
REMARK SMILES IDX 77 86 78 87 57 88 58 89 66 90 59 91 65 92 67 93 64 94 60 95
REMARK SMILES IDX 61 96 62 97 63 98
REMARK H PARENT 13 16 87 51 55 62
REMARK Flexibility Score: inf
ROOT
ATOM      1  C   UNL     1       3.216  -4.013  -4.441  1.00  0.00     0.202 C 
ENDROOT
BRANCH   1   2
ATOM      2  C   UNL     1       2.207  -4.019  -3.287  1.00  0.00     0.261 C 
BRANCH   2   3
ATOM      3  O   UNL     1       1.183  -3.017  -3.409  1.00  0.00    -0.460 OA
BRANCH   3   4
ATOM      4  C   UNL     1       1.273  -2.015  -2.506  1.00  0.00     0.339 C 
ATOM      5  O   UNL     1       2.146  -1.885  -1.655  1.00  0.00    -0.246 OA
BRANCH   4   6
ATOM      6  C   UNL     1       0.189  -1.026  -2.691  1.00  0.00     0.080 A 
ATOM      7  C   UNL     1      -2.194  -0.621  -2.485  1.00  0.00     0.042 A 
ATOM      8  C   UNL     1      -1.945   0.753  -2.407  1.00  0.00     0.028 A 
ATOM      9  C   UNL     1      -1.134  -1.496  -2.736  1.00  0.00     0.043 A 
ATOM     10  C   UNL     1      -0.636   1.235  -2.447  1.00  0.00     0.023 A 
ATOM     11  C   UNL     1       0.436   0.347  -2.555  1.00  0.00     0.055 A 
ATOM     12  Cl  UNL     1       2.020   1.035  -2.489  1.00  0.00    -0.083 Cl
BRANCH   7  13
ATOM     13  N   UNL     1      -3.506  -1.038  -2.203  1.00  0.00    -0.322 N 
ATOM     14  C   UNL     1      -4.014  -2.206  -1.663  1.00  0.00     0.255 C 
ATOM     15  O   UNL     1      -5.234  -2.368  -1.652  1.00  0.00    -0.269 OA
ATOM     16  H   UNL     1      -4.195  -0.373  -2.434  1.00  0.00     0.170 HD
BRANCH  14  17
ATOM     17  C   UNL     1      -3.151  -3.232  -1.019  1.00  0.00     0.043 A 
ATOM     18  C   UNL     1      -1.092  -3.853   0.094  1.00  0.00     0.120 A 
ATOM     19  C   UNL     1      -1.403  -5.197  -0.133  1.00  0.00     0.046 A 
ATOM     20  C   UNL     1      -2.010  -2.881  -0.279  1.00  0.00     0.060 A 
ATOM     21  C   UNL     1      -2.612  -5.564  -0.732  1.00  0.00     0.005 A 
ATOM     22  C   UNL     1      -3.480  -4.579  -1.196  1.00  0.00     0.014 A 
BRANCH  18  23
ATOM     23  O   UNL     1       0.195  -3.608   0.466  1.00  0.00    -0.491 OA
BRANCH  23  24
ATOM     24  C   UNL     1       0.583  -2.615   1.428  1.00  0.00     0.170 C 
ATOM     25  C   UNL     1       0.020  -2.938   2.804  1.00  0.00     0.053 C 
BRANCH  24  26
ATOM     26  C   UNL     1       0.368  -1.151   1.019  1.00  0.00     0.041 C 
ATOM     27  C   UNL     1       1.295  -0.170   1.722  1.00  0.00     0.008 C 
ENDBRANCH  24  26
ENDBRANCH  23  24
ENDBRANCH  18  23
ENDBRANCH  14  17
ENDBRANCH   7  13
ENDBRANCH   4   6
ENDBRANCH   3   4
ENDBRANCH   2   3
ENDBRANCH   1   2
BRANCH   1  28
ATOM     28  O   UNL     1       4.013  -2.861  -4.692  1.00  0.00    -0.374 OA
BRANCH  28  29
ATOM     29  C   UNL     1       3.388  -1.606  -4.913  1.00  0.00     0.202 C 
BRANCH  29  30
ATOM     30  C   UNL     1       2.447  -1.398  -6.112  1.00  0.00     0.261 C 
BRANCH  30  31
ATOM     31  O   UNL     1       1.492  -2.443  -6.335  1.00  0.00    -0.460 OA
BRANCH  31  32
ATOM     32  C   UNL     1       1.811  -3.269  -7.359  1.00  0.00     0.338 C 
ATOM     33  O   UNL     1       2.799  -3.193  -8.085  1.00  0.00    -0.246 OA
BRANCH  32  34
ATOM     34  C   UNL     1       0.889  -4.414  -7.407  1.00  0.00     0.060 A 
ATOM     35  C   UNL     1       1.440  -5.700  -7.319  1.00  0.00     0.016 A 
ATOM     36  C   UNL     1      -0.474  -4.238  -7.650  1.00  0.00     0.016 A 
ATOM     37  C   UNL     1       0.638  -6.819  -7.520  1.00  0.00     0.010 A 
ATOM     38  C   UNL     1      -1.274  -5.362  -7.875  1.00  0.00     0.010 A 
ATOM     39  C   UNL     1      -0.711  -6.653  -7.851  1.00  0.00    -0.014 A 
BRANCH  39  40
ATOM     40  C   UNL     1      -1.473  -7.806  -8.387  1.00  0.00     0.031 A 
ATOM     41  C   UNL     1      -1.574  -7.954  -9.882  1.00  0.00     0.074 A 
ATOM     42  C   UNL     1      -2.034  -8.710  -7.566  1.00  0.00     0.049 A 
ATOM     43  N   UNL     1      -2.255  -8.817 -10.587  1.00  0.00    -0.248 NA
ATOM     44  C   UNL     1      -0.801  -6.993 -10.688  1.00  0.00     0.031 C 
ATOM     45  C   UNL     1      -1.936  -8.701  -6.107  1.00  0.00     0.029 A 
ATOM     46  N   UNL     1      -2.809  -9.807  -7.845  1.00  0.00    -0.354 N 
ATOM     47  C   UNL     1      -2.009  -8.496 -11.918  1.00  0.00     0.074 A 
ATOM     48  C   UNL     1      -1.131  -7.346 -11.921  1.00  0.00     0.031 C 
ATOM     49  C   UNL     1      -2.645  -9.733  -5.617  1.00  0.00     0.029 A 
ATOM     50  C   UNL     1      -3.283 -10.447  -6.723  1.00  0.00     0.049 A 
ATOM     51  H   UNL     1      -3.007 -10.109  -8.761  1.00  0.00     0.167 HD
ATOM     52  C   UNL     1      -2.476  -9.106 -13.034  1.00  0.00     0.034 A 
ATOM     53  C   UNL     1      -4.160 -11.465  -6.607  1.00  0.00     0.034 A 
ATOM     54  C   UNL     1      -3.351 -10.251 -13.007  1.00  0.00     0.049 A 
ATOM     55  C   UNL     1      -4.732 -12.078  -7.867  1.00  0.00     0.074 A 
ATOM     56  C   UNL     1      -3.882 -10.954 -14.074  1.00  0.00     0.029 A 
ATOM     57  N   UNL     1      -3.831 -10.855 -11.853  1.00  0.00    -0.354 N 
ATOM     58  N   UNL     1      -4.498 -11.761  -9.120  1.00  0.00    -0.248 NA
ATOM     59  C   UNL     1      -5.681 -13.187  -7.698  1.00  0.00     0.031 C 
ATOM     60  C   UNL     1      -4.735 -11.939 -13.566  1.00  0.00     0.029 A 
ATOM     61  C   UNL     1      -4.673 -11.904 -12.182  1.00  0.00     0.049 A 
ATOM     62  H   UNL     1      -3.605 -10.578 -10.935  1.00  0.00     0.167 HD
ATOM     63  C   UNL     1      -5.234 -12.664  -9.885  1.00  0.00     0.074 A 
ATOM     64  C   UNL     1      -5.918 -13.536  -8.954  1.00  0.00     0.031 C 
ATOM     65  C   UNL     1      -5.330 -12.771 -11.234  1.00  0.00     0.034 A 
BRANCH  52  66
ATOM     66  C   UNL     1      -2.101  -8.510 -14.367  1.00  0.00     0.023 A 
ATOM     67  C   UNL     1      -0.778  -8.515 -14.841  1.00  0.00     0.031 A 
ATOM     68  C   UNL     1      -3.090  -7.921 -15.175  1.00  0.00     0.131 A 
ATOM     69  C   UNL     1      -0.473  -7.898 -16.064  1.00  0.00     0.055 A 
ATOM     70  C   UNL     1      -2.792  -7.371 -16.422  1.00  0.00     0.041 A 
ATOM     71  F   UNL     1      -4.366  -7.864 -14.760  1.00  0.00    -0.206 F 
ATOM     72  C   UNL     1      -1.474  -7.349 -16.869  1.00  0.00     0.022 A 
BRANCH  69  73
ATOM     73  S   UNL     1       1.268  -7.727 -16.543  1.00  0.00     0.124 S 
ATOM     74  O   UNL     1       1.794  -6.908 -15.454  1.00  0.00    -0.237 OA
ATOM     75  O   UNL     1       1.724  -9.111 -16.579  1.00  0.00    -0.237 OA
ATOM     76  O   UNL     1       1.203  -7.058 -17.841  1.00  0.00    -0.744 OA
ENDBRANCH  69  73
ENDBRANCH  52  66
BRANCH  53  77
ATOM     77  C   UNL     1      -4.603 -11.943  -5.264  1.00  0.00     0.023 A 
ATOM     78  C   UNL     1      -4.381 -13.267  -4.853  1.00  0.00     0.031 A 
ATOM     79  C   UNL     1      -5.332 -11.102  -4.403  1.00  0.00     0.131 A 
ATOM     80  C   UNL     1      -4.935 -13.729  -3.648  1.00  0.00     0.055 A 
ATOM     81  C   UNL     1      -5.828 -11.549  -3.177  1.00  0.00     0.041 A 
ATOM     82  F   UNL     1      -5.577  -9.827  -4.745  1.00  0.00    -0.206 F 
ATOM     83  C   UNL     1      -5.646 -12.875  -2.802  1.00  0.00     0.022 A 
BRANCH  80  84
ATOM     84  S   UNL     1      -4.815 -15.497  -3.260  1.00  0.00     0.124 S 
ATOM     85  O   UNL     1      -5.413 -16.101  -4.445  1.00  0.00    -0.237 OA
ATOM     86  O   UNL     1      -3.375 -15.674  -3.106  1.00  0.00    -0.237 OA
ATOM     87  O   UNL     1      -5.593 -15.628  -2.031  1.00  0.00    -0.744 OA
ENDBRANCH  80  84
ENDBRANCH  53  77
BRANCH  65  88
ATOM     88  C   UNL     1      -6.139 -13.920 -11.783  1.00  0.00     0.023 A 
ATOM     89  C   UNL     1      -7.537 -13.979 -11.653  1.00  0.00     0.031 A 
ATOM     90  C   UNL     1      -5.491 -14.964 -12.468  1.00  0.00     0.131 A 
ATOM     91  C   UNL     1      -8.238 -15.082 -12.165  1.00  0.00     0.055 A 
ATOM     92  C   UNL     1      -6.199 -16.029 -13.023  1.00  0.00     0.041 A 
ATOM     93  F   UNL     1      -4.157 -14.955 -12.621  1.00  0.00    -0.206 F 
ATOM     94  C   UNL     1      -7.579 -16.098 -12.864  1.00  0.00     0.022 A 
BRANCH  91  95
ATOM     95  S   UNL     1     -10.019 -15.207 -11.849  1.00  0.00     0.124 S 
ATOM     96  O   UNL     1     -10.068 -15.232 -10.391  1.00  0.00    -0.237 OA
ATOM     97  O   UNL     1     -10.535 -13.999 -12.484  1.00  0.00    -0.237 OA
ATOM     98  O   UNL     1     -10.396 -16.459 -12.504  1.00  0.00    -0.744 OA
ENDBRANCH  91  95
ENDBRANCH  65  88
ENDBRANCH  39  40
ENDBRANCH  32  34
ENDBRANCH  31  32
ENDBRANCH  30  31
ENDBRANCH  29  30
ENDBRANCH  28  29
ENDBRANCH   1  28
TORSDOF 22
