REMARK SMILES Nc1nc(N2CCOC[C@H]2C(=O)OCCOCCOC(=O)c2ccc(-c3c4nc(c(-c5cc(S(=O)(=O)[O-])ccc5F)c5ccc([nH]5)c(-c5cc(S(=O)(=O)[O-])ccc5F)c5nc(c(-c6cc(S(=O)(=O)[O-])ccc6F)c6ccc3[nH]6)C=C5)C=C4)cc2)ccc1[N+](=O)[O-]
REMARK SMILES IDX 17 1 16 2 15 3 14 4 13 5 11 6 12 7 10 8 5 9 6 10 7 11 9 12
REMARK SMILES IDX 8 13 4 14 2 15 3 16 87 17 86 18 85 19 1 20 88 23 89 24 90 25
REMARK SMILES IDX 18 26 19 27 20 28 21 29 22 30 23 31 84 32 24 33 83 34 25 35
REMARK SMILES IDX 26 36 27 37 77 38 28 39 82 40 76 41 78 42 29 43 81 44 75 45
REMARK SMILES IDX 74 46 30 48 62 49 42 50 61 51 43 52 46 53 60 54 79 55 44 56
REMARK SMILES IDX 45 57 59 59 80 60 47 61 31 62 32 63 40 64 33 65 39 66 41 67
REMARK SMILES IDX 38 68 34 69 35 70 36 71 37 72 63 73 64 74 72 75 65 76 71 77
REMARK SMILES IDX 73 78 70 79 66 80 67 81 68 82 69 83 48 84 49 85 57 86 50 87
REMARK SMILES IDX 56 88 58 89 55 90 51 91 52 92 53 93 54 94
REMARK H PARENT 1 21 1 22 78 47 46 58
REMARK Flexibility Score: inf
ROOT
ATOM      1  C   UNL     1       1.610   3.988   1.218  1.00  0.00     0.202 C 
ENDROOT
BRANCH   1   2
ATOM      2  O   UNL     1       1.812   5.363   1.552  1.00  0.00    -0.374 OA
BRANCH   2   3
ATOM      3  C   UNL     1       0.753   6.028   2.244  1.00  0.00     0.202 C 
BRANCH   3   4
ATOM      4  C   UNL     1      -0.452   6.425   1.388  1.00  0.00     0.261 C 
BRANCH   4   5
ATOM      5  O   UNL     1      -1.167   5.260   0.946  1.00  0.00    -0.462 OA
BRANCH   5   6
ATOM      6  C   UNL     1      -1.190   5.020  -0.392  1.00  0.00     0.331 C 
ATOM      7  O   UNL     1      -0.760   5.795  -1.244  1.00  0.00    -0.250 OA
BRANCH   6   8
ATOM      8  C   UNL     1      -1.851   3.689  -0.766  1.00  0.00     0.220 C 
ATOM      9  N   UNL     1      -1.874   2.639   0.283  1.00  0.00    -0.339 N 
ATOM     10  C   UNL     1      -2.841   2.808   1.372  1.00  0.00     0.147 C 
ATOM     11  C   UNL     1      -4.223   3.150   0.803  1.00  0.00     0.181 C 
ATOM     12  C   UNL     1      -3.292   4.009  -1.206  1.00  0.00     0.197 C 
ATOM     13  O   UNL     1      -4.170   4.268  -0.095  1.00  0.00    -0.377 OA
BRANCH   9  14
ATOM     14  C   UNL     1      -1.288   1.418   0.033  1.00  0.00     0.132 A 
ATOM     15  C   UNL     1       0.680   0.194  -0.335  1.00  0.00     0.204 A 
ATOM     16  N   UNL     1       0.031   1.385  -0.270  1.00  0.00    -0.207 NA
ATOM     17  C   UNL     1       0.000  -1.012  -0.186  1.00  0.00     0.311 A 
ATOM     18  C   UNL     1      -1.378  -0.995   0.020  1.00  0.00     0.093 A 
ATOM     19  C   UNL     1      -2.018   0.235   0.138  1.00  0.00     0.054 A 
BRANCH  15  20
ATOM     20  N   UNL     1       2.028   0.293  -0.624  1.00  0.00    -0.378 N 
ATOM     21  H   UNL     1       2.448   1.179  -0.717  1.00  0.00     0.158 HD
ATOM     22  H   UNL     1       2.569  -0.522  -0.737  1.00  0.00     0.158 HD
ENDBRANCH  15  20
BRANCH  17  23
ATOM     23  N   UNL     1       0.694  -2.292  -0.198  1.00  0.00     0.066 N 
ATOM     24  O   UNL     1       0.027  -3.299  -0.481  1.00  0.00    -0.258 OA
ATOM     25  O   UNL     1       1.895  -2.316   0.112  1.00  0.00    -0.258 OA
ENDBRANCH  17  23
ENDBRANCH   9  14
ENDBRANCH   6   8
ENDBRANCH   5   6
ENDBRANCH   4   5
ENDBRANCH   3   4
ENDBRANCH   2   3
ENDBRANCH   1   2
BRANCH   1  26
ATOM     26  C   UNL     1       1.799   2.974   2.350  1.00  0.00     0.261 C 
BRANCH  26  27
ATOM     27  O   UNL     1       0.806   3.103   3.381  1.00  0.00    -0.460 OA
BRANCH  27  28
ATOM     28  C   UNL     1       1.282   3.573   4.556  1.00  0.00     0.338 C 
ATOM     29  O   UNL     1       2.449   3.833   4.826  1.00  0.00    -0.246 OA
BRANCH  28  30
ATOM     30  C   UNL     1       0.171   3.904   5.465  1.00  0.00     0.060 A 
ATOM     31  C   UNL     1       0.216   5.151   6.099  1.00  0.00     0.016 A 
ATOM     32  C   UNL     1      -0.846   2.992   5.761  1.00  0.00     0.016 A 
ATOM     33  C   UNL     1      -0.714   5.465   7.085  1.00  0.00     0.010 A 
ATOM     34  C   UNL     1      -1.780   3.309   6.754  1.00  0.00     0.010 A 
ATOM     35  C   UNL     1      -1.691   4.529   7.449  1.00  0.00    -0.014 A 
BRANCH  35  36
ATOM     36  C   UNL     1      -2.499   4.773   8.669  1.00  0.00     0.031 A 
ATOM     37  C   UNL     1      -2.102   4.092   9.952  1.00  0.00     0.074 A 
ATOM     38  C   UNL     1      -3.526   5.640   8.649  1.00  0.00     0.049 A 
ATOM     39  N   UNL     1      -2.645   4.170  11.139  1.00  0.00    -0.248 NA
ATOM     40  C   UNL     1      -0.934   3.202   9.880  1.00  0.00     0.031 C 
ATOM     41  C   UNL     1      -3.964   6.398   7.478  1.00  0.00     0.029 A 
ATOM     42  N   UNL     1      -4.378   6.037   9.647  1.00  0.00    -0.354 N 
ATOM     43  C   UNL     1      -1.881   3.346  11.959  1.00  0.00     0.074 A 
ATOM     44  C   UNL     1      -0.874   2.736  11.117  1.00  0.00     0.031 C 
ATOM     45  C   UNL     1      -5.001   7.178   7.829  1.00  0.00     0.029 A 
ATOM     46  C   UNL     1      -5.322   6.948   9.236  1.00  0.00     0.049 A 
ATOM     47  H   UNL     1      -4.320   5.702  10.571  1.00  0.00     0.167 HD
ATOM     48  C   UNL     1      -1.998   3.131  13.294  1.00  0.00     0.034 A 
ATOM     49  C   UNL     1      -6.335   7.520   9.917  1.00  0.00     0.034 A 
ATOM     50  C   UNL     1      -3.023   3.732  14.114  1.00  0.00     0.049 A 
ATOM     51  C   UNL     1      -6.516   7.182  11.377  1.00  0.00     0.074 A 
ATOM     52  C   UNL     1      -3.243   3.583  15.472  1.00  0.00     0.029 A 
ATOM     53  N   UNL     1      -4.011   4.591  13.646  1.00  0.00    -0.354 N 
ATOM     54  N   UNL     1      -5.791   6.397  12.141  1.00  0.00    -0.248 NA
ATOM     55  C   UNL     1      -7.648   7.815  12.065  1.00  0.00     0.031 C 
ATOM     56  C   UNL     1      -4.403   4.291  15.810  1.00  0.00     0.029 A 
ATOM     57  C   UNL     1      -4.863   4.949  14.681  1.00  0.00     0.049 A 
ATOM     58  H   UNL     1      -4.095   4.900  12.715  1.00  0.00     0.167 HD
ATOM     59  C   UNL     1      -6.362   6.469  13.409  1.00  0.00     0.074 A 
ATOM     60  C   UNL     1      -7.483   7.382  13.306  1.00  0.00     0.031 C 
ATOM     61  C   UNL     1      -5.990   5.846  14.558  1.00  0.00     0.034 A 
BRANCH  48  62
ATOM     62  C   UNL     1      -1.019   2.166  13.923  1.00  0.00     0.023 A 
ATOM     63  C   UNL     1       0.366   2.413  13.924  1.00  0.00     0.031 A 
ATOM     64  C   UNL     1      -1.468   0.952  14.472  1.00  0.00     0.131 A 
ATOM     65  C   UNL     1       1.254   1.427  14.378  1.00  0.00     0.055 A 
ATOM     66  C   UNL     1      -0.584   0.011  15.004  1.00  0.00     0.041 A 
ATOM     67  F   UNL     1      -2.775   0.646  14.479  1.00  0.00    -0.206 F 
ATOM     68  C   UNL     1       0.788   0.237  14.941  1.00  0.00     0.022 A 
BRANCH  65  69
ATOM     69  S   UNL     1       3.027   1.646  14.060  1.00  0.00     0.124 S 
ATOM     70  O   UNL     1       3.049   1.797  12.607  1.00  0.00    -0.237 OA
ATOM     71  O   UNL     1       3.341   2.841  14.833  1.00  0.00    -0.237 OA
ATOM     72  O   UNL     1       3.620   0.406  14.558  1.00  0.00    -0.744 OA
ENDBRANCH  65  69
ENDBRANCH  48  62
BRANCH  49  73
ATOM     73  C   UNL     1      -7.273   8.452   9.229  1.00  0.00     0.023 A 
ATOM     74  C   UNL     1      -7.357   9.802   9.603  1.00  0.00     0.031 A 
ATOM     75  C   UNL     1      -8.130   7.993   8.213  1.00  0.00     0.131 A 
ATOM     76  C   UNL     1      -8.304  10.639   8.991  1.00  0.00     0.055 A 
ATOM     77  C   UNL     1      -9.036   8.841   7.574  1.00  0.00     0.041 A 
ATOM     78  F   UNL     1      -8.090   6.710   7.819  1.00  0.00    -0.206 F 
ATOM     79  C   UNL     1      -9.134  10.170   7.971  1.00  0.00     0.022 A 
BRANCH  76  80
ATOM     80  S   UNL     1      -8.483  12.338   9.600  1.00  0.00     0.124 S 
ATOM     81  O   UNL     1      -8.840  12.117  10.996  1.00  0.00    -0.237 OA
ATOM     82  O   UNL     1      -7.155  12.889   9.355  1.00  0.00    -0.237 OA
ATOM     83  O   UNL     1      -9.547  12.888   8.762  1.00  0.00    -0.744 OA
ENDBRANCH  76  80
ENDBRANCH  49  73
BRANCH  61  84
ATOM     84  C   UNL     1      -6.786   6.170  15.800  1.00  0.00     0.023 A 
ATOM     85  C   UNL     1      -8.134   5.795  15.936  1.00  0.00     0.031 A 
ATOM     86  C   UNL     1      -6.188   6.881  16.856  1.00  0.00     0.131 A 
ATOM     87  C   UNL     1      -8.857   6.186  17.073  1.00  0.00     0.055 A 
ATOM     88  C   UNL     1      -6.895   7.212  18.013  1.00  0.00     0.041 A 
ATOM     89  F   UNL     1      -4.904   7.266  16.781  1.00  0.00    -0.206 F 
ATOM     90  C   UNL     1      -8.242   6.877  18.120  1.00  0.00     0.022 A 
BRANCH  87  91
ATOM     91  S   UNL     1     -10.642   5.864  17.124  1.00  0.00     0.124 S 
ATOM     92  O   UNL     1     -11.111   6.566  15.933  1.00  0.00    -0.237 OA
ATOM     93  O   UNL     1     -10.698   4.407  17.068  1.00  0.00    -0.237 OA
ATOM     94  O   UNL     1     -11.061   6.452  18.395  1.00  0.00    -0.744 OA
ENDBRANCH  87  91
ENDBRANCH  61  84
ENDBRANCH  35  36
ENDBRANCH  28  30
ENDBRANCH  27  28
ENDBRANCH  26  27
ENDBRANCH   1  26
TORSDOF 20
