REMARK SMILES CCC[C@@H](Oc1ccc(-c2ccccc2)cc1)C(=O)OCCOCCOC(=O)c1ccc(-c2c3nc(c(-c4cc(S(=O)(=O)[O-])ccc4F)c4ccc([nH]4)c(-c4cc(S(=O)(=O)[O-])ccc4F)c4nc(c(-c5cc(S(=O)(=O)[O-])ccc5F)c5ccc2[nH]5)C=C4)C=C3)cc1
REMARK SMILES IDX 23 1 22 2 21 3 20 4 18 5 19 6 4 7 3 8 2 9 1 10 5 11 6 12
REMARK SMILES IDX 7 13 17 14 8 15 16 16 9 17 10 18 11 19 15 20 12 21 14 22
REMARK SMILES IDX 13 23 24 24 25 25 26 26 27 27 28 28 29 29 30 30 91 31 31 32
REMARK SMILES IDX 90 33 32 34 33 35 34 36 84 37 35 38 89 39 83 40 85 41 36 42
REMARK SMILES IDX 88 43 82 44 81 45 37 47 69 48 49 49 68 50 50 51 53 52 67 53
REMARK SMILES IDX 86 54 51 55 52 56 66 58 87 59 54 60 38 61 39 62 47 63 40 64
REMARK SMILES IDX 46 65 48 66 45 67 41 68 42 69 43 70 44 71 70 72 71 73 79 74
REMARK SMILES IDX 72 75 78 76 80 77 77 78 73 79 74 80 75 81 76 82 55 83 56 84
REMARK SMILES IDX 64 85 57 86 63 87 65 88 62 89 58 90 59 91 60 92 61 93
REMARK H PARENT 85 46 53 57
REMARK Flexibility Score: inf
ROOT
ATOM      1  O   UNL     1       3.410   5.887   1.738  1.00  0.00    -0.374 OA
ENDROOT
BRANCH   1   2
ATOM      2  C   UNL     1       2.331   6.243   2.604  1.00  0.00     0.202 C 
BRANCH   2   3
ATOM      3  C   UNL     1       0.911   6.009   2.076  1.00  0.00     0.261 C 
BRANCH   3   4
ATOM      4  O   UNL     1       0.571   4.610   2.032  1.00  0.00    -0.461 OA
BRANCH   4   5
ATOM      5  C   UNL     1       0.267   4.098   0.805  1.00  0.00     0.347 C 
ATOM      6  O   UNL     1       0.298   4.729  -0.247  1.00  0.00    -0.248 OA
BRANCH   5   7
ATOM      7  C   UNL     1      -0.116   2.618   0.870  1.00  0.00     0.282 C 
BRANCH   7   8
ATOM      8  C   UNL     1       0.887   1.799   1.714  1.00  0.00     0.057 C 
BRANCH   8   9
ATOM      9  C   UNL     1       1.112   0.332   1.311  1.00  0.00     0.001 C 
ATOM     10  C   UNL     1       1.487   0.114  -0.146  1.00  0.00     0.004 C 
ENDBRANCH   8   9
ENDBRANCH   7   8
BRANCH   7  11
ATOM     11  O   UNL     1      -1.443   2.593   1.423  1.00  0.00    -0.479 OA
BRANCH  11  12
ATOM     12  C   UNL     1      -2.136   1.504   0.981  1.00  0.00     0.120 A 
ATOM     13  C   UNL     1      -2.763   1.500  -0.259  1.00  0.00     0.047 A 
ATOM     14  C   UNL     1      -2.212   0.399   1.812  1.00  0.00     0.047 A 
ATOM     15  C   UNL     1      -3.405   0.337  -0.700  1.00  0.00     0.012 A 
ATOM     16  C   UNL     1      -2.805  -0.772   1.347  1.00  0.00     0.012 A 
ATOM     17  C   UNL     1      -3.416  -0.836   0.080  1.00  0.00    -0.018 A 
BRANCH  17  18
ATOM     18  C   UNL     1      -4.038  -2.096  -0.392  1.00  0.00    -0.018 A 
ATOM     19  C   UNL     1      -4.042  -2.462  -1.750  1.00  0.00     0.009 A 
ATOM     20  C   UNL     1      -4.631  -2.996   0.515  1.00  0.00     0.009 A 
ATOM     21  C   UNL     1      -4.609  -3.668  -2.178  1.00  0.00     0.001 A 
ATOM     22  C   UNL     1      -5.183  -4.208   0.094  1.00  0.00     0.001 A 
ATOM     23  C   UNL     1      -5.174  -4.543  -1.254  1.00  0.00     0.000 A 
ENDBRANCH  17  18
ENDBRANCH  11  12
ENDBRANCH   7  11
ENDBRANCH   5   7
ENDBRANCH   4   5
ENDBRANCH   3   4
ENDBRANCH   2   3
ENDBRANCH   1   2
BRANCH   1  24
ATOM     24  C   UNL     1       3.661   4.500   1.541  1.00  0.00     0.202 C 
BRANCH  24  25
ATOM     25  C   UNL     1       4.358   3.739   2.680  1.00  0.00     0.261 C 
BRANCH  25  26
ATOM     26  O   UNL     1       3.654   3.804   3.933  1.00  0.00    -0.460 OA
BRANCH  26  27
ATOM     27  C   UNL     1       4.270   4.560   4.876  1.00  0.00     0.338 C 
ATOM     28  O   UNL     1       5.364   5.106   4.774  1.00  0.00    -0.246 OA
BRANCH  27  29
ATOM     29  C   UNL     1       3.381   4.808   6.026  1.00  0.00     0.060 A 
ATOM     30  C   UNL     1       3.167   6.144   6.390  1.00  0.00     0.016 A 
ATOM     31  C   UNL     1       2.852   3.772   6.799  1.00  0.00     0.016 A 
ATOM     32  C   UNL     1       2.473   6.448   7.558  1.00  0.00     0.010 A 
ATOM     33  C   UNL     1       2.157   4.082   7.977  1.00  0.00     0.010 A 
ATOM     34  C   UNL     1       1.998   5.420   8.383  1.00  0.00    -0.014 A 
BRANCH  34  35
ATOM     35  C   UNL     1       1.479   5.763   9.733  1.00  0.00     0.031 A 
ATOM     36  C   UNL     1       2.381   5.600  10.929  1.00  0.00     0.074 A 
ATOM     37  C   UNL     1       0.247   6.284   9.886  1.00  0.00     0.049 A 
ATOM     38  N   UNL     1       2.149   5.864  12.189  1.00  0.00    -0.248 NA
ATOM     39  C   UNL     1       3.725   5.065  10.663  1.00  0.00     0.031 C 
ATOM     40  C   UNL     1      -0.701   6.533   8.802  1.00  0.00     0.029 A 
ATOM     41  N   UNL     1      -0.413   6.704  11.014  1.00  0.00    -0.354 N 
ATOM     42  C   UNL     1       3.318   5.533  12.869  1.00  0.00     0.074 A 
ATOM     43  C   UNL     1       4.237   5.004  11.883  1.00  0.00     0.031 C 
ATOM     44  C   UNL     1      -1.823   7.065   9.318  1.00  0.00     0.029 A 
ATOM     45  C   UNL     1      -1.685   7.165  10.770  1.00  0.00     0.049 A 
ATOM     46  H   UNL     1      -0.013   6.678  11.913  1.00  0.00     0.167 HD
ATOM     47  C   UNL     1       3.603   5.668  14.189  1.00  0.00     0.034 A 
ATOM     48  C   UNL     1      -2.635   7.603  11.621  1.00  0.00     0.034 A 
ATOM     49  C   UNL     1       2.672   6.184  15.164  1.00  0.00     0.049 A 
ATOM     50  C   UNL     1      -2.325   7.667  13.097  1.00  0.00     0.074 A 
ATOM     51  C   UNL     1       2.860   6.368  16.524  1.00  0.00     0.029 A 
ATOM     52  N   UNL     1       1.371   6.588  14.889  1.00  0.00    -0.354 N 
ATOM     53  N   UNL     1      -1.214   7.357  13.725  1.00  0.00    -0.248 NA
ATOM     54  C   UNL     1      -3.396   8.154  13.977  1.00  0.00     0.031 C 
ATOM     55  C   UNL     1       1.654   6.814  17.079  1.00  0.00     0.029 A 
ATOM     56  C   UNL     1       0.736   6.987  16.056  1.00  0.00     0.049 A 
ATOM     57  H   UNL     1       0.959   6.590  13.994  1.00  0.00     0.167 HD
ATOM     58  C   UNL     1      -1.445   7.641  15.069  1.00  0.00     0.074 A 
ATOM     59  C   UNL     1      -2.793   8.163  15.156  1.00  0.00     0.031 C 
ATOM     60  C   UNL     1      -0.617   7.490  16.135  1.00  0.00     0.034 A 
BRANCH  47  61
ATOM     61  C   UNL     1       4.962   5.198  14.654  1.00  0.00     0.023 A 
ATOM     62  C   UNL     1       6.150   5.807  14.210  1.00  0.00     0.031 A 
ATOM     63  C   UNL     1       5.072   4.102  15.527  1.00  0.00     0.131 A 
ATOM     64  C   UNL     1       7.393   5.271  14.582  1.00  0.00     0.055 A 
ATOM     65  C   UNL     1       6.311   3.623  15.957  1.00  0.00     0.041 A 
ATOM     66  F   UNL     1       3.975   3.465  15.967  1.00  0.00    -0.206 F 
ATOM     67  C   UNL     1       7.482   4.199  15.472  1.00  0.00     0.022 A 
BRANCH  64  68
ATOM     68  S   UNL     1       8.888   5.900  13.769  1.00  0.00     0.124 S 
ATOM     69  O   UNL     1       8.589   5.644  12.362  1.00  0.00    -0.237 OA
ATOM     70  O   UNL     1       8.902   7.301  14.176  1.00  0.00    -0.237 OA
ATOM     71  O   UNL     1       9.956   5.076  14.331  1.00  0.00    -0.744 OA
ENDBRANCH  64  68
ENDBRANCH  47  61
BRANCH  48  72
ATOM     72  C   UNL     1      -3.986   7.984  11.114  1.00  0.00     0.023 A 
ATOM     73  C   UNL     1      -4.468   9.297  11.236  1.00  0.00     0.031 A 
ATOM     74  C   UNL     1      -4.839   7.018  10.551  1.00  0.00     0.131 A 
ATOM     75  C   UNL     1      -5.781   9.599  10.842  1.00  0.00     0.055 A 
ATOM     76  C   UNL     1      -6.125   7.335  10.112  1.00  0.00     0.041 A 
ATOM     77  F   UNL     1      -4.429   5.747  10.414  1.00  0.00    -0.206 F 
ATOM     78  C   UNL     1      -6.608   8.630  10.269  1.00  0.00     0.022 A 
BRANCH  75  79
ATOM     79  S   UNL     1      -6.426  11.263  11.166  1.00  0.00     0.124 S 
ATOM     80  O   UNL     1      -6.286  11.360  12.614  1.00  0.00    -0.237 OA
ATOM     81  O   UNL     1      -5.524  12.096  10.377  1.00  0.00    -0.237 OA
ATOM     82  O   UNL     1      -7.800  11.197  10.674  1.00  0.00    -0.744 OA
ENDBRANCH  75  79
ENDBRANCH  48  72
BRANCH  60  83
ATOM     83  C   UNL     1      -1.141   7.938  17.480  1.00  0.00     0.023 A 
ATOM     84  C   UNL     1      -2.225   7.297  18.105  1.00  0.00     0.031 A 
ATOM     85  C   UNL     1      -0.564   9.043  18.132  1.00  0.00     0.131 A 
ATOM     86  C   UNL     1      -2.742   7.806  19.307  1.00  0.00     0.055 A 
ATOM     87  C   UNL     1      -1.041   9.505  19.360  1.00  0.00     0.041 A 
ATOM     88  F   UNL     1       0.473   9.696  17.583  1.00  0.00    -0.206 F 
ATOM     89  C   UNL     1      -2.146   8.896  19.946  1.00  0.00     0.022 A 
BRANCH  86  90
ATOM     90  S   UNL     1      -4.273   7.093  19.969  1.00  0.00     0.124 S 
ATOM     91  O   UNL     1      -5.196   7.263  18.852  1.00  0.00    -0.237 OA
ATOM     92  O   UNL     1      -3.876   5.720  20.264  1.00  0.00    -0.237 OA
ATOM     93  O   UNL     1      -4.559   7.920  21.140  1.00  0.00    -0.744 OA
ENDBRANCH  86  90
ENDBRANCH  60  83
ENDBRANCH  34  35
ENDBRANCH  27  29
ENDBRANCH  26  27
ENDBRANCH  25  26
ENDBRANCH  24  25
ENDBRANCH   1  24
TORSDOF 22
