REMARK SMILES COc1cccc(C(=O)Nc2ccc(NC(=O)[C@@H]3[C@@H](C(=O)OCCOCCOC(=O)c4ccc(-c5c6nc(c(-c7cc(S(=O)(=O)[O-])ccc7F)c7ccc([nH]7)c(-c7cc(S(=O)(=O)[O-])ccc7F)c7nc(c(-c8cc(S(=O)(=O)[O-])ccc8F)c8ccc5[nH]8)C=C7)C=C6)cc4)[C@@H]4C=C[C@H]3C4)cc2)c1
REMARK SMILES IDX 24 1 23 2 22 3 20 4 21 5 19 6 18 7 97 8 94 9 96 10 98 11
REMARK SMILES IDX 95 12 16 13 15 14 17 16 14 17 11 18 12 19 100 20 13 21 99 22
REMARK SMILES IDX 10 23 8 24 9 25 7 27 3 28 4 29 101 30 5 31 6 32 2 33 1 34
REMARK SMILES IDX 25 35 26 36 27 37 28 38 29 39 30 40 31 41 32 42 93 43 33 44
REMARK SMILES IDX 92 45 34 46 35 47 36 48 86 49 37 50 91 51 85 52 87 53 38 54
REMARK SMILES IDX 90 55 84 56 83 57 39 59 71 60 51 61 70 62 52 63 55 64 69 65
REMARK SMILES IDX 88 66 53 67 54 68 68 70 89 71 56 72 40 73 41 74 49 75 42 76
REMARK SMILES IDX 48 77 50 78 47 79 43 80 44 81 45 82 46 83 72 84 73 85 81 86
REMARK SMILES IDX 74 87 80 88 82 89 79 90 75 91 76 92 77 93 78 94 57 95 58 96
REMARK SMILES IDX 66 97 59 98 65 99 67 100 64 101 60 102 61 103 62 104 63 105
REMARK H PARENT 15 15 10 26 87 58 55 69
REMARK Flexibility Score: inf
ROOT
ATOM      1  C   UNL     1       5.804   7.095   4.515  1.00  0.00     0.202 C 
ENDROOT
BRANCH   1   2
ATOM      2  C   UNL     1       6.638   6.485   3.387  1.00  0.00     0.261 C 
BRANCH   2   3
ATOM      3  O   UNL     1       5.880   5.571   2.587  1.00  0.00    -0.463 OA
BRANCH   3   4
ATOM      4  C   UNL     1       6.210   4.252   2.693  1.00  0.00     0.310 C 
ATOM      5  O   UNL     1       7.098   3.796   3.403  1.00  0.00    -0.252 OA
BRANCH   4   6
ATOM      6  C   UNL     1       5.284   3.431   1.823  1.00  0.00     0.119 C 
ATOM      7  C   UNL     1       5.696   1.891   1.761  1.00  0.00     0.100 C 
ATOM      8  C   UNL     1       6.070   1.783   0.267  1.00  0.00     0.025 C 
ATOM      9  C   UNL     1       5.458   3.917   0.362  1.00  0.00     0.027 C 
ATOM     10  C   UNL     1       4.831   1.929  -0.576  1.00  0.00    -0.027 C 
ATOM     11  C   UNL     1       6.709   3.142  -0.029  1.00  0.00     0.017 C 
ATOM     12  C   UNL     1       4.451   3.209  -0.507  1.00  0.00    -0.027 C 
BRANCH   7  13
ATOM     13  C   UNL     1       4.598   1.014   2.408  1.00  0.00     0.228 C 
ATOM     14  N   UNL     1       4.277  -0.283   2.103  1.00  0.00    -0.326 N 
ATOM     15  H   UNL     1       3.689  -0.715   2.764  1.00  0.00     0.169 HD
ATOM     16  O   UNL     1       3.933   1.493   3.343  1.00  0.00    -0.274 OA
BRANCH  14  17
ATOM     17  C   UNL     1       4.630  -1.109   1.028  1.00  0.00     0.041 A 
ATOM     18  C   UNL     1       4.851  -1.663  -1.656  1.00  0.00     0.041 A 
ATOM     19  C   UNL     1       5.999  -1.394  -0.908  1.00  0.00     0.028 A 
ATOM     20  C   UNL     1       3.724  -2.092  -0.974  1.00  0.00     0.028 A 
ATOM     21  C   UNL     1       5.888  -1.143   0.464  1.00  0.00     0.028 A 
ATOM     22  C   UNL     1       3.603  -1.800   0.388  1.00  0.00     0.028 A 
BRANCH  18  23
ATOM     23  N   UNL     1       4.889  -1.321  -3.019  1.00  0.00    -0.322 N 
ATOM     24  C   UNL     1       3.926  -1.019  -3.964  1.00  0.00     0.255 C 
ATOM     25  O   UNL     1       4.306  -0.747  -5.106  1.00  0.00    -0.269 OA
ATOM     26  H   UNL     1       5.805  -1.289  -3.381  1.00  0.00     0.170 HD
BRANCH  24  27
ATOM     27  C   UNL     1       2.465  -1.008  -3.706  1.00  0.00     0.043 A 
ATOM     28  C   UNL     1       0.519  -0.597  -2.322  1.00  0.00     0.119 A 
ATOM     29  C   UNL     1      -0.268  -1.278  -3.255  1.00  0.00     0.046 A 
ATOM     30  C   UNL     1       1.875  -0.397  -2.590  1.00  0.00     0.060 A 
ATOM     31  C   UNL     1       0.285  -1.760  -4.440  1.00  0.00     0.005 A 
ATOM     32  C   UNL     1       1.653  -1.633  -4.661  1.00  0.00     0.014 A 
BRANCH  28  33
ATOM     33  O   UNL     1      -0.149  -0.234  -1.186  1.00  0.00    -0.497 OA
ATOM     34  C   UNL     1       0.561   0.469  -0.176  1.00  0.00     0.278 C 
ENDBRANCH  28  33
ENDBRANCH  24  27
ENDBRANCH  18  23
ENDBRANCH  14  17
ENDBRANCH   7  13
ENDBRANCH   4   6
ENDBRANCH   3   4
ENDBRANCH   2   3
ENDBRANCH   1   2
BRANCH   1  35
ATOM     35  O   UNL     1       5.214   6.212   5.463  1.00  0.00    -0.374 OA
BRANCH  35  36
ATOM     36  C   UNL     1       4.172   5.335   5.042  1.00  0.00     0.202 C 
BRANCH  36  37
ATOM     37  C   UNL     1       2.839   5.925   4.559  1.00  0.00     0.261 C 
BRANCH  37  38
ATOM     38  O   UNL     1       2.947   6.810   3.431  1.00  0.00    -0.460 OA
BRANCH  38  39
ATOM     39  C   UNL     1       2.693   8.108   3.715  1.00  0.00     0.338 C 
ATOM     40  O   UNL     1       2.425   8.582   4.822  1.00  0.00    -0.246 OA
BRANCH  39  41
ATOM     41  C   UNL     1       2.919   8.959   2.542  1.00  0.00     0.060 A 
ATOM     42  C   UNL     1       3.914   9.943   2.615  1.00  0.00     0.016 A 
ATOM     43  C   UNL     1       2.059   8.895   1.444  1.00  0.00     0.016 A 
ATOM     44  C   UNL     1       4.025  10.900   1.608  1.00  0.00     0.010 A 
ATOM     45  C   UNL     1       2.165   9.862   0.442  1.00  0.00     0.010 A 
ATOM     46  C   UNL     1       3.120  10.892   0.540  1.00  0.00    -0.014 A 
BRANCH  46  47
ATOM     47  C   UNL     1       3.036  12.057  -0.373  1.00  0.00     0.031 A 
ATOM     48  C   UNL     1       1.941  13.064  -0.152  1.00  0.00     0.074 A 
ATOM     49  C   UNL     1       3.909  12.212  -1.383  1.00  0.00     0.049 A 
ATOM     50  N   UNL     1       1.575  14.074  -0.895  1.00  0.00    -0.248 NA
ATOM     51  C   UNL     1       1.145  12.893   1.073  1.00  0.00     0.031 C 
ATOM     52  C   UNL     1       5.048  11.338  -1.653  1.00  0.00     0.029 A 
ATOM     53  N   UNL     1       3.958  13.151  -2.382  1.00  0.00    -0.354 N 
ATOM     54  C   UNL     1       0.489  14.650  -0.241  1.00  0.00     0.074 A 
ATOM     55  C   UNL     1       0.243  13.853   0.943  1.00  0.00     0.031 C 
ATOM     56  C   UNL     1       5.670  11.766  -2.765  1.00  0.00     0.029 A 
ATOM     57  C   UNL     1       4.942  12.911  -3.311  1.00  0.00     0.049 A 
ATOM     58  H   UNL     1       3.348  13.922  -2.429  1.00  0.00     0.167 HD
ATOM     59  C   UNL     1      -0.232  15.741  -0.599  1.00  0.00     0.034 A 
ATOM     60  C   UNL     1       5.197  13.518  -4.488  1.00  0.00     0.034 A 
ATOM     61  C   UNL     1       0.027  16.510  -1.792  1.00  0.00     0.049 A 
ATOM     62  C   UNL     1       4.327  14.674  -4.919  1.00  0.00     0.074 A 
ATOM     63  C   UNL     1      -0.630  17.637  -2.253  1.00  0.00     0.029 A 
ATOM     64  N   UNL     1       1.017  16.221  -2.724  1.00  0.00    -0.354 N 
ATOM     65  N   UNL     1       3.293  15.204  -4.306  1.00  0.00    -0.248 NA
ATOM     66  C   UNL     1       4.661  15.317  -6.197  1.00  0.00     0.031 C 
ATOM     67  C   UNL     1      -0.091  17.981  -3.498  1.00  0.00     0.029 A 
ATOM     68  C   UNL     1       0.965  17.126  -3.773  1.00  0.00     0.049 A 
ATOM     69  H   UNL     1       1.661  15.480  -2.651  1.00  0.00     0.167 HD
ATOM     70  C   UNL     1       2.879  16.267  -5.105  1.00  0.00     0.074 A 
ATOM     71  C   UNL     1       3.772  16.300  -6.245  1.00  0.00     0.031 C 
ATOM     72  C   UNL     1       1.863  17.146  -4.905  1.00  0.00     0.034 A 
BRANCH  59  73
ATOM     73  C   UNL     1      -1.406  16.111   0.278  1.00  0.00     0.023 A 
ATOM     74  C   UNL     1      -1.244  16.472   1.627  1.00  0.00     0.031 A 
ATOM     75  C   UNL     1      -2.717  16.045  -0.229  1.00  0.00     0.131 A 
ATOM     76  C   UNL     1      -2.370  16.661   2.443  1.00  0.00     0.055 A 
ATOM     77  C   UNL     1      -3.831  16.324   0.565  1.00  0.00     0.041 A 
ATOM     78  F   UNL     1      -2.940  15.683  -1.503  1.00  0.00    -0.206 F 
ATOM     79  C   UNL     1      -3.662  16.615   1.915  1.00  0.00     0.022 A 
BRANCH  76  80
ATOM     80  S   UNL     1      -2.128  16.790   4.236  1.00  0.00     0.124 S 
ATOM     81  O   UNL     1      -1.413  15.549   4.527  1.00  0.00    -0.237 OA
ATOM     82  O   UNL     1      -1.353  18.019   4.362  1.00  0.00    -0.237 OA
ATOM     83  O   UNL     1      -3.490  16.853   4.763  1.00  0.00    -0.744 OA
ENDBRANCH  76  80
ENDBRANCH  59  73
BRANCH  60  84
ATOM     84  C   UNL     1       6.289  13.011  -5.366  1.00  0.00     0.023 A 
ATOM     85  C   UNL     1       7.421  13.791  -5.643  1.00  0.00     0.031 A 
ATOM     86  C   UNL     1       6.203  11.737  -5.958  1.00  0.00     0.131 A 
ATOM     87  C   UNL     1       8.409  13.303  -6.514  1.00  0.00     0.055 A 
ATOM     88  C   UNL     1       7.211  11.237  -6.784  1.00  0.00     0.041 A 
ATOM     89  F   UNL     1       5.141  10.950  -5.723  1.00  0.00    -0.206 F 
ATOM     90  C   UNL     1       8.318  12.026  -7.074  1.00  0.00     0.022 A 
BRANCH  87  91
ATOM     91  S   UNL     1       9.792  14.390  -6.956  1.00  0.00     0.124 S 
ATOM     92  O   UNL     1       9.101  15.510  -7.584  1.00  0.00    -0.237 OA
ATOM     93  O   UNL     1      10.396  14.656  -5.654  1.00  0.00    -0.237 OA
ATOM     94  O   UNL     1      10.597  13.567  -7.857  1.00  0.00    -0.744 OA
ENDBRANCH  87  91
ENDBRANCH  60  84
BRANCH  72  95
ATOM     95  C   UNL     1       1.707  18.269  -5.903  1.00  0.00     0.023 A 
ATOM     96  C   UNL     1       1.287  18.046  -7.225  1.00  0.00     0.031 A 
ATOM     97  C   UNL     1       1.960  19.595  -5.503  1.00  0.00     0.131 A 
ATOM     98  C   UNL     1       1.168  19.130  -8.111  1.00  0.00     0.055 A 
ATOM     99  C   UNL     1       1.785  20.672  -6.371  1.00  0.00     0.041 A 
ATOM    100  F   UNL     1       2.366  19.865  -4.252  1.00  0.00    -0.206 F 
ATOM    101  C   UNL     1       1.396  20.442  -7.687  1.00  0.00     0.022 A 
BRANCH  98 102
ATOM    102  S   UNL     1       0.775  18.799  -9.851  1.00  0.00     0.124 S 
ATOM    103  O   UNL     1       1.889  17.949 -10.258  1.00  0.00    -0.237 OA
ATOM    104  O   UNL     1      -0.526  18.145  -9.760  1.00  0.00    -0.237 OA
ATOM    105  O   UNL     1       0.757  20.129 -10.458  1.00  0.00    -0.744 OA
ENDBRANCH  98 102
ENDBRANCH  72  95
ENDBRANCH  46  47
ENDBRANCH  39  41
ENDBRANCH  38  39
ENDBRANCH  37  38
ENDBRANCH  36  37
ENDBRANCH  35  36
ENDBRANCH   1  35
TORSDOF 22
