REMARK SMILES CC(C)CN(C)c1cc2c(cc1Cl)C=C(C(=O)OCCOCCOC(=O)c1ccc(-c3c4nc(c(-c5cc(S(=O)(=O)[O-])ccc5F)c5ccc([nH]5)c(-c5cc(S(=O)(=O)[O-])ccc5F)c5nc(c(-c6cc(S(=O)(=O)[O-])ccc6F)c6ccc3[nH]6)C=C5)C=C4)cc1)[C@@H](C(F)(F)F)O2
REMARK SMILES IDX 21 1 20 2 19 3 18 4 16 5 17 6 15 7 7 8 8 9 12 10 9 11 11 12
REMARK SMILES IDX 13 13 10 14 95 15 14 16 90 17 5 18 6 19 4 20 2 21 1 22 3 23
REMARK SMILES IDX 91 24 92 25 93 26 94 27 22 28 23 29 24 30 25 31 26 32 27 33
REMARK SMILES IDX 28 34 89 35 29 36 88 37 30 38 31 39 32 40 82 41 33 42 87 43
REMARK SMILES IDX 81 44 83 45 34 46 86 47 80 48 79 49 35 51 67 52 47 53 66 54
REMARK SMILES IDX 48 55 51 56 65 57 84 58 49 59 50 60 64 62 85 63 52 64 36 65
REMARK SMILES IDX 37 66 45 67 38 68 44 69 46 70 43 71 39 72 40 73 41 74 42 75
REMARK SMILES IDX 68 76 69 77 77 78 70 79 76 80 78 81 75 82 71 83 72 84 73 85
REMARK SMILES IDX 74 86 53 87 54 88 62 89 55 90 61 91 63 92 60 93 56 94 57 95
REMARK SMILES IDX 58 96 59 97
REMARK H PARENT 83 50 51 61
REMARK Flexibility Score: inf
ROOT
ATOM      1  O   UNL     1       0.378   2.599   8.811  1.00  0.00    -0.374 OA
ENDROOT
BRANCH   1   2
ATOM      2  C   UNL     1      -0.552   3.550   9.323  1.00  0.00     0.202 C 
BRANCH   2   3
ATOM      3  C   UNL     1      -1.028   4.674   8.397  1.00  0.00     0.261 C 
BRANCH   3   4
ATOM      4  O   UNL     1      -1.514   4.190   7.137  1.00  0.00    -0.460 OA
BRANCH   4   5
ATOM      5  C   UNL     1      -0.683   4.454   6.104  1.00  0.00     0.338 C 
ATOM      6  O   UNL     1       0.338   5.126   6.144  1.00  0.00    -0.246 OA
BRANCH   5   7
ATOM      7  C   UNL     1      -1.090   3.714   4.897  1.00  0.00     0.087 C 
ATOM      8  C   UNL     1      -0.954   1.901   0.216  1.00  0.00     0.059 A 
ATOM      9  C   UNL     1      -1.965   1.981   1.201  1.00  0.00     0.074 A 
ATOM     10  C   UNL     1       0.323   2.400   0.553  1.00  0.00     0.065 A 
ATOM     11  C   UNL     1      -1.693   2.496   2.475  1.00  0.00     0.130 A 
ATOM     12  C   UNL     1       0.621   2.788   1.855  1.00  0.00     0.034 A 
ATOM     13  Cl  UNL     1       1.577   2.631  -0.618  1.00  0.00    -0.082 Cl
ATOM     14  C   UNL     1      -0.385   2.829   2.813  1.00  0.00     0.019 A 
ATOM     15  O   UNL     1      -2.732   2.639   3.360  1.00  0.00    -0.475 OA
ATOM     16  C   UNL     1      -0.067   3.306   4.139  1.00  0.00     0.027 C 
ATOM     17  C   UNL     1      -2.529   3.554   4.493  1.00  0.00     0.316 C 
BRANCH   8  18
ATOM     18  N   UNL     1      -1.207   1.341  -1.043  1.00  0.00    -0.373 N 
ATOM     19  C   UNL     1      -2.253   1.988  -1.827  1.00  0.00     0.143 C 
BRANCH  18  20
ATOM     20  C   UNL     1      -1.024  -0.118  -1.202  1.00  0.00     0.119 C 
BRANCH  20  21
ATOM     21  C   UNL     1       0.461  -0.533  -1.313  1.00  0.00     0.002 C 
ATOM     22  C   UNL     1       1.069  -0.906   0.044  1.00  0.00     0.009 C 
ATOM     23  C   UNL     1       0.653  -1.717  -2.267  1.00  0.00     0.009 C 
ENDBRANCH  20  21
ENDBRANCH  18  20
ENDBRANCH   8  18
BRANCH  17  24
ATOM     24  C   UNL     1      -3.178   4.918   4.213  1.00  0.00     0.430 C 
ATOM     25  F   UNL     1      -4.459   4.784   3.799  1.00  0.00    -0.167 F 
ATOM     26  F   UNL     1      -3.201   5.689   5.326  1.00  0.00    -0.167 F 
ATOM     27  F   UNL     1      -2.513   5.609   3.258  1.00  0.00    -0.167 F 
ENDBRANCH  17  24
ENDBRANCH   5   7
ENDBRANCH   4   5
ENDBRANCH   3   4
ENDBRANCH   2   3
ENDBRANCH   1   2
BRANCH   1  28
ATOM     28  C   UNL     1      -0.075   1.627   7.872  1.00  0.00     0.202 C 
BRANCH  28  29
ATOM     29  C   UNL     1      -1.089   0.564   8.318  1.00  0.00     0.261 C 
BRANCH  29  30
ATOM     30  O   UNL     1      -2.355   1.114   8.716  1.00  0.00    -0.460 OA
BRANCH  30  31
ATOM     31  C   UNL     1      -2.621   1.025  10.044  1.00  0.00     0.338 C 
ATOM     32  O   UNL     1      -1.911   0.521  10.903  1.00  0.00    -0.246 OA
BRANCH  31  33
ATOM     33  C   UNL     1      -3.820   1.825  10.354  1.00  0.00     0.060 A 
ATOM     34  C   UNL     1      -5.038   1.563   9.728  1.00  0.00     0.016 A 
ATOM     35  C   UNL     1      -3.718   2.831  11.324  1.00  0.00     0.016 A 
ATOM     36  C   UNL     1      -6.165   2.300  10.096  1.00  0.00     0.010 A 
ATOM     37  C   UNL     1      -4.846   3.567  11.689  1.00  0.00     0.010 A 
ATOM     38  C   UNL     1      -6.083   3.293  11.092  1.00  0.00    -0.014 A 
BRANCH  38  39
ATOM     39  C   UNL     1      -7.322   3.928  11.610  1.00  0.00     0.031 A 
ATOM     40  C   UNL     1      -7.665   5.356  11.307  1.00  0.00     0.074 A 
ATOM     41  C   UNL     1      -8.136   3.188  12.389  1.00  0.00     0.049 A 
ATOM     42  N   UNL     1      -8.745   6.019  11.630  1.00  0.00    -0.248 NA
ATOM     43  C   UNL     1      -6.676   6.143  10.557  1.00  0.00     0.031 C 
ATOM     44  C   UNL     1      -7.863   1.811  12.800  1.00  0.00     0.029 A 
ATOM     45  N   UNL     1      -9.343   3.479  12.973  1.00  0.00    -0.354 N 
ATOM     46  C   UNL     1      -8.580   7.296  11.108  1.00  0.00     0.074 A 
ATOM     47  C   UNL     1      -7.271   7.329  10.489  1.00  0.00     0.031 C 
ATOM     48  C   UNL     1      -8.881   1.369  13.550  1.00  0.00     0.029 A 
ATOM     49  C   UNL     1      -9.863   2.439  13.710  1.00  0.00     0.049 A 
ATOM     50  H   UNL     1      -9.794   4.348  12.875  1.00  0.00     0.167 HD
ATOM     51  C   UNL     1      -9.455   8.329  11.127  1.00  0.00     0.034 A 
ATOM     52  C   UNL     1     -10.995   2.352  14.439  1.00  0.00     0.034 A 
ATOM     53  C   UNL     1     -10.754   8.275  11.753  1.00  0.00     0.049 A 
ATOM     54  C   UNL     1     -11.950   3.518  14.443  1.00  0.00     0.074 A 
ATOM     55  C   UNL     1     -11.731   9.256  11.769  1.00  0.00     0.029 A 
ATOM     56  N   UNL     1     -11.259   7.203  12.475  1.00  0.00    -0.354 N 
ATOM     57  N   UNL     1     -11.836   4.675  13.834  1.00  0.00    -0.248 NA
ATOM     58  C   UNL     1     -13.195   3.368  15.208  1.00  0.00     0.031 C 
ATOM     59  C   UNL     1     -12.785   8.813  12.565  1.00  0.00     0.029 A 
ATOM     60  C   UNL     1     -12.516   7.515  12.968  1.00  0.00     0.049 A 
ATOM     61  H   UNL     1     -10.793   6.347  12.615  1.00  0.00     0.167 HD
ATOM     62  C   UNL     1     -13.001   5.380  14.125  1.00  0.00     0.074 A 
ATOM     63  C   UNL     1     -13.822   4.506  14.934  1.00  0.00     0.031 C 
ATOM     64  C   UNL     1     -13.348   6.640  13.760  1.00  0.00     0.034 A 
BRANCH  51  65
ATOM     65  C   UNL     1      -9.094   9.614  10.422  1.00  0.00     0.023 A 
ATOM     66  C   UNL     1      -9.031  10.820  11.147  1.00  0.00     0.031 A 
ATOM     67  C   UNL     1      -9.028   9.676   9.020  1.00  0.00     0.131 A 
ATOM     68  C   UNL     1      -8.977  12.041  10.463  1.00  0.00     0.055 A 
ATOM     69  C   UNL     1      -8.923  10.893   8.344  1.00  0.00     0.041 A 
ATOM     70  F   UNL     1      -9.089   8.555   8.284  1.00  0.00    -0.206 F 
ATOM     71  C   UNL     1      -8.918  12.083   9.066  1.00  0.00     0.022 A 
BRANCH  68  72
ATOM     72  S   UNL     1      -9.082  13.618  11.351  1.00  0.00     0.124 S 
ATOM     73  O   UNL     1      -7.870  14.299  10.901  1.00  0.00    -0.237 OA
ATOM     74  O   UNL     1     -10.334  14.171  10.842  1.00  0.00    -0.237 OA
ATOM     75  O   UNL     1      -9.087  13.229  12.757  1.00  0.00    -0.744 OA
ENDBRANCH  68  72
ENDBRANCH  51  65
BRANCH  52  76
ATOM     76  C   UNL     1     -11.284   1.088  15.178  1.00  0.00     0.023 A 
ATOM     77  C   UNL     1     -10.395   0.621  16.164  1.00  0.00     0.031 A 
ATOM     78  C   UNL     1     -12.379   0.276  14.841  1.00  0.00     0.131 A 
ATOM     79  C   UNL     1     -10.574  -0.650  16.722  1.00  0.00     0.055 A 
ATOM     80  C   UNL     1     -12.601  -0.956  15.461  1.00  0.00     0.041 A 
ATOM     81  F   UNL     1     -13.245   0.665  13.893  1.00  0.00    -0.206 F 
ATOM     82  C   UNL     1     -11.684  -1.433  16.393  1.00  0.00     0.022 A 
BRANCH  79  83
ATOM     83  S   UNL     1      -9.291  -1.390  17.770  1.00  0.00     0.124 S 
ATOM     84  O   UNL     1     -10.004  -1.591  19.027  1.00  0.00    -0.237 OA
ATOM     85  O   UNL     1      -8.965  -2.606  17.028  1.00  0.00    -0.237 OA
ATOM     86  O   UNL     1      -8.239  -0.379  17.793  1.00  0.00    -0.744 OA
ENDBRANCH  79  83
ENDBRANCH  52  76
BRANCH  64  87
ATOM     87  C   UNL     1     -14.682   7.192  14.213  1.00  0.00     0.023 A 
ATOM     88  C   UNL     1     -15.631   7.607  13.259  1.00  0.00     0.031 A 
ATOM     89  C   UNL     1     -14.942   7.464  15.567  1.00  0.00     0.131 A 
ATOM     90  C   UNL     1     -16.766   8.320  13.666  1.00  0.00     0.055 A 
ATOM     91  C   UNL     1     -16.104   8.122  15.973  1.00  0.00     0.041 A 
ATOM     92  F   UNL     1     -14.064   7.103  16.517  1.00  0.00    -0.206 F 
ATOM     93  C   UNL     1     -17.014   8.570  15.019  1.00  0.00     0.022 A 
BRANCH  90  94
ATOM     94  S   UNL     1     -17.907   9.040  12.451  1.00  0.00     0.124 S 
ATOM     95  O   UNL     1     -19.167   8.386  12.796  1.00  0.00    -0.237 OA
ATOM     96  O   UNL     1     -17.835  10.463  12.770  1.00  0.00    -0.237 OA
ATOM     97  O   UNL     1     -17.340   8.655  11.163  1.00  0.00    -0.744 OA
ENDBRANCH  90  94
ENDBRANCH  64  87
ENDBRANCH  38  39
ENDBRANCH  31  33
ENDBRANCH  30  31
ENDBRANCH  29  30
ENDBRANCH  28  29
ENDBRANCH   1  28
TORSDOF 21
