REMARK SMILES CCn1ccnc1[C@H](F)C(=O)OCCOCCOC(=O)c1ccc(-c2c3nc(c(-c4cc(S(=O)(=O)[O-])ccc4F)c4ccc([nH]4)c(-c4cc(S(=O)(=O)[O-])ccc4F)c4nc(c(-c5cc(S(=O)(=O)[O-])ccc5F)c5ccc2[nH]5)C=C4)C=C3)cc1
REMARK SMILES IDX 16 1 15 2 14 3 13 4 12 5 10 6 11 7 8 8 9 9 7 10 3 11 4 12
REMARK SMILES IDX 5 13 6 14 2 15 1 16 17 17 18 18 19 19 20 20 21 21 22 22
REMARK SMILES IDX 83 23 23 24 82 25 24 26 25 27 26 28 76 29 27 30 81 31 75 32
REMARK SMILES IDX 77 33 28 34 80 35 74 36 73 37 29 39 61 40 41 41 60 42 42 43
REMARK SMILES IDX 45 44 59 45 78 46 43 47 44 48 58 50 79 51 46 52 30 53 31 54
REMARK SMILES IDX 39 55 32 56 38 57 40 58 37 59 33 60 34 61 35 62 36 63 62 64
REMARK SMILES IDX 63 65 71 66 64 67 70 68 72 69 69 70 65 71 66 72 67 73 68 74
REMARK SMILES IDX 47 75 48 76 56 77 49 78 55 79 57 80 54 81 50 82 51 83 52 84
REMARK SMILES IDX 53 85
REMARK H PARENT 77 38 45 49
REMARK Flexibility Score: inf
ROOT
ATOM      1  C   UNL     1      -3.041  -3.819   1.572  1.00  0.00     0.202 C 
ENDROOT
BRANCH   1   2
ATOM      2  O   UNL     1      -3.792  -4.945   2.017  1.00  0.00    -0.374 OA
BRANCH   2   3
ATOM      3  C   UNL     1      -3.308  -5.780   3.070  1.00  0.00     0.202 C 
BRANCH   3   4
ATOM      4  C   UNL     1      -2.072  -6.630   2.794  1.00  0.00     0.261 C 
BRANCH   4   5
ATOM      5  O   UNL     1      -0.932  -5.802   2.542  1.00  0.00    -0.461 OA
BRANCH   5   6
ATOM      6  C   UNL     1      -0.450  -5.838   1.272  1.00  0.00     0.348 C 
ATOM      7  O   UNL     1      -0.854  -6.591   0.389  1.00  0.00    -0.248 OA
BRANCH   6   8
ATOM      8  C   UNL     1       0.605  -4.772   1.038  1.00  0.00     0.341 C 
ATOM      9  F   UNL     1       0.681  -3.850   2.047  1.00  0.00    -0.226 F 
BRANCH   8  10
ATOM     10  C   UNL     1       1.894  -5.491   0.845  1.00  0.00     0.155 A 
ATOM     11  N   UNL     1       2.308  -6.013  -0.366  1.00  0.00    -0.332 N 
ATOM     12  C   UNL     1       3.453  -6.723  -0.126  1.00  0.00     0.107 A 
ATOM     13  C   UNL     1       3.708  -6.573   1.214  1.00  0.00     0.131 A 
ATOM     14  N   UNL     1       2.747  -5.806   1.802  1.00  0.00    -0.238 NA
BRANCH  11  15
ATOM     15  C   UNL     1       1.647  -5.824  -1.646  1.00  0.00     0.120 C 
ATOM     16  C   UNL     1       2.018  -6.808  -2.743  1.00  0.00     0.027 C 
ENDBRANCH  11  15
ENDBRANCH   8  10
ENDBRANCH   6   8
ENDBRANCH   5   6
ENDBRANCH   4   5
ENDBRANCH   3   4
ENDBRANCH   2   3
ENDBRANCH   1   2
BRANCH   1  17
ATOM     17  C   UNL     1      -2.817  -2.646   2.515  1.00  0.00     0.261 C 
BRANCH  17  18
ATOM     18  O   UNL     1      -2.144  -3.036   3.698  1.00  0.00    -0.460 OA
BRANCH  18  19
ATOM     19  C   UNL     1      -2.964  -3.134   4.772  1.00  0.00     0.338 C 
ATOM     20  O   UNL     1      -4.172  -3.258   4.761  1.00  0.00    -0.246 OA
BRANCH  19  21
ATOM     21  C   UNL     1      -2.174  -2.888   5.979  1.00  0.00     0.060 A 
ATOM     22  C   UNL     1      -2.914  -2.761   7.155  1.00  0.00     0.016 A 
ATOM     23  C   UNL     1      -0.866  -2.401   5.850  1.00  0.00     0.016 A 
ATOM     24  C   UNL     1      -2.449  -1.892   8.110  1.00  0.00     0.010 A 
ATOM     25  C   UNL     1      -0.421  -1.508   6.787  1.00  0.00     0.010 A 
ATOM     26  C   UNL     1      -1.261  -1.201   7.856  1.00  0.00    -0.014 A 
BRANCH  26  27
ATOM     27  C   UNL     1      -0.802  -0.255   8.846  1.00  0.00     0.031 A 
ATOM     28  C   UNL     1      -0.279  -0.958  10.038  1.00  0.00     0.074 A 
ATOM     29  C   UNL     1      -0.762   1.070   8.607  1.00  0.00     0.049 A 
ATOM     30  N   UNL     1      -0.791  -0.978  11.222  1.00  0.00    -0.248 NA
ATOM     31  C   UNL     1       0.783  -1.963   9.832  1.00  0.00     0.031 C 
ATOM     32  C   UNL     1      -1.059   1.774   7.358  1.00  0.00     0.029 A 
ATOM     33  N   UNL     1      -0.335   2.073   9.417  1.00  0.00    -0.354 N 
ATOM     34  C   UNL     1       0.062  -1.779  11.969  1.00  0.00     0.074 A 
ATOM     35  C   UNL     1       0.817  -2.552  11.026  1.00  0.00     0.031 C 
ATOM     36  C   UNL     1      -0.565   3.033   7.428  1.00  0.00     0.029 A 
ATOM     37  C   UNL     1      -0.015   3.257   8.756  1.00  0.00     0.049 A 
ATOM     38  H   UNL     1      -0.257   1.971  10.393  1.00  0.00     0.167 HD
ATOM     39  C   UNL     1       0.304  -1.494  13.274  1.00  0.00     0.034 A 
ATOM     40  C   UNL     1       0.727   4.290   9.249  1.00  0.00     0.034 A 
ATOM     41  C   UNL     1      -0.745  -0.657  13.816  1.00  0.00     0.049 A 
ATOM     42  C   UNL     1       0.711   4.151  10.732  1.00  0.00     0.074 A 
ATOM     43  C   UNL     1      -2.116  -0.795  13.925  1.00  0.00     0.029 A 
ATOM     44  N   UNL     1      -0.493   0.692  13.956  1.00  0.00    -0.354 N 
ATOM     45  N   UNL     1      -0.373   4.293  11.447  1.00  0.00    -0.248 NA
ATOM     46  C   UNL     1       1.750   3.334  11.349  1.00  0.00     0.031 C 
ATOM     47  C   UNL     1      -2.641   0.496  13.624  1.00  0.00     0.029 A 
ATOM     48  C   UNL     1      -1.572   1.377  13.450  1.00  0.00     0.049 A 
ATOM     49  H   UNL     1       0.316   1.092  14.350  1.00  0.00     0.167 HD
ATOM     50  C   UNL     1      -0.339   3.253  12.366  1.00  0.00     0.074 A 
ATOM     51  C   UNL     1       1.033   2.747  12.314  1.00  0.00     0.031 C 
ATOM     52  C   UNL     1      -1.491   2.699  12.853  1.00  0.00     0.034 A 
BRANCH  39  53
ATOM     53  C   UNL     1       1.671  -1.609  13.911  1.00  0.00     0.023 A 
ATOM     54  C   UNL     1       1.766  -1.236  15.262  1.00  0.00     0.031 A 
ATOM     55  C   UNL     1       2.904  -1.762  13.229  1.00  0.00     0.131 A 
ATOM     56  C   UNL     1       3.008  -0.916  15.835  1.00  0.00     0.055 A 
ATOM     57  C   UNL     1       4.141  -1.509  13.825  1.00  0.00     0.041 A 
ATOM     58  F   UNL     1       2.995  -2.074  11.933  1.00  0.00    -0.206 F 
ATOM     59  C   UNL     1       4.197  -1.047  15.125  1.00  0.00     0.022 A 
BRANCH  56  60
ATOM     60  S   UNL     1       3.013  -0.142  17.468  1.00  0.00     0.124 S 
ATOM     61  O   UNL     1       2.122   0.994  17.254  1.00  0.00    -0.237 OA
ATOM     62  O   UNL     1       2.497  -1.217  18.309  1.00  0.00    -0.237 OA
ATOM     63  O   UNL     1       4.419   0.195  17.677  1.00  0.00    -0.744 OA
ENDBRANCH  56  60
ENDBRANCH  39  53
BRANCH  40  64
ATOM     64  C   UNL     1       1.718   5.133   8.507  1.00  0.00     0.023 A 
ATOM     65  C   UNL     1       2.212   6.369   8.990  1.00  0.00     0.031 A 
ATOM     66  C   UNL     1       2.381   4.597   7.379  1.00  0.00     0.131 A 
ATOM     67  C   UNL     1       3.307   7.006   8.347  1.00  0.00     0.055 A 
ATOM     68  C   UNL     1       3.455   5.229   6.749  1.00  0.00     0.041 A 
ATOM     69  F   UNL     1       2.063   3.387   6.893  1.00  0.00    -0.206 F 
ATOM     70  C   UNL     1       3.930   6.434   7.236  1.00  0.00     0.022 A 
BRANCH  67  71
ATOM     71  S   UNL     1       4.004   8.567   8.993  1.00  0.00     0.124 S 
ATOM     72  O   UNL     1       2.930   9.519   8.736  1.00  0.00    -0.237 OA
ATOM     73  O   UNL     1       4.264   8.242  10.390  1.00  0.00    -0.237 OA
ATOM     74  O   UNL     1       5.206   8.767   8.181  1.00  0.00    -0.744 OA
ENDBRANCH  67  71
ENDBRANCH  40  64
BRANCH  52  75
ATOM     75  C   UNL     1      -2.806   3.412  12.590  1.00  0.00     0.023 A 
ATOM     76  C   UNL     1      -3.326   3.727  11.312  1.00  0.00     0.031 A 
ATOM     77  C   UNL     1      -3.624   3.668  13.705  1.00  0.00     0.131 A 
ATOM     78  C   UNL     1      -4.617   4.285  11.194  1.00  0.00     0.055 A 
ATOM     79  C   UNL     1      -4.908   4.194  13.582  1.00  0.00     0.041 A 
ATOM     80  F   UNL     1      -3.199   3.369  14.944  1.00  0.00    -0.206 F 
ATOM     81  C   UNL     1      -5.408   4.511  12.325  1.00  0.00     0.022 A 
BRANCH  78  82
ATOM     82  S   UNL     1      -5.292   4.753   9.565  1.00  0.00     0.124 S 
ATOM     83  O   UNL     1      -4.202   5.497   8.945  1.00  0.00    -0.237 OA
ATOM     84  O   UNL     1      -5.605   3.458   8.968  1.00  0.00    -0.237 OA
ATOM     85  O   UNL     1      -6.465   5.563   9.903  1.00  0.00    -0.744 OA
ENDBRANCH  78  82
ENDBRANCH  52  75
ENDBRANCH  26  27
ENDBRANCH  19  21
ENDBRANCH  18  19
ENDBRANCH  17  18
ENDBRANCH   1  17
TORSDOF 19
