REMARK SMILES [NH3+][C@@H](Cc1cccc(O)c1)C(=O)OCCOCCOC(=O)c1ccc(-c2c3nc(c(-c4cc(S(=O)(=O)[O-])ccc4F)c4ccc([nH]4)c(-c4cc(S(=O)(=O)[O-])ccc4F)c4nc(c(-c5cc(S(=O)(=O)[O-])ccc5F)c5ccc2[nH]5)C=C4)C=C3)cc1
REMARK SMILES IDX 16 1 15 2 14 3 13 4 11 5 12 6 2 7 1 8 3 12 4 13 5 14 10 15
REMARK SMILES IDX 6 16 8 17 7 18 9 19 17 21 18 22 19 23 20 24 21 25 22 26
REMARK SMILES IDX 23 27 84 28 24 29 83 30 25 31 26 32 27 33 77 34 28 35 82 36
REMARK SMILES IDX 76 37 78 38 29 39 81 40 75 41 74 42 30 44 62 45 42 46 61 47
REMARK SMILES IDX 43 48 46 49 60 50 79 51 44 52 45 53 59 55 80 56 47 57 31 58
REMARK SMILES IDX 32 59 40 60 33 61 39 62 41 63 38 64 34 65 35 66 36 67 37 68
REMARK SMILES IDX 63 69 64 70 72 71 65 72 71 73 73 74 70 75 66 76 67 77 68 78
REMARK SMILES IDX 69 79 48 80 49 81 57 82 50 83 56 84 58 85 55 86 51 87 52 88
REMARK SMILES IDX 53 89 54 90
REMARK H PARENT 1 9 1 10 1 11 9 20 78 43 46 54
REMARK Flexibility Score: inf
ROOT
ATOM      1  O   UNL     1      -3.432  -1.006  -1.306  1.00  0.00    -0.374 OA
ENDROOT
BRANCH   1   2
ATOM      2  C   UNL     1      -3.714  -0.822   0.085  1.00  0.00     0.202 C 
BRANCH   2   3
ATOM      3  C   UNL     1      -2.946  -1.727   1.053  1.00  0.00     0.261 C 
BRANCH   3   4
ATOM      4  O   UNL     1      -1.558  -1.355   1.085  1.00  0.00    -0.459 OA
BRANCH   4   5
ATOM      5  C   UNL     1      -0.659  -2.377   1.016  1.00  0.00     0.365 C 
ATOM      6  O   UNL     1      -0.934  -3.568   1.102  1.00  0.00    -0.245 OA
BRANCH   5   7
ATOM      7  C   UNL     1       0.778  -1.862   0.836  1.00  0.00     0.296 C 
BRANCH   7   8
ATOM      8  N   UNL     1       0.837  -0.564   0.113  1.00  0.00    -0.346 N 
ATOM      9  H   UNL     1       1.809  -0.269   0.021  1.00  0.00     0.345 HD
ATOM     10  H   UNL     1       0.316   0.140   0.635  1.00  0.00     0.345 HD
ATOM     11  H   UNL     1       0.425  -0.672  -0.815  1.00  0.00     0.345 HD
ENDBRANCH   7   8
BRANCH   7  12
ATOM     12  C   UNL     1       1.519  -1.864   2.182  1.00  0.00     0.113 C 
BRANCH  12  13
ATOM     13  C   UNL     1       0.961  -0.922   3.223  1.00  0.00    -0.038 A 
ATOM     14  C   UNL     1       1.244   0.451   3.185  1.00  0.00     0.004 A 
ATOM     15  C   UNL     1       0.130  -1.412   4.240  1.00  0.00     0.050 A 
ATOM     16  C   UNL     1       0.690   1.317   4.130  1.00  0.00     0.004 A 
ATOM     17  C   UNL     1      -0.405  -0.543   5.185  1.00  0.00     0.115 A 
ATOM     18  C   UNL     1      -0.138   0.820   5.136  1.00  0.00     0.046 A 
BRANCH  17  19
ATOM     19  O   UNL     1      -1.196  -1.078   6.158  1.00  0.00    -0.508 OA
ATOM     20  H   UNL     1      -1.573  -0.523   6.812  1.00  0.00     0.293 HD
ENDBRANCH  17  19
ENDBRANCH  12  13
ENDBRANCH   7  12
ENDBRANCH   5   7
ENDBRANCH   4   5
ENDBRANCH   3   4
ENDBRANCH   2   3
ENDBRANCH   1   2
BRANCH   1  21
ATOM     21  C   UNL     1      -2.153  -0.587  -1.774  1.00  0.00     0.202 C 
BRANCH  21  22
ATOM     22  C   UNL     1      -1.948   0.918  -2.004  1.00  0.00     0.261 C 
BRANCH  22  23
ATOM     23  O   UNL     1      -2.282   1.735  -0.868  1.00  0.00    -0.460 OA
BRANCH  23  24
ATOM     24  C   UNL     1      -3.448   2.415  -1.003  1.00  0.00     0.338 C 
ATOM     25  O   UNL     1      -4.168   2.445  -1.994  1.00  0.00    -0.246 OA
BRANCH  24  26
ATOM     26  C   UNL     1      -3.856   3.026   0.276  1.00  0.00     0.060 A 
ATOM     27  C   UNL     1      -5.153   2.755   0.724  1.00  0.00     0.016 A 
ATOM     28  C   UNL     1      -3.039   3.922   0.973  1.00  0.00     0.016 A 
ATOM     29  C   UNL     1      -5.660   3.418   1.838  1.00  0.00     0.010 A 
ATOM     30  C   UNL     1      -3.553   4.591   2.094  1.00  0.00     0.010 A 
ATOM     31  C   UNL     1      -4.879   4.370   2.510  1.00  0.00    -0.014 A 
BRANCH  31  32
ATOM     32  C   UNL     1      -5.525   5.206   3.555  1.00  0.00     0.031 A 
ATOM     33  C   UNL     1      -6.005   6.590   3.202  1.00  0.00     0.074 A 
ATOM     34  C   UNL     1      -5.769   4.699   4.777  1.00  0.00     0.049 A 
ATOM     35  N   UNL     1      -6.678   7.446   3.928  1.00  0.00    -0.248 NA
ATOM     36  C   UNL     1      -5.683   7.069   1.850  1.00  0.00     0.031 C 
ATOM     37  C   UNL     1      -5.375   3.364   5.228  1.00  0.00     0.029 A 
ATOM     38  N   UNL     1      -6.420   5.239   5.858  1.00  0.00    -0.354 N 
ATOM     39  C   UNL     1      -6.882   8.556   3.116  1.00  0.00     0.074 A 
ATOM     40  C   UNL     1      -6.208   8.286   1.863  1.00  0.00     0.031 C 
ATOM     41  C   UNL     1      -5.798   3.188   6.492  1.00  0.00     0.029 A 
ATOM     42  C   UNL     1      -6.474   4.402   6.947  1.00  0.00     0.049 A 
ATOM     43  H   UNL     1      -6.812   6.142   5.853  1.00  0.00     0.167 HD
ATOM     44  C   UNL     1      -7.582   9.688   3.380  1.00  0.00     0.034 A 
ATOM     45  C   UNL     1      -7.004   4.593   8.172  1.00  0.00     0.034 A 
ATOM     46  C   UNL     1      -8.231   9.959   4.641  1.00  0.00     0.049 A 
ATOM     47  C   UNL     1      -7.728   5.885   8.464  1.00  0.00     0.074 A 
ATOM     48  C   UNL     1      -8.955  11.078   5.019  1.00  0.00     0.029 A 
ATOM     49  N   UNL     1      -8.228   9.105   5.737  1.00  0.00    -0.354 N 
ATOM     50  N   UNL     1      -7.925   6.919   7.678  1.00  0.00    -0.248 NA
ATOM     51  C   UNL     1      -8.320   6.023   9.800  1.00  0.00     0.031 C 
ATOM     52  C   UNL     1      -9.335  10.927   6.358  1.00  0.00     0.029 A 
ATOM     53  C   UNL     1      -8.913   9.682   6.796  1.00  0.00     0.049 A 
ATOM     54  H   UNL     1      -7.801   8.218   5.758  1.00  0.00     0.167 HD
ATOM     55  C   UNL     1      -8.682   7.821   8.422  1.00  0.00     0.074 A 
ATOM     56  C   UNL     1      -8.931   7.194   9.704  1.00  0.00     0.031 C 
ATOM     57  C   UNL     1      -9.131   9.057   8.080  1.00  0.00     0.034 A 
BRANCH  44  58
ATOM     58  C   UNL     1      -7.645  10.731   2.289  1.00  0.00     0.023 A 
ATOM     59  C   UNL     1      -8.298  10.482   1.068  1.00  0.00     0.031 A 
ATOM     60  C   UNL     1      -7.026  11.982   2.461  1.00  0.00     0.131 A 
ATOM     61  C   UNL     1      -8.261  11.442   0.045  1.00  0.00     0.055 A 
ATOM     62  C   UNL     1      -7.057  12.962   1.466  1.00  0.00     0.041 A 
ATOM     63  F   UNL     1      -6.370  12.269   3.596  1.00  0.00    -0.206 F 
ATOM     64  C   UNL     1      -7.666  12.690   0.245  1.00  0.00     0.022 A 
BRANCH  61  65
ATOM     65  S   UNL     1      -8.891  10.990  -1.595  1.00  0.00     0.124 S 
ATOM     66  O   UNL     1      -8.035   9.857  -1.937  1.00  0.00    -0.237 OA
ATOM     67  O   UNL     1     -10.289  10.677  -1.321  1.00  0.00    -0.237 OA
ATOM     68  O   UNL     1      -8.666  12.194  -2.392  1.00  0.00    -0.744 OA
ENDBRANCH  61  65
ENDBRANCH  44  58
BRANCH  45  69
ATOM     69  C   UNL     1      -6.847   3.555   9.232  1.00  0.00     0.023 A 
ATOM     70  C   UNL     1      -7.956   2.898   9.788  1.00  0.00     0.031 A 
ATOM     71  C   UNL     1      -5.574   3.252   9.750  1.00  0.00     0.131 A 
ATOM     72  C   UNL     1      -7.777   2.012  10.862  1.00  0.00     0.055 A 
ATOM     73  C   UNL     1      -5.396   2.332  10.783  1.00  0.00     0.041 A 
ATOM     74  F   UNL     1      -4.479   3.849   9.252  1.00  0.00    -0.206 F 
ATOM     75  C   UNL     1      -6.504   1.716  11.355  1.00  0.00     0.022 A 
BRANCH  72  76
ATOM     76  S   UNL     1      -9.245   1.317  11.672  1.00  0.00     0.124 S 
ATOM     77  O   UNL     1      -9.967   2.522  12.063  1.00  0.00    -0.237 OA
ATOM     78  O   UNL     1      -9.839   0.533  10.594  1.00  0.00    -0.237 OA
ATOM     79  O   UNL     1      -8.688   0.537  12.774  1.00  0.00    -0.744 OA
ENDBRANCH  72  76
ENDBRANCH  45  69
BRANCH  57  80
ATOM     80  C   UNL     1      -9.953   9.792   9.113  1.00  0.00     0.023 A 
ATOM     81  C   UNL     1      -9.399  10.202  10.339  1.00  0.00     0.031 A 
ATOM     82  C   UNL     1     -11.317  10.048   8.888  1.00  0.00     0.131 A 
ATOM     83  C   UNL     1     -10.220  10.775  11.322  1.00  0.00     0.055 A 
ATOM     84  C   UNL     1     -12.115  10.678   9.845  1.00  0.00     0.041 A 
ATOM     85  F   UNL     1     -11.902   9.680   7.737  1.00  0.00    -0.206 F 
ATOM     86  C   UNL     1     -11.571  11.029  11.078  1.00  0.00     0.022 A 
BRANCH  83  87
ATOM     87  S   UNL     1      -9.523  11.072  12.971  1.00  0.00     0.124 S 
ATOM     88  O   UNL     1      -9.028   9.748  13.335  1.00  0.00    -0.237 OA
ATOM     89  O   UNL     1      -8.504  12.081  12.701  1.00  0.00    -0.237 OA
ATOM     90  O   UNL     1     -10.669  11.540  13.749  1.00  0.00    -0.744 OA
ENDBRANCH  83  87
ENDBRANCH  57  80
ENDBRANCH  31  32
ENDBRANCH  24  26
ENDBRANCH  23  24
ENDBRANCH  22  23
ENDBRANCH  21  22
ENDBRANCH   1  21
TORSDOF 21
