REMARK SMILES O=C(OCCOCCOC(=O)c1ccc([C@@H]2CC(O)=Nc3c2ncn3-c2cccc(Cl)c2)cc1)c1ccc(-c2c3nc(c(-c4cc(S(=O)(=O)[O-])ccc4F)c4ccc([nH]4)c(-c4cc(S(=O)(=O)[O-])ccc4F)c4nc(c(-c5cc(S(=O)(=O)[O-])ccc5F)c5ccc2[nH]5)C=C4)C=C3)cc1
REMARK SMILES IDX 5 1 4 2 3 3 2 4 1 5 35 6 36 7 97 8 37 9 96 10 38 11 39 12
REMARK SMILES IDX 40 13 90 14 41 15 95 16 89 17 91 18 42 19 94 20 88 21 87 22
REMARK SMILES IDX 43 24 75 25 55 26 74 27 56 28 59 29 73 30 92 31 57 32 58 33
REMARK SMILES IDX 72 35 93 36 60 37 44 38 45 39 53 40 46 41 52 42 54 43 51 44
REMARK SMILES IDX 47 45 48 46 49 47 50 48 76 49 77 50 85 51 78 52 84 53 86 54
REMARK SMILES IDX 83 55 79 56 80 57 81 58 82 59 61 60 62 61 70 62 63 63 69 64
REMARK SMILES IDX 71 65 68 66 64 67 65 68 66 69 67 70 6 71 7 72 8 73 9 74
REMARK SMILES IDX 10 75 11 76 12 77 13 78 34 79 14 80 33 81 15 82 16 83 17 84
REMARK SMILES IDX 22 85 18 86 21 87 23 88 20 89 25 90 24 91 19 92 26 94 27 95
REMARK SMILES IDX 32 96 28 97 30 98 29 99 31 100
REMARK H PARENT 91 23 59 34 19 93
REMARK Flexibility Score: inf
ROOT
ATOM      1  C   UNL     1       4.744   0.191  -0.961  1.00  0.00     0.202 C 
ENDROOT
BRANCH   1   2
ATOM      2  C   UNL     1       4.462  -1.151  -0.293  1.00  0.00     0.261 C 
BRANCH   2   3
ATOM      3  O   UNL     1       3.094  -1.578  -0.374  1.00  0.00    -0.460 OA
BRANCH   3   4
ATOM      4  C   UNL     1       2.034  -0.858   0.051  1.00  0.00     0.338 C 
ATOM      5  O   UNL     1       1.033  -0.757  -0.657  1.00  0.00    -0.246 OA
BRANCH   4   6
ATOM      6  C   UNL     1       1.984  -0.397   1.462  1.00  0.00     0.060 A 
ATOM      7  C   UNL     1       3.066  -0.404   2.340  1.00  0.00     0.016 A 
ATOM      8  C   UNL     1       0.704  -0.101   1.956  1.00  0.00     0.016 A 
ATOM      9  C   UNL     1       2.842  -0.449   3.697  1.00  0.00     0.010 A 
ATOM     10  C   UNL     1       0.479  -0.075   3.318  1.00  0.00     0.010 A 
ATOM     11  C   UNL     1       1.536  -0.372   4.167  1.00  0.00    -0.014 A 
BRANCH  11  12
ATOM     12  C   UNL     1       1.341  -0.494   5.596  1.00  0.00     0.031 A 
ATOM     13  C   UNL     1       2.017   0.585   6.353  1.00  0.00     0.074 A 
ATOM     14  C   UNL     1       0.573  -1.460   6.133  1.00  0.00     0.049 A 
ATOM     15  N   UNL     1       3.056   0.485   7.113  1.00  0.00    -0.248 NA
ATOM     16  C   UNL     1       1.647   1.974   6.029  1.00  0.00     0.031 C 
ATOM     17  C   UNL     1      -0.282  -2.427   5.440  1.00  0.00     0.029 A 
ATOM     18  N   UNL     1       0.314  -1.718   7.440  1.00  0.00    -0.354 N 
ATOM     19  C   UNL     1       3.296   1.772   7.582  1.00  0.00     0.074 A 
ATOM     20  C   UNL     1       2.579   2.649   6.701  1.00  0.00     0.031 C 
ATOM     21  C   UNL     1      -1.149  -2.969   6.326  1.00  0.00     0.029 A 
ATOM     22  C   UNL     1      -0.823  -2.489   7.660  1.00  0.00     0.049 A 
ATOM     23  H   UNL     1       0.883  -1.386   8.172  1.00  0.00     0.167 HD
ATOM     24  C   UNL     1       3.807   1.968   8.828  1.00  0.00     0.034 A 
ATOM     25  C   UNL     1      -1.487  -2.639   8.840  1.00  0.00     0.034 A 
ATOM     26  C   UNL     1       4.457   0.762   9.306  1.00  0.00     0.049 A 
ATOM     27  C   UNL     1      -0.518  -2.288   9.914  1.00  0.00     0.074 A 
ATOM     28  C   UNL     1       5.496  -0.022   8.840  1.00  0.00     0.029 A 
ATOM     29  N   UNL     1       3.783  -0.027  10.216  1.00  0.00    -0.354 N 
ATOM     30  N   UNL     1       0.557  -2.992  10.155  1.00  0.00    -0.248 NA
ATOM     31  C   UNL     1      -0.453  -0.898  10.349  1.00  0.00     0.031 C 
ATOM     32  C   UNL     1       5.090  -1.365   9.100  1.00  0.00     0.029 A 
ATOM     33  C   UNL     1       3.880  -1.330   9.795  1.00  0.00     0.049 A 
ATOM     34  H   UNL     1       3.316   0.288  11.024  1.00  0.00     0.167 HD
ATOM     35  C   UNL     1       1.564  -2.057  10.355  1.00  0.00     0.074 A 
ATOM     36  C   UNL     1       0.865  -0.785  10.547  1.00  0.00     0.031 C 
ATOM     37  C   UNL     1       2.866  -2.339  10.046  1.00  0.00     0.034 A 
BRANCH  24  38
ATOM     38  C   UNL     1       3.314   3.050   9.774  1.00  0.00     0.023 A 
ATOM     39  C   UNL     1       3.790   2.975  11.095  1.00  0.00     0.031 A 
ATOM     40  C   UNL     1       2.203   3.902   9.577  1.00  0.00     0.131 A 
ATOM     41  C   UNL     1       3.066   3.541  12.155  1.00  0.00     0.055 A 
ATOM     42  C   UNL     1       1.523   4.519  10.631  1.00  0.00     0.041 A 
ATOM     43  F   UNL     1       1.662   4.143   8.380  1.00  0.00    -0.206 F 
ATOM     44  C   UNL     1       1.923   4.301  11.935  1.00  0.00     0.022 A 
BRANCH  41  45
ATOM     45  S   UNL     1       3.531   3.063  13.836  1.00  0.00     0.124 S 
ATOM     46  O   UNL     1       3.479   1.608  13.740  1.00  0.00    -0.237 OA
ATOM     47  O   UNL     1       4.858   3.656  13.956  1.00  0.00    -0.237 OA
ATOM     48  O   UNL     1       2.493   3.677  14.660  1.00  0.00    -0.744 OA
ENDBRANCH  41  45
ENDBRANCH  24  38
BRANCH  25  49
ATOM     49  C   UNL     1      -2.971  -2.665   9.027  1.00  0.00     0.023 A 
ATOM     50  C   UNL     1      -3.601  -3.139  10.201  1.00  0.00     0.031 A 
ATOM     51  C   UNL     1      -3.802  -1.990   8.102  1.00  0.00     0.131 A 
ATOM     52  C   UNL     1      -4.992  -2.937  10.400  1.00  0.00     0.055 A 
ATOM     53  C   UNL     1      -5.171  -1.796   8.303  1.00  0.00     0.041 A 
ATOM     54  F   UNL     1      -3.296  -1.417   6.999  1.00  0.00    -0.206 F 
ATOM     55  C   UNL     1      -5.771  -2.261   9.458  1.00  0.00     0.022 A 
BRANCH  52  56
ATOM     56  S   UNL     1      -5.812  -3.488  11.936  1.00  0.00     0.124 S 
ATOM     57  O   UNL     1      -5.738  -4.940  11.825  1.00  0.00    -0.237 OA
ATOM     58  O   UNL     1      -4.990  -2.872  12.971  1.00  0.00    -0.237 OA
ATOM     59  O   UNL     1      -7.162  -2.934  11.821  1.00  0.00    -0.744 OA
ENDBRANCH  52  56
ENDBRANCH  25  49
BRANCH  37  60
ATOM     60  C   UNL     1       3.252  -3.776   9.759  1.00  0.00     0.023 A 
ATOM     61  C   UNL     1       2.710  -4.580   8.729  1.00  0.00     0.031 A 
ATOM     62  C   UNL     1       4.327  -4.303  10.499  1.00  0.00     0.131 A 
ATOM     63  C   UNL     1       3.245  -5.862   8.482  1.00  0.00     0.055 A 
ATOM     64  C   UNL     1       4.865  -5.560  10.237  1.00  0.00     0.041 A 
ATOM     65  F   UNL     1       4.905  -3.577  11.470  1.00  0.00    -0.206 F 
ATOM     66  C   UNL     1       4.322  -6.348   9.230  1.00  0.00     0.022 A 
BRANCH  63  67
ATOM     67  S   UNL     1       2.543  -6.939   7.188  1.00  0.00     0.124 S 
ATOM     68  O   UNL     1       1.106  -6.865   7.423  1.00  0.00    -0.237 OA
ATOM     69  O   UNL     1       3.025  -6.312   5.960  1.00  0.00    -0.237 OA
ATOM     70  O   UNL     1       3.140  -8.246   7.474  1.00  0.00    -0.744 OA
ENDBRANCH  63  67
ENDBRANCH  37  60
ENDBRANCH  11  12
ENDBRANCH   4   6
ENDBRANCH   3   4
ENDBRANCH   2   3
ENDBRANCH   1   2
BRANCH   1  71
ATOM     71  O   UNL     1       4.170   1.376  -0.425  1.00  0.00    -0.374 OA
BRANCH  71  72
ATOM     72  C   UNL     1       3.016   1.911  -1.089  1.00  0.00     0.202 C 
BRANCH  72  73
ATOM     73  C   UNL     1       3.108   2.396  -2.548  1.00  0.00     0.261 C 
BRANCH  73  74
ATOM     74  O   UNL     1       3.438   1.358  -3.489  1.00  0.00    -0.460 OA
BRANCH  74  75
ATOM     75  C   UNL     1       4.716   1.387  -3.957  1.00  0.00     0.338 C 
ATOM     76  O   UNL     1       5.551   2.240  -3.768  1.00  0.00    -0.246 OA
BRANCH  75  77
ATOM     77  C   UNL     1       5.031   0.071  -4.556  1.00  0.00     0.060 A 
ATOM     78  C   UNL     1       6.081  -0.665  -3.993  1.00  0.00     0.016 A 
ATOM     79  C   UNL     1       4.317  -0.433  -5.639  1.00  0.00     0.016 A 
ATOM     80  C   UNL     1       6.406  -1.919  -4.501  1.00  0.00     0.005 A 
ATOM     81  C   UNL     1       4.685  -1.666  -6.185  1.00  0.00     0.005 A 
ATOM     82  C   UNL     1       5.728  -2.428  -5.619  1.00  0.00    -0.038 A 
BRANCH  82  83
ATOM     83  C   UNL     1       6.227  -3.733  -6.220  1.00  0.00     0.081 C 
ATOM     84  C   UNL     1       7.016  -3.463  -7.518  1.00  0.00     0.111 C 
ATOM     85  C   UNL     1       5.048  -4.593  -6.468  1.00  0.00     0.093 A 
ATOM     86  C   UNL     1       6.288  -3.840  -8.798  1.00  0.00     0.188 C 
ATOM     87  C   UNL     1       4.687  -4.963  -7.743  1.00  0.00     0.164 A 
ATOM     88  N   UNL     1       4.152  -5.035  -5.536  1.00  0.00    -0.238 NA
ATOM     89  N   UNL     1       5.240  -4.588  -8.922  1.00  0.00    -0.198 NA
ATOM     90  N   UNL     1       3.502  -5.656  -7.590  1.00  0.00    -0.283 N 
ATOM     91  C   UNL     1       3.207  -5.622  -6.244  1.00  0.00     0.206 A 
BRANCH  86  92
ATOM     92  O   UNL     1       6.865  -3.360  -9.918  1.00  0.00    -0.496 OA
ATOM     93  H   UNL     1       7.626  -2.816  -9.857  1.00  0.00     0.294 HD
ENDBRANCH  86  92
BRANCH  90  94
ATOM     94  C   UNL     1       2.733  -6.234  -8.620  1.00  0.00     0.050 A 
ATOM     95  C   UNL     1       1.347  -6.048  -8.651  1.00  0.00     0.027 A 
ATOM     96  C   UNL     1       3.382  -6.957  -9.628  1.00  0.00     0.047 A 
ATOM     97  C   UNL     1       0.618  -6.550  -9.731  1.00  0.00     0.004 A 
ATOM     98  C   UNL     1       2.635  -7.497 -10.669  1.00  0.00     0.043 A 
ATOM     99  C   UNL     1       1.260  -7.281 -10.735  1.00  0.00     0.020 A 
ATOM    100  Cl  UNL     1       3.414  -8.442 -11.878  1.00  0.00    -0.084 Cl
ENDBRANCH  90  94
ENDBRANCH  82  83
ENDBRANCH  75  77
ENDBRANCH  74  75
ENDBRANCH  73  74
ENDBRANCH  72  73
ENDBRANCH  71  72
ENDBRANCH   1  71
TORSDOF 20
