REMARK SMILES C[C@H]1SC[C@H](C(=O)OCCOCCOC(=O)c2ccc(-c3c4nc(c(-c5cc(S(=O)(=O)[O-])ccc5F)c5ccc([nH]5)c(-c5cc(S(=O)(=O)[O-])ccc5F)c5nc(c(-c6cc(S(=O)(=O)[O-])ccc6F)c6ccc3[nH]6)C=C5)C=C4)cc2)N1C(=O)[C@@H]1CSc2ccccc21
REMARK SMILES IDX 12 1 11 2 10 3 9 4 8 5 6 6 7 7 5 8 1 9 2 10 3 11 80 12 4 13
REMARK SMILES IDX 81 14 82 15 83 16 84 17 91 18 85 19 86 20 90 21 87 22 89 23
REMARK SMILES IDX 88 24 13 25 14 26 15 27 16 28 17 29 18 30 79 31 19 32 78 33
REMARK SMILES IDX 20 34 21 35 22 36 72 37 23 38 77 39 71 40 73 41 24 42 76 43
REMARK SMILES IDX 70 44 69 45 25 47 57 48 37 49 56 50 38 51 41 52 55 53 74 54
REMARK SMILES IDX 39 55 40 56 54 58 75 59 42 60 26 61 27 62 35 63 28 64 34 65
REMARK SMILES IDX 36 66 33 67 29 68 30 69 31 70 32 71 58 72 59 73 67 74 60 75
REMARK SMILES IDX 66 76 68 77 65 78 61 79 62 80 63 81 64 82 43 83 44 84 52 85
REMARK SMILES IDX 45 86 51 87 53 88 50 89 46 90 47 91 48 92 49 93
REMARK H PARENT 73 46 41 57
REMARK Flexibility Score: inf
ROOT
ATOM      1  C   UNL     1       7.970  -5.231   4.986  1.00  0.00     0.202 C 
ENDROOT
BRANCH   1   2
ATOM      2  O   UNL     1       7.576  -4.698   6.246  1.00  0.00    -0.374 OA
BRANCH   2   3
ATOM      3  C   UNL     1       6.172  -4.545   6.471  1.00  0.00     0.202 C 
BRANCH   3   4
ATOM      4  C   UNL     1       5.502  -3.294   5.882  1.00  0.00     0.261 C 
BRANCH   4   5
ATOM      5  O   UNL     1       5.354  -3.363   4.449  1.00  0.00    -0.462 OA
BRANCH   5   6
ATOM      6  C   UNL     1       6.302  -2.690   3.741  1.00  0.00     0.329 C 
ATOM      7  O   UNL     1       7.254  -2.094   4.238  1.00  0.00    -0.250 OA
BRANCH   6   8
ATOM      8  C   UNL     1       6.196  -2.915   2.229  1.00  0.00     0.206 C 
ATOM      9  C   UNL     1       5.884  -2.127  -0.771  1.00  0.00     0.043 C 
ATOM     10  C   UNL     1       5.035  -3.037   0.127  1.00  0.00     0.141 C 
ATOM     11  S   UNL     1       5.877  -4.645   0.210  1.00  0.00    -0.135 SA
ATOM     12  N   UNL     1       4.974  -2.554   1.505  1.00  0.00    -0.316 N 
ATOM     13  C   UNL     1       6.386  -4.410   1.929  1.00  0.00     0.109 C 
BRANCH  12  14
ATOM     14  C   UNL     1       4.162  -1.538   1.971  1.00  0.00     0.232 C 
ATOM     15  O   UNL     1       4.561  -0.779   2.860  1.00  0.00    -0.274 OA
BRANCH  14  16
ATOM     16  C   UNL     1       2.718  -1.396   1.476  1.00  0.00     0.120 C 
ATOM     17  C   UNL     1       1.914  -2.698   1.640  1.00  0.00     0.093 C 
ATOM     18  C   UNL     1       2.603  -0.913   0.058  1.00  0.00    -0.021 A 
ATOM     19  S   UNL     1       1.293  -3.213   0.003  1.00  0.00    -0.125 SA
ATOM     20  C   UNL     1       1.956  -1.792  -0.810  1.00  0.00     0.011 A 
ATOM     21  C   UNL     1       3.142   0.281  -0.415  1.00  0.00     0.006 A 
ATOM     22  C   UNL     1       1.943  -1.555  -2.175  1.00  0.00     0.015 A 
ATOM     23  C   UNL     1       3.112   0.536  -1.785  1.00  0.00     0.000 A 
ATOM     24  C   UNL     1       2.539  -0.391  -2.664  1.00  0.00     0.001 A 
ENDBRANCH  14  16
ENDBRANCH  12  14
ENDBRANCH   6   8
ENDBRANCH   5   6
ENDBRANCH   4   5
ENDBRANCH   3   4
ENDBRANCH   2   3
ENDBRANCH   1   2
BRANCH   1  25
ATOM     25  C   UNL     1       7.926  -6.753   4.819  1.00  0.00     0.261 C 
BRANCH  25  26
ATOM     26  O   UNL     1       6.598  -7.273   4.987  1.00  0.00    -0.460 OA
BRANCH  26  27
ATOM     27  C   UNL     1       6.399  -7.890   6.176  1.00  0.00     0.338 C 
ATOM     28  O   UNL     1       7.248  -8.122   7.029  1.00  0.00    -0.246 OA
BRANCH  27  29
ATOM     29  C   UNL     1       4.960  -8.093   6.421  1.00  0.00     0.060 A 
ATOM     30  C   UNL     1       4.465  -7.678   7.664  1.00  0.00     0.016 A 
ATOM     31  C   UNL     1       4.125  -8.736   5.504  1.00  0.00     0.016 A 
ATOM     32  C   UNL     1       3.154  -7.967   8.026  1.00  0.00     0.010 A 
ATOM     33  C   UNL     1       2.807  -9.033   5.873  1.00  0.00     0.010 A 
ATOM     34  C   UNL     1       2.331  -8.688   7.152  1.00  0.00    -0.014 A 
BRANCH  34  35
ATOM     35  C   UNL     1       1.048  -9.233   7.661  1.00  0.00     0.031 A 
ATOM     36  C   UNL     1       1.002 -10.671   8.109  1.00  0.00     0.074 A 
ATOM     37  C   UNL     1      -0.037  -8.448   7.788  1.00  0.00     0.049 A 
ATOM     38  N   UNL     1      -0.002 -11.364   8.578  1.00  0.00    -0.248 NA
ATOM     39  C   UNL     1       2.262 -11.423   8.013  1.00  0.00     0.031 C 
ATOM     40  C   UNL     1      -0.093  -7.027   7.445  1.00  0.00     0.029 A 
ATOM     41  N   UNL     1      -1.299  -8.734   8.244  1.00  0.00    -0.354 N 
ATOM     42  C   UNL     1       0.504 -12.634   8.839  1.00  0.00     0.074 A 
ATOM     43  C   UNL     1       1.893 -12.624   8.431  1.00  0.00     0.031 C 
ATOM     44  C   UNL     1      -1.332  -6.569   7.695  1.00  0.00     0.029 A 
ATOM     45  C   UNL     1      -2.164  -7.668   8.180  1.00  0.00     0.049 A 
ATOM     46  H   UNL     1      -1.560  -9.620   8.585  1.00  0.00     0.167 HD
ATOM     47  C   UNL     1      -0.127 -13.705   9.382  1.00  0.00     0.034 A 
ATOM     48  C   UNL     1      -3.482  -7.596   8.456  1.00  0.00     0.034 A 
ATOM     49  C   UNL     1      -1.517 -13.704   9.768  1.00  0.00     0.049 A 
ATOM     50  C   UNL     1      -4.191  -8.832   8.961  1.00  0.00     0.074 A 
ATOM     51  C   UNL     1      -2.260 -14.733  10.319  1.00  0.00     0.029 A 
ATOM     52  N   UNL     1      -2.378 -12.622   9.634  1.00  0.00    -0.354 N 
ATOM     53  N   UNL     1      -3.702 -10.027   9.200  1.00  0.00    -0.248 NA
ATOM     54  C   UNL     1      -5.627  -8.704   9.242  1.00  0.00     0.031 C 
ATOM     55  C   UNL     1      -3.583 -14.297  10.454  1.00  0.00     0.029 A 
ATOM     56  C   UNL     1      -3.651 -12.969  10.062  1.00  0.00     0.049 A 
ATOM     57  H   UNL     1      -2.122 -11.738   9.287  1.00  0.00     0.167 HD
ATOM     58  C   UNL     1      -4.765 -10.782   9.691  1.00  0.00     0.074 A 
ATOM     59  C   UNL     1      -5.916  -9.903   9.726  1.00  0.00     0.031 C 
ATOM     60  C   UNL     1      -4.790 -12.082  10.083  1.00  0.00     0.034 A 
BRANCH  47  61
ATOM     61  C   UNL     1       0.675 -14.974   9.537  1.00  0.00     0.023 A 
ATOM     62  C   UNL     1       1.788 -15.047  10.394  1.00  0.00     0.031 A 
ATOM     63  C   UNL     1       0.345 -16.119   8.789  1.00  0.00     0.131 A 
ATOM     64  C   UNL     1       2.569 -16.212  10.431  1.00  0.00     0.055 A 
ATOM     65  C   UNL     1       1.081 -17.302   8.889  1.00  0.00     0.041 A 
ATOM     66  F   UNL     1      -0.691 -16.102   7.936  1.00  0.00    -0.206 F 
ATOM     67  C   UNL     1       2.209 -17.348   9.703  1.00  0.00     0.022 A 
BRANCH  64  68
ATOM     68  S   UNL     1       4.143 -16.174  11.332  1.00  0.00     0.124 S 
ATOM     69  O   UNL     1       4.847 -15.090  10.650  1.00  0.00    -0.237 OA
ATOM     70  O   UNL     1       3.717 -15.900  12.699  1.00  0.00    -0.237 OA
ATOM     71  O   UNL     1       4.699 -17.507  11.106  1.00  0.00    -0.744 OA
ENDBRANCH  64  68
ENDBRANCH  47  61
BRANCH  48  72
ATOM     72  C   UNL     1      -4.239  -6.332   8.221  1.00  0.00     0.023 A 
ATOM     73  C   UNL     1      -4.869  -5.651   9.274  1.00  0.00     0.031 A 
ATOM     74  C   UNL     1      -4.401  -5.825   6.918  1.00  0.00     0.131 A 
ATOM     75  C   UNL     1      -5.673  -4.533   9.002  1.00  0.00     0.055 A 
ATOM     76  C   UNL     1      -5.155  -4.679   6.660  1.00  0.00     0.041 A 
ATOM     77  F   UNL     1      -3.823  -6.438   5.873  1.00  0.00    -0.206 F 
ATOM     78  C   UNL     1      -5.810  -4.035   7.704  1.00  0.00     0.022 A 
BRANCH  75  79
ATOM     79  S   UNL     1      -6.622  -3.795  10.360  1.00  0.00     0.124 S 
ATOM     80  O   UNL     1      -7.405  -4.933  10.829  1.00  0.00    -0.237 OA
ATOM     81  O   UNL     1      -5.564  -3.332  11.251  1.00  0.00    -0.237 OA
ATOM     82  O   UNL     1      -7.388  -2.737   9.704  1.00  0.00    -0.744 OA
ENDBRANCH  75  79
ENDBRANCH  48  72
BRANCH  60  83
ATOM     83  C   UNL     1      -6.094 -12.610  10.631  1.00  0.00     0.023 A 
ATOM     84  C   UNL     1      -7.234 -12.759   9.821  1.00  0.00     0.031 A 
ATOM     85  C   UNL     1      -6.198 -12.960  11.989  1.00  0.00     0.131 A 
ATOM     86  C   UNL     1      -8.443 -13.191  10.388  1.00  0.00     0.055 A 
ATOM     87  C   UNL     1      -7.387 -13.447  12.535  1.00  0.00     0.041 A 
ATOM     88  F   UNL     1      -5.142 -12.837  12.809  1.00  0.00    -0.206 F 
ATOM     89  C   UNL     1      -8.522 -13.552  11.736  1.00  0.00     0.022 A 
BRANCH  86  90
ATOM     90  S   UNL     1      -9.937 -13.191   9.360  1.00  0.00     0.124 S 
ATOM     91  O   UNL     1     -10.027 -11.793   8.954  1.00  0.00    -0.237 OA
ATOM     92  O   UNL     1      -9.592 -14.140   8.306  1.00  0.00    -0.237 OA
ATOM     93  O   UNL     1     -10.984 -13.639  10.277  1.00  0.00    -0.744 OA
ENDBRANCH  86  90
ENDBRANCH  60  83
ENDBRANCH  34  35
ENDBRANCH  27  29
ENDBRANCH  26  27
ENDBRANCH  25  26
ENDBRANCH   1  25
TORSDOF 19
