REMARK SMILES Cc1ccc(S(=O)(=O)Nc2cc3c(cc2C(=O)OCCOCCOC(=O)c2ccc(-c4c5nc(c(-c6cc(S(=O)(=O)[O-])ccc6F)c6ccc([nH]6)c(-c6cc(S(=O)(=O)[O-])ccc6F)c6nc(c(-c7cc(S(=O)(=O)[O-])ccc7F)c7ccc4[nH]7)C=C6)C=C5)cc2)OCCO3)s1
REMARK SMILES IDX 21 1 20 2 19 3 18 4 16 5 17 6 15 7 10 8 11 9 12 10 14 11
REMARK SMILES IDX 13 12 93 13 90 14 92 15 91 16 9 17 6 19 7 20 8 21 5 22 1 23
REMARK SMILES IDX 2 24 3 25 94 26 4 27 22 28 23 29 24 30 25 31 26 32 27 33
REMARK SMILES IDX 28 34 89 35 29 36 88 37 30 38 31 39 32 40 82 41 33 42 87 43
REMARK SMILES IDX 81 44 83 45 34 46 86 47 80 48 79 49 35 51 67 52 47 53 66 54
REMARK SMILES IDX 48 55 51 56 65 57 84 58 49 59 50 60 64 62 85 63 52 64 36 65
REMARK SMILES IDX 37 66 45 67 38 68 44 69 46 70 43 71 39 72 40 73 41 74 42 75
REMARK SMILES IDX 68 76 69 77 77 78 70 79 76 80 78 81 75 82 71 83 72 84 73 85
REMARK SMILES IDX 74 86 53 87 54 88 62 89 55 90 61 91 63 92 60 93 56 94 57 95
REMARK SMILES IDX 58 96 59 97
REMARK H PARENT 9 18 83 50 51 61
REMARK Flexibility Score: inf
ROOT
ATOM      1  O   UNL     1      -0.865   1.247   3.645  1.00  0.00    -0.374 OA
ENDROOT
BRANCH   1   2
ATOM      2  C   UNL     1      -0.707   0.036   4.377  1.00  0.00     0.202 C 
BRANCH   2   3
ATOM      3  C   UNL     1      -1.854  -0.976   4.346  1.00  0.00     0.261 C 
BRANCH   3   4
ATOM      4  O   UNL     1      -2.002  -1.634   3.069  1.00  0.00    -0.460 OA
BRANCH   4   5
ATOM      5  C   UNL     1      -3.231  -1.538   2.508  1.00  0.00     0.340 C 
ATOM      6  O   UNL     1      -4.181  -0.890   2.920  1.00  0.00    -0.246 OA
BRANCH   5   7
ATOM      7  C   UNL     1      -3.340  -2.357   1.286  1.00  0.00     0.088 A 
ATOM      8  C   UNL     1      -3.939  -1.818   0.132  1.00  0.00     0.067 A 
ATOM      9  C   UNL     1      -4.448  -2.685  -0.835  1.00  0.00     0.078 A 
ATOM     10  C   UNL     1      -4.173  -4.047  -0.754  1.00  0.00     0.163 A 
ATOM     11  C   UNL     1      -3.014  -3.717   1.343  1.00  0.00     0.068 A 
ATOM     12  C   UNL     1      -3.390  -4.549   0.291  1.00  0.00     0.162 A 
ATOM     13  O   UNL     1      -4.675  -4.829  -1.762  1.00  0.00    -0.486 OA
ATOM     14  O   UNL     1      -2.994  -5.860   0.358  1.00  0.00    -0.486 OA
ATOM     15  C   UNL     1      -4.565  -6.222  -1.447  1.00  0.00     0.271 C 
ATOM     16  C   UNL     1      -3.180  -6.524  -0.900  1.00  0.00     0.271 C 
BRANCH   8  17
ATOM     17  N   UNL     1      -4.043  -0.399  -0.028  1.00  0.00    -0.278 N 
ATOM     18  H   UNL     1      -4.409   0.155   0.700  1.00  0.00     0.180 HD
BRANCH  17  19
ATOM     19  S   UNL     1      -3.530   0.328  -1.478  1.00  0.00     0.271 S 
ATOM     20  O   UNL     1      -3.430   1.741  -1.192  1.00  0.00    -0.200 OA
ATOM     21  O   UNL     1      -4.365  -0.158  -2.557  1.00  0.00    -0.200 OA
BRANCH  19  22
ATOM     22  C   UNL     1      -1.884  -0.266  -1.862  1.00  0.00     0.140 A 
ATOM     23  C   UNL     1       2.005   0.170  -2.002  1.00  0.00     0.056 C 
ATOM     24  C   UNL     1       0.578  -0.256  -2.069  1.00  0.00     0.003 A 
ATOM     25  C   UNL     1       0.069  -1.536  -2.049  1.00  0.00     0.016 A 
ATOM     26  S   UNL     1      -0.678   0.909  -2.186  1.00  0.00    -0.127 S 
ATOM     27  C   UNL     1      -1.352  -1.540  -1.973  1.00  0.00     0.034 A 
ENDBRANCH  19  22
ENDBRANCH  17  19
ENDBRANCH   8  17
ENDBRANCH   5   7
ENDBRANCH   4   5
ENDBRANCH   3   4
ENDBRANCH   2   3
ENDBRANCH   1   2
BRANCH   1  28
ATOM     28  C   UNL     1      -1.226   1.179   2.277  1.00  0.00     0.202 C 
BRANCH  28  29
ATOM     29  C   UNL     1      -0.331   0.402   1.305  1.00  0.00     0.261 C 
BRANCH  29  30
ATOM     30  O   UNL     1       0.732  -0.353   1.876  1.00  0.00    -0.460 OA
BRANCH  30  31
ATOM     31  C   UNL     1       1.911   0.306   1.954  1.00  0.00     0.338 C 
ATOM     32  O   UNL     1       2.169   1.427   1.559  1.00  0.00    -0.246 OA
BRANCH  31  33
ATOM     33  C   UNL     1       2.840  -0.544   2.709  1.00  0.00     0.060 A 
ATOM     34  C   UNL     1       3.289  -0.077   3.944  1.00  0.00     0.016 A 
ATOM     35  C   UNL     1       3.259  -1.779   2.203  1.00  0.00     0.016 A 
ATOM     36  C   UNL     1       4.186  -0.846   4.677  1.00  0.00     0.010 A 
ATOM     37  C   UNL     1       4.159  -2.549   2.942  1.00  0.00     0.010 A 
ATOM     38  C   UNL     1       4.637  -2.076   4.174  1.00  0.00    -0.014 A 
BRANCH  38  39
ATOM     39  C   UNL     1       5.655  -2.824   4.945  1.00  0.00     0.031 A 
ATOM     40  C   UNL     1       7.102  -2.703   4.566  1.00  0.00     0.074 A 
ATOM     41  C   UNL     1       5.270  -3.536   6.020  1.00  0.00     0.049 A 
ATOM     42  N   UNL     1       8.159  -3.156   5.186  1.00  0.00    -0.248 NA
ATOM     43  C   UNL     1       7.396  -1.973   3.324  1.00  0.00     0.031 C 
ATOM     44  C   UNL     1       3.883  -3.705   6.458  1.00  0.00     0.029 A 
ATOM     45  N   UNL     1       6.002  -4.229   6.947  1.00  0.00    -0.354 N 
ATOM     46  C   UNL     1       9.248  -2.751   4.422  1.00  0.00     0.074 A 
ATOM     47  C   UNL     1       8.717  -2.059   3.267  1.00  0.00     0.031 C 
ATOM     48  C   UNL     1       3.867  -4.440   7.583  1.00  0.00     0.029 A 
ATOM     49  C   UNL     1       5.236  -4.808   7.932  1.00  0.00     0.049 A 
ATOM     50  H   UNL     1       6.982  -4.306   6.912  1.00  0.00     0.167 HD
ATOM     51  C   UNL     1      10.568  -2.934   4.675  1.00  0.00     0.034 A 
ATOM     52  C   UNL     1       5.604  -5.548   8.997  1.00  0.00     0.034 A 
ATOM     53  C   UNL     1      11.062  -3.654   5.825  1.00  0.00     0.049 A 
ATOM     54  C   UNL     1       7.077  -5.766   9.236  1.00  0.00     0.074 A 
ATOM     55  C   UNL     1      12.372  -3.898   6.196  1.00  0.00     0.029 A 
ATOM     56  N   UNL     1      10.259  -4.261   6.784  1.00  0.00    -0.354 N 
ATOM     57  N   UNL     1       8.101  -5.335   8.532  1.00  0.00    -0.248 NA
ATOM     58  C   UNL     1       7.446  -6.550  10.419  1.00  0.00     0.031 C 
ATOM     59  C   UNL     1      12.360  -4.709   7.337  1.00  0.00     0.029 A 
ATOM     60  C   UNL     1      11.044  -4.909   7.725  1.00  0.00     0.049 A 
ATOM     61  H   UNL     1       9.275  -4.235   6.794  1.00  0.00     0.167 HD
ATOM     62  C   UNL     1       9.236  -5.781   9.201  1.00  0.00     0.074 A 
ATOM     63  C   UNL     1       8.769  -6.486  10.378  1.00  0.00     0.031 C 
ATOM     64  C   UNL     1      10.547  -5.627   8.876  1.00  0.00     0.034 A 
BRANCH  51  65
ATOM     65  C   UNL     1      11.551  -2.392   3.665  1.00  0.00     0.023 A 
ATOM     66  C   UNL     1      11.678  -1.013   3.417  1.00  0.00     0.031 A 
ATOM     67  C   UNL     1      12.356  -3.270   2.917  1.00  0.00     0.131 A 
ATOM     68  C   UNL     1      12.541  -0.558   2.406  1.00  0.00     0.055 A 
ATOM     69  C   UNL     1      13.264  -2.806   1.962  1.00  0.00     0.041 A 
ATOM     70  F   UNL     1      12.262  -4.598   3.091  1.00  0.00    -0.206 F 
ATOM     71  C   UNL     1      13.351  -1.444   1.693  1.00  0.00     0.022 A 
BRANCH  68  72
ATOM     72  S   UNL     1      12.497   1.197   1.948  1.00  0.00     0.124 S 
ATOM     73  O   UNL     1      11.108   1.358   1.527  1.00  0.00    -0.237 OA
ATOM     74  O   UNL     1      12.870   1.859   3.193  1.00  0.00    -0.237 OA
ATOM     75  O   UNL     1      13.482   1.295   0.871  1.00  0.00    -0.744 OA
ENDBRANCH  68  72
ENDBRANCH  51  65
BRANCH  52  76
ATOM     76  C   UNL     1       4.575  -6.141   9.900  1.00  0.00     0.023 A 
ATOM     77  C   UNL     1       4.491  -5.785  11.255  1.00  0.00     0.031 A 
ATOM     78  C   UNL     1       3.676  -7.112   9.419  1.00  0.00     0.131 A 
ATOM     79  C   UNL     1       3.560  -6.423  12.091  1.00  0.00     0.055 A 
ATOM     80  C   UNL     1       2.718  -7.706  10.242  1.00  0.00     0.041 A 
ATOM     81  F   UNL     1       3.708  -7.489   8.131  1.00  0.00    -0.206 F 
ATOM     82  C   UNL     1       2.665  -7.372  11.591  1.00  0.00     0.022 A 
BRANCH  79  83
ATOM     83  S   UNL     1       3.591  -6.059  13.869  1.00  0.00     0.124 S 
ATOM     84  O   UNL     1       4.975  -6.363  14.213  1.00  0.00    -0.237 OA
ATOM     85  O   UNL     1       3.217  -4.649  13.893  1.00  0.00    -0.237 OA
ATOM     86  O   UNL     1       2.595  -6.975  14.420  1.00  0.00    -0.744 OA
ENDBRANCH  79  83
ENDBRANCH  52  76
BRANCH  64  87
ATOM     87  C   UNL     1      11.550  -6.227   9.830  1.00  0.00     0.023 A 
ATOM     88  C   UNL     1      11.649  -7.617  10.010  1.00  0.00     0.031 A 
ATOM     89  C   UNL     1      12.393  -5.398  10.590  1.00  0.00     0.131 A 
ATOM     90  C   UNL     1      12.521  -8.135  10.978  1.00  0.00     0.055 A 
ATOM     91  C   UNL     1      13.305  -5.923  11.506  1.00  0.00     0.041 A 
ATOM     92  F   UNL     1      12.339  -4.062  10.458  1.00  0.00    -0.206 F 
ATOM     93  C   UNL     1      13.361  -7.298  11.716  1.00  0.00     0.022 A 
BRANCH  90  94
ATOM     94  S   UNL     1      12.458  -9.911  11.339  1.00  0.00     0.124 S 
ATOM     95  O   UNL     1      11.061 -10.094  11.720  1.00  0.00    -0.237 OA
ATOM     96  O   UNL     1      12.854 -10.503  10.066  1.00  0.00    -0.237 OA
ATOM     97  O   UNL     1      13.423 -10.075  12.425  1.00  0.00    -0.744 OA
ENDBRANCH  90  94
ENDBRANCH  64  87
ENDBRANCH  38  39
ENDBRANCH  31  33
ENDBRANCH  30  31
ENDBRANCH  29  30
ENDBRANCH  28  29
ENDBRANCH   1  28
TORSDOF 20
