REMARK SMILES O=C(OCCOCCOC(=O)[C@@H]1c2ccccc2C(=O)N(C2CCCC2)C12CCCCC2)c1ccc(-c2c3nc(c(-c4cc(S(=O)(=O)[O-])ccc4F)c4ccc([nH]4)c(-c4cc(S(=O)(=O)[O-])ccc4F)c4nc(c(-c5cc(S(=O)(=O)[O-])ccc5F)c5ccc2[nH]5)C=C4)C=C3)cc1
REMARK SMILES IDX 5 1 4 2 3 3 2 4 1 5 33 6 34 7 95 8 35 9 94 10 36 11 37 12
REMARK SMILES IDX 38 13 88 14 39 15 93 16 87 17 89 18 40 19 92 20 86 21 85 22
REMARK SMILES IDX 41 24 73 25 53 26 72 27 54 28 57 29 71 30 90 31 55 32 56 33
REMARK SMILES IDX 70 35 91 36 58 37 42 38 43 39 51 40 44 41 50 42 52 43 49 44
REMARK SMILES IDX 45 45 46 46 47 47 48 48 74 49 75 50 83 51 76 52 82 53 84 54
REMARK SMILES IDX 81 55 77 56 78 57 79 58 80 59 59 60 60 61 68 62 61 63 67 64
REMARK SMILES IDX 69 65 66 66 62 67 63 68 64 69 65 70 6 71 7 72 8 73 9 74
REMARK SMILES IDX 10 75 11 76 12 77 13 78 27 79 14 80 18 81 21 82 28 83 32 84
REMARK SMILES IDX 15 85 17 86 19 87 29 88 31 89 16 90 20 91 30 92 22 93 23 94
REMARK SMILES IDX 26 95 24 96 25 97
REMARK H PARENT 89 23 57 34
REMARK Flexibility Score: inf
ROOT
ATOM      1  C   UNL     1       4.714   2.320  -0.293  1.00  0.00     0.202 C 
ENDROOT
BRANCH   1   2
ATOM      2  C   UNL     1       5.613   1.770  -1.416  1.00  0.00     0.261 C 
BRANCH   2   3
ATOM      3  O   UNL     1       6.851   2.482  -1.576  1.00  0.00    -0.460 OA
BRANCH   3   4
ATOM      4  C   UNL     1       7.096   3.577  -2.343  1.00  0.00     0.338 C 
ATOM      5  O   UNL     1       8.265   3.945  -2.460  1.00  0.00    -0.246 OA
BRANCH   4   6
ATOM      6  C   UNL     1       6.025   4.439  -2.946  1.00  0.00     0.060 A 
ATOM      7  C   UNL     1       6.424   5.612  -3.617  1.00  0.00     0.016 A 
ATOM      8  C   UNL     1       4.657   4.219  -2.814  1.00  0.00     0.016 A 
ATOM      9  C   UNL     1       5.479   6.530  -4.094  1.00  0.00     0.010 A 
ATOM     10  C   UNL     1       3.721   5.159  -3.175  1.00  0.00     0.010 A 
ATOM     11  C   UNL     1       4.124   6.301  -3.849  1.00  0.00    -0.014 A 
BRANCH  11  12
ATOM     12  C   UNL     1       3.017   7.022  -4.482  1.00  0.00     0.031 A 
ATOM     13  C   UNL     1       2.146   7.927  -3.676  1.00  0.00     0.074 A 
ATOM     14  C   UNL     1       2.622   6.506  -5.661  1.00  0.00     0.049 A 
ATOM     15  N   UNL     1       1.086   8.583  -4.052  1.00  0.00    -0.248 NA
ATOM     16  C   UNL     1       2.471   8.072  -2.245  1.00  0.00     0.031 C 
ATOM     17  C   UNL     1       3.302   5.396  -6.346  1.00  0.00     0.029 A 
ATOM     18  N   UNL     1       1.527   6.750  -6.435  1.00  0.00    -0.354 N 
ATOM     19  C   UNL     1       0.636   9.255  -2.921  1.00  0.00     0.074 A 
ATOM     20  C   UNL     1       1.483   8.852  -1.822  1.00  0.00     0.031 C 
ATOM     21  C   UNL     1       2.592   5.040  -7.421  1.00  0.00     0.029 A 
ATOM     22  C   UNL     1       1.440   5.924  -7.530  1.00  0.00     0.049 A 
ATOM     23  H   UNL     1       0.864   7.449  -6.230  1.00  0.00     0.167 HD
ATOM     24  C   UNL     1      -0.377  10.150  -2.852  1.00  0.00     0.034 A 
ATOM     25  C   UNL     1       0.551   5.922  -8.540  1.00  0.00     0.034 A 
ATOM     26  C   UNL     1      -1.200  10.444  -4.000  1.00  0.00     0.049 A 
ATOM     27  C   UNL     1      -0.456   7.035  -8.532  1.00  0.00     0.074 A 
ATOM     28  C   UNL     1      -2.164  11.421  -4.149  1.00  0.00     0.029 A 
ATOM     29  N   UNL     1      -1.157   9.736  -5.199  1.00  0.00    -0.354 N 
ATOM     30  N   UNL     1      -0.729   7.876  -7.558  1.00  0.00    -0.248 NA
ATOM     31  C   UNL     1      -1.220   7.261  -9.759  1.00  0.00     0.031 C 
ATOM     32  C   UNL     1      -2.740  11.266  -5.413  1.00  0.00     0.029 A 
ATOM     33  C   UNL     1      -2.087  10.242  -6.087  1.00  0.00     0.049 A 
ATOM     34  H   UNL     1      -0.551   8.983  -5.387  1.00  0.00     0.167 HD
ATOM     35  C   UNL     1      -1.682   8.749  -8.059  1.00  0.00     0.074 A 
ATOM     36  C   UNL     1      -1.917   8.344  -9.434  1.00  0.00     0.031 C 
ATOM     37  C   UNL     1      -2.304   9.788  -7.444  1.00  0.00     0.034 A 
BRANCH  24  38
ATOM     38  C   UNL     1      -0.606  10.915  -1.565  1.00  0.00     0.023 A 
ATOM     39  C   UNL     1      -1.875  10.944  -0.955  1.00  0.00     0.031 A 
ATOM     40  C   UNL     1       0.401  11.735  -1.017  1.00  0.00     0.131 A 
ATOM     41  C   UNL     1      -2.109  11.792   0.139  1.00  0.00     0.055 A 
ATOM     42  C   UNL     1       0.176  12.542   0.101  1.00  0.00     0.041 A 
ATOM     43  F   UNL     1       1.628  11.770  -1.562  1.00  0.00    -0.206 F 
ATOM     44  C   UNL     1      -1.088  12.583   0.676  1.00  0.00     0.022 A 
BRANCH  41  45
ATOM     45  S   UNL     1      -3.760  11.960   0.872  1.00  0.00     0.124 S 
ATOM     46  O   UNL     1      -3.507  11.606   2.268  1.00  0.00    -0.237 OA
ATOM     47  O   UNL     1      -4.057  13.370   0.633  1.00  0.00    -0.237 OA
ATOM     48  O   UNL     1      -4.574  11.007   0.128  1.00  0.00    -0.744 OA
ENDBRANCH  41  45
ENDBRANCH  24  38
BRANCH  25  49
ATOM     49  C   UNL     1       0.809   5.003  -9.684  1.00  0.00     0.023 A 
ATOM     50  C   UNL     1       0.725   3.605  -9.526  1.00  0.00     0.031 A 
ATOM     51  C   UNL     1       1.417   5.503 -10.848  1.00  0.00     0.131 A 
ATOM     52  C   UNL     1       1.318   2.763 -10.480  1.00  0.00     0.055 A 
ATOM     53  C   UNL     1       1.949   4.659 -11.824  1.00  0.00     0.041 A 
ATOM     54  F   UNL     1       1.563   6.826 -11.018  1.00  0.00    -0.206 F 
ATOM     55  C   UNL     1       1.921   3.281 -11.631  1.00  0.00     0.022 A 
BRANCH  52  56
ATOM     56  S   UNL     1       1.506   0.982 -10.167  1.00  0.00     0.124 S 
ATOM     57  O   UNL     1       0.728   0.398 -11.255  1.00  0.00    -0.237 OA
ATOM     58  O   UNL     1       2.954   0.810 -10.264  1.00  0.00    -0.237 OA
ATOM     59  O   UNL     1       0.953   0.807  -8.828  1.00  0.00    -0.744 OA
ENDBRANCH  52  56
ENDBRANCH  25  49
BRANCH  37  60
ATOM     60  C   UNL     1      -3.338  10.542  -8.235  1.00  0.00     0.023 A 
ATOM     61  C   UNL     1      -3.144  11.906  -8.517  1.00  0.00     0.031 A 
ATOM     62  C   UNL     1      -4.572   9.954  -8.556  1.00  0.00     0.131 A 
ATOM     63  C   UNL     1      -4.193  12.653  -9.061  1.00  0.00     0.055 A 
ATOM     64  C   UNL     1      -5.596  10.691  -9.147  1.00  0.00     0.041 A 
ATOM     65  F   UNL     1      -4.800   8.658  -8.292  1.00  0.00    -0.206 F 
ATOM     66  C   UNL     1      -5.415  12.051  -9.386  1.00  0.00     0.022 A 
BRANCH  63  67
ATOM     67  S   UNL     1      -4.048  14.447  -9.268  1.00  0.00     0.124 S 
ATOM     68  O   UNL     1      -4.214  14.597 -10.712  1.00  0.00    -0.237 OA
ATOM     69  O   UNL     1      -5.159  14.940  -8.458  1.00  0.00    -0.237 OA
ATOM     70  O   UNL     1      -2.716  14.755  -8.760  1.00  0.00    -0.744 OA
ENDBRANCH  63  67
ENDBRANCH  37  60
ENDBRANCH  11  12
ENDBRANCH   4   6
ENDBRANCH   3   4
ENDBRANCH   2   3
ENDBRANCH   1   2
BRANCH   1  71
ATOM     71  O   UNL     1       4.648   3.740  -0.160  1.00  0.00    -0.374 OA
BRANCH  71  72
ATOM     72  C   UNL     1       5.742   4.412   0.461  1.00  0.00     0.202 C 
BRANCH  72  73
ATOM     73  C   UNL     1       5.354   4.933   1.836  1.00  0.00     0.261 C 
BRANCH  73  74
ATOM     74  O   UNL     1       5.475   3.882   2.803  1.00  0.00    -0.463 OA
BRANCH  74  75
ATOM     75  C   UNL     1       4.454   2.998   2.862  1.00  0.00     0.315 C 
ATOM     76  O   UNL     1       3.424   3.043   2.200  1.00  0.00    -0.251 OA
BRANCH  75  77
ATOM     77  C   UNL     1       4.627   2.037   4.009  1.00  0.00     0.156 C 
ATOM     78  C   UNL     1       4.253   2.755   5.299  1.00  0.00    -0.019 A 
ATOM     79  C   UNL     1       6.012   1.266   4.085  1.00  0.00     0.061 C 
ATOM     80  C   UNL     1       3.292   3.787   5.317  1.00  0.00     0.005 A 
ATOM     81  C   UNL     1       4.873   2.396   6.496  1.00  0.00     0.044 A 
ATOM     82  N   UNL     1       5.847   0.429   5.366  1.00  0.00    -0.329 N 
ATOM     83  C   UNL     1       7.280   2.167   4.362  1.00  0.00     0.030 C 
ATOM     84  C   UNL     1       6.228   0.402   2.790  1.00  0.00     0.030 C 
ATOM     85  C   UNL     1       3.076   4.542   6.466  1.00  0.00     0.000 A 
ATOM     86  C   UNL     1       4.671   3.169   7.646  1.00  0.00     0.014 A 
ATOM     87  C   UNL     1       5.625   1.111   6.584  1.00  0.00     0.254 C 
ATOM     88  C   UNL     1       8.212   2.550   3.212  1.00  0.00     0.002 C 
ATOM     89  C   UNL     1       7.227   0.871   1.734  1.00  0.00     0.002 C 
ATOM     90  C   UNL     1       3.797   4.259   7.620  1.00  0.00     0.001 A 
ATOM     91  O   UNL     1       5.918   0.661   7.679  1.00  0.00    -0.269 OA
ATOM     92  C   UNL     1       8.524   1.375   2.313  1.00  0.00     0.000 C 
BRANCH  82  93
ATOM     93  C   UNL     1       5.909  -1.035   5.462  1.00  0.00     0.086 C 
ATOM     94  C   UNL     1       4.887  -1.815   4.630  1.00  0.00     0.025 C 
ATOM     95  C   UNL     1       7.276  -1.673   5.215  1.00  0.00     0.025 C 
ATOM     96  C   UNL     1       5.468  -3.220   4.601  1.00  0.00     0.002 C 
ATOM     97  C   UNL     1       6.983  -3.030   4.572  1.00  0.00     0.002 C 
ENDBRANCH  82  93
ENDBRANCH  75  77
ENDBRANCH  74  75
ENDBRANCH  73  74
ENDBRANCH  72  73
ENDBRANCH  71  72
ENDBRANCH   1  71
TORSDOF 18
