REMARK SMILES Cc1cscc1C(=O)N[C@H](C(=O)OCCOCCOC(=O)c1ccc(-c2c3nc(c(-c4cc(S(=O)(=O)[O-])ccc4F)c4ccc([nH]4)c(-c4cc(S(=O)(=O)[O-])ccc4F)c4nc(c(-c5cc(S(=O)(=O)[O-])ccc5F)c5ccc2[nH]5)C=C4)C=C3)cc1)c1ccccc1
REMARK SMILES IDX 17 1 16 2 15 3 14 4 13 5 11 6 12 7 10 8 9 9 7 10 8 11 6 13
REMARK SMILES IDX 1 14 2 15 3 16 4 17 5 18 85 19 86 20 90 21 87 22 89 23 88 24
REMARK SMILES IDX 18 25 19 26 20 27 21 28 22 29 23 30 84 31 24 32 83 33 25 34
REMARK SMILES IDX 26 35 27 36 77 37 28 38 82 39 76 40 78 41 29 42 81 43 75 44
REMARK SMILES IDX 74 45 30 47 62 48 42 49 61 50 43 51 46 52 60 53 79 54 44 55
REMARK SMILES IDX 45 56 59 58 80 59 47 60 31 61 32 62 40 63 33 64 39 65 41 66
REMARK SMILES IDX 38 67 34 68 35 69 36 70 37 71 63 72 64 73 72 74 65 75 71 76
REMARK SMILES IDX 73 77 70 78 66 79 67 80 68 81 69 82 48 83 49 84 57 85 50 86
REMARK SMILES IDX 56 87 58 88 55 89 51 90 52 91 53 92 54 93
REMARK H PARENT 9 12 78 46 46 57
REMARK Flexibility Score: inf
ROOT
ATOM      1  C   UNL     1       1.284   3.051   2.537  1.00  0.00     0.202 C 
ENDROOT
BRANCH   1   2
ATOM      2  O   UNL     1       0.346   3.832   1.810  1.00  0.00    -0.374 OA
BRANCH   2   3
ATOM      3  C   UNL     1      -0.124   3.325   0.566  1.00  0.00     0.202 C 
BRANCH   3   4
ATOM      4  C   UNL     1       0.894   2.924  -0.505  1.00  0.00     0.261 C 
BRANCH   4   5
ATOM      5  O   UNL     1       1.905   1.994  -0.062  1.00  0.00    -0.461 OA
BRANCH   5   6
ATOM      6  C   UNL     1       2.806   1.731  -1.045  1.00  0.00     0.333 C 
ATOM      7  O   UNL     1       2.606   2.038  -2.222  1.00  0.00    -0.249 OA
BRANCH   6   8
ATOM      8  C   UNL     1       4.091   1.010  -0.622  1.00  0.00     0.223 C 
BRANCH   8   9
ATOM      9  N   UNL     1       5.214   1.493  -1.432  1.00  0.00    -0.335 N 
ATOM     10  C   UNL     1       5.743   2.711  -1.758  1.00  0.00     0.253 C 
ATOM     11  O   UNL     1       6.796   2.643  -2.403  1.00  0.00    -0.269 OA
ATOM     12  H   UNL     1       5.714   0.753  -1.845  1.00  0.00     0.165 HD
BRANCH  10  13
ATOM     13  C   UNL     1       5.129   4.032  -1.515  1.00  0.00     0.053 A 
ATOM     14  C   UNL     1       4.361   4.220   1.026  1.00  0.00     0.046 C 
ATOM     15  C   UNL     1       4.542   4.708  -0.362  1.00  0.00    -0.028 A 
ATOM     16  C   UNL     1       4.179   6.014  -0.659  1.00  0.00     0.069 A 
ATOM     17  S   UNL     1       4.579   6.484  -2.236  1.00  0.00    -0.151 S 
ATOM     18  C   UNL     1       5.218   4.945  -2.564  1.00  0.00     0.079 A 
ENDBRANCH  10  13
ENDBRANCH   8   9
BRANCH   8  19
ATOM     19  C   UNL     1       4.522   0.740   0.825  1.00  0.00    -0.014 A 
ATOM     20  C   UNL     1       3.960  -0.308   1.572  1.00  0.00     0.006 A 
ATOM     21  C   UNL     1       5.615   1.414   1.411  1.00  0.00     0.006 A 
ATOM     22  C   UNL     1       4.445  -0.626   2.853  1.00  0.00     0.000 A 
ATOM     23  C   UNL     1       6.056   1.144   2.708  1.00  0.00     0.000 A 
ATOM     24  C   UNL     1       5.473   0.116   3.430  1.00  0.00     0.000 A 
ENDBRANCH   8  19
ENDBRANCH   6   8
ENDBRANCH   5   6
ENDBRANCH   4   5
ENDBRANCH   3   4
ENDBRANCH   2   3
ENDBRANCH   1   2
BRANCH   1  25
ATOM     25  C   UNL     1       0.873   1.692   3.121  1.00  0.00     0.261 C 
BRANCH  25  26
ATOM     26  O   UNL     1       0.138   0.849   2.226  1.00  0.00    -0.460 OA
BRANCH  26  27
ATOM     27  C   UNL     1      -1.198   0.825   2.477  1.00  0.00     0.338 C 
ATOM     28  O   UNL     1      -1.786   1.397   3.376  1.00  0.00    -0.246 OA
BRANCH  27  29
ATOM     29  C   UNL     1      -1.893   0.151   1.365  1.00  0.00     0.060 A 
ATOM     30  C   UNL     1      -2.880   0.879   0.688  1.00  0.00     0.016 A 
ATOM     31  C   UNL     1      -1.627  -1.178   1.032  1.00  0.00     0.016 A 
ATOM     32  C   UNL     1      -3.631   0.271  -0.310  1.00  0.00     0.010 A 
ATOM     33  C   UNL     1      -2.403  -1.798   0.049  1.00  0.00     0.010 A 
ATOM     34  C   UNL     1      -3.428  -1.083  -0.598  1.00  0.00    -0.014 A 
BRANCH  34  35
ATOM     35  C   UNL     1      -4.438  -1.786  -1.419  1.00  0.00     0.031 A 
ATOM     36  C   UNL     1      -5.534  -2.530  -0.708  1.00  0.00     0.074 A 
ATOM     37  C   UNL     1      -4.417  -1.699  -2.760  1.00  0.00     0.049 A 
ATOM     38  N   UNL     1      -6.518  -3.234  -1.201  1.00  0.00    -0.248 NA
ATOM     39  C   UNL     1      -5.515  -2.467   0.763  1.00  0.00     0.031 C 
ATOM     40  C   UNL     1      -3.439  -0.938  -3.538  1.00  0.00     0.029 A 
ATOM     41  N   UNL     1      -5.243  -2.252  -3.704  1.00  0.00    -0.354 N 
ATOM     42  C   UNL     1      -7.232  -3.702  -0.103  1.00  0.00     0.074 A 
ATOM     43  C   UNL     1      -6.548  -3.231   1.081  1.00  0.00     0.031 C 
ATOM     44  C   UNL     1      -3.719  -1.081  -4.845  1.00  0.00     0.029 A 
ATOM     45  C   UNL     1      -4.864  -1.977  -4.996  1.00  0.00     0.049 A 
ATOM     46  H   UNL     1      -6.033  -2.794  -3.477  1.00  0.00     0.167 HD
ATOM     47  C   UNL     1      -8.360  -4.454  -0.091  1.00  0.00     0.034 A 
ATOM     48  C   UNL     1      -5.369  -2.426  -6.163  1.00  0.00     0.034 A 
ATOM     49  C   UNL     1      -9.012  -4.921  -1.289  1.00  0.00     0.049 A 
ATOM     50  C   UNL     1      -6.565  -3.349  -6.122  1.00  0.00     0.074 A 
ATOM     51  C   UNL     1     -10.158  -5.687  -1.405  1.00  0.00     0.029 A 
ATOM     52  N   UNL     1      -8.564  -4.678  -2.583  1.00  0.00    -0.354 N 
ATOM     53  N   UNL     1      -7.232  -3.792  -5.079  1.00  0.00    -0.248 NA
ATOM     54  C   UNL     1      -7.080  -3.824  -7.411  1.00  0.00     0.031 C 
ATOM     55  C   UNL     1     -10.353  -5.978  -2.759  1.00  0.00     0.029 A 
ATOM     56  C   UNL     1      -9.387  -5.314  -3.499  1.00  0.00     0.049 A 
ATOM     57  H   UNL     1      -7.778  -4.133  -2.815  1.00  0.00     0.167 HD
ATOM     58  C   UNL     1      -8.267  -4.571  -5.592  1.00  0.00     0.074 A 
ATOM     59  C   UNL     1      -8.141  -4.523  -7.035  1.00  0.00     0.031 C 
ATOM     60  C   UNL     1      -9.236  -5.260  -4.935  1.00  0.00     0.034 A 
BRANCH  47  61
ATOM     61  C   UNL     1      -8.905  -4.869   1.254  1.00  0.00     0.023 A 
ATOM     62  C   UNL     1      -9.373  -3.933   2.193  1.00  0.00     0.031 A 
ATOM     63  C   UNL     1      -8.923  -6.228   1.618  1.00  0.00     0.131 A 
ATOM     64  C   UNL     1      -9.772  -4.360   3.470  1.00  0.00     0.055 A 
ATOM     65  C   UNL     1      -9.400  -6.654   2.858  1.00  0.00     0.041 A 
ATOM     66  F   UNL     1      -8.460  -7.166   0.776  1.00  0.00    -0.206 F 
ATOM     67  C   UNL     1      -9.815  -5.717   3.799  1.00  0.00     0.022 A 
BRANCH  64  68
ATOM     68  S   UNL     1     -10.091  -3.110   4.745  1.00  0.00     0.124 S 
ATOM     69  O   UNL     1      -8.813  -2.404   4.792  1.00  0.00    -0.237 OA
ATOM     70  O   UNL     1     -11.212  -2.365   4.183  1.00  0.00    -0.237 OA
ATOM     71  O   UNL     1     -10.401  -3.902   5.933  1.00  0.00    -0.744 OA
ENDBRANCH  64  68
ENDBRANCH  47  61
BRANCH  48  72
ATOM     72  C   UNL     1      -4.726  -2.060  -7.459  1.00  0.00     0.023 A 
ATOM     73  C   UNL     1      -5.427  -1.355  -8.450  1.00  0.00     0.031 A 
ATOM     74  C   UNL     1      -3.410  -2.466  -7.749  1.00  0.00     0.131 A 
ATOM     75  C   UNL     1      -4.829  -1.120  -9.698  1.00  0.00     0.055 A 
ATOM     76  C   UNL     1      -2.797  -2.175  -8.969  1.00  0.00     0.041 A 
ATOM     77  F   UNL     1      -2.694  -3.150  -6.842  1.00  0.00    -0.206 F 
ATOM     78  C   UNL     1      -3.514  -1.511  -9.959  1.00  0.00     0.022 A 
BRANCH  75  79
ATOM     79  S   UNL     1      -5.833  -0.385 -11.018  1.00  0.00     0.124 S 
ATOM     80  O   UNL     1      -6.939  -1.332 -11.111  1.00  0.00    -0.237 OA
ATOM     81  O   UNL     1      -6.155   0.924 -10.460  1.00  0.00    -0.237 OA
ATOM     82  O   UNL     1      -4.928  -0.367 -12.165  1.00  0.00    -0.744 OA
ENDBRANCH  75  79
ENDBRANCH  48  72
BRANCH  60  83
ATOM     83  C   UNL     1     -10.265  -5.974  -5.780  1.00  0.00     0.023 A 
ATOM     84  C   UNL     1      -9.925  -7.058  -6.606  1.00  0.00     0.031 A 
ATOM     85  C   UNL     1     -11.609  -5.557  -5.755  1.00  0.00     0.131 A 
ATOM     86  C   UNL     1     -10.903  -7.650  -7.420  1.00  0.00     0.055 A 
ATOM     87  C   UNL     1     -12.591  -6.196  -6.512  1.00  0.00     0.041 A 
ATOM     88  F   UNL     1     -11.991  -4.525  -4.986  1.00  0.00    -0.206 F 
ATOM     89  C   UNL     1     -12.238  -7.239  -7.362  1.00  0.00     0.022 A 
BRANCH  86  90
ATOM     90  S   UNL     1     -10.388  -8.895  -8.633  1.00  0.00     0.124 S 
ATOM     91  O   UNL     1      -9.413  -8.157  -9.429  1.00  0.00    -0.237 OA
ATOM     92  O   UNL     1      -9.849  -9.953  -7.785  1.00  0.00    -0.237 OA
ATOM     93  O   UNL     1     -11.630  -9.230  -9.328  1.00  0.00    -0.744 OA
ENDBRANCH  86  90
ENDBRANCH  60  83
ENDBRANCH  34  35
ENDBRANCH  27  29
ENDBRANCH  26  27
ENDBRANCH  25  26
ENDBRANCH   1  25
TORSDOF 20
