REMARK SMILES C[C@H]1[C@@H](C(=O)OCCOCCOC(=O)c2ccc(-c3c4nc(c(-c5cc(S(=O)(=O)[O-])ccc5F)c5ccc([nH]5)c(-c5cc(S(=O)(=O)[O-])ccc5F)c5nc(c(-c6cc(S(=O)(=O)[O-])ccc6F)c6ccc3[nH]6)C=C5)C=C4)cc2)CCN1C(=O)c1cc2cc(F)ccc2s1
REMARK SMILES IDX 10 1 9 2 8 3 7 4 6 5 4 6 5 7 3 8 1 9 2 10 80 11 78 12 79 13
REMARK SMILES IDX 81 14 82 15 83 16 84 17 92 18 85 19 91 20 86 21 90 22 87 23
REMARK SMILES IDX 89 24 88 25 11 26 12 27 13 28 14 29 15 30 16 31 77 32 17 33
REMARK SMILES IDX 76 34 18 35 19 36 20 37 70 38 21 39 75 40 69 41 71 42 22 43
REMARK SMILES IDX 74 44 68 45 67 46 23 48 55 49 35 50 54 51 36 52 39 53 53 54
REMARK SMILES IDX 72 55 37 56 38 57 52 59 73 60 40 61 24 62 25 63 33 64 26 65
REMARK SMILES IDX 32 66 34 67 31 68 27 69 28 70 29 71 30 72 56 73 57 74 65 75
REMARK SMILES IDX 58 76 64 77 66 78 63 79 59 80 60 81 61 82 62 83 41 84 42 85
REMARK SMILES IDX 50 86 43 87 49 88 51 89 48 90 44 91 45 92 46 93 47 94
REMARK H PARENT 71 47 39 58
REMARK Flexibility Score: inf
ROOT
ATOM      1  C   UNL     1      -0.631   1.100  -3.310  1.00  0.00     0.202 C 
ENDROOT
BRANCH   1   2
ATOM      2  O   UNL     1      -0.075   2.213  -4.005  1.00  0.00    -0.374 OA
BRANCH   2   3
ATOM      3  C   UNL     1       1.286   2.548  -3.712  1.00  0.00     0.202 C 
BRANCH   3   4
ATOM      4  C   UNL     1       1.504   3.209  -2.350  1.00  0.00     0.261 C 
BRANCH   4   5
ATOM      5  O   UNL     1       1.353   2.225  -1.307  1.00  0.00    -0.463 OA
BRANCH   5   6
ATOM      6  C   UNL     1       0.674   2.613  -0.210  1.00  0.00     0.311 C 
ATOM      7  O   UNL     1       0.282   3.759  -0.009  1.00  0.00    -0.252 OA
BRANCH   6   8
ATOM      8  C   UNL     1       0.319   1.488   0.744  1.00  0.00     0.123 C 
ATOM      9  C   UNL     1       2.136  -0.171  -0.210  1.00  0.00     0.032 C 
ATOM     10  C   UNL     1       0.974   0.084   0.735  1.00  0.00     0.096 C 
ATOM     11  N   UNL     1      -0.141  -0.855   0.563  1.00  0.00    -0.334 N 
ATOM     12  C   UNL     1      -1.198   1.241   0.666  1.00  0.00     0.039 C 
ATOM     13  C   UNL     1      -1.360  -0.181   0.191  1.00  0.00     0.121 C 
BRANCH  11  14
ATOM     14  C   UNL     1      -0.242  -2.089   1.184  1.00  0.00     0.264 C 
ATOM     15  O   UNL     1      -1.284  -2.418   1.755  1.00  0.00    -0.268 OA
BRANCH  14  16
ATOM     16  C   UNL     1       0.837  -3.044   1.052  1.00  0.00     0.093 A 
ATOM     17  C   UNL     1       1.344  -3.843   2.060  1.00  0.00     0.034 A 
ATOM     18  S   UNL     1       1.012  -3.854  -0.454  1.00  0.00    -0.130 S 
ATOM     19  C   UNL     1       1.055  -5.218   1.726  1.00  0.00    -0.004 A 
ATOM     20  C   UNL     1       0.780  -5.363   0.360  1.00  0.00     0.035 A 
ATOM     21  C   UNL     1       0.883  -6.340   2.568  1.00  0.00     0.048 A 
ATOM     22  C   UNL     1       0.331  -6.579  -0.187  1.00  0.00     0.022 A 
ATOM     23  C   UNL     1       0.354  -7.514   2.037  1.00  0.00     0.123 A 
ATOM     24  C   UNL     1       0.074  -7.638   0.685  1.00  0.00     0.041 A 
ATOM     25  F   UNL     1       0.065  -8.529   2.863  1.00  0.00    -0.207 F 
ENDBRANCH  14  16
ENDBRANCH  11  14
ENDBRANCH   6   8
ENDBRANCH   5   6
ENDBRANCH   4   5
ENDBRANCH   3   4
ENDBRANCH   2   3
ENDBRANCH   1   2
BRANCH   1  26
ATOM     26  C   UNL     1      -0.318  -0.287  -3.882  1.00  0.00     0.261 C 
BRANCH  26  27
ATOM     27  O   UNL     1       1.087  -0.586  -3.858  1.00  0.00    -0.460 OA
BRANCH  27  28
ATOM     28  C   UNL     1       1.685  -0.508  -5.074  1.00  0.00     0.338 C 
ATOM     29  O   UNL     1       1.137  -0.280  -6.139  1.00  0.00    -0.246 OA
BRANCH  28  30
ATOM     30  C   UNL     1       3.155  -0.569  -4.936  1.00  0.00     0.060 A 
ATOM     31  C   UNL     1       3.894   0.335  -5.709  1.00  0.00     0.016 A 
ATOM     32  C   UNL     1       3.804  -1.526  -4.152  1.00  0.00     0.016 A 
ATOM     33  C   UNL     1       5.279   0.232  -5.767  1.00  0.00     0.010 A 
ATOM     34  C   UNL     1       5.201  -1.629  -4.213  1.00  0.00     0.010 A 
ATOM     35  C   UNL     1       5.938  -0.784  -5.062  1.00  0.00    -0.014 A 
BRANCH  35  36
ATOM     36  C   UNL     1       7.361  -1.054  -5.390  1.00  0.00     0.031 A 
ATOM     37  C   UNL     1       7.682  -2.159  -6.362  1.00  0.00     0.074 A 
ATOM     38  C   UNL     1       8.339  -0.261  -4.916  1.00  0.00     0.049 A 
ATOM     39  N   UNL     1       8.834  -2.510  -6.873  1.00  0.00    -0.248 NA
ATOM     40  C   UNL     1       6.548  -2.977  -6.818  1.00  0.00     0.031 C 
ATOM     41  C   UNL     1       8.143   0.861  -3.998  1.00  0.00     0.029 A 
ATOM     42  N   UNL     1       9.690  -0.268  -5.155  1.00  0.00    -0.354 N 
ATOM     43  C   UNL     1       8.564  -3.581  -7.719  1.00  0.00     0.074 A 
ATOM     44  C   UNL     1       7.147  -3.855  -7.609  1.00  0.00     0.031 C 
ATOM     45  C   UNL     1       9.332   1.441  -3.759  1.00  0.00     0.029 A 
ATOM     46  C   UNL     1      10.374   0.721  -4.489  1.00  0.00     0.049 A 
ATOM     47  H   UNL     1      10.128  -0.920  -5.749  1.00  0.00     0.167 HD
ATOM     48  C   UNL     1       9.414  -4.264  -8.527  1.00  0.00     0.034 A 
ATOM     49  C   UNL     1      11.691   1.009  -4.470  1.00  0.00     0.034 A 
ATOM     50  C   UNL     1      10.827  -3.990  -8.616  1.00  0.00     0.049 A 
ATOM     51  C   UNL     1      12.630   0.196  -5.329  1.00  0.00     0.074 A 
ATOM     52  C   UNL     1      11.782  -4.616  -9.398  1.00  0.00     0.029 A 
ATOM     53  N   UNL     1      11.494  -3.012  -7.886  1.00  0.00    -0.354 N 
ATOM     54  N   UNL     1      12.357  -0.802  -6.138  1.00  0.00    -0.248 NA
ATOM     55  C   UNL     1      14.050   0.564  -5.286  1.00  0.00     0.031 C 
ATOM     56  C   UNL     1      13.031  -4.063  -9.095  1.00  0.00     0.029 A 
ATOM     57  C   UNL     1      12.849  -3.038  -8.179  1.00  0.00     0.049 A 
ATOM     58  H   UNL     1      11.066  -2.391  -7.254  1.00  0.00     0.167 HD
ATOM     59  C   UNL     1      13.570  -1.160  -6.723  1.00  0.00     0.074 A 
ATOM     60  C   UNL     1      14.568  -0.257  -6.187  1.00  0.00     0.031 C 
ATOM     61  C   UNL     1      13.836  -2.142  -7.623  1.00  0.00     0.034 A 
BRANCH  48  62
ATOM     62  C   UNL     1       8.834  -5.402  -9.333  1.00  0.00     0.023 A 
ATOM     63  C   UNL     1       7.866  -5.186 -10.331  1.00  0.00     0.031 A 
ATOM     64  C   UNL     1       9.223  -6.728  -9.070  1.00  0.00     0.131 A 
ATOM     65  C   UNL     1       7.269  -6.281 -10.976  1.00  0.00     0.055 A 
ATOM     66  C   UNL     1       8.681  -7.807  -9.771  1.00  0.00     0.041 A 
ATOM     67  F   UNL     1      10.124  -6.998  -8.113  1.00  0.00    -0.206 F 
ATOM     68  C   UNL     1       7.687  -7.588 -10.719  1.00  0.00     0.022 A 
BRANCH  65  69
ATOM     69  S   UNL     1       5.835  -5.981 -12.047  1.00  0.00     0.124 S 
ATOM     70  O   UNL     1       4.902  -5.345 -11.120  1.00  0.00    -0.237 OA
ATOM     71  O   UNL     1       6.391  -5.122 -13.086  1.00  0.00    -0.237 OA
ATOM     72  O   UNL     1       5.449  -7.321 -12.485  1.00  0.00    -0.744 OA
ENDBRANCH  65  69
ENDBRANCH  48  62
BRANCH  49  73
ATOM     73  C   UNL     1      12.213   2.099  -3.596  1.00  0.00     0.023 A 
ATOM     74  C   UNL     1      12.825   3.241  -4.137  1.00  0.00     0.031 A 
ATOM     75  C   UNL     1      12.154   1.983  -2.196  1.00  0.00     0.131 A 
ATOM     76  C   UNL     1      13.394   4.200  -3.283  1.00  0.00     0.055 A 
ATOM     77  C   UNL     1      12.677   2.963  -1.351  1.00  0.00     0.041 A 
ATOM     78  F   UNL     1      11.578   0.912  -1.627  1.00  0.00    -0.206 F 
ATOM     79  C   UNL     1      13.314   4.074  -1.894  1.00  0.00     0.022 A 
BRANCH  76  80
ATOM     80  S   UNL     1      14.315   5.581  -4.016  1.00  0.00     0.124 S 
ATOM     81  O   UNL     1      15.341   4.883  -4.781  1.00  0.00    -0.237 OA
ATOM     82  O   UNL     1      13.280   6.254  -4.794  1.00  0.00    -0.237 OA
ATOM     83  O   UNL     1      14.798   6.323  -2.853  1.00  0.00    -0.744 OA
ENDBRANCH  76  80
ENDBRANCH  49  73
BRANCH  61  84
ATOM     84  C   UNL     1      15.262  -2.254  -8.109  1.00  0.00     0.023 A 
ATOM     85  C   UNL     1      16.310  -2.623  -7.247  1.00  0.00     0.031 A 
ATOM     86  C   UNL     1      15.580  -1.959  -9.447  1.00  0.00     0.131 A 
ATOM     87  C   UNL     1      17.633  -2.620  -7.714  1.00  0.00     0.055 A 
ATOM     88  C   UNL     1      16.891  -2.019  -9.922  1.00  0.00     0.041 A 
ATOM     89  F   UNL     1      14.620  -1.600 -10.314  1.00  0.00    -0.206 F 
ATOM     90  C   UNL     1      17.929  -2.335  -9.050  1.00  0.00     0.022 A 
BRANCH  87  91
ATOM     91  S   UNL     1      18.977  -2.881  -6.523  1.00  0.00     0.124 S 
ATOM     92  O   UNL     1      18.720  -1.834  -5.540  1.00  0.00    -0.237 OA
ATOM     93  O   UNL     1      18.734  -4.249  -6.076  1.00  0.00    -0.237 OA
ATOM     94  O   UNL     1      20.186  -2.696  -7.324  1.00  0.00    -0.744 OA
ENDBRANCH  87  91
ENDBRANCH  61  84
ENDBRANCH  35  36
ENDBRANCH  28  30
ENDBRANCH  27  28
ENDBRANCH  26  27
ENDBRANCH   1  26
TORSDOF 19
