REMARK SMILES COc1ccc(C(=O)c2ccccc2)cc1[C@@H](C)C(=O)OCCOCCOC(=O)c1ccc(-c2c3nc(c(-c4cc(S(=O)(=O)[O-])ccc4F)c4ccc([nH]4)c(-c4cc(S(=O)(=O)[O-])ccc4F)c4nc(c(-c5cc(S(=O)(=O)[O-])ccc5F)c5ccc2[nH]5)C=C4)C=C3)cc1
REMARK SMILES IDX 24 1 23 2 22 3 21 4 19 5 20 6 17 7 18 8 16 9 3 10 4 11 5 12
REMARK SMILES IDX 15 13 6 14 2 15 1 16 7 17 8 18 9 19 10 20 14 21 11 22 13 23
REMARK SMILES IDX 12 24 25 25 26 26 27 27 28 28 29 29 30 30 31 31 92 32 32 33
REMARK SMILES IDX 91 34 33 35 34 36 35 37 85 38 36 39 90 40 84 41 86 42 37 43
REMARK SMILES IDX 89 44 83 45 82 46 38 48 70 49 50 50 69 51 51 52 54 53 68 54
REMARK SMILES IDX 87 55 52 56 53 57 67 59 88 60 55 61 39 62 40 63 48 64 41 65
REMARK SMILES IDX 47 66 49 67 46 68 42 69 43 70 44 71 45 72 71 73 72 74 80 75
REMARK SMILES IDX 73 76 79 77 81 78 78 79 74 80 75 81 76 82 77 83 56 84 57 85
REMARK SMILES IDX 65 86 58 87 64 88 66 89 63 90 59 91 60 92 61 93 62 94
REMARK H PARENT 86 47 54 58
REMARK Flexibility Score: inf
ROOT
ATOM      1  O   UNL     1       2.902  -1.248   4.364  1.00  0.00    -0.374 OA
ENDROOT
BRANCH   1   2
ATOM      2  C   UNL     1       4.059  -0.502   4.748  1.00  0.00     0.202 C 
BRANCH   2   3
ATOM      3  C   UNL     1       5.061  -0.237   3.622  1.00  0.00     0.261 C 
BRANCH   3   4
ATOM      4  O   UNL     1       4.535   0.723   2.685  1.00  0.00    -0.463 OA
BRANCH   4   5
ATOM      5  C   UNL     1       4.267   0.274   1.432  1.00  0.00     0.313 C 
ATOM      6  O   UNL     1       4.543  -0.848   1.020  1.00  0.00    -0.252 OA
BRANCH   5   7
ATOM      7  C   UNL     1       3.622   1.327   0.541  1.00  0.00     0.130 C 
ATOM      8  C   UNL     1       4.701   2.189  -0.112  1.00  0.00     0.025 C 
BRANCH   7   9
ATOM      9  C   UNL     1       2.522   2.186   1.161  1.00  0.00     0.009 A 
ATOM     10  C   UNL     1       1.207   2.165   0.668  1.00  0.00     0.122 A 
ATOM     11  C   UNL     1       0.247   3.063   1.138  1.00  0.00     0.047 A 
ATOM     12  C   UNL     1       0.590   4.018   2.096  1.00  0.00     0.016 A 
ATOM     13  C   UNL     1       2.824   3.117   2.178  1.00  0.00     0.020 A 
ATOM     14  C   UNL     1       1.893   4.077   2.604  1.00  0.00     0.023 A 
BRANCH  10  15
ATOM     15  O   UNL     1       0.843   1.372  -0.387  1.00  0.00    -0.496 OA
ATOM     16  C   UNL     1       0.531   0.040   0.021  1.00  0.00     0.278 C 
ENDBRANCH  10  15
BRANCH  14  17
ATOM     17  C   UNL     1       2.224   5.177   3.564  1.00  0.00     0.193 C 
ATOM     18  O   UNL     1       1.298   5.811   4.069  1.00  0.00    -0.289 OA
BRANCH  17  19
ATOM     19  C   UNL     1       3.617   5.526   3.961  1.00  0.00     0.022 A 
ATOM     20  C   UNL     1       3.825   5.975   5.269  1.00  0.00     0.012 A 
ATOM     21  C   UNL     1       4.713   5.431   3.097  1.00  0.00     0.012 A 
ATOM     22  C   UNL     1       5.118   6.190   5.750  1.00  0.00     0.001 A 
ATOM     23  C   UNL     1       6.009   5.638   3.580  1.00  0.00     0.001 A 
ATOM     24  C   UNL     1       6.212   5.992   4.913  1.00  0.00     0.000 A 
ENDBRANCH  17  19
ENDBRANCH  14  17
ENDBRANCH   7   9
ENDBRANCH   5   7
ENDBRANCH   4   5
ENDBRANCH   3   4
ENDBRANCH   2   3
ENDBRANCH   1   2
BRANCH   1  25
ATOM     25  C   UNL     1       1.847  -0.511   3.751  1.00  0.00     0.202 C 
BRANCH  25  26
ATOM     26  C   UNL     1       0.883   0.220   4.692  1.00  0.00     0.261 C 
BRANCH  26  27
ATOM     27  O   UNL     1       1.535   1.250   5.451  1.00  0.00    -0.460 OA
BRANCH  27  28
ATOM     28  C   UNL     1       1.822   0.904   6.729  1.00  0.00     0.338 C 
ATOM     29  O   UNL     1       1.539  -0.153   7.281  1.00  0.00    -0.246 OA
BRANCH  28  30
ATOM     30  C   UNL     1       2.699   1.914   7.349  1.00  0.00     0.060 A 
ATOM     31  C   UNL     1       3.804   1.457   8.079  1.00  0.00     0.016 A 
ATOM     32  C   UNL     1       2.412   3.277   7.286  1.00  0.00     0.016 A 
ATOM     33  C   UNL     1       4.591   2.354   8.802  1.00  0.00     0.010 A 
ATOM     34  C   UNL     1       3.202   4.171   8.018  1.00  0.00     0.010 A 
ATOM     35  C   UNL     1       4.274   3.717   8.810  1.00  0.00    -0.014 A 
BRANCH  35  36
ATOM     36  C   UNL     1       4.926   4.632   9.788  1.00  0.00     0.031 A 
ATOM     37  C   UNL     1       4.104   5.162  10.937  1.00  0.00     0.074 A 
ATOM     38  C   UNL     1       6.225   4.973   9.680  1.00  0.00     0.049 A 
ATOM     39  N   UNL     1       4.440   5.990  11.894  1.00  0.00    -0.248 NA
ATOM     40  C   UNL     1       2.702   4.720  10.993  1.00  0.00     0.031 C 
ATOM     41  C   UNL     1       7.133   4.538   8.619  1.00  0.00     0.029 A 
ATOM     42  N   UNL     1       7.007   5.771  10.480  1.00  0.00    -0.354 N 
ATOM     43  C   UNL     1       3.287   6.178  12.651  1.00  0.00     0.074 A 
ATOM     44  C   UNL     1       2.229   5.444  11.993  1.00  0.00     0.031 C 
ATOM     45  C   UNL     1       8.350   5.068   8.838  1.00  0.00     0.029 A 
ATOM     46  C   UNL     1       8.305   5.895  10.043  1.00  0.00     0.049 A 
ATOM     47  H   UNL     1       6.669   6.214  11.291  1.00  0.00     0.167 HD
ATOM     48  C   UNL     1       3.125   6.867  13.809  1.00  0.00     0.034 A 
ATOM     49  C   UNL     1       9.338   6.595  10.556  1.00  0.00     0.034 A 
ATOM     50  C   UNL     1       4.190   7.574  14.475  1.00  0.00     0.049 A 
ATOM     51  C   UNL     1       9.139   7.365  11.842  1.00  0.00     0.074 A 
ATOM     52  C   UNL     1       4.149   8.280  15.665  1.00  0.00     0.029 A 
ATOM     53  N   UNL     1       5.496   7.660  14.009  1.00  0.00    -0.354 N 
ATOM     54  N   UNL     1       8.051   7.506  12.565  1.00  0.00    -0.248 NA
ATOM     55  C   UNL     1      10.317   8.046  12.394  1.00  0.00     0.031 C 
ATOM     56  C   UNL     1       5.414   8.835  15.891  1.00  0.00     0.029 A 
ATOM     57  C   UNL     1       6.265   8.415  14.882  1.00  0.00     0.049 A 
ATOM     58  H   UNL     1       5.828   7.245  13.180  1.00  0.00     0.167 HD
ATOM     59  C   UNL     1       8.430   8.251  13.680  1.00  0.00     0.074 A 
ATOM     60  C   UNL     1       9.845   8.520  13.537  1.00  0.00     0.031 C 
ATOM     61  C   UNL     1       7.679   8.668  14.733  1.00  0.00     0.034 A 
BRANCH  48  62
ATOM     62  C   UNL     1       1.735   6.896  14.402  1.00  0.00     0.023 A 
ATOM     63  C   UNL     1       1.083   5.717  14.807  1.00  0.00     0.031 A 
ATOM     64  C   UNL     1       1.025   8.105  14.500  1.00  0.00     0.131 A 
ATOM     65  C   UNL     1      -0.266   5.757  15.190  1.00  0.00     0.055 A 
ATOM     66  C   UNL     1      -0.288   8.150  14.975  1.00  0.00     0.041 A 
ATOM     67  F   UNL     1       1.585   9.261  14.113  1.00  0.00    -0.206 F 
ATOM     68  C   UNL     1      -0.949   6.969  15.303  1.00  0.00     0.022 A 
BRANCH  65  69
ATOM     69  S   UNL     1      -1.160   4.189  15.366  1.00  0.00     0.124 S 
ATOM     70  O   UNL     1      -1.027   3.624  14.024  1.00  0.00    -0.237 OA
ATOM     71  O   UNL     1      -0.411   3.514  16.419  1.00  0.00    -0.237 OA
ATOM     72  O   UNL     1      -2.513   4.604  15.728  1.00  0.00    -0.744 OA
ENDBRANCH  65  69
ENDBRANCH  48  62
BRANCH  49  73
ATOM     73  C   UNL     1      10.664   6.611   9.870  1.00  0.00     0.023 A 
ATOM     74  C   UNL     1      11.803   6.057  10.477  1.00  0.00     0.031 A 
ATOM     75  C   UNL     1      10.823   7.246   8.626  1.00  0.00     0.131 A 
ATOM     76  C   UNL     1      13.060   6.200   9.870  1.00  0.00     0.055 A 
ATOM     77  C   UNL     1      12.069   7.342   8.002  1.00  0.00     0.041 A 
ATOM     78  F   UNL     1       9.766   7.783   7.997  1.00  0.00    -0.206 F 
ATOM     79  C   UNL     1      13.199   6.831   8.632  1.00  0.00     0.022 A 
BRANCH  76  80
ATOM     80  S   UNL     1      14.530   5.625  10.766  1.00  0.00     0.124 S 
ATOM     81  O   UNL     1      14.452   6.405  11.995  1.00  0.00    -0.237 OA
ATOM     82  O   UNL     1      14.264   4.196  10.893  1.00  0.00    -0.237 OA
ATOM     83  O   UNL     1      15.631   5.974   9.871  1.00  0.00    -0.744 OA
ENDBRANCH  76  80
ENDBRANCH  49  73
BRANCH  61  84
ATOM     84  C   UNL     1       8.396   9.392  15.848  1.00  0.00     0.023 A 
ATOM     85  C   UNL     1       8.998  10.648  15.659  1.00  0.00     0.031 A 
ATOM     86  C   UNL     1       8.498   8.797  17.119  1.00  0.00     0.131 A 
ATOM     87  C   UNL     1       9.735  11.235  16.700  1.00  0.00     0.055 A 
ATOM     88  C   UNL     1       9.175   9.416  18.171  1.00  0.00     0.041 A 
ATOM     89  F   UNL     1       7.942   7.598  17.359  1.00  0.00    -0.206 F 
ATOM     90  C   UNL     1       9.813  10.635  17.959  1.00  0.00     0.022 A 
BRANCH  87  91
ATOM     91  S   UNL     1      10.689  12.738  16.351  1.00  0.00     0.124 S 
ATOM     92  O   UNL     1      11.506  12.323  15.215  1.00  0.00    -0.237 OA
ATOM     93  O   UNL     1       9.641  13.711  16.062  1.00  0.00    -0.237 OA
ATOM     94  O   UNL     1      11.427  12.971  17.592  1.00  0.00    -0.744 OA
ENDBRANCH  87  91
ENDBRANCH  61  84
ENDBRANCH  35  36
ENDBRANCH  28  30
ENDBRANCH  27  28
ENDBRANCH  26  27
ENDBRANCH  25  26
ENDBRANCH   1  25
TORSDOF 21
