REMARK SMILES Cc1ccccc1N(CCC(=O)OCCOCCOC(=O)c1ccc(-c2c3nc(c(-c4cc(S(=O)(=O)[O-])ccc4F)c4ccc([nH]4)c(-c4cc(S(=O)(=O)[O-])ccc4F)c4nc(c(-c5cc(S(=O)(=O)[O-])ccc5F)c5ccc2[nH]5)C=C4)C=C3)cc1)C(=O)[C@@H]1C=C[C@H]([NH3+])C1
REMARK SMILES IDX 15 1 14 2 13 3 11 4 12 5 10 6 9 7 8 8 7 9 1 10 2 11 3 12
REMARK SMILES IDX 4 13 6 14 5 15 85 16 86 17 87 18 88 19 92 20 89 21 90 22
REMARK SMILES IDX 91 23 16 27 17 28 18 29 19 30 20 31 21 32 22 33 23 34 84 35
REMARK SMILES IDX 24 36 83 37 25 38 26 39 27 40 77 41 28 42 82 43 76 44 78 45
REMARK SMILES IDX 29 46 81 47 75 48 74 49 30 51 62 52 42 53 61 54 43 55 46 56
REMARK SMILES IDX 60 57 79 58 44 59 45 60 59 62 80 63 47 64 31 65 32 66 40 67
REMARK SMILES IDX 33 68 39 69 41 70 38 71 34 72 35 73 36 74 37 75 63 76 64 77
REMARK SMILES IDX 72 78 65 79 71 80 73 81 70 82 66 83 67 84 68 85 69 86 48 87
REMARK SMILES IDX 49 88 57 89 50 90 56 91 58 92 55 93 51 94 52 95 53 96 54 97
REMARK H PARENT 91 24 91 25 91 26 78 50 46 61
REMARK Flexibility Score: inf
ROOT
ATOM      1  C   UNL     1       0.931   1.854  -2.043  1.00  0.00     0.202 C 
ENDROOT
BRANCH   1   2
ATOM      2  C   UNL     1       0.630   2.148  -0.577  1.00  0.00     0.261 C 
BRANCH   2   3
ATOM      3  O   UNL     1       1.569   1.612   0.334  1.00  0.00    -0.463 OA
BRANCH   3   4
ATOM      4  C   UNL     1       1.305   0.405   0.866  1.00  0.00     0.307 C 
ATOM      5  O   UNL     1       0.304  -0.264   0.664  1.00  0.00    -0.252 OA
BRANCH   4   6
ATOM      6  C   UNL     1       2.476  -0.035   1.688  1.00  0.00     0.144 C 
BRANCH   6   7
ATOM      7  C   UNL     1       3.774   0.566   1.142  1.00  0.00     0.137 C 
BRANCH   7   8
ATOM      8  N   UNL     1       4.258   1.778   1.775  1.00  0.00    -0.311 N 
BRANCH   8   9
ATOM      9  C   UNL     1       4.968   1.443   3.089  1.00  0.00     0.047 A 
ATOM     10  C   UNL     1       5.133   3.804   4.042  1.00  0.00     0.046 C 
ATOM     11  C   UNL     1       5.508   2.369   3.991  1.00  0.00    -0.027 A 
ATOM     12  C   UNL     1       6.301   1.962   5.109  1.00  0.00     0.005 A 
ATOM     13  C   UNL     1       6.500   0.632   5.427  1.00  0.00     0.000 A 
ATOM     14  C   UNL     1       5.120   0.091   3.524  1.00  0.00     0.026 A 
ATOM     15  C   UNL     1       5.868  -0.310   4.649  1.00  0.00     0.002 A 
ENDBRANCH   8   9
BRANCH   8  16
ATOM     16  C   UNL     1       4.751   2.829   0.886  1.00  0.00     0.234 C 
ATOM     17  O   UNL     1       5.947   3.110   1.060  1.00  0.00    -0.274 OA
BRANCH  16  18
ATOM     18  C   UNL     1       3.830   3.751  -0.461  1.00  0.00     0.108 C 
ATOM     19  C   UNL     1       4.075   3.936  -2.532  1.00  0.00    -0.012 C 
ATOM     20  C   UNL     1       4.599   5.546   0.174  1.00  0.00     0.087 C 
ATOM     21  C   UNL     1       4.788   5.334  -3.015  1.00  0.00     0.033 C 
ATOM     22  C   UNL     1       5.183   6.538  -1.516  1.00  0.00     0.205 C 
BRANCH  22  23
ATOM     23  N   UNL     1       6.502   7.182  -1.480  1.00  0.00    -0.352 N 
ATOM     24  H   UNL     1       7.224   6.471  -1.366  1.00  0.00     0.345 HD
ATOM     25  H   UNL     1       6.540   7.834  -0.697  1.00  0.00     0.345 HD
ATOM     26  H   UNL     1       6.657   7.688  -2.352  1.00  0.00     0.345 HD
ENDBRANCH  22  23
ENDBRANCH  16  18
ENDBRANCH   8  16
ENDBRANCH   7   8
ENDBRANCH   6   7
ENDBRANCH   4   6
ENDBRANCH   3   4
ENDBRANCH   2   3
ENDBRANCH   1   2
BRANCH   1  27
ATOM     27  O   UNL     1       2.280   2.075  -2.467  1.00  0.00    -0.374 OA
BRANCH  27  28
ATOM     28  C   UNL     1       3.292   1.121  -2.168  1.00  0.00     0.202 C 
BRANCH  28  29
ATOM     29  C   UNL     1       4.859   1.598  -2.104  1.00  0.00     0.261 C 
BRANCH  29  30
ATOM     30  O   UNL     1       5.542   2.886  -1.487  1.00  0.00    -0.460 OA
BRANCH  30  31
ATOM     31  C   UNL     1       5.322   4.519  -1.286  1.00  0.00     0.338 C 
ATOM     32  O   UNL     1       6.507   4.854  -1.046  1.00  0.00    -0.246 OA
BRANCH  31  33
ATOM     33  C   UNL     1       3.388   5.481  -1.435  1.00  0.00     0.060 A 
ATOM     34  C   UNL     1       2.782   6.755  -0.869  1.00  0.00     0.016 A 
ATOM     35  C   UNL     1       2.189   5.118  -2.274  1.00  0.00     0.016 A 
ATOM     36  C   UNL     1       1.427   6.984  -0.534  1.00  0.00     0.010 A 
ATOM     37  C   UNL     1       0.849   5.334  -1.998  1.00  0.00     0.010 A 
ATOM     38  C   UNL     1       0.541   6.018  -0.865  1.00  0.00    -0.014 A 
BRANCH  38  39
ATOM     39  C   UNL     1      -0.428   5.418   0.043  1.00  0.00     0.031 A 
ATOM     40  C   UNL     1      -1.767   5.102  -0.502  1.00  0.00     0.074 A 
ATOM     41  C   UNL     1       0.100   4.854   1.175  1.00  0.00     0.049 A 
ATOM     42  N   UNL     1      -2.700   4.588   0.200  1.00  0.00    -0.248 NA
ATOM     43  C   UNL     1      -2.191   5.309  -1.893  1.00  0.00     0.031 C 
ATOM     44  C   UNL     1      -0.420   3.796   2.050  1.00  0.00     0.029 A 
ATOM     45  N   UNL     1       1.337   5.154   1.780  1.00  0.00    -0.354 N 
ATOM     46  C   UNL     1      -3.706   4.157  -0.636  1.00  0.00     0.074 A 
ATOM     47  C   UNL     1      -3.375   4.689  -1.926  1.00  0.00     0.031 C 
ATOM     48  C   UNL     1       0.318   3.741   3.183  1.00  0.00     0.029 A 
ATOM     49  C   UNL     1       1.268   4.856   3.151  1.00  0.00     0.049 A 
ATOM     50  H   UNL     1       2.126   5.515   1.315  1.00  0.00     0.167 HD
ATOM     51  C   UNL     1      -4.622   3.305  -0.105  1.00  0.00     0.034 A 
ATOM     52  C   UNL     1       1.292   5.901   4.038  1.00  0.00     0.034 A 
ATOM     53  C   UNL     1      -4.413   3.234   1.351  1.00  0.00     0.049 A 
ATOM     54  C   UNL     1      -0.175   6.127   4.493  1.00  0.00     0.074 A 
ATOM     55  C   UNL     1      -3.872   2.280   2.193  1.00  0.00     0.029 A 
ATOM     56  N   UNL     1      -4.423   4.426   2.075  1.00  0.00    -0.354 N 
ATOM     57  N   UNL     1      -1.229   5.716   3.822  1.00  0.00    -0.248 NA
ATOM     58  C   UNL     1      -0.555   6.691   5.786  1.00  0.00     0.031 C 
ATOM     59  C   UNL     1      -3.438   2.954   3.380  1.00  0.00     0.029 A 
ATOM     60  C   UNL     1      -3.732   4.307   3.267  1.00  0.00     0.049 A 
ATOM     61  H   UNL     1      -4.868   5.252   1.775  1.00  0.00     0.167 HD
ATOM     62  C   UNL     1      -2.368   5.872   4.560  1.00  0.00     0.074 A 
ATOM     63  C   UNL     1      -1.892   6.522   5.774  1.00  0.00     0.031 C 
ATOM     64  C   UNL     1      -3.616   5.462   4.157  1.00  0.00     0.034 A 
BRANCH  51  65
ATOM     65  C   UNL     1      -5.579   2.403  -0.854  1.00  0.00     0.023 A 
ATOM     66  C   UNL     1      -6.366   1.518  -0.089  1.00  0.00     0.031 A 
ATOM     67  C   UNL     1      -5.724   2.269  -2.253  1.00  0.00     0.131 A 
ATOM     68  C   UNL     1      -7.207   0.562  -0.688  1.00  0.00     0.055 A 
ATOM     69  C   UNL     1      -6.585   1.333  -2.851  1.00  0.00     0.041 A 
ATOM     70  F   UNL     1      -5.029   3.003  -3.126  1.00  0.00    -0.206 F 
ATOM     71  C   UNL     1      -7.328   0.466  -2.069  1.00  0.00     0.022 A 
BRANCH  68  72
ATOM     72  S   UNL     1      -8.127  -0.571   0.384  1.00  0.00     0.124 S 
ATOM     73  O   UNL     1      -7.053  -1.317   1.032  1.00  0.00    -0.237 OA
ATOM     74  O   UNL     1      -8.880   0.349   1.229  1.00  0.00    -0.237 OA
ATOM     75  O   UNL     1      -8.935  -1.346  -0.557  1.00  0.00    -0.744 OA
ENDBRANCH  68  72
ENDBRANCH  51  65
BRANCH  52  76
ATOM     76  C   UNL     1       2.325   6.971   3.659  1.00  0.00     0.023 A 
ATOM     77  C   UNL     1       3.740   6.778   3.821  1.00  0.00     0.031 A 
ATOM     78  C   UNL     1       1.954   8.006   2.791  1.00  0.00     0.131 A 
ATOM     79  C   UNL     1       4.692   7.486   3.026  1.00  0.00     0.055 A 
ATOM     80  C   UNL     1       2.895   8.711   2.020  1.00  0.00     0.041 A 
ATOM     81  F   UNL     1       0.660   8.266   2.560  1.00  0.00    -0.206 F 
ATOM     82  C   UNL     1       4.252   8.422   2.097  1.00  0.00     0.022 A 
BRANCH  79  83
ATOM     83  S   UNL     1       6.522   7.192   3.072  1.00  0.00     0.124 S 
ATOM     84  O   UNL     1       6.866   7.605   4.427  1.00  0.00    -0.237 OA
ATOM     85  O   UNL     1       6.662   5.777   2.792  1.00  0.00    -0.237 OA
ATOM     86  O   UNL     1       7.029   8.051   2.001  1.00  0.00    -0.744 OA
ENDBRANCH  79  83
ENDBRANCH  52  76
BRANCH  64  87
ATOM     87  C   UNL     1      -4.885   6.146   4.623  1.00  0.00     0.023 A 
ATOM     88  C   UNL     1      -4.845   7.378   5.280  1.00  0.00     0.031 A 
ATOM     89  C   UNL     1      -6.180   5.664   4.310  1.00  0.00     0.131 A 
ATOM     90  C   UNL     1      -6.016   7.999   5.728  1.00  0.00     0.055 A 
ATOM     91  C   UNL     1      -7.349   6.362   4.626  1.00  0.00     0.041 A 
ATOM     92  F   UNL     1      -6.379   4.502   3.671  1.00  0.00    -0.206 F 
ATOM     93  C   UNL     1      -7.273   7.524   5.374  1.00  0.00     0.022 A 
BRANCH  90  94
ATOM     94  S   UNL     1      -5.822   9.346   6.913  1.00  0.00     0.124 S 
ATOM     95  O   UNL     1      -5.109   8.677   8.000  1.00  0.00    -0.237 OA
ATOM     96  O   UNL     1      -5.048  10.323   6.156  1.00  0.00    -0.237 OA
ATOM     97  O   UNL     1      -7.197   9.734   7.218  1.00  0.00    -0.744 OA
ENDBRANCH  90  94
ENDBRANCH  64  87
ENDBRANCH  38  39
ENDBRANCH  31  33
ENDBRANCH  30  31
ENDBRANCH  29  30
ENDBRANCH  28  29
ENDBRANCH  27  28
ENDBRANCH   1  27
TORSDOF 23
