REMARK SMILES CCOc1cc(N2CCC[C@@H](C(=O)OCCOCCOC(=O)c3ccc(-c4c5nc(c(-c6cc(S(=O)(=O)[O-])ccc6F)c6ccc([nH]6)c(-c6cc(S(=O)(=O)[O-])ccc6F)c6nc(c(-c7cc(S(=O)(=O)[O-])ccc7F)c7ccc4[nH]7)C=C6)C=C5)cc3)C2)nc(SC)n1
REMARK SMILES IDX 17 1 16 2 15 3 14 4 12 5 13 6 11 7 7 8 8 9 86 10 9 11 10 12
REMARK SMILES IDX 6 13 4 14 5 15 91 16 88 17 87 18 3 19 2 20 1 21 89 22 90 23
REMARK SMILES IDX 18 24 19 25 20 26 21 27 22 28 23 29 24 30 85 31 25 32 84 33
REMARK SMILES IDX 26 34 27 35 28 36 78 37 29 38 83 39 77 40 79 41 30 42 82 43
REMARK SMILES IDX 76 44 75 45 31 47 63 48 43 49 62 50 44 51 47 52 61 53 80 54
REMARK SMILES IDX 45 55 46 56 60 58 81 59 48 60 32 61 33 62 41 63 34 64 40 65
REMARK SMILES IDX 42 66 39 67 35 68 36 69 37 70 38 71 64 72 65 73 73 74 66 75
REMARK SMILES IDX 72 76 74 77 71 78 67 79 68 80 69 81 70 82 49 83 50 84 58 85
REMARK SMILES IDX 51 86 57 87 59 88 56 89 52 90 53 91 54 92 55 93
REMARK H PARENT 79 46 47 57
REMARK Flexibility Score: inf
ROOT
ATOM      1  O   UNL     1       5.794   6.957  -0.071  1.00  0.00    -0.374 OA
ENDROOT
BRANCH   1   2
ATOM      2  C   UNL     1       5.364   6.674  -1.402  1.00  0.00     0.202 C 
BRANCH   2   3
ATOM      3  C   UNL     1       6.106   5.558  -2.141  1.00  0.00     0.261 C 
BRANCH   3   4
ATOM      4  O   UNL     1       6.000   4.304  -1.444  1.00  0.00    -0.463 OA
BRANCH   4   5
ATOM      5  C   UNL     1       7.175   3.779  -1.011  1.00  0.00     0.310 C 
ATOM      6  O   UNL     1       8.283   4.230  -1.283  1.00  0.00    -0.252 OA
BRANCH   5   7
ATOM      7  C   UNL     1       6.987   2.623  -0.045  1.00  0.00     0.118 C 
ATOM      8  N   UNL     1       5.595   0.798   0.794  1.00  0.00    -0.356 N 
ATOM      9  C   UNL     1       6.592  -0.231   0.519  1.00  0.00     0.118 C 
ATOM     10  C   UNL     1       5.589   1.982  -0.067  1.00  0.00     0.133 C 
ATOM     11  C   UNL     1       7.978   0.386   0.613  1.00  0.00     0.022 C 
ATOM     12  C   UNL     1       8.090   1.587  -0.316  1.00  0.00     0.019 C 
BRANCH   8  13
ATOM     13  C   UNL     1       4.617   0.495   1.712  1.00  0.00     0.137 A 
ATOM     14  C   UNL     1       2.401   0.279   2.408  1.00  0.00     0.219 A 
ATOM     15  C   UNL     1       3.292   0.772   1.485  1.00  0.00     0.115 A 
ATOM     16  N   UNL     1       2.743  -0.331   3.549  1.00  0.00    -0.187 NA
ATOM     17  C   UNL     1       4.057  -0.480   3.730  1.00  0.00     0.192 A 
ATOM     18  N   UNL     1       4.999  -0.132   2.839  1.00  0.00    -0.205 NA
BRANCH  14  19
ATOM     19  O   UNL     1       1.056   0.443   2.184  1.00  0.00    -0.478 OA
BRANCH  19  20
ATOM     20  C   UNL     1       0.543  -0.632   1.385  1.00  0.00     0.228 C 
ATOM     21  C   UNL     1       0.493  -0.221  -0.080  1.00  0.00     0.049 C 
ENDBRANCH  19  20
ENDBRANCH  14  19
BRANCH  17  22
ATOM     22  S   UNL     1       4.588  -1.197   5.269  1.00  0.00    -0.089 SA
ATOM     23  C   UNL     1       6.285  -0.563   5.331  1.00  0.00     0.094 C 
ENDBRANCH  17  22
ENDBRANCH   8  13
ENDBRANCH   5   7
ENDBRANCH   4   5
ENDBRANCH   3   4
ENDBRANCH   2   3
ENDBRANCH   1   2
BRANCH   1  24
ATOM     24  C   UNL     1       5.430   6.043   0.962  1.00  0.00     0.202 C 
BRANCH  24  25
ATOM     25  C   UNL     1       3.961   6.009   1.404  1.00  0.00     0.261 C 
BRANCH  25  26
ATOM     26  O   UNL     1       3.069   5.566   0.365  1.00  0.00    -0.460 OA
BRANCH  26  27
ATOM     27  C   UNL     1       2.231   6.528  -0.096  1.00  0.00     0.338 C 
ATOM     28  O   UNL     1       2.148   7.681   0.310  1.00  0.00    -0.246 OA
BRANCH  27  29
ATOM     29  C   UNL     1       1.536   6.072  -1.313  1.00  0.00     0.060 A 
ATOM     30  C   UNL     1       1.615   6.895  -2.444  1.00  0.00     0.016 A 
ATOM     31  C   UNL     1       0.748   4.918  -1.329  1.00  0.00     0.016 A 
ATOM     32  C   UNL     1       0.865   6.597  -3.578  1.00  0.00     0.010 A 
ATOM     33  C   UNL     1      -0.010   4.625  -2.470  1.00  0.00     0.010 A 
ATOM     34  C   UNL     1       0.016   5.483  -3.585  1.00  0.00    -0.014 A 
BRANCH  34  35
ATOM     35  C   UNL     1      -0.948   5.321  -4.704  1.00  0.00     0.031 A 
ATOM     36  C   UNL     1      -2.375   5.759  -4.509  1.00  0.00     0.074 A 
ATOM     37  C   UNL     1      -0.540   4.853  -5.898  1.00  0.00     0.049 A 
ATOM     38  N   UNL     1      -3.374   5.739  -5.354  1.00  0.00    -0.248 NA
ATOM     39  C   UNL     1      -2.720   6.287  -3.181  1.00  0.00     0.031 C 
ATOM     40  C   UNL     1       0.825   4.436  -6.217  1.00  0.00     0.029 A 
ATOM     41  N   UNL     1      -1.234   4.656  -7.065  1.00  0.00    -0.354 N 
ATOM     42  C   UNL     1      -4.466   6.254  -4.663  1.00  0.00     0.074 A 
ATOM     43  C   UNL     1      -4.015   6.533  -3.316  1.00  0.00     0.031 C 
ATOM     44  C   UNL     1       0.869   4.032  -7.498  1.00  0.00     0.029 A 
ATOM     45  C   UNL     1      -0.468   4.134  -8.082  1.00  0.00     0.049 A 
ATOM     46  H   UNL     1      -2.190   4.868  -7.166  1.00  0.00     0.167 HD
ATOM     47  C   UNL     1      -5.724   6.487  -5.114  1.00  0.00     0.034 A 
ATOM     48  C   UNL     1      -0.809   3.769  -9.334  1.00  0.00     0.034 A 
ATOM     49  C   UNL     1      -6.163   6.193  -6.458  1.00  0.00     0.049 A 
ATOM     50  C   UNL     1      -2.233   3.974  -9.794  1.00  0.00     0.074 A 
ATOM     51  C   UNL     1      -7.412   6.391  -7.021  1.00  0.00     0.029 A 
ATOM     52  N   UNL     1      -5.369   5.628  -7.449  1.00  0.00    -0.354 N 
ATOM     53  N   UNL     1      -3.253   4.472  -9.134  1.00  0.00    -0.248 NA
ATOM     54  C   UNL     1      -2.544   3.583 -11.175  1.00  0.00     0.031 C 
ATOM     55  C   UNL     1      -7.393   5.884  -8.325  1.00  0.00     0.029 A 
ATOM     56  C   UNL     1      -6.109   5.444  -8.608  1.00  0.00     0.049 A 
ATOM     57  H   UNL     1      -4.419   5.391  -7.343  1.00  0.00     0.167 HD
ATOM     58  C   UNL     1      -4.316   4.489 -10.034  1.00  0.00     0.074 A 
ATOM     59  C   UNL     1      -3.809   3.962 -11.284  1.00  0.00     0.031 C 
ATOM     60  C   UNL     1      -5.594   4.911  -9.847  1.00  0.00     0.034 A 
BRANCH  47  61
ATOM     61  C   UNL     1      -6.723   7.040  -4.125  1.00  0.00     0.023 A 
ATOM     62  C   UNL     1      -6.566   8.312  -3.545  1.00  0.00     0.031 A 
ATOM     63  C   UNL     1      -7.832   6.271  -3.731  1.00  0.00     0.131 A 
ATOM     64  C   UNL     1      -7.460   8.745  -2.554  1.00  0.00     0.055 A 
ATOM     65  C   UNL     1      -8.763   6.741  -2.803  1.00  0.00     0.041 A 
ATOM     66  F   UNL     1      -8.023   5.040  -4.232  1.00  0.00    -0.206 F 
ATOM     67  C   UNL     1      -8.572   7.979  -2.197  1.00  0.00     0.022 A 
BRANCH  64  68
ATOM     68  S   UNL     1      -7.068  10.259  -1.634  1.00  0.00     0.124 S 
ATOM     69  O   UNL     1      -5.762   9.930  -1.068  1.00  0.00    -0.237 OA
ATOM     70  O   UNL     1      -7.075  11.274  -2.680  1.00  0.00    -0.237 OA
ATOM     71  O   UNL     1      -8.154  10.358  -0.660  1.00  0.00    -0.744 OA
ENDBRANCH  64  68
ENDBRANCH  47  61
BRANCH  48  72
ATOM     72  C   UNL     1       0.200   3.151 -10.241  1.00  0.00     0.023 A 
ATOM     73  C   UNL     1       0.595   3.781 -11.432  1.00  0.00     0.031 A 
ATOM     74  C   UNL     1       0.747   1.888  -9.951  1.00  0.00     0.131 A 
ATOM     75  C   UNL     1       1.471   3.126 -12.312  1.00  0.00     0.055 A 
ATOM     76  C   UNL     1       1.659   1.264 -10.804  1.00  0.00     0.041 A 
ATOM     77  F   UNL     1       0.405   1.243  -8.824  1.00  0.00    -0.206 F 
ATOM     78  C   UNL     1       2.015   1.878 -12.000  1.00  0.00     0.022 A 
BRANCH  75  79
ATOM     79  S   UNL     1       1.827   3.894 -13.916  1.00  0.00     0.124 S 
ATOM     80  O   UNL     1       0.493   4.011 -14.492  1.00  0.00    -0.237 OA
ATOM     81  O   UNL     1       2.466   5.144 -13.517  1.00  0.00    -0.237 OA
ATOM     82  O   UNL     1       2.708   2.927 -14.568  1.00  0.00    -0.744 OA
ENDBRANCH  75  79
ENDBRANCH  48  72
BRANCH  60  83
ATOM     83  C   UNL     1      -6.514   4.870 -11.046  1.00  0.00     0.023 A 
ATOM     84  C   UNL     1      -6.906   3.660 -11.643  1.00  0.00     0.031 A 
ATOM     85  C   UNL     1      -6.987   6.069 -11.610  1.00  0.00     0.131 A 
ATOM     86  C   UNL     1      -7.693   3.676 -12.806  1.00  0.00     0.055 A 
ATOM     87  C   UNL     1      -7.822   6.076 -12.729  1.00  0.00     0.041 A 
ATOM     88  F   UNL     1      -6.644   7.255 -11.083  1.00  0.00    -0.206 F 
ATOM     89  C   UNL     1      -8.166   4.876 -13.343  1.00  0.00     0.022 A 
BRANCH  86  90
ATOM     90  S   UNL     1      -8.001   2.112 -13.671  1.00  0.00     0.124 S 
ATOM     91  O   UNL     1      -6.646   1.630 -13.921  1.00  0.00    -0.237 OA
ATOM     92  O   UNL     1      -8.774   1.359 -12.689  1.00  0.00    -0.237 OA
ATOM     93  O   UNL     1      -8.743   2.519 -14.863  1.00  0.00    -0.744 OA
ENDBRANCH  86  90
ENDBRANCH  60  83
ENDBRANCH  34  35
ENDBRANCH  27  29
ENDBRANCH  26  27
ENDBRANCH  25  26
ENDBRANCH  24  25
ENDBRANCH   1  24
TORSDOF 21
