REMARK SMILES Cc1ccc(C)c([C@H]([NH3+])CCCCC(=O)OCCOCCOC(=O)c2ccc(-c3c4nc(c(-c5cc(S(=O)(=O)[O-])ccc5F)c5ccc([nH]5)c(-c5cc(S(=O)(=O)[O-])ccc5F)c5nc(c(-c6cc(S(=O)(=O)[O-])ccc6F)c6ccc3[nH]6)C=C5)C=C4)cc2)c1
REMARK SMILES IDX 18 1 17 2 16 3 14 4 15 5 13 6 12 7 11 8 10 9 8 10 7 11 1 12
REMARK SMILES IDX 2 13 3 14 88 15 4 16 5 17 6 18 9 19 19 23 20 24 21 25 22 26
REMARK SMILES IDX 23 27 24 28 25 29 26 30 87 31 27 32 86 33 28 34 29 35 30 36
REMARK SMILES IDX 80 37 31 38 85 39 79 40 81 41 32 42 84 43 78 44 77 45 33 47
REMARK SMILES IDX 65 48 45 49 64 50 46 51 49 52 63 53 82 54 47 55 48 56 62 58
REMARK SMILES IDX 83 59 50 60 34 61 35 62 43 63 36 64 42 65 44 66 41 67 37 68
REMARK SMILES IDX 38 69 39 70 40 71 66 72 67 73 75 74 68 75 74 76 76 77 73 78
REMARK SMILES IDX 69 79 70 80 71 81 72 82 51 83 52 84 60 85 53 86 59 87 61 88
REMARK SMILES IDX 58 89 54 90 55 91 56 92 57 93
REMARK H PARENT 9 20 9 21 9 22 81 46 49 57
REMARK Flexibility Score: inf
ROOT
ATOM      1  C   UNL     1      -2.652   2.610   4.815  1.00  0.00     0.202 C 
ENDROOT
BRANCH   1   2
ATOM      2  C   UNL     1      -3.222   3.348   3.607  1.00  0.00     0.261 C 
BRANCH   2   3
ATOM      3  O   UNL     1      -2.220   3.596   2.609  1.00  0.00    -0.463 OA
BRANCH   3   4
ATOM      4  C   UNL     1      -1.065   4.284   2.820  1.00  0.00     0.305 C 
ATOM      5  O   UNL     1      -0.728   4.960   3.756  1.00  0.00    -0.252 OA
BRANCH   4   6
ATOM      6  C   UNL     1      -0.166   4.040   1.645  1.00  0.00     0.123 C 
BRANCH   6   7
ATOM      7  C   UNL     1       0.404   2.634   1.765  1.00  0.00     0.012 C 
BRANCH   7   8
ATOM      8  C   UNL     1      -0.635   1.500   1.697  1.00  0.00     0.007 C 
BRANCH   8   9
ATOM      9  C   UNL     1      -1.649   1.581   0.541  1.00  0.00     0.070 C 
BRANCH   9  10
ATOM     10  C   UNL     1      -0.982   1.682  -0.830  1.00  0.00     0.212 C 
BRANCH  10  11
ATOM     11  C   UNL     1      -1.976   1.893  -1.952  1.00  0.00     0.012 A 
ATOM     12  C   UNL     1      -4.433  -0.265  -3.929  1.00  0.00     0.044 C 
ATOM     13  C   UNL     1      -3.599   0.897  -3.495  1.00  0.00    -0.051 A 
ATOM     14  C   UNL     1      -3.707   2.118  -4.155  1.00  0.00     0.004 A 
ATOM     15  C   UNL     1      -2.736   0.795  -2.401  1.00  0.00     0.013 A 
ATOM     16  C   UNL     1      -3.006   3.228  -3.691  1.00  0.00     0.004 A 
ATOM     17  C   UNL     1      -2.165   3.147  -2.571  1.00  0.00    -0.042 A 
ATOM     18  C   UNL     1      -1.639   4.448  -2.016  1.00  0.00     0.045 C 
ENDBRANCH  10  11
BRANCH  10  19
ATOM     19  N   UNL     1      -0.157   0.479  -1.062  1.00  0.00    -0.351 N 
ATOM     20  H   UNL     1      -0.755  -0.347  -1.064  1.00  0.00     0.345 HD
ATOM     21  H   UNL     1       0.538   0.395  -0.321  1.00  0.00     0.345 HD
ATOM     22  H   UNL     1       0.315   0.559  -1.963  1.00  0.00     0.345 HD
ENDBRANCH  10  19
ENDBRANCH   9  10
ENDBRANCH   8   9
ENDBRANCH   7   8
ENDBRANCH   6   7
ENDBRANCH   4   6
ENDBRANCH   3   4
ENDBRANCH   2   3
ENDBRANCH   1   2
BRANCH   1  23
ATOM     23  O   UNL     1      -1.855   3.529   5.519  1.00  0.00    -0.374 OA
BRANCH  23  24
ATOM     24  C   UNL     1      -0.576   3.158   5.985  1.00  0.00     0.202 C 
BRANCH  24  25
ATOM     25  C   UNL     1      -0.673   2.739   7.448  1.00  0.00     0.261 C 
BRANCH  25  26
ATOM     26  O   UNL     1      -1.204   3.803   8.278  1.00  0.00    -0.460 OA
BRANCH  26  27
ATOM     27  C   UNL     1      -2.549   4.010   8.148  1.00  0.00     0.338 C 
ATOM     28  O   UNL     1      -3.401   3.218   8.519  1.00  0.00    -0.246 OA
BRANCH  27  29
ATOM     29  C   UNL     1      -2.808   5.233   7.321  1.00  0.00     0.060 A 
ATOM     30  C   UNL     1      -4.009   5.318   6.598  1.00  0.00     0.016 A 
ATOM     31  C   UNL     1      -1.737   6.072   6.990  1.00  0.00     0.016 A 
ATOM     32  C   UNL     1      -4.076   6.138   5.463  1.00  0.00     0.010 A 
ATOM     33  C   UNL     1      -1.781   6.805   5.808  1.00  0.00     0.010 A 
ATOM     34  C   UNL     1      -2.932   6.813   5.007  1.00  0.00    -0.014 A 
BRANCH  34  35
ATOM     35  C   UNL     1      -3.034   7.875   3.987  1.00  0.00     0.031 A 
ATOM     36  C   UNL     1      -3.655   9.053   4.604  1.00  0.00     0.074 A 
ATOM     37  C   UNL     1      -2.589   7.981   2.714  1.00  0.00     0.049 A 
ATOM     38  N   UNL     1      -4.863   9.438   4.371  1.00  0.00    -0.248 NA
ATOM     39  C   UNL     1      -3.008   9.707   5.749  1.00  0.00     0.031 C 
ATOM     40  C   UNL     1      -2.007   6.958   1.870  1.00  0.00     0.029 A 
ATOM     41  N   UNL     1      -2.487   9.087   1.901  1.00  0.00    -0.354 N 
ATOM     42  C   UNL     1      -5.017  10.562   5.151  1.00  0.00     0.074 A 
ATOM     43  C   UNL     1      -3.992  10.508   6.157  1.00  0.00     0.031 C 
ATOM     44  C   UNL     1      -1.316   7.498   0.844  1.00  0.00     0.029 A 
ATOM     45  C   UNL     1      -1.607   8.920   0.829  1.00  0.00     0.049 A 
ATOM     46  H   UNL     1      -2.987   9.920   2.061  1.00  0.00     0.167 HD
ATOM     47  C   UNL     1      -5.744  11.607   4.691  1.00  0.00     0.034 A 
ATOM     48  C   UNL     1      -1.248   9.792  -0.149  1.00  0.00     0.034 A 
ATOM     49  C   UNL     1      -6.589  11.229   3.582  1.00  0.00     0.049 A 
ATOM     50  C   UNL     1      -2.414  10.676  -0.347  1.00  0.00     0.074 A 
ATOM     51  C   UNL     1      -7.578  10.282   3.400  1.00  0.00     0.029 A 
ATOM     52  N   UNL     1      -6.188  11.622   2.326  1.00  0.00    -0.354 N 
ATOM     53  N   UNL     1      -3.558  10.256  -0.821  1.00  0.00    -0.248 NA
ATOM     54  C   UNL     1      -2.467  11.937   0.374  1.00  0.00     0.031 C 
ATOM     55  C   UNL     1      -7.477   9.875   2.041  1.00  0.00     0.029 A 
ATOM     56  C   UNL     1      -6.469  10.622   1.428  1.00  0.00     0.049 A 
ATOM     57  H   UNL     1      -5.765  12.483   2.105  1.00  0.00     0.167 HD
ATOM     58  C   UNL     1      -4.510  10.935  -0.079  1.00  0.00     0.074 A 
ATOM     59  C   UNL     1      -3.789  12.046   0.530  1.00  0.00     0.031 C 
ATOM     60  C   UNL     1      -5.722  10.377   0.204  1.00  0.00     0.034 A 
BRANCH  47  61
ATOM     61  C   UNL     1      -5.386  13.028   5.004  1.00  0.00     0.023 A 
ATOM     62  C   UNL     1      -6.329  14.011   4.689  1.00  0.00     0.031 A 
ATOM     63  C   UNL     1      -4.092  13.485   5.355  1.00  0.00     0.131 A 
ATOM     64  C   UNL     1      -5.969  15.366   4.701  1.00  0.00     0.055 A 
ATOM     65  C   UNL     1      -3.766  14.835   5.456  1.00  0.00     0.041 A 
ATOM     66  F   UNL     1      -3.048  12.660   5.513  1.00  0.00    -0.206 F 
ATOM     67  C   UNL     1      -4.703  15.787   5.106  1.00  0.00     0.022 A 
BRANCH  64  68
ATOM     68  S   UNL     1      -7.137  16.558   4.011  1.00  0.00     0.124 S 
ATOM     69  O   UNL     1      -7.329  16.033   2.663  1.00  0.00    -0.237 OA
ATOM     70  O   UNL     1      -8.270  16.430   4.921  1.00  0.00    -0.237 OA
ATOM     71  O   UNL     1      -6.412  17.823   4.090  1.00  0.00    -0.744 OA
ENDBRANCH  64  68
ENDBRANCH  47  61
BRANCH  48  72
ATOM     72  C   UNL     1       0.093   9.968  -0.781  1.00  0.00     0.023 A 
ATOM     73  C   UNL     1       0.301  10.695  -1.973  1.00  0.00     0.031 A 
ATOM     74  C   UNL     1       1.256   9.601  -0.062  1.00  0.00     0.131 A 
ATOM     75  C   UNL     1       1.613  11.029  -2.394  1.00  0.00     0.055 A 
ATOM     76  C   UNL     1       2.549   9.937  -0.479  1.00  0.00     0.041 A 
ATOM     77  F   UNL     1       1.169   8.968   1.118  1.00  0.00    -0.206 F 
ATOM     78  C   UNL     1       2.733  10.663  -1.644  1.00  0.00     0.022 A 
BRANCH  75  79
ATOM     79  S   UNL     1       1.884  12.053  -3.880  1.00  0.00     0.124 S 
ATOM     80  O   UNL     1       1.683  11.090  -4.956  1.00  0.00    -0.237 OA
ATOM     81  O   UNL     1       0.871  13.092  -3.740  1.00  0.00    -0.237 OA
ATOM     82  O   UNL     1       3.262  12.522  -3.723  1.00  0.00    -0.744 OA
ENDBRANCH  75  79
ENDBRANCH  48  72
BRANCH  60  83
ATOM     83  C   UNL     1      -6.260   9.289  -0.698  1.00  0.00     0.023 A 
ATOM     84  C   UNL     1      -5.677   8.024  -0.886  1.00  0.00     0.031 A 
ATOM     85  C   UNL     1      -7.523   9.522  -1.278  1.00  0.00     0.131 A 
ATOM     86  C   UNL     1      -6.365   7.046  -1.634  1.00  0.00     0.055 A 
ATOM     87  C   UNL     1      -8.214   8.540  -1.985  1.00  0.00     0.041 A 
ATOM     88  F   UNL     1      -8.131  10.710  -1.122  1.00  0.00    -0.206 F 
ATOM     89  C   UNL     1      -7.636   7.292  -2.164  1.00  0.00     0.022 A 
BRANCH  86  90
ATOM     90  S   UNL     1      -5.585   5.441  -1.960  1.00  0.00     0.124 S 
ATOM     91  O   UNL     1      -4.492   5.830  -2.843  1.00  0.00    -0.237 OA
ATOM     92  O   UNL     1      -5.212   4.979  -0.626  1.00  0.00    -0.237 OA
ATOM     93  O   UNL     1      -6.648   4.665  -2.601  1.00  0.00    -0.744 OA
ENDBRANCH  86  90
ENDBRANCH  60  83
ENDBRANCH  34  35
ENDBRANCH  27  29
ENDBRANCH  26  27
ENDBRANCH  25  26
ENDBRANCH  24  25
ENDBRANCH  23  24
ENDBRANCH   1  23
TORSDOF 23
