REMARK SMILES Cc1ccc(Nc2c(Cl)cccc2Cl)c(CC(=O)OCCOCCOC(=O)c2ccc(-c3c4nc(c(-c5cc(S(=O)(=O)[O-])ccc5F)c5ccc([nH]5)c(-c5cc(S(=O)(=O)[O-])ccc5F)c5nc(c(-c6cc(S(=O)(=O)[O-])ccc6F)c6ccc3[nH]6)C=C5)C=C4)cc2)c1
REMARK SMILES IDX 22 1 21 2 20 3 19 4 17 5 18 6 16 7 15 8 1 9 2 10 3 11 91 12
REMARK SMILES IDX 4 13 5 14 6 15 7 17 8 18 13 19 9 20 10 21 12 22 14 23 11 24
REMARK SMILES IDX 23 25 24 26 25 27 26 28 27 29 28 30 29 31 90 32 30 33 89 34
REMARK SMILES IDX 31 35 32 36 33 37 83 38 34 39 88 40 82 41 84 42 35 43 87 44
REMARK SMILES IDX 81 45 80 46 36 48 68 49 48 50 67 51 49 52 52 53 66 54 85 55
REMARK SMILES IDX 50 56 51 57 65 59 86 60 53 61 37 62 38 63 46 64 39 65 45 66
REMARK SMILES IDX 47 67 44 68 40 69 41 70 42 71 43 72 69 73 70 74 78 75 71 76
REMARK SMILES IDX 77 77 79 78 76 79 72 80 73 81 74 82 75 83 54 84 55 85 63 86
REMARK SMILES IDX 56 87 62 88 64 89 61 90 57 91 58 92 59 93 60 94
REMARK H PARENT 6 16 84 47 52 58
REMARK Flexibility Score: inf
ROOT
ATOM      1  O   UNL     1      -2.986   0.997  -2.928  1.00  0.00    -0.374 OA
ENDROOT
BRANCH   1   2
ATOM      2  C   UNL     1      -1.600   1.238  -3.106  1.00  0.00     0.202 C 
BRANCH   2   3
ATOM      3  C   UNL     1      -1.191   2.379  -2.194  1.00  0.00     0.261 C 
BRANCH   3   4
ATOM      4  O   UNL     1      -1.182   2.018  -0.823  1.00  0.00    -0.463 OA
BRANCH   4   5
ATOM      5  C   UNL     1      -2.115   2.556   0.013  1.00  0.00     0.310 C 
ATOM      6  O   UNL     1      -3.018   3.328  -0.274  1.00  0.00    -0.252 OA
BRANCH   5   7
ATOM      7  C   UNL     1      -1.867   2.059   1.428  1.00  0.00     0.160 C 
BRANCH   7   8
ATOM      8  C   UNL     1      -1.173   0.707   1.376  1.00  0.00    -0.013 A 
ATOM      9  C   UNL     1       2.323  -0.169   0.094  1.00  0.00     0.044 C 
ATOM     10  C   UNL     1       0.911  -0.320   0.582  1.00  0.00    -0.051 A 
ATOM     11  C   UNL     1       0.218  -1.510   0.396  1.00  0.00     0.005 A 
ATOM     12  C   UNL     1       0.229   0.759   1.141  1.00  0.00     0.009 A 
ATOM     13  C   UNL     1      -1.148  -1.593   0.698  1.00  0.00     0.026 A 
ATOM     14  C   UNL     1      -1.890  -0.489   1.162  1.00  0.00     0.042 A 
BRANCH  14  15
ATOM     15  N   UNL     1      -3.302  -0.569   1.352  1.00  0.00    -0.353 N 
ATOM     16  H   UNL     1      -3.761   0.283   1.534  1.00  0.00     0.167 HD
BRANCH  15  17
ATOM     17  C   UNL     1      -4.130  -1.727   1.311  1.00  0.00     0.076 A 
ATOM     18  C   UNL     1      -3.774  -2.931   1.946  1.00  0.00     0.066 A 
ATOM     19  C   UNL     1      -5.259  -1.777   0.466  1.00  0.00     0.066 A 
ATOM     20  Cl  UNL     1      -2.682  -2.962   3.294  1.00  0.00    -0.082 Cl
ATOM     21  C   UNL     1      -4.351  -4.150   1.570  1.00  0.00     0.023 A 
ATOM     22  C   UNL     1      -5.805  -2.998   0.048  1.00  0.00     0.023 A 
ATOM     23  Cl  UNL     1      -6.104  -0.341   0.001  1.00  0.00    -0.082 Cl
ATOM     24  C   UNL     1      -5.318  -4.191   0.571  1.00  0.00     0.003 A 
ENDBRANCH  15  17
ENDBRANCH  14  15
ENDBRANCH   7   8
ENDBRANCH   5   7
ENDBRANCH   4   5
ENDBRANCH   3   4
ENDBRANCH   2   3
ENDBRANCH   1   2
BRANCH   1  25
ATOM     25  C   UNL     1      -3.282  -0.107  -2.103  1.00  0.00     0.202 C 
BRANCH  25  26
ATOM     26  C   UNL     1      -3.623  -1.323  -2.960  1.00  0.00     0.261 C 
BRANCH  26  27
ATOM     27  O   UNL     1      -4.890  -1.165  -3.643  1.00  0.00    -0.460 OA
BRANCH  27  28
ATOM     28  C   UNL     1      -4.796  -0.647  -4.898  1.00  0.00     0.338 C 
ATOM     29  O   UNL     1      -4.515  -1.301  -5.898  1.00  0.00    -0.246 OA
BRANCH  28  30
ATOM     30  C   UNL     1      -5.068   0.812  -4.900  1.00  0.00     0.060 A 
ATOM     31  C   UNL     1      -4.466   1.625  -5.877  1.00  0.00     0.016 A 
ATOM     32  C   UNL     1      -5.662   1.379  -3.773  1.00  0.00     0.016 A 
ATOM     33  C   UNL     1      -4.284   2.987  -5.627  1.00  0.00     0.010 A 
ATOM     34  C   UNL     1      -5.362   2.691  -3.476  1.00  0.00     0.010 A 
ATOM     35  C   UNL     1      -4.638   3.490  -4.378  1.00  0.00    -0.014 A 
BRANCH  35  36
ATOM     36  C   UNL     1      -4.208   4.776  -3.833  1.00  0.00     0.031 A 
ATOM     37  C   UNL     1      -5.223   5.718  -3.334  1.00  0.00     0.074 A 
ATOM     38  C   UNL     1      -2.909   4.973  -3.511  1.00  0.00     0.049 A 
ATOM     39  N   UNL     1      -4.941   6.882  -2.877  1.00  0.00    -0.248 NA
ATOM     40  C   UNL     1      -6.662   5.463  -3.361  1.00  0.00     0.031 C 
ATOM     41  C   UNL     1      -2.341   5.840  -2.474  1.00  0.00     0.029 A 
ATOM     42  N   UNL     1      -1.787   4.417  -4.094  1.00  0.00    -0.354 N 
ATOM     43  C   UNL     1      -6.045   7.348  -2.218  1.00  0.00     0.074 A 
ATOM     44  C   UNL     1      -7.125   6.514  -2.676  1.00  0.00     0.031 C 
ATOM     45  C   UNL     1      -1.009   5.923  -2.638  1.00  0.00     0.029 A 
ATOM     46  C   UNL     1      -0.687   5.248  -3.883  1.00  0.00     0.049 A 
ATOM     47  H   UNL     1      -1.767   3.563  -4.585  1.00  0.00     0.167 HD
ATOM     48  C   UNL     1      -5.858   8.306  -1.271  1.00  0.00     0.034 A 
ATOM     49  C   UNL     1       0.014   5.760  -4.933  1.00  0.00     0.034 A 
ATOM     50  C   UNL     1      -4.487   8.845  -1.336  1.00  0.00     0.049 A 
ATOM     51  C   UNL     1      -0.323   7.245  -5.056  1.00  0.00     0.074 A 
ATOM     52  C   UNL     1      -3.364   8.804  -0.530  1.00  0.00     0.029 A 
ATOM     53  N   UNL     1      -4.045   9.335  -2.558  1.00  0.00    -0.354 N 
ATOM     54  N   UNL     1      -1.118   7.867  -4.223  1.00  0.00    -0.248 NA
ATOM     55  C   UNL     1       0.156   8.144  -6.099  1.00  0.00     0.031 C 
ATOM     56  C   UNL     1      -2.236   9.199  -1.328  1.00  0.00     0.029 A 
ATOM     57  C   UNL     1      -2.682   9.533  -2.597  1.00  0.00     0.049 A 
ATOM     58  H   UNL     1      -4.644   9.521  -3.317  1.00  0.00     0.167 HD
ATOM     59  C   UNL     1      -1.294   9.168  -4.574  1.00  0.00     0.074 A 
ATOM     60  C   UNL     1      -0.500   9.283  -5.795  1.00  0.00     0.031 C 
ATOM     61  C   UNL     1      -2.077  10.023  -3.838  1.00  0.00     0.034 A 
BRANCH  48  62
ATOM     62  C   UNL     1      -6.858   8.690  -0.206  1.00  0.00     0.023 A 
ATOM     63  C   UNL     1      -6.545   9.774   0.636  1.00  0.00     0.031 A 
ATOM     64  C   UNL     1      -8.056   8.008   0.110  1.00  0.00     0.131 A 
ATOM     65  C   UNL     1      -7.381  10.137   1.710  1.00  0.00     0.055 A 
ATOM     66  C   UNL     1      -8.916   8.405   1.143  1.00  0.00     0.041 A 
ATOM     67  F   UNL     1      -8.440   6.890  -0.516  1.00  0.00    -0.206 F 
ATOM     68  C   UNL     1      -8.577   9.471   1.956  1.00  0.00     0.022 A 
BRANCH  65  69
ATOM     69  S   UNL     1      -6.848  11.465   2.820  1.00  0.00     0.124 S 
ATOM     70  O   UNL     1      -5.622  10.915   3.388  1.00  0.00    -0.237 OA
ATOM     71  O   UNL     1      -6.693  12.589   1.905  1.00  0.00    -0.237 OA
ATOM     72  O   UNL     1      -7.962  11.586   3.761  1.00  0.00    -0.744 OA
ENDBRANCH  65  69
ENDBRANCH  48  62
BRANCH  49  73
ATOM     73  C   UNL     1       0.185   4.705  -5.995  1.00  0.00     0.023 A 
ATOM     74  C   UNL     1       0.939   3.560  -5.604  1.00  0.00     0.031 A 
ATOM     75  C   UNL     1      -0.784   4.525  -6.996  1.00  0.00     0.131 A 
ATOM     76  C   UNL     1       0.578   2.274  -6.049  1.00  0.00     0.055 A 
ATOM     77  C   UNL     1      -1.126   3.239  -7.450  1.00  0.00     0.041 A 
ATOM     78  F   UNL     1      -1.574   5.542  -7.366  1.00  0.00    -0.206 F 
ATOM     79  C   UNL     1      -0.485   2.107  -6.938  1.00  0.00     0.022 A 
BRANCH  76  80
ATOM     80  S   UNL     1       1.306   0.803  -5.239  1.00  0.00     0.124 S 
ATOM     81  O   UNL     1       2.540   0.620  -5.990  1.00  0.00    -0.237 OA
ATOM     82  O   UNL     1       1.462   1.238  -3.854  1.00  0.00    -0.237 OA
ATOM     83  O   UNL     1       0.288  -0.228  -5.434  1.00  0.00    -0.744 OA
ENDBRANCH  76  80
ENDBRANCH  49  73
BRANCH  61  84
ATOM     84  C   UNL     1      -2.357  11.435  -4.279  1.00  0.00     0.023 A 
ATOM     85  C   UNL     1      -1.383  12.180  -4.945  1.00  0.00     0.031 A 
ATOM     86  C   UNL     1      -3.597  12.082  -4.066  1.00  0.00     0.131 A 
ATOM     87  C   UNL     1      -1.710  13.400  -5.547  1.00  0.00     0.055 A 
ATOM     88  C   UNL     1      -3.873  13.364  -4.543  1.00  0.00     0.041 A 
ATOM     89  F   UNL     1      -4.624  11.485  -3.446  1.00  0.00    -0.206 F 
ATOM     90  C   UNL     1      -2.940  14.015  -5.331  1.00  0.00     0.022 A 
BRANCH  87  91
ATOM     91  S   UNL     1      -0.553  14.059  -6.766  1.00  0.00     0.124 S 
ATOM     92  O   UNL     1       0.713  14.062  -6.040  1.00  0.00    -0.237 OA
ATOM     93  O   UNL     1      -0.663  13.066  -7.834  1.00  0.00    -0.237 OA
ATOM     94  O   UNL     1      -1.099  15.376  -7.082  1.00  0.00    -0.744 OA
ENDBRANCH  87  91
ENDBRANCH  61  84
ENDBRANCH  35  36
ENDBRANCH  28  30
ENDBRANCH  27  28
ENDBRANCH  26  27
ENDBRANCH  25  26
ENDBRANCH   1  25
TORSDOF 20
