REMARK SMILES O=C(NC[C@@H]1CC[C@@H](C(=O)OCCOCCOC(=O)c2ccc(-c3c4nc(c(-c5cc(S(=O)(=O)[O-])ccc5F)c5ccc([nH]5)c(-c5cc(S(=O)(=O)[O-])ccc5F)c5nc(c(-c6cc(S(=O)(=O)[O-])ccc6F)c6ccc3[nH]6)C=C5)C=C4)cc2)O1)NC1CC1
REMARK SMILES IDX 14 1 13 2 12 3 11 4 9 5 10 6 8 7 5 8 6 9 83 10 7 11 4 12
REMARK SMILES IDX 3 13 1 14 2 15 84 16 85 19 86 20 87 21 15 22 16 23 17 24
REMARK SMILES IDX 18 25 19 26 20 27 21 28 82 29 22 30 81 31 23 32 24 33 25 34
REMARK SMILES IDX 75 35 26 36 80 37 74 38 76 39 27 40 79 41 73 42 72 43 28 45
REMARK SMILES IDX 60 46 40 47 59 48 41 49 44 50 58 51 77 52 42 53 43 54 57 56
REMARK SMILES IDX 78 57 45 58 29 59 30 60 38 61 31 62 37 63 39 64 36 65 32 66
REMARK SMILES IDX 33 67 34 68 35 69 61 70 62 71 70 72 63 73 69 74 71 75 68 76
REMARK SMILES IDX 64 77 65 78 66 79 67 80 46 81 47 82 55 83 48 84 54 85 56 86
REMARK SMILES IDX 53 87 49 88 50 89 51 90 52 91
REMARK H PARENT 3 17 84 18 76 44 44 55
REMARK Flexibility Score: inf
ROOT
ATOM      1  O   UNL     1       5.577   5.043  -4.293  1.00  0.00    -0.374 OA
ENDROOT
BRANCH   1   2
ATOM      2  C   UNL     1       5.859   6.341  -3.761  1.00  0.00     0.202 C 
BRANCH   2   3
ATOM      3  C   UNL     1       4.777   6.918  -2.842  1.00  0.00     0.261 C 
BRANCH   3   4
ATOM      4  O   UNL     1       4.728   6.181  -1.605  1.00  0.00    -0.461 OA
BRANCH   4   5
ATOM      5  C   UNL     1       3.526   5.635  -1.276  1.00  0.00     0.335 C 
ATOM      6  O   UNL     1       2.470   5.862  -1.856  1.00  0.00    -0.249 OA
BRANCH   5   7
ATOM      7  C   UNL     1       3.648   4.612  -0.141  1.00  0.00     0.228 C 
ATOM      8  C   UNL     1       4.874   2.686   0.371  1.00  0.00     0.138 C 
ATOM      9  C   UNL     1       4.826   3.582   1.598  1.00  0.00     0.037 C 
ATOM     10  O   UNL     1       4.001   3.291  -0.601  1.00  0.00    -0.361 OA
ATOM     11  C   UNL     1       4.651   4.940   0.955  1.00  0.00     0.047 C 
BRANCH   8  12
ATOM     12  C   UNL     1       4.513   1.214   0.616  1.00  0.00     0.149 C 
BRANCH  12  13
ATOM     13  N   UNL     1       3.078   0.970   0.709  1.00  0.00    -0.336 N 
ATOM     14  O   UNL     1       1.069   0.108   0.264  1.00  0.00    -0.249 OA
ATOM     15  C   UNL     1       2.278   0.092   0.047  1.00  0.00     0.315 C 
ATOM     16  N   UNL     1       2.880  -0.772  -0.821  1.00  0.00    -0.335 N 
ATOM     17  H   UNL     1       2.608   1.538   1.362  1.00  0.00     0.165 HD
ATOM     18  H   UNL     1       3.861  -0.750  -0.899  1.00  0.00     0.165 HD
BRANCH  16  19
ATOM     19  C   UNL     1       2.155  -1.708  -1.621  1.00  0.00     0.084 C 
ATOM     20  C   UNL     1       2.883  -2.586  -2.607  1.00  0.00     0.027 C 
ATOM     21  C   UNL     1       2.273  -3.187  -1.375  1.00  0.00     0.027 C 
ENDBRANCH  16  19
ENDBRANCH  12  13
ENDBRANCH   8  12
ENDBRANCH   5   7
ENDBRANCH   4   5
ENDBRANCH   3   4
ENDBRANCH   2   3
ENDBRANCH   1   2
BRANCH   1  22
ATOM     22  C   UNL     1       5.768   3.937  -3.412  1.00  0.00     0.202 C 
BRANCH  22  23
ATOM     23  C   UNL     1       7.198   3.396  -3.308  1.00  0.00     0.261 C 
BRANCH  23  24
ATOM     24  O   UNL     1       8.110   4.371  -2.773  1.00  0.00    -0.460 OA
BRANCH  24  25
ATOM     25  C   UNL     1       8.910   4.943  -3.706  1.00  0.00     0.338 C 
ATOM     26  O   UNL     1       8.975   4.643  -4.892  1.00  0.00    -0.246 OA
BRANCH  25  27
ATOM     27  C   UNL     1       9.608   6.120  -3.152  1.00  0.00     0.060 A 
ATOM     28  C   UNL     1       9.654   7.264  -3.958  1.00  0.00     0.016 A 
ATOM     29  C   UNL     1      10.276   6.092  -1.924  1.00  0.00     0.016 A 
ATOM     30  C   UNL     1      10.437   8.352  -3.582  1.00  0.00     0.010 A 
ATOM     31  C   UNL     1      11.062   7.189  -1.547  1.00  0.00     0.010 A 
ATOM     32  C   UNL     1      11.188   8.300  -2.401  1.00  0.00    -0.014 A 
BRANCH  32  33
ATOM     33  C   UNL     1      12.242   9.324  -2.185  1.00  0.00     0.031 A 
ATOM     34  C   UNL     1      13.670   8.973  -2.509  1.00  0.00     0.074 A 
ATOM     35  C   UNL     1      11.926  10.567  -1.781  1.00  0.00     0.049 A 
ATOM     36  N   UNL     1      14.746   9.715  -2.447  1.00  0.00    -0.248 NA
ATOM     37  C   UNL     1      13.913   7.594  -2.955  1.00  0.00     0.031 C 
ATOM     38  C   UNL     1      10.578  11.032  -1.461  1.00  0.00     0.029 A 
ATOM     39  N   UNL     1      12.721  11.666  -1.575  1.00  0.00    -0.354 N 
ATOM     40  C   UNL     1      15.794   8.895  -2.854  1.00  0.00     0.074 A 
ATOM     41  C   UNL     1      15.229   7.584  -3.097  1.00  0.00     0.031 C 
ATOM     42  C   UNL     1      10.641  12.321  -1.087  1.00  0.00     0.029 A 
ATOM     43  C   UNL     1      12.033  12.766  -1.122  1.00  0.00     0.049 A 
ATOM     44  H   UNL     1      13.692  11.666  -1.736  1.00  0.00     0.167 HD
ATOM     45  C   UNL     1      17.103   9.209  -3.031  1.00  0.00     0.034 A 
ATOM     46  C   UNL     1      12.478  13.986  -0.762  1.00  0.00     0.034 A 
ATOM     47  C   UNL     1      17.654  10.516  -2.764  1.00  0.00     0.049 A 
ATOM     48  C   UNL     1      13.945  14.305  -0.906  1.00  0.00     0.074 A 
ATOM     49  C   UNL     1      18.960  10.951  -2.911  1.00  0.00     0.029 A 
ATOM     50  N   UNL     1      16.931  11.601  -2.280  1.00  0.00    -0.354 N 
ATOM     51  N   UNL     1      14.924  13.530  -1.315  1.00  0.00    -0.248 NA
ATOM     52  C   UNL     1      14.362  15.669  -0.562  1.00  0.00     0.031 C 
ATOM     53  C   UNL     1      19.040  12.271  -2.449  1.00  0.00     0.029 A 
ATOM     54  C   UNL     1      17.768  12.691  -2.092  1.00  0.00     0.049 A 
ATOM     55  H   UNL     1      15.964  11.595  -2.097  1.00  0.00     0.167 HD
ATOM     56  C   UNL     1      16.069  14.322  -1.300  1.00  0.00     0.074 A 
ATOM     57  C   UNL     1      15.654  15.638  -0.857  1.00  0.00     0.031 C 
ATOM     58  C   UNL     1      17.347  13.994  -1.627  1.00  0.00     0.034 A 
BRANCH  45  59
ATOM     59  C   UNL     1      18.020   8.094  -3.483  1.00  0.00     0.023 A 
ATOM     60  C   UNL     1      17.832   7.436  -4.712  1.00  0.00     0.031 A 
ATOM     61  C   UNL     1      19.049   7.632  -2.643  1.00  0.00     0.131 A 
ATOM     62  C   UNL     1      18.589   6.295  -5.020  1.00  0.00     0.055 A 
ATOM     63  C   UNL     1      19.861   6.553  -2.998  1.00  0.00     0.041 A 
ATOM     64  F   UNL     1      19.264   8.202  -1.448  1.00  0.00    -0.206 F 
ATOM     65  C   UNL     1      19.620   5.863  -4.183  1.00  0.00     0.022 A 
BRANCH  62  66
ATOM     66  S   UNL     1      18.080   5.273  -6.431  1.00  0.00     0.124 S 
ATOM     67  O   UNL     1      16.691   4.972  -6.091  1.00  0.00    -0.237 OA
ATOM     68  O   UNL     1      18.282   6.174  -7.560  1.00  0.00    -0.237 OA
ATOM     69  O   UNL     1      18.988   4.130  -6.372  1.00  0.00    -0.744 OA
ENDBRANCH  62  66
ENDBRANCH  45  59
BRANCH  46  70
ATOM     70  C   UNL     1      11.527  14.985  -0.197  1.00  0.00     0.023 A 
ATOM     71  C   UNL     1      11.214  16.173  -0.875  1.00  0.00     0.031 A 
ATOM     72  C   UNL     1      10.928  14.762   1.057  1.00  0.00     0.131 A 
ATOM     73  C   UNL     1      10.351  17.108  -0.281  1.00  0.00     0.055 A 
ATOM     74  C   UNL     1      10.037  15.674   1.622  1.00  0.00     0.041 A 
ATOM     75  F   UNL     1      11.191  13.638   1.744  1.00  0.00    -0.206 F 
ATOM     76  C   UNL     1       9.751  16.860   0.956  1.00  0.00     0.022 A 
BRANCH  73  77
ATOM     77  S   UNL     1      10.060  18.686  -1.127  1.00  0.00     0.124 S 
ATOM     78  O   UNL     1      11.405  19.247  -1.183  1.00  0.00    -0.237 OA
ATOM     79  O   UNL     1       9.493  18.248  -2.398  1.00  0.00    -0.237 OA
ATOM     80  O   UNL     1       9.129  19.381  -0.240  1.00  0.00    -0.744 OA
ENDBRANCH  73  77
ENDBRANCH  46  70
BRANCH  58  81
ATOM     81  C   UNL     1      18.379  15.095  -1.551  1.00  0.00     0.023 A 
ATOM     82  C   UNL     1      18.744  15.688  -0.329  1.00  0.00     0.031 A 
ATOM     83  C   UNL     1      18.992  15.572  -2.724  1.00  0.00     0.131 A 
ATOM     84  C   UNL     1      19.645  16.764  -0.314  1.00  0.00     0.055 A 
ATOM     85  C   UNL     1      19.936  16.600  -2.696  1.00  0.00     0.041 A 
ATOM     86  F   UNL     1      18.682  15.046  -3.920  1.00  0.00    -0.206 F 
ATOM     87  C   UNL     1      20.255  17.213  -1.488  1.00  0.00     0.022 A 
BRANCH  84  88
ATOM     88  S   UNL     1      19.928  17.643   1.248  1.00  0.00     0.124 S 
ATOM     89  O   UNL     1      18.574  18.041   1.621  1.00  0.00    -0.237 OA
ATOM     90  O   UNL     1      20.542  16.613   2.078  1.00  0.00    -0.237 OA
ATOM     91  O   UNL     1      20.814  18.742   0.867  1.00  0.00    -0.744 OA
ENDBRANCH  84  88
ENDBRANCH  58  81
ENDBRANCH  32  33
ENDBRANCH  25  27
ENDBRANCH  24  25
ENDBRANCH  23  24
ENDBRANCH  22  23
ENDBRANCH   1  22
TORSDOF 20
