REMARK SMILES O=C(OCCOCCOC(=O)c1ccc(-n2cc(CSc3nc4ccccc4c(=O)n3-c3ccccc3)nn2)cc1)c1ccc(-c2c3nc(c(-c4cc(S(=O)(=O)[O-])ccc4F)c4ccc([nH]4)c(-c4cc(S(=O)(=O)[O-])ccc4F)c4nc(c(-c5cc(S(=O)(=O)[O-])ccc5F)c5ccc2[nH]5)C=C4)C=C3)cc1
REMARK SMILES IDX 7 1 6 2 5 3 4 4 3 5 2 6 1 7 42 8 43 9 104 10 44 11 103 12
REMARK SMILES IDX 45 13 46 14 47 15 97 16 48 17 102 18 96 19 98 20 49 21
REMARK SMILES IDX 101 22 95 23 94 24 50 26 82 27 62 28 81 29 63 30 66 31 80 32
REMARK SMILES IDX 99 33 64 34 65 35 79 37 100 38 67 39 51 40 52 41 60 42 53 43
REMARK SMILES IDX 59 44 61 45 58 46 54 47 55 48 56 49 57 50 83 51 84 52 92 53
REMARK SMILES IDX 85 54 91 55 93 56 90 57 86 58 87 59 88 60 89 61 68 62 69 63
REMARK SMILES IDX 77 64 70 65 76 66 78 67 75 68 71 69 72 70 73 71 74 72 8 73
REMARK SMILES IDX 9 74 10 75 11 76 12 77 13 78 41 79 14 80 40 81 15 82 16 83
REMARK SMILES IDX 17 84 39 85 18 86 38 87 19 88 20 89 21 90 22 91 31 92 23 93
REMARK SMILES IDX 29 94 24 95 28 96 30 97 25 98 27 99 26 100 32 101 33 102
REMARK SMILES IDX 37 103 34 104 36 105 35 106
REMARK H PARENT 98 25 66 36
REMARK Flexibility Score: inf
ROOT
ATOM      1  C   UNL     1       3.037  -2.129  -0.011  1.00  0.00     0.202 C 
ENDROOT
BRANCH   1   2
ATOM      2  O   UNL     1       4.236  -1.417  -0.339  1.00  0.00    -0.374 OA
BRANCH   2   3
ATOM      3  C   UNL     1       4.774  -0.587   0.684  1.00  0.00     0.202 C 
BRANCH   3   4
ATOM      4  C   UNL     1       4.428   0.898   0.661  1.00  0.00     0.261 C 
BRANCH   4   5
ATOM      5  O   UNL     1       3.031   1.168   0.868  1.00  0.00    -0.460 OA
BRANCH   5   6
ATOM      6  C   UNL     1       2.024   0.885   0.013  1.00  0.00     0.338 C 
ATOM      7  O   UNL     1       0.978   0.401   0.446  1.00  0.00    -0.246 OA
BRANCH   6   8
ATOM      8  C   UNL     1       2.052   1.401  -1.379  1.00  0.00     0.060 A 
ATOM      9  C   UNL     1       3.191   1.771  -2.086  1.00  0.00     0.016 A 
ATOM     10  C   UNL     1       0.791   1.609  -1.967  1.00  0.00     0.016 A 
ATOM     11  C   UNL     1       3.071   2.554  -3.221  1.00  0.00     0.010 A 
ATOM     12  C   UNL     1       0.664   2.339  -3.137  1.00  0.00     0.010 A 
ATOM     13  C   UNL     1       1.804   2.881  -3.712  1.00  0.00    -0.014 A 
BRANCH  13  14
ATOM     14  C   UNL     1       1.739   3.611  -4.970  1.00  0.00     0.031 A 
ATOM     15  C   UNL     1       2.412   2.872  -6.068  1.00  0.00     0.074 A 
ATOM     16  C   UNL     1       1.099   4.783  -5.150  1.00  0.00     0.049 A 
ATOM     17  N   UNL     1       3.558   3.148  -6.593  1.00  0.00    -0.248 NA
ATOM     18  C   UNL     1       1.887   1.551  -6.450  1.00  0.00     0.031 C 
ATOM     19  C   UNL     1       0.232   5.499  -4.215  1.00  0.00     0.029 A 
ATOM     20  N   UNL     1       1.040   5.564  -6.266  1.00  0.00    -0.354 N 
ATOM     21  C   UNL     1       3.763   2.188  -7.575  1.00  0.00     0.074 A 
ATOM     22  C   UNL     1       2.838   1.127  -7.284  1.00  0.00     0.031 C 
ATOM     23  C   UNL     1      -0.439   6.473  -4.877  1.00  0.00     0.029 A 
ATOM     24  C   UNL     1       0.045   6.543  -6.248  1.00  0.00     0.049 A 
ATOM     25  H   UNL     1       1.653   5.447  -7.028  1.00  0.00     0.167 HD
ATOM     26  C   UNL     1       4.478   2.496  -8.692  1.00  0.00     0.034 A 
ATOM     27  C   UNL     1      -0.368   7.323  -7.291  1.00  0.00     0.034 A 
ATOM     28  C   UNL     1       5.295   3.673  -8.461  1.00  0.00     0.049 A 
ATOM     29  C   UNL     1       0.753   7.357  -8.264  1.00  0.00     0.074 A 
ATOM     30  C   UNL     1       6.272   4.000  -7.538  1.00  0.00     0.029 A 
ATOM     31  N   UNL     1       4.864   4.875  -8.981  1.00  0.00    -0.354 N 
ATOM     32  N   UNL     1       1.895   7.935  -8.008  1.00  0.00    -0.248 NA
ATOM     33  C   UNL     1       0.801   6.316  -9.282  1.00  0.00     0.031 C 
ATOM     34  C   UNL     1       6.004   5.356  -7.185  1.00  0.00     0.029 A 
ATOM     35  C   UNL     1       4.961   5.820  -7.989  1.00  0.00     0.049 A 
ATOM     36  H   UNL     1       4.545   5.029  -9.899  1.00  0.00     0.167 HD
ATOM     37  C   UNL     1       2.855   7.048  -8.469  1.00  0.00     0.074 A 
ATOM     38  C   UNL     1       2.121   6.106  -9.317  1.00  0.00     0.031 C 
ATOM     39  C   UNL     1       4.093   6.979  -7.895  1.00  0.00     0.034 A 
BRANCH  26  40
ATOM     40  C   UNL     1       4.102   2.036 -10.087  1.00  0.00     0.023 A 
ATOM     41  C   UNL     1       4.841   2.592 -11.148  1.00  0.00     0.031 A 
ATOM     42  C   UNL     1       2.906   1.379 -10.457  1.00  0.00     0.131 A 
ATOM     43  C   UNL     1       4.315   2.640 -12.448  1.00  0.00     0.055 A 
ATOM     44  C   UNL     1       2.418   1.371 -11.767  1.00  0.00     0.041 A 
ATOM     45  F   UNL     1       2.098   0.775  -9.580  1.00  0.00    -0.206 F 
ATOM     46  C   UNL     1       3.101   2.042 -12.765  1.00  0.00     0.022 A 
BRANCH  43  47
ATOM     47  S   UNL     1       5.157   3.684 -13.661  1.00  0.00     0.124 S 
ATOM     48  O   UNL     1       5.146   4.975 -12.980  1.00  0.00    -0.237 OA
ATOM     49  O   UNL     1       6.453   3.025 -13.774  1.00  0.00    -0.237 OA
ATOM     50  O   UNL     1       4.302   3.587 -14.841  1.00  0.00    -0.744 OA
ENDBRANCH  43  47
ENDBRANCH  26  40
BRANCH  27  51
ATOM     51  C   UNL     1      -1.767   7.727  -7.646  1.00  0.00     0.023 A 
ATOM     52  C   UNL     1      -2.078   8.749  -8.580  1.00  0.00     0.031 A 
ATOM     53  C   UNL     1      -2.843   6.904  -7.245  1.00  0.00     0.131 A 
ATOM     54  C   UNL     1      -3.405   8.903  -9.065  1.00  0.00     0.055 A 
ATOM     55  C   UNL     1      -4.144   7.056  -7.731  1.00  0.00     0.041 A 
ATOM     56  F   UNL     1      -2.649   5.857  -6.428  1.00  0.00    -0.206 F 
ATOM     57  C   UNL     1      -4.429   8.049  -8.651  1.00  0.00     0.022 A 
BRANCH  54  58
ATOM     58  S   UNL     1      -3.825  10.171 -10.314  1.00  0.00     0.124 S 
ATOM     59  O   UNL     1      -3.670  11.412  -9.564  1.00  0.00    -0.237 OA
ATOM     60  O   UNL     1      -2.846   9.920 -11.365  1.00  0.00    -0.237 OA
ATOM     61  O   UNL     1      -5.205   9.849 -10.681  1.00  0.00    -0.744 OA
ENDBRANCH  54  58
ENDBRANCH  27  51
BRANCH  39  62
ATOM     62  C   UNL     1       4.534   8.097  -6.968  1.00  0.00     0.023 A 
ATOM     63  C   UNL     1       3.841   8.540  -5.817  1.00  0.00     0.031 A 
ATOM     64  C   UNL     1       5.791   8.673  -7.231  1.00  0.00     0.131 A 
ATOM     65  C   UNL     1       4.411   9.533  -4.992  1.00  0.00     0.055 A 
ATOM     66  C   UNL     1       6.360   9.634  -6.400  1.00  0.00     0.041 A 
ATOM     67  F   UNL     1       6.509   8.284  -8.297  1.00  0.00    -0.206 F 
ATOM     68  C   UNL     1       5.668  10.074  -5.280  1.00  0.00     0.022 A 
BRANCH  65  69
ATOM     69  S   UNL     1       3.517  10.179  -3.539  1.00  0.00     0.124 S 
ATOM     70  O   UNL     1       2.157  10.371  -4.028  1.00  0.00    -0.237 OA
ATOM     71  O   UNL     1       3.700   9.112  -2.559  1.00  0.00    -0.237 OA
ATOM     72  O   UNL     1       4.232  11.418  -3.226  1.00  0.00    -0.744 OA
ENDBRANCH  65  69
ENDBRANCH  39  62
ENDBRANCH  13  14
ENDBRANCH   6   8
ENDBRANCH   5   6
ENDBRANCH   4   5
ENDBRANCH   3   4
ENDBRANCH   2   3
ENDBRANCH   1   2
BRANCH   1  73
ATOM     73  C   UNL     1       3.122  -3.307   0.974  1.00  0.00     0.261 C 
BRANCH  73  74
ATOM     74  O   UNL     1       3.438  -2.883   2.315  1.00  0.00    -0.460 OA
BRANCH  74  75
ATOM     75  C   UNL     1       4.712  -3.129   2.717  1.00  0.00     0.338 C 
ATOM     76  O   UNL     1       5.554  -3.782   2.144  1.00  0.00    -0.246 OA
BRANCH  75  77
ATOM     77  C   UNL     1       5.009  -2.277   3.893  1.00  0.00     0.060 A 
ATOM     78  C   UNL     1       6.073  -1.367   3.785  1.00  0.00     0.018 A 
ATOM     79  C   UNL     1       4.289  -2.392   5.084  1.00  0.00     0.018 A 
ATOM     80  C   UNL     1       6.419  -0.553   4.859  1.00  0.00     0.029 A 
ATOM     81  C   UNL     1       4.677  -1.625   6.188  1.00  0.00     0.029 A 
ATOM     82  C   UNL     1       5.728  -0.698   6.061  1.00  0.00     0.066 A 
BRANCH  82  83
ATOM     83  N   UNL     1       6.350  -0.209   7.218  1.00  0.00    -0.220 N 
ATOM     84  C   UNL     1       7.155  -0.969   8.019  1.00  0.00     0.141 A 
ATOM     85  N   UNL     1       6.254   1.036   7.707  1.00  0.00    -0.062 NA
ATOM     86  C   UNL     1       7.493  -0.176   9.083  1.00  0.00     0.093 A 
ATOM     87  N   UNL     1       6.921   1.063   8.863  1.00  0.00    -0.134 NA
BRANCH  86  88
ATOM     88  C   UNL     1       8.025  -0.541  10.419  1.00  0.00     0.138 C 
BRANCH  88  89
ATOM     89  S   UNL     1       9.683  -1.112  10.774  1.00  0.00    -0.081 SA
BRANCH  89  90
ATOM     90  C   UNL     1      10.517  -1.889   9.458  1.00  0.00     0.176 A 
ATOM     91  N   UNL     1      11.799  -1.656   9.498  1.00  0.00    -0.223 NA
ATOM     92  N   UNL     1       9.965  -2.674   8.460  1.00  0.00    -0.255 N 
ATOM     93  C   UNL     1      12.590  -2.081   8.425  1.00  0.00     0.079 A 
ATOM     94  C   UNL     1      10.544  -2.468   7.200  1.00  0.00     0.266 A 
ATOM     95  C   UNL     1      13.978  -2.158   8.532  1.00  0.00     0.029 A 
ATOM     96  C   UNL     1      12.004  -2.312   7.190  1.00  0.00     0.066 A 
ATOM     97  O   UNL     1       9.942  -2.396   6.130  1.00  0.00    -0.268 OA
ATOM     98  C   UNL     1      14.760  -2.387   7.392  1.00  0.00     0.002 A 
ATOM     99  C   UNL     1      12.768  -2.477   6.032  1.00  0.00     0.016 A 
ATOM    100  C   UNL     1      14.157  -2.503   6.137  1.00  0.00     0.001 A 
BRANCH  92 101
ATOM    101  C   UNL     1       8.862  -3.609   8.566  1.00  0.00     0.051 A 
ATOM    102  C   UNL     1       8.533  -4.435   7.469  1.00  0.00     0.027 A 
ATOM    103  C   UNL     1       8.034  -3.730   9.686  1.00  0.00     0.027 A 
ATOM    104  C   UNL     1       7.323  -5.130   7.398  1.00  0.00     0.002 A 
ATOM    105  C   UNL     1       6.783  -4.360   9.596  1.00  0.00     0.002 A 
ATOM    106  C   UNL     1       6.413  -5.030   8.437  1.00  0.00     0.000 A 
ENDBRANCH  92 101
ENDBRANCH  89  90
ENDBRANCH  88  89
ENDBRANCH  86  88
ENDBRANCH  82  83
ENDBRANCH  75  77
ENDBRANCH  74  75
ENDBRANCH  73  74
ENDBRANCH   1  73
TORSDOF 22
