REMARK SMILES Cc1cc(C(=O)N[C@H]2C=C[C@H](C(=O)OCCOCCOC(=O)c3ccc(-c4c5nc(c(-c6cc(S(=O)(=O)[O-])ccc6F)c6ccc([nH]6)c(-c6cc(S(=O)(=O)[O-])ccc6F)c6nc(c(-c7cc(S(=O)(=O)[O-])ccc7F)c7ccc4[nH]7)C=C6)C=C5)cc3)C2)ccc1F
REMARK SMILES IDX 18 1 17 2 16 3 15 4 14 5 12 6 13 7 11 8 8 9 9 10 86 11 10 12
REMARK SMILES IDX 7 13 5 14 6 15 4 17 1 18 2 19 3 20 89 21 88 22 90 23 87 24
REMARK SMILES IDX 19 25 20 26 21 27 22 28 23 29 24 30 85 31 25 32 84 33 26 34
REMARK SMILES IDX 27 35 28 36 78 37 29 38 83 39 77 40 79 41 30 42 82 43 76 44
REMARK SMILES IDX 75 45 31 47 63 48 43 49 62 50 44 51 47 52 61 53 80 54 45 55
REMARK SMILES IDX 46 56 60 58 81 59 48 60 32 61 33 62 41 63 34 64 40 65 42 66
REMARK SMILES IDX 39 67 35 68 36 69 37 70 38 71 64 72 65 73 73 74 66 75 72 76
REMARK SMILES IDX 74 77 71 78 67 79 68 80 69 81 70 82 49 83 50 84 58 85 51 86
REMARK SMILES IDX 57 87 59 88 56 89 52 90 53 91 54 92 55 93
REMARK H PARENT 7 16 79 46 47 57
REMARK Flexibility Score: inf
ROOT
ATOM      1  C   UNL     1       1.522   3.459   2.987  1.00  0.00     0.202 C 
ENDROOT
BRANCH   1   2
ATOM      2  O   UNL     1       2.580   3.429   2.031  1.00  0.00    -0.374 OA
BRANCH   2   3
ATOM      3  C   UNL     1       3.090   4.629   1.450  1.00  0.00     0.202 C 
BRANCH   3   4
ATOM      4  C   UNL     1       2.238   5.303   0.359  1.00  0.00     0.261 C 
BRANCH   4   5
ATOM      5  O   UNL     1       0.903   5.609   0.799  1.00  0.00    -0.463 OA
BRANCH   5   6
ATOM      6  C   UNL     1      -0.048   4.748   0.374  1.00  0.00     0.312 C 
ATOM      7  O   UNL     1       0.137   3.908  -0.501  1.00  0.00    -0.252 OA
BRANCH   6   8
ATOM      8  C   UNL     1      -1.355   4.869   1.171  1.00  0.00     0.124 C 
ATOM      9  C   UNL     1      -2.698   3.366  -0.109  1.00  0.00     0.106 C 
ATOM     10  C   UNL     1      -3.258   4.750  -0.214  1.00  0.00    -0.006 C 
ATOM     11  C   UNL     1      -1.993   3.469   1.244  1.00  0.00     0.048 C 
ATOM     12  C   UNL     1      -2.452   5.603   0.444  1.00  0.00    -0.014 C 
BRANCH   9  13
ATOM     13  N   UNL     1      -3.654   2.309  -0.210  1.00  0.00    -0.346 N 
ATOM     14  C   UNL     1      -3.432   0.957  -0.382  1.00  0.00     0.251 C 
ATOM     15  O   UNL     1      -4.423   0.235  -0.520  1.00  0.00    -0.269 OA
ATOM     16  H   UNL     1      -4.598   2.581  -0.150  1.00  0.00     0.164 HD
BRANCH  14  17
ATOM     17  C   UNL     1      -2.075   0.301  -0.332  1.00  0.00     0.040 A 
ATOM     18  C   UNL     1       1.675   0.954  -0.734  1.00  0.00     0.047 C 
ATOM     19  C   UNL     1       0.376   0.231  -0.516  1.00  0.00    -0.015 A 
ATOM     20  C   UNL     1      -0.857   0.885  -0.708  1.00  0.00     0.020 A 
ATOM     21  C   UNL     1       0.369  -1.073  -0.031  1.00  0.00     0.126 A 
ATOM     22  C   UNL     1      -0.827  -1.716   0.260  1.00  0.00     0.040 A 
ATOM     23  F   UNL     1       1.523  -1.730   0.153  1.00  0.00    -0.207 F 
ATOM     24  C   UNL     1      -2.039  -1.028   0.124  1.00  0.00     0.017 A 
ENDBRANCH  14  17
ENDBRANCH   9  13
ENDBRANCH   6   8
ENDBRANCH   5   6
ENDBRANCH   4   5
ENDBRANCH   3   4
ENDBRANCH   2   3
ENDBRANCH   1   2
BRANCH   1  25
ATOM     25  C   UNL     1       1.404   4.589   4.008  1.00  0.00     0.261 C 
BRANCH  25  26
ATOM     26  O   UNL     1       1.046   5.813   3.366  1.00  0.00    -0.460 OA
BRANCH  26  27
ATOM     27  C   UNL     1       1.973   6.772   3.518  1.00  0.00     0.338 C 
ATOM     28  O   UNL     1       2.952   6.712   4.264  1.00  0.00    -0.246 OA
BRANCH  27  29
ATOM     29  C   UNL     1       1.638   7.980   2.738  1.00  0.00     0.060 A 
ATOM     30  C   UNL     1       2.797   8.652   2.317  1.00  0.00     0.016 A 
ATOM     31  C   UNL     1       0.603   8.657   3.380  1.00  0.00     0.016 A 
ATOM     32  C   UNL     1       3.163   9.789   3.010  1.00  0.00     0.010 A 
ATOM     33  C   UNL     1       0.962   9.786   4.075  1.00  0.00     0.010 A 
ATOM     34  C   UNL     1       2.280  10.261   3.976  1.00  0.00    -0.014 A 
BRANCH  34  35
ATOM     35  C   UNL     1       2.661  11.241   4.967  1.00  0.00     0.031 A 
ATOM     36  C   UNL     1       2.740  12.650   4.573  1.00  0.00     0.074 A 
ATOM     37  C   UNL     1       2.830  10.848   6.247  1.00  0.00     0.049 A 
ATOM     38  N   UNL     1       3.387  13.549   5.227  1.00  0.00    -0.248 NA
ATOM     39  C   UNL     1       2.127  13.139   3.343  1.00  0.00     0.031 C 
ATOM     40  C   UNL     1       2.766  11.694   7.429  1.00  0.00     0.029 A 
ATOM     41  N   UNL     1       3.264   9.606   6.728  1.00  0.00    -0.354 N 
ATOM     42  C   UNL     1       3.034  14.764   4.688  1.00  0.00     0.074 A 
ATOM     43  C   UNL     1       2.342  14.452   3.457  1.00  0.00     0.031 C 
ATOM     44  C   UNL     1       3.355  11.056   8.451  1.00  0.00     0.029 A 
ATOM     45  C   UNL     1       3.984   9.862   7.908  1.00  0.00     0.049 A 
ATOM     46  H   UNL     1       3.097   8.726   6.320  1.00  0.00     0.167 HD
ATOM     47  C   UNL     1       3.206  15.893   5.431  1.00  0.00     0.034 A 
ATOM     48  C   UNL     1       5.280   9.497   8.127  1.00  0.00     0.034 A 
ATOM     49  C   UNL     1       3.859  15.587   6.705  1.00  0.00     0.049 A 
ATOM     50  C   UNL     1       6.172  10.678   8.452  1.00  0.00     0.074 A 
ATOM     51  C   UNL     1       3.351  15.310   7.964  1.00  0.00     0.029 A 
ATOM     52  N   UNL     1       5.191  15.188   6.725  1.00  0.00    -0.354 N 
ATOM     53  N   UNL     1       5.835  11.918   8.234  1.00  0.00    -0.248 NA
ATOM     54  C   UNL     1       7.524  10.559   8.990  1.00  0.00     0.031 C 
ATOM     55  C   UNL     1       4.369  14.686   8.726  1.00  0.00     0.029 A 
ATOM     56  C   UNL     1       5.506  14.601   7.942  1.00  0.00     0.049 A 
ATOM     57  H   UNL     1       5.823  15.305   5.979  1.00  0.00     0.167 HD
ATOM     58  C   UNL     1       6.898  12.742   8.493  1.00  0.00     0.074 A 
ATOM     59  C   UNL     1       7.913  11.847   9.018  1.00  0.00     0.031 C 
ATOM     60  C   UNL     1       6.848  14.078   8.205  1.00  0.00     0.034 A 
BRANCH  47  61
ATOM     61  C   UNL     1       2.461  17.176   5.130  1.00  0.00     0.023 A 
ATOM     62  C   UNL     1       2.052  17.560   3.835  1.00  0.00     0.031 A 
ATOM     63  C   UNL     1       2.048  18.032   6.173  1.00  0.00     0.131 A 
ATOM     64  C   UNL     1       1.167  18.637   3.631  1.00  0.00     0.055 A 
ATOM     65  C   UNL     1       1.226  19.146   5.963  1.00  0.00     0.041 A 
ATOM     66  F   UNL     1       2.381  17.800   7.451  1.00  0.00    -0.206 F 
ATOM     67  C   UNL     1       0.754  19.436   4.692  1.00  0.00     0.022 A 
BRANCH  64  68
ATOM     68  S   UNL     1       0.432  18.951   1.999  1.00  0.00     0.124 S 
ATOM     69  O   UNL     1      -0.998  18.991   2.303  1.00  0.00    -0.237 OA
ATOM     70  O   UNL     1       1.025  20.231   1.628  1.00  0.00    -0.237 OA
ATOM     71  O   UNL     1       0.853  17.803   1.200  1.00  0.00    -0.744 OA
ENDBRANCH  64  68
ENDBRANCH  47  61
BRANCH  48  72
ATOM     72  C   UNL     1       5.723   8.303   7.361  1.00  0.00     0.023 A 
ATOM     73  C   UNL     1       6.355   8.448   6.116  1.00  0.00     0.031 A 
ATOM     74  C   UNL     1       5.158   7.053   7.689  1.00  0.00     0.131 A 
ATOM     75  C   UNL     1       6.299   7.393   5.191  1.00  0.00     0.055 A 
ATOM     76  C   UNL     1       5.113   6.007   6.769  1.00  0.00     0.041 A 
ATOM     77  F   UNL     1       4.546   6.876   8.873  1.00  0.00    -0.206 F 
ATOM     78  C   UNL     1       5.663   6.186   5.504  1.00  0.00     0.022 A 
BRANCH  75  79
ATOM     79  S   UNL     1       6.926   7.603   3.499  1.00  0.00     0.124 S 
ATOM     80  O   UNL     1       8.075   6.702   3.498  1.00  0.00    -0.237 OA
ATOM     81  O   UNL     1       5.801   7.176   2.667  1.00  0.00    -0.237 OA
ATOM     82  O   UNL     1       7.239   9.025   3.426  1.00  0.00    -0.744 OA
ENDBRANCH  75  79
ENDBRANCH  48  72
BRANCH  60  83
ATOM     83  C   UNL     1       8.011  15.050   8.200  1.00  0.00     0.023 A 
ATOM     84  C   UNL     1       7.725  16.438   8.160  1.00  0.00     0.031 A 
ATOM     85  C   UNL     1       9.367  14.704   8.085  1.00  0.00     0.131 A 
ATOM     86  C   UNL     1       8.735  17.394   7.994  1.00  0.00     0.055 A 
ATOM     87  C   UNL     1      10.385  15.665   8.005  1.00  0.00     0.041 A 
ATOM     88  F   UNL     1       9.770  13.431   7.977  1.00  0.00    -0.206 F 
ATOM     89  C   UNL     1      10.072  17.015   7.943  1.00  0.00     0.022 A 
BRANCH  86  90
ATOM     90  S   UNL     1       8.319  19.132   7.674  1.00  0.00     0.124 S 
ATOM     91  O   UNL     1       8.577  19.744   8.974  1.00  0.00    -0.237 OA
ATOM     92  O   UNL     1       9.264  19.489   6.617  1.00  0.00    -0.237 OA
ATOM     93  O   UNL     1       6.922  19.082   7.262  1.00  0.00    -0.744 OA
ENDBRANCH  86  90
ENDBRANCH  60  83
ENDBRANCH  34  35
ENDBRANCH  27  29
ENDBRANCH  26  27
ENDBRANCH  25  26
ENDBRANCH   1  25
TORSDOF 19
