REMARK SMILES CN1C(=O)CC[C@H]([NH2+]Cc2ccc(C(=O)OCCOCCOC(=O)c3ccc(-c4c5nc(c(-c6cc(S(=O)(=O)[O-])ccc6F)c6ccc([nH]6)c(-c6cc(S(=O)(=O)[O-])ccc6F)c6nc(c(-c7cc(S(=O)(=O)[O-])ccc7F)c7ccc4[nH]7)C=C6)C=C5)cc3)cn2)C1=O
REMARK SMILES IDX 19 1 18 2 17 3 16 4 14 5 15 6 13 7 10 8 11 9 89 10 12 11
REMARK SMILES IDX 88 12 9 13 8 14 7 17 1 18 2 19 3 20 90 21 4 22 5 23 91 24
REMARK SMILES IDX 6 25 20 26 21 27 22 28 23 29 24 30 25 31 26 32 87 33 27 34
REMARK SMILES IDX 86 35 28 36 29 37 30 38 80 39 31 40 85 41 79 42 81 43 32 44
REMARK SMILES IDX 84 45 78 46 77 47 33 49 65 50 45 51 64 52 46 53 49 54 63 55
REMARK SMILES IDX 82 56 47 57 48 58 62 60 83 61 50 62 34 63 35 64 43 65 36 66
REMARK SMILES IDX 42 67 44 68 41 69 37 70 38 71 39 72 40 73 66 74 67 75 75 76
REMARK SMILES IDX 68 77 74 78 76 79 73 80 69 81 70 82 71 83 72 84 51 85 52 86
REMARK SMILES IDX 60 87 53 88 59 89 61 90 58 91 54 92 55 93 56 94 57 95
REMARK H PARENT 8 15 8 16 81 48 49 59
REMARK Flexibility Score: inf
ROOT
ATOM      1  O   UNL     1      -8.158  -6.792  -4.700  1.00  0.00    -0.374 OA
ENDROOT
BRANCH   1   2
ATOM      2  C   UNL     1      -7.971  -8.118  -4.205  1.00  0.00     0.202 C 
BRANCH   2   3
ATOM      3  C   UNL     1      -6.665  -8.823  -4.584  1.00  0.00     0.261 C 
BRANCH   3   4
ATOM      4  O   UNL     1      -5.522  -8.095  -4.110  1.00  0.00    -0.460 OA
BRANCH   4   5
ATOM      5  C   UNL     1      -4.817  -7.469  -5.079  1.00  0.00     0.339 C 
ATOM      6  O   UNL     1      -4.955  -7.590  -6.287  1.00  0.00    -0.246 OA
BRANCH   5   7
ATOM      7  C   UNL     1      -3.945  -6.442  -4.490  1.00  0.00     0.078 A 
ATOM      8  C   UNL     1      -2.330  -4.385  -3.650  1.00  0.00     0.094 A 
ATOM      9  C   UNL     1      -2.523  -5.481  -2.808  1.00  0.00     0.031 A 
ATOM     10  N   UNL     1      -2.971  -4.263  -4.841  1.00  0.00    -0.254 NA
ATOM     11  C   UNL     1      -3.345  -6.527  -3.235  1.00  0.00     0.019 A 
ATOM     12  C   UNL     1      -3.751  -5.292  -5.237  1.00  0.00     0.127 A 
BRANCH   8  13
ATOM     13  C   UNL     1      -1.402  -3.241  -3.295  1.00  0.00     0.318 C 
BRANCH  13  14
ATOM     14  N   UNL     1      -0.050  -3.668  -2.897  1.00  0.00    -0.331 N 
ATOM     15  H   UNL     1      -0.124  -4.212  -2.037  1.00  0.00     0.347 HD
ATOM     16  H   UNL     1       0.331  -4.213  -3.671  1.00  0.00     0.347 HD
BRANCH  14  17
ATOM     17  C   UNL     1       0.886  -2.544  -2.659  1.00  0.00     0.274 C 
ATOM     18  C   UNL     1       0.601   0.253  -0.043  1.00  0.00     0.156 C 
ATOM     19  N   UNL     1       0.854  -0.451  -1.288  1.00  0.00    -0.281 N 
ATOM     20  C   UNL     1       1.343   0.317  -2.342  1.00  0.00     0.229 C 
ATOM     21  C   UNL     1       0.523  -1.801  -1.359  1.00  0.00     0.287 C 
ATOM     22  O   UNL     1       1.366   1.547  -2.329  1.00  0.00    -0.274 OA
ATOM     23  C   UNL     1       1.922  -0.447  -3.506  1.00  0.00     0.107 C 
ATOM     24  O   UNL     1      -0.004  -2.415  -0.426  1.00  0.00    -0.267 OA
ATOM     25  C   UNL     1       1.048  -1.624  -3.863  1.00  0.00     0.085 C 
ENDBRANCH  14  17
ENDBRANCH  13  14
ENDBRANCH   8  13
ENDBRANCH   5   7
ENDBRANCH   4   5
ENDBRANCH   3   4
ENDBRANCH   2   3
ENDBRANCH   1   2
BRANCH   1  26
ATOM     26  C   UNL     1      -7.529  -5.725  -3.988  1.00  0.00     0.202 C 
BRANCH  26  27
ATOM     27  C   UNL     1      -8.137  -5.301  -2.644  1.00  0.00     0.261 C 
BRANCH  27  28
ATOM     28  O   UNL     1      -7.985  -6.309  -1.629  1.00  0.00    -0.460 OA
BRANCH  28  29
ATOM     29  C   UNL     1      -9.135  -6.948  -1.294  1.00  0.00     0.338 C 
ATOM     30  O   UNL     1     -10.254  -6.711  -1.718  1.00  0.00    -0.246 OA
BRANCH  29  31
ATOM     31  C   UNL     1      -8.824  -8.141  -0.485  1.00  0.00     0.060 A 
ATOM     32  C   UNL     1      -9.313  -9.374  -0.936  1.00  0.00     0.016 A 
ATOM     33  C   UNL     1      -8.127  -8.051   0.721  1.00  0.00     0.016 A 
ATOM     34  C   UNL     1      -9.148 -10.517  -0.158  1.00  0.00     0.010 A 
ATOM     35  C   UNL     1      -7.971  -9.200   1.505  1.00  0.00     0.010 A 
ATOM     36  C   UNL     1      -8.511 -10.430   1.086  1.00  0.00    -0.014 A 
BRANCH  36  37
ATOM     37  C   UNL     1      -8.550 -11.592   2.009  1.00  0.00     0.031 A 
ATOM     38  C   UNL     1      -9.531 -11.581   3.150  1.00  0.00     0.074 A 
ATOM     39  C   UNL     1      -7.752 -12.656   1.810  1.00  0.00     0.049 A 
ATOM     40  N   UNL     1      -9.713 -12.461   4.099  1.00  0.00    -0.248 NA
ATOM     41  C   UNL     1     -10.423 -10.413   3.232  1.00  0.00     0.031 C 
ATOM     42  C   UNL     1      -6.800 -12.800   0.709  1.00  0.00     0.029 A 
ATOM     43  N   UNL     1      -7.613 -13.816   2.529  1.00  0.00    -0.354 N 
ATOM     44  C   UNL     1     -10.734 -11.954   4.897  1.00  0.00     0.074 A 
ATOM     45  C   UNL     1     -11.100 -10.668   4.341  1.00  0.00     0.031 C 
ATOM     46  C   UNL     1      -6.171 -13.981   0.830  1.00  0.00     0.029 A 
ATOM     47  C   UNL     1      -6.641 -14.657   2.038  1.00  0.00     0.049 A 
ATOM     48  H   UNL     1      -8.157 -14.027   3.322  1.00  0.00     0.167 HD
ATOM     49  C   UNL     1     -11.318 -12.515   5.985  1.00  0.00     0.034 A 
ATOM     50  C   UNL     1      -6.168 -15.822   2.523  1.00  0.00     0.034 A 
ATOM     51  C   UNL     1     -10.933 -13.796   6.528  1.00  0.00     0.049 A 
ATOM     52  C   UNL     1      -6.770 -16.384   3.790  1.00  0.00     0.074 A 
ATOM     53  C   UNL     1     -11.466 -14.465   7.616  1.00  0.00     0.029 A 
ATOM     54  N   UNL     1      -9.910 -14.596   6.035  1.00  0.00    -0.354 N 
ATOM     55  N   UNL     1      -7.739 -15.899   4.533  1.00  0.00    -0.248 NA
ATOM     56  C   UNL     1      -6.221 -17.656   4.278  1.00  0.00     0.031 C 
ATOM     57  C   UNL     1     -10.714 -15.625   7.830  1.00  0.00     0.029 A 
ATOM     58  C   UNL     1      -9.771 -15.731   6.819  1.00  0.00     0.049 A 
ATOM     59  H   UNL     1      -9.363 -14.387   5.243  1.00  0.00     0.167 HD
ATOM     60  C   UNL     1      -7.938 -16.826   5.554  1.00  0.00     0.074 A 
ATOM     61  C   UNL     1      -6.997 -17.903   5.323  1.00  0.00     0.031 C 
ATOM     62  C   UNL     1      -8.822 -16.795   6.585  1.00  0.00     0.034 A 
BRANCH  49  63
ATOM     63  C   UNL     1     -12.393 -11.719   6.686  1.00  0.00     0.023 A 
ATOM     64  C   UNL     1     -13.601 -11.381   6.053  1.00  0.00     0.031 A 
ATOM     65  C   UNL     1     -12.194 -11.269   8.004  1.00  0.00     0.131 A 
ATOM     66  C   UNL     1     -14.530 -10.558   6.709  1.00  0.00     0.055 A 
ATOM     67  C   UNL     1     -13.159 -10.522   8.682  1.00  0.00     0.041 A 
ATOM     68  F   UNL     1     -11.050 -11.538   8.653  1.00  0.00    -0.206 F 
ATOM     69  C   UNL     1     -14.330 -10.149   8.030  1.00  0.00     0.022 A 
BRANCH  66  70
ATOM     70  S   UNL     1     -15.933  -9.907   5.762  1.00  0.00     0.124 S 
ATOM     71  O   UNL     1     -15.254  -9.201   4.678  1.00  0.00    -0.237 OA
ATOM     72  O   UNL     1     -16.650 -11.119   5.385  1.00  0.00    -0.237 OA
ATOM     73  O   UNL     1     -16.623  -9.045   6.720  1.00  0.00    -0.744 OA
ENDBRANCH  66  70
ENDBRANCH  49  63
BRANCH  50  74
ATOM     74  C   UNL     1      -5.041 -16.523   1.842  1.00  0.00     0.023 A 
ATOM     75  C   UNL     1      -5.201 -17.811   1.307  1.00  0.00     0.031 A 
ATOM     76  C   UNL     1      -3.765 -15.935   1.769  1.00  0.00     0.131 A 
ATOM     77  C   UNL     1      -4.096 -18.487   0.768  1.00  0.00     0.055 A 
ATOM     78  C   UNL     1      -2.682 -16.587   1.178  1.00  0.00     0.041 A 
ATOM     79  F   UNL     1      -3.553 -14.706   2.269  1.00  0.00    -0.206 F 
ATOM     80  C   UNL     1      -2.841 -17.878   0.686  1.00  0.00     0.022 A 
BRANCH  77  81
ATOM     81  S   UNL     1      -4.298 -20.218   0.263  1.00  0.00     0.124 S 
ATOM     82  O   UNL     1      -4.748 -20.837   1.504  1.00  0.00    -0.237 OA
ATOM     83  O   UNL     1      -5.293 -20.108  -0.798  1.00  0.00    -0.237 OA
ATOM     84  O   UNL     1      -2.959 -20.602  -0.178  1.00  0.00    -0.744 OA
ENDBRANCH  77  81
ENDBRANCH  50  74
BRANCH  62  85
ATOM     85  C   UNL     1      -8.848 -17.991   7.509  1.00  0.00     0.023 A 
ATOM     86  C   UNL     1      -7.759 -18.320   8.334  1.00  0.00     0.031 A 
ATOM     87  C   UNL     1      -9.986 -18.818   7.559  1.00  0.00     0.131 A 
ATOM     88  C   UNL     1      -7.806 -19.477   9.127  1.00  0.00     0.055 A 
ATOM     89  C   UNL     1     -10.053 -19.928   8.400  1.00  0.00     0.041 A 
ATOM     90  F   UNL     1     -11.056 -18.555   6.791  1.00  0.00    -0.206 F 
ATOM     91  C   UNL     1      -8.954 -20.272   9.180  1.00  0.00     0.022 A 
BRANCH  88  92
ATOM     92  S   UNL     1      -6.308 -19.988  10.013  1.00  0.00     0.124 S 
ATOM     93  O   UNL     1      -5.345 -20.128   8.925  1.00  0.00    -0.237 OA
ATOM     94  O   UNL     1      -6.085 -18.869  10.922  1.00  0.00    -0.237 OA
ATOM     95  O   UNL     1      -6.700 -21.240  10.657  1.00  0.00    -0.744 OA
ENDBRANCH  88  92
ENDBRANCH  62  85
ENDBRANCH  36  37
ENDBRANCH  29  31
ENDBRANCH  28  29
ENDBRANCH  27  28
ENDBRANCH  26  27
ENDBRANCH   1  26
TORSDOF 20
