REMARK SMILES Cc1nc(C[C@@H](C(=O)OCCOCCOC(=O)c2ccc(-c3c4nc(c(-c5cc(S(=O)(=O)[O-])ccc5F)c5ccc([nH]5)c(-c5cc(S(=O)(=O)[O-])ccc5F)c5nc(c(-c6cc(S(=O)(=O)[O-])ccc6F)c6ccc3[nH]6)C=C5)C=C4)cc2)[C@@H]2CCS(=O)(=O)C2)sc1C
REMARK SMILES IDX 13 1 12 2 11 3 10 4 9 5 7 6 8 7 6 8 5 9 4 10 1 11 2 12 3 13
REMARK SMILES IDX 89 14 88 15 90 16 81 17 82 18 87 19 83 20 84 21 85 22 86 23
REMARK SMILES IDX 14 24 15 25 16 26 17 27 18 28 19 29 80 30 20 31 79 32 21 33
REMARK SMILES IDX 22 34 23 35 73 36 24 37 78 38 72 39 74 40 25 41 77 42 71 43
REMARK SMILES IDX 70 44 26 46 58 47 38 48 57 49 39 50 42 51 56 52 75 53 40 54
REMARK SMILES IDX 41 55 55 57 76 58 43 59 27 60 28 61 36 62 29 63 35 64 37 65
REMARK SMILES IDX 34 66 30 67 31 68 32 69 33 70 59 71 60 72 68 73 61 74 67 75
REMARK SMILES IDX 69 76 66 77 62 78 63 79 64 80 65 81 44 82 45 83 53 84 46 85
REMARK SMILES IDX 52 86 54 87 51 88 47 89 48 90 49 91 50 92
REMARK H PARENT 74 45 42 56
REMARK Flexibility Score: inf
ROOT
ATOM      1  C   UNL     1       0.682   4.958  -0.847  1.00  0.00     0.202 C 
ENDROOT
BRANCH   1   2
ATOM      2  O   UNL     1       1.840   5.265  -0.075  1.00  0.00    -0.374 OA
BRANCH   2   3
ATOM      3  C   UNL     1       2.449   4.141   0.575  1.00  0.00     0.202 C 
BRANCH   3   4
ATOM      4  C   UNL     1       1.932   3.884   1.995  1.00  0.00     0.261 C 
BRANCH   4   5
ATOM      5  O   UNL     1       0.636   3.257   1.952  1.00  0.00    -0.463 OA
BRANCH   5   6
ATOM      6  C   UNL     1      -0.433   4.047   2.119  1.00  0.00     0.309 C 
ATOM      7  O   UNL     1      -0.353   5.193   2.539  1.00  0.00    -0.252 OA
BRANCH   6   8
ATOM      8  C   UNL     1      -1.776   3.379   1.809  1.00  0.00     0.110 C 
BRANCH   8   9
ATOM      9  C   UNL     1      -1.877   2.521   0.514  1.00  0.00     0.083 C 
BRANCH   9  10
ATOM     10  C   UNL     1      -1.032   1.279   0.460  1.00  0.00     0.094 A 
ATOM     11  C   UNL     1       2.244  -0.152   0.678  1.00  0.00     0.068 C 
ATOM     12  C   UNL     1       0.786   0.010   0.456  1.00  0.00     0.051 A 
ATOM     13  N   UNL     1       0.279   1.291   0.444  1.00  0.00    -0.246 NA
ATOM     14  C   UNL     1      -0.158  -0.982   0.273  1.00  0.00     0.024 A 
ATOM     15  S   UNL     1      -1.727  -0.282   0.263  1.00  0.00    -0.124 S 
ATOM     16  C   UNL     1       0.052  -2.448   0.133  1.00  0.00     0.058 C 
ENDBRANCH   9  10
ENDBRANCH   8   9
BRANCH   8  17
ATOM     17  C   UNL     1      -2.916   4.473   1.774  1.00  0.00     0.020 C 
ATOM     18  C   UNL     1      -2.838   5.513   0.625  1.00  0.00     0.021 C 
ATOM     19  C   UNL     1      -3.119   5.242   3.102  1.00  0.00     0.141 C 
ATOM     20  C   UNL     1      -2.239   6.821   1.131  1.00  0.00     0.137 C 
ATOM     21  S   UNL     1      -2.875   6.989   2.782  1.00  0.00     0.150 S 
ATOM     22  O   UNL     1      -1.862   7.529   3.662  1.00  0.00    -0.229 OA
ATOM     23  O   UNL     1      -4.186   7.606   2.680  1.00  0.00    -0.229 OA
ENDBRANCH   8  17
ENDBRANCH   6   8
ENDBRANCH   5   6
ENDBRANCH   4   5
ENDBRANCH   3   4
ENDBRANCH   2   3
ENDBRANCH   1   2
BRANCH   1  24
ATOM     24  C   UNL     1       0.932   4.620  -2.319  1.00  0.00     0.261 C 
BRANCH  24  25
ATOM     25  O   UNL     1       1.672   3.399  -2.444  1.00  0.00    -0.460 OA
BRANCH  25  26
ATOM     26  C   UNL     1       3.004   3.570  -2.616  1.00  0.00     0.338 C 
ATOM     27  O   UNL     1       3.583   4.622  -2.834  1.00  0.00    -0.246 OA
BRANCH  26  28
ATOM     28  C   UNL     1       3.707   2.307  -2.308  1.00  0.00     0.060 A 
ATOM     29  C   UNL     1       4.908   2.401  -1.594  1.00  0.00     0.016 A 
ATOM     30  C   UNL     1       3.210   1.059  -2.695  1.00  0.00     0.016 A 
ATOM     31  C   UNL     1       5.641   1.253  -1.302  1.00  0.00     0.010 A 
ATOM     32  C   UNL     1       3.946  -0.093  -2.402  1.00  0.00     0.010 A 
ATOM     33  C   UNL     1       5.181   0.002  -1.731  1.00  0.00    -0.014 A 
BRANCH  33  34
ATOM     34  C   UNL     1       6.078  -1.178  -1.644  1.00  0.00     0.031 A 
ATOM     35  C   UNL     1       6.767  -1.637  -2.900  1.00  0.00     0.074 A 
ATOM     36  C   UNL     1       6.303  -1.806  -0.475  1.00  0.00     0.049 A 
ATOM     37  N   UNL     1       7.567  -2.652  -3.087  1.00  0.00    -0.248 NA
ATOM     38  C   UNL     1       6.508  -0.841  -4.112  1.00  0.00     0.031 C 
ATOM     39  C   UNL     1       5.735  -1.424   0.817  1.00  0.00     0.029 A 
ATOM     40  N   UNL     1       7.070  -2.908  -0.187  1.00  0.00    -0.354 N 
ATOM     41  C   UNL     1       7.909  -2.618  -4.434  1.00  0.00     0.074 A 
ATOM     42  C   UNL     1       7.181  -1.518  -5.028  1.00  0.00     0.031 C 
ATOM     43  C   UNL     1       6.155  -2.291   1.756  1.00  0.00     0.029 A 
ATOM     44  C   UNL     1       7.009  -3.298   1.131  1.00  0.00     0.049 A 
ATOM     45  H   UNL     1       7.614  -3.375  -0.862  1.00  0.00     0.167 HD
ATOM     46  C   UNL     1       8.770  -3.416  -5.111  1.00  0.00     0.034 A 
ATOM     47  C   UNL     1       7.571  -4.353   1.756  1.00  0.00     0.034 A 
ATOM     48  C   UNL     1       9.491  -4.507  -4.507  1.00  0.00     0.049 A 
ATOM     49  C   UNL     1       8.465  -5.280   0.962  1.00  0.00     0.074 A 
ATOM     50  C   UNL     1      10.400  -5.369  -5.094  1.00  0.00     0.029 A 
ATOM     51  N   UNL     1       9.380  -4.891  -3.177  1.00  0.00    -0.354 N 
ATOM     52  N   UNL     1       8.796  -5.222  -0.308  1.00  0.00    -0.248 NA
ATOM     53  C   UNL     1       9.074  -6.401   1.691  1.00  0.00     0.031 C 
ATOM     54  C   UNL     1      10.786  -6.315  -4.138  1.00  0.00     0.029 A 
ATOM     55  C   UNL     1      10.179  -5.996  -2.933  1.00  0.00     0.049 A 
ATOM     56  H   UNL     1       8.816  -4.443  -2.506  1.00  0.00     0.167 HD
ATOM     57  C   UNL     1       9.687  -6.274  -0.515  1.00  0.00     0.074 A 
ATOM     58  C   UNL     1       9.845  -6.942   0.759  1.00  0.00     0.031 C 
ATOM     59  C   UNL     1      10.325  -6.649  -1.654  1.00  0.00     0.034 A 
BRANCH  46  60
ATOM     60  C   UNL     1       8.936  -3.154  -6.587  1.00  0.00     0.023 A 
ATOM     61  C   UNL     1       9.481  -1.950  -7.067  1.00  0.00     0.031 A 
ATOM     62  C   UNL     1       8.503  -4.104  -7.529  1.00  0.00     0.131 A 
ATOM     63  C   UNL     1       9.509  -1.696  -8.446  1.00  0.00     0.055 A 
ATOM     64  C   UNL     1       8.610  -3.878  -8.902  1.00  0.00     0.041 A 
ATOM     65  F   UNL     1       7.951  -5.260  -7.129  1.00  0.00    -0.206 F 
ATOM     66  C   UNL     1       9.101  -2.662  -9.368  1.00  0.00     0.022 A 
BRANCH  63  67
ATOM     67  S   UNL     1       9.948  -0.029  -9.011  1.00  0.00     0.124 S 
ATOM     68  O   UNL     1       8.912   0.779  -8.374  1.00  0.00    -0.237 OA
ATOM     69  O   UNL     1      11.300   0.135  -8.487  1.00  0.00    -0.237 OA
ATOM     70  O   UNL     1       9.849  -0.124 -10.466  1.00  0.00    -0.744 OA
ENDBRANCH  63  67
ENDBRANCH  46  60
BRANCH  47  71
ATOM     71  C   UNL     1       7.299  -4.621   3.199  1.00  0.00     0.023 A 
ATOM     72  C   UNL     1       8.332  -4.603   4.150  1.00  0.00     0.031 A 
ATOM     73  C   UNL     1       6.010  -4.978   3.634  1.00  0.00     0.131 A 
ATOM     74  C   UNL     1       8.073  -4.996   5.473  1.00  0.00     0.055 A 
ATOM     75  C   UNL     1       5.746  -5.315   4.963  1.00  0.00     0.041 A 
ATOM     76  F   UNL     1       4.985  -5.010   2.768  1.00  0.00    -0.206 F 
ATOM     77  C   UNL     1       6.785  -5.341   5.888  1.00  0.00     0.022 A 
BRANCH  74  78
ATOM     78  S   UNL     1       9.469  -5.151   6.621  1.00  0.00     0.124 S 
ATOM     79  O   UNL     1      10.324  -6.102   5.921  1.00  0.00    -0.237 OA
ATOM     80  O   UNL     1       9.956  -3.777   6.690  1.00  0.00    -0.237 OA
ATOM     81  O   UNL     1       8.847  -5.652   7.845  1.00  0.00    -0.744 OA
ENDBRANCH  74  78
ENDBRANCH  47  71
BRANCH  59  82
ATOM     82  C   UNL     1      11.296  -7.800  -1.554  1.00  0.00     0.023 A 
ATOM     83  C   UNL     1      10.869  -9.111  -1.286  1.00  0.00     0.031 A 
ATOM     84  C   UNL     1      12.673  -7.575  -1.736  1.00  0.00     0.131 A 
ATOM     85  C   UNL     1      11.815 -10.140  -1.157  1.00  0.00     0.055 A 
ATOM     86  C   UNL     1      13.603  -8.613  -1.666  1.00  0.00     0.041 A 
ATOM     87  F   UNL     1      13.136  -6.342  -1.994  1.00  0.00    -0.206 F 
ATOM     88  C   UNL     1      13.176  -9.903  -1.363  1.00  0.00     0.022 A 
BRANCH  85  89
ATOM     89  S   UNL     1      11.249 -11.782  -0.634  1.00  0.00     0.124 S 
ATOM     90  O   UNL     1      10.624 -11.492   0.653  1.00  0.00    -0.237 OA
ATOM     91  O   UNL     1      10.340 -12.158  -1.712  1.00  0.00    -0.237 OA
ATOM     92  O   UNL     1      12.482 -12.564  -0.562  1.00  0.00    -0.744 OA
ENDBRANCH  85  89
ENDBRANCH  59  82
ENDBRANCH  33  34
ENDBRANCH  26  28
ENDBRANCH  25  26
ENDBRANCH  24  25
ENDBRANCH   1  24
TORSDOF 20
