REMARK SMILES C[NH2+][C@H]1CC[C@@H](Nc2ccc(C(=O)OCCOCCOC(=O)c3ccc(-c4c5nc(c(-c6cc(S(=O)(=O)[O-])ccc6F)c6ccc([nH]6)c(-c6cc(S(=O)(=O)[O-])ccc6F)c6nc(c(-c7cc(S(=O)(=O)[O-])ccc7F)c7ccc4[nH]7)C=C6)C=C5)cc3)c(F)c2F)CC1
REMARK SMILES IDX 17 1 16 2 15 3 14 4 12 5 13 6 11 7 8 8 9 9 88 10 10 11 86 12
REMARK SMILES IDX 89 13 87 14 7 15 6 17 3 18 91 19 4 20 90 21 5 22 2 23 1 24
REMARK SMILES IDX 18 27 19 28 20 29 21 30 22 31 23 32 24 33 85 34 25 35 84 36
REMARK SMILES IDX 26 37 27 38 28 39 78 40 29 41 83 42 77 43 79 44 30 45 82 46
REMARK SMILES IDX 76 47 75 48 31 50 63 51 43 52 62 53 44 54 47 55 61 56 80 57
REMARK SMILES IDX 45 58 46 59 60 61 81 62 48 63 32 64 33 65 41 66 34 67 40 68
REMARK SMILES IDX 42 69 39 70 35 71 36 72 37 73 38 74 64 75 65 76 73 77 66 78
REMARK SMILES IDX 72 79 74 80 71 81 67 82 68 83 69 84 70 85 49 86 50 87 58 88
REMARK SMILES IDX 51 89 57 90 59 91 56 92 52 93 53 94 54 95 55 96
REMARK H PARENT 7 16 2 25 2 26 79 49 47 60
REMARK Flexibility Score: inf
ROOT
ATOM      1  O   UNL     1      -9.245   0.978   7.431  1.00  0.00    -0.374 OA
ENDROOT
BRANCH   1   2
ATOM      2  C   UNL     1      -8.658   1.664   8.539  1.00  0.00     0.202 C 
BRANCH   2   3
ATOM      3  C   UNL     1      -7.263   1.184   8.953  1.00  0.00     0.261 C 
BRANCH   3   4
ATOM      4  O   UNL     1      -6.308   1.411   7.903  1.00  0.00    -0.460 OA
BRANCH   4   5
ATOM      5  C   UNL     1      -5.768   0.304   7.351  1.00  0.00     0.341 C 
ATOM      6  O   UNL     1      -5.918  -0.856   7.712  1.00  0.00    -0.246 OA
BRANCH   5   7
ATOM      7  C   UNL     1      -5.096   0.641   6.087  1.00  0.00     0.099 A 
ATOM      8  C   UNL     1      -3.769   1.113   3.646  1.00  0.00     0.074 A 
ATOM      9  C   UNL     1      -4.666   0.051   3.765  1.00  0.00     0.030 A 
ATOM     10  C   UNL     1      -3.597   1.958   4.762  1.00  0.00     0.182 A 
ATOM     11  C   UNL     1      -5.307  -0.200   4.984  1.00  0.00     0.021 A 
ATOM     12  C   UNL     1      -4.258   1.739   5.966  1.00  0.00     0.175 A 
ATOM     13  F   UNL     1      -2.763   3.007   4.653  1.00  0.00    -0.201 F 
ATOM     14  F   UNL     1      -4.045   2.573   6.993  1.00  0.00    -0.203 F 
BRANCH   8  15
ATOM     15  N   UNL     1      -3.050   1.379   2.493  1.00  0.00    -0.380 N 
ATOM     16  H   UNL     1      -2.121   1.686   2.603  1.00  0.00     0.160 HD
BRANCH  15  17
ATOM     17  C   UNL     1      -3.550   1.242   1.130  1.00  0.00     0.079 C 
ATOM     18  C   UNL     1      -0.995   1.065  -0.449  1.00  0.00     0.182 C 
ATOM     19  C   UNL     1      -1.567  -0.136   0.328  1.00  0.00     0.067 C 
ATOM     20  C   UNL     1      -1.510   2.403   0.116  1.00  0.00     0.067 C 
ATOM     21  C   UNL     1      -3.086  -0.066   0.488  1.00  0.00     0.031 C 
ATOM     22  C   UNL     1      -3.031   2.430   0.305  1.00  0.00     0.031 C 
BRANCH  18  23
ATOM     23  N   UNL     1       0.472   1.142  -0.562  1.00  0.00    -0.346 N 
ATOM     24  C   UNL     1       1.225  -0.018  -0.116  1.00  0.00     0.331 C 
ATOM     25  H   UNL     1       0.698   1.298  -1.544  1.00  0.00     0.346 HD
ATOM     26  H   UNL     1       0.749   1.897   0.066  1.00  0.00     0.346 HD
ENDBRANCH  18  23
ENDBRANCH  15  17
ENDBRANCH   8  15
ENDBRANCH   5   7
ENDBRANCH   4   5
ENDBRANCH   3   4
ENDBRANCH   2   3
ENDBRANCH   1   2
BRANCH   1  27
ATOM     27  C   UNL     1      -8.829   1.381   6.126  1.00  0.00     0.202 C 
BRANCH  27  28
ATOM     28  C   UNL     1      -9.468   2.655   5.561  1.00  0.00     0.261 C 
BRANCH  28  29
ATOM     29  O   UNL     1      -9.107   3.826   6.311  1.00  0.00    -0.460 OA
BRANCH  29  30
ATOM     30  C   UNL     1     -10.113   4.341   7.061  1.00  0.00     0.338 C 
ATOM     31  O   UNL     1     -11.274   3.958   7.083  1.00  0.00    -0.246 OA
BRANCH  30  32
ATOM     32  C   UNL     1      -9.591   5.343   8.011  1.00  0.00     0.060 A 
ATOM     33  C   UNL     1      -9.998   5.225   9.346  1.00  0.00     0.016 A 
ATOM     34  C   UNL     1      -8.792   6.415   7.607  1.00  0.00     0.016 A 
ATOM     35  C   UNL     1      -9.665   6.214  10.267  1.00  0.00     0.010 A 
ATOM     36  C   UNL     1      -8.461   7.412   8.535  1.00  0.00     0.010 A 
ATOM     37  C   UNL     1      -8.932   7.336   9.859  1.00  0.00    -0.014 A 
BRANCH  37  38
ATOM     38  C   UNL     1      -8.815   8.493  10.784  1.00  0.00     0.031 A 
ATOM     39  C   UNL     1      -9.746   9.663  10.605  1.00  0.00     0.074 A 
ATOM     40  C   UNL     1      -7.948   8.469  11.813  1.00  0.00     0.049 A 
ATOM     41  N   UNL     1      -9.845  10.763  11.307  1.00  0.00    -0.248 NA
ATOM     42  C   UNL     1     -10.694   9.578   9.483  1.00  0.00     0.031 C 
ATOM     43  C   UNL     1      -7.032   7.370  12.117  1.00  0.00     0.029 A 
ATOM     44  N   UNL     1      -7.703   9.393  12.798  1.00  0.00    -0.354 N 
ATOM     45  C   UNL     1     -10.870  11.498  10.718  1.00  0.00     0.074 A 
ATOM     46  C   UNL     1     -11.326  10.739   9.573  1.00  0.00     0.031 C 
ATOM     47  C   UNL     1      -6.326   7.684  13.217  1.00  0.00     0.029 A 
ATOM     48  C   UNL     1      -6.714   9.016  13.677  1.00  0.00     0.049 A 
ATOM     49  H   UNL     1      -8.190  10.246  12.868  1.00  0.00     0.167 HD
ATOM     50  C   UNL     1     -11.393  12.688  11.106  1.00  0.00     0.034 A 
ATOM     51  C   UNL     1      -6.175   9.678  14.721  1.00  0.00     0.034 A 
ATOM     52  C   UNL     1     -10.920  13.441  12.242  1.00  0.00     0.049 A 
ATOM     53  C   UNL     1      -6.709  11.047  15.073  1.00  0.00     0.074 A 
ATOM     54  C   UNL     1     -11.378  14.655  12.723  1.00  0.00     0.029 A 
ATOM     55  N   UNL     1      -9.873  13.058  13.070  1.00  0.00    -0.354 N 
ATOM     56  N   UNL     1      -7.683  11.727  14.512  1.00  0.00    -0.248 NA
ATOM     57  C   UNL     1      -6.075  11.733  16.207  1.00  0.00     0.031 C 
ATOM     58  C   UNL     1     -10.566  15.038  13.796  1.00  0.00     0.029 A 
ATOM     59  C   UNL     1      -9.649  14.027  14.036  1.00  0.00     0.049 A 
ATOM     60  H   UNL     1      -9.363  12.220  12.983  1.00  0.00     0.167 HD
ATOM     61  C   UNL     1      -7.798  12.904  15.248  1.00  0.00     0.074 A 
ATOM     62  C   UNL     1      -6.806  12.834  16.301  1.00  0.00     0.031 C 
ATOM     63  C   UNL     1      -8.649  13.948  15.075  1.00  0.00     0.034 A 
BRANCH  50  64
ATOM     64  C   UNL     1     -12.504  13.263  10.261  1.00  0.00     0.023 A 
ATOM     65  C   UNL     1     -13.754  12.629  10.151  1.00  0.00     0.031 A 
ATOM     66  C   UNL     1     -12.303  14.452   9.537  1.00  0.00     0.131 A 
ATOM     67  C   UNL     1     -14.729  13.149   9.286  1.00  0.00     0.055 A 
ATOM     68  C   UNL     1     -13.304  15.005   8.738  1.00  0.00     0.041 A 
ATOM     69  F   UNL     1     -11.122  15.090   9.585  1.00  0.00    -0.206 F 
ATOM     70  C   UNL     1     -14.522  14.346   8.598  1.00  0.00     0.022 A 
BRANCH  67  71
ATOM     71  S   UNL     1     -16.222  12.168   8.970  1.00  0.00     0.124 S 
ATOM     72  O   UNL     1     -15.656  10.937   8.423  1.00  0.00    -0.237 OA
ATOM     73  O   UNL     1     -16.819  12.064  10.296  1.00  0.00    -0.237 OA
ATOM     74  O   UNL     1     -16.969  12.981   8.012  1.00  0.00    -0.744 OA
ENDBRANCH  67  71
ENDBRANCH  50  64
BRANCH  51  75
ATOM     75  C   UNL     1      -5.045   9.087  15.495  1.00  0.00     0.023 A 
ATOM     76  C   UNL     1      -5.171   8.799  16.863  1.00  0.00     0.031 A 
ATOM     77  C   UNL     1      -3.793   8.872  14.889  1.00  0.00     0.131 A 
ATOM     78  C   UNL     1      -4.053   8.364  17.592  1.00  0.00     0.055 A 
ATOM     79  C   UNL     1      -2.699   8.385  15.607  1.00  0.00     0.041 A 
ATOM     80  F   UNL     1      -3.615   9.135  13.585  1.00  0.00    -0.206 F 
ATOM     81  C   UNL     1      -2.822   8.143  16.971  1.00  0.00     0.022 A 
BRANCH  78  82
ATOM     82  S   UNL     1      -4.204   8.189  19.392  1.00  0.00     0.124 S 
ATOM     83  O   UNL     1      -4.629   9.527  19.786  1.00  0.00    -0.237 OA
ATOM     84  O   UNL     1      -5.206   7.136  19.510  1.00  0.00    -0.237 OA
ATOM     85  O   UNL     1      -2.855   7.814  19.812  1.00  0.00    -0.744 OA
ENDBRANCH  78  82
ENDBRANCH  51  75
BRANCH  63  86
ATOM     86  C   UNL     1      -8.569  15.074  16.078  1.00  0.00     0.023 A 
ATOM     87  C   UNL     1      -7.442  15.909  16.167  1.00  0.00     0.031 A 
ATOM     88  C   UNL     1      -9.634  15.305  16.967  1.00  0.00     0.131 A 
ATOM     89  C   UNL     1      -7.380  16.898  17.161  1.00  0.00     0.055 A 
ATOM     90  C   UNL     1      -9.593  16.329  17.914  1.00  0.00     0.041 A 
ATOM     91  F   UNL     1     -10.736  14.538  16.928  1.00  0.00    -0.206 F 
ATOM     92  C   UNL     1      -8.456  17.124  18.024  1.00  0.00     0.022 A 
BRANCH  89  93
ATOM     93  S   UNL     1      -5.837  17.828  17.372  1.00  0.00     0.124 S 
ATOM     94  O   UNL     1      -4.875  16.764  17.639  1.00  0.00    -0.237 OA
ATOM     95  O   UNL     1      -5.701  18.502  16.085  1.00  0.00    -0.237 OA
ATOM     96  O   UNL     1      -6.119  18.708  18.504  1.00  0.00    -0.744 OA
ENDBRANCH  89  93
ENDBRANCH  63  86
ENDBRANCH  37  38
ENDBRANCH  30  32
ENDBRANCH  29  30
ENDBRANCH  28  29
ENDBRANCH  27  28
ENDBRANCH   1  27
TORSDOF 20
