REMARK SMILES CC[C@@H]1C=CC[C@@H]2C(=O)N(CCCC(=O)OCCOCCOC(=O)c3ccc(-c4c5nc(c(-c6cc(S(=O)(=O)[O-])ccc6F)c6ccc([nH]6)c(-c6cc(S(=O)(=O)[O-])ccc6F)c6nc(c(-c7cc(S(=O)(=O)[O-])ccc7F)c7ccc4[nH]7)C=C6)C=C5)cc3)C(=O)[C@@H]21
REMARK SMILES IDX 18 1 17 2 16 3 14 4 15 5 13 6 12 7 11 8 10 9 3 10 4 11 90 12
REMARK SMILES IDX 5 13 7 14 88 15 6 16 8 17 89 18 9 19 2 20 1 21 19 22 20 23
REMARK SMILES IDX 21 24 22 25 23 26 24 27 25 28 26 29 87 30 27 31 86 32 28 33
REMARK SMILES IDX 29 34 30 35 80 36 31 37 85 38 79 39 81 40 32 41 84 42 78 43
REMARK SMILES IDX 77 44 33 46 65 47 45 48 64 49 46 50 49 51 63 52 82 53 47 54
REMARK SMILES IDX 48 55 62 57 83 58 50 59 34 60 35 61 43 62 36 63 42 64 44 65
REMARK SMILES IDX 41 66 37 67 38 68 39 69 40 70 66 71 67 72 75 73 68 74 74 75
REMARK SMILES IDX 76 76 73 77 69 78 70 79 71 80 72 81 51 82 52 83 60 84 53 85
REMARK SMILES IDX 59 86 61 87 58 88 54 89 55 90 56 91 57 92
REMARK H PARENT 81 45 49 56
REMARK Flexibility Score: inf
ROOT
ATOM      1  C   UNL     1       2.485   8.807   3.997  1.00  0.00     0.202 C 
ENDROOT
BRANCH   1   2
ATOM      2  C   UNL     1       2.468   7.951   2.730  1.00  0.00     0.261 C 
BRANCH   2   3
ATOM      3  O   UNL     1       2.663   6.576   3.079  1.00  0.00    -0.463 OA
BRANCH   3   4
ATOM      4  C   UNL     1       3.728   5.936   2.550  1.00  0.00     0.305 C 
ATOM      5  O   UNL     1       4.523   6.415   1.750  1.00  0.00    -0.252 OA
BRANCH   4   6
ATOM      6  C   UNL     1       3.883   4.535   3.109  1.00  0.00     0.124 C 
BRANCH   6   7
ATOM      7  C   UNL     1       3.077   4.148   4.360  1.00  0.00     0.034 C 
BRANCH   7   8
ATOM      8  C   UNL     1       1.542   4.238   4.300  1.00  0.00     0.129 C 
BRANCH   8   9
ATOM      9  N   UNL     1       0.989   3.370   3.284  1.00  0.00    -0.282 N 
ATOM     10  C   UNL     1       0.973   0.206   2.512  1.00  0.00     0.024 C 
ATOM     11  C   UNL     1       2.425   0.544   2.238  1.00  0.00    -0.027 C 
ATOM     12  C   UNL     1       0.047   1.444   2.375  1.00  0.00     0.099 C 
ATOM     13  C   UNL     1       2.726   1.283   1.159  1.00  0.00    -0.030 C 
ATOM     14  C   UNL     1       0.479   2.396   1.225  1.00  0.00     0.096 C 
ATOM     15  C   UNL     1       0.100   2.383   3.553  1.00  0.00     0.233 C 
ATOM     16  C   UNL     1       1.624   1.891   0.334  1.00  0.00     0.041 C 
ATOM     17  C   UNL     1       0.999   3.615   1.949  1.00  0.00     0.233 C 
ATOM     18  O   UNL     1      -0.598   2.311   4.552  1.00  0.00    -0.274 OA
ATOM     19  O   UNL     1       1.365   4.638   1.390  1.00  0.00    -0.274 OA
BRANCH  10  20
ATOM     20  C   UNL     1       0.804  -0.771   3.701  1.00  0.00     0.005 C 
ATOM     21  C   UNL     1       0.529  -0.223   5.088  1.00  0.00     0.004 C 
ENDBRANCH  10  20
ENDBRANCH   8   9
ENDBRANCH   7   8
ENDBRANCH   6   7
ENDBRANCH   4   6
ENDBRANCH   3   4
ENDBRANCH   2   3
ENDBRANCH   1   2
BRANCH   1  22
ATOM     22  O   UNL     1       3.713   8.844   4.727  1.00  0.00    -0.374 OA
BRANCH  22  23
ATOM     23  C   UNL     1       4.078   7.691   5.482  1.00  0.00     0.202 C 
BRANCH  23  24
ATOM     24  C   UNL     1       3.337   7.434   6.803  1.00  0.00     0.261 C 
BRANCH  24  25
ATOM     25  O   UNL     1       1.924   7.223   6.643  1.00  0.00    -0.460 OA
BRANCH  25  26
ATOM     26  C   UNL     1       1.164   8.272   7.048  1.00  0.00     0.338 C 
ATOM     27  O   UNL     1       1.568   9.320   7.534  1.00  0.00    -0.246 OA
BRANCH  26  28
ATOM     28  C   UNL     1      -0.247   8.079   6.670  1.00  0.00     0.060 A 
ATOM     29  C   UNL     1      -0.854   9.093   5.917  1.00  0.00     0.016 A 
ATOM     30  C   UNL     1      -0.996   6.995   7.133  1.00  0.00     0.016 A 
ATOM     31  C   UNL     1      -2.224   9.057   5.673  1.00  0.00     0.010 A 
ATOM     32  C   UNL     1      -2.375   6.964   6.888  1.00  0.00     0.010 A 
ATOM     33  C   UNL     1      -3.002   8.015   6.192  1.00  0.00    -0.014 A 
BRANCH  33  34
ATOM     34  C   UNL     1      -4.484   8.108   6.125  1.00  0.00     0.031 A 
ATOM     35  C   UNL     1      -5.251   8.505   7.359  1.00  0.00     0.074 A 
ATOM     36  C   UNL     1      -5.134   7.892   4.967  1.00  0.00     0.049 A 
ATOM     37  N   UNL     1      -6.542   8.616   7.536  1.00  0.00    -0.248 NA
ATOM     38  C   UNL     1      -4.451   8.816   8.553  1.00  0.00     0.031 C 
ATOM     39  C   UNL     1      -4.496   7.558   3.694  1.00  0.00     0.029 A 
ATOM     40  N   UNL     1      -6.474   7.920   4.674  1.00  0.00    -0.354 N 
ATOM     41  C   UNL     1      -6.713   9.002   8.862  1.00  0.00     0.074 A 
ATOM     42  C   UNL     1      -5.392   9.066   9.451  1.00  0.00     0.031 C 
ATOM     43  C   UNL     1      -5.447   7.409   2.756  1.00  0.00     0.029 A 
ATOM     44  C   UNL     1      -6.761   7.588   3.370  1.00  0.00     0.049 A 
ATOM     45  H   UNL     1      -7.166   8.156   5.334  1.00  0.00     0.167 HD
ATOM     46  C   UNL     1      -7.864   9.284   9.522  1.00  0.00     0.034 A 
ATOM     47  C   UNL     1      -7.948   7.418   2.751  1.00  0.00     0.034 A 
ATOM     48  C   UNL     1      -9.174   9.207   8.920  1.00  0.00     0.049 A 
ATOM     49  C   UNL     1      -9.220   7.642   3.534  1.00  0.00     0.074 A 
ATOM     50  C   UNL     1     -10.403   9.485   9.493  1.00  0.00     0.029 A 
ATOM     51  N   UNL     1      -9.429   8.809   7.614  1.00  0.00    -0.354 N 
ATOM     52  N   UNL     1      -9.369   8.009   4.787  1.00  0.00    -0.248 NA
ATOM     53  C   UNL     1     -10.485   7.435   2.816  1.00  0.00     0.031 C 
ATOM     54  C   UNL     1     -11.402   9.175   8.565  1.00  0.00     0.029 A 
ATOM     55  C   UNL     1     -10.796   8.795   7.377  1.00  0.00     0.049 A 
ATOM     56  H   UNL     1      -8.741   8.571   6.952  1.00  0.00     0.167 HD
ATOM     57  C   UNL     1     -10.743   8.111   4.993  1.00  0.00     0.074 A 
ATOM     58  C   UNL     1     -11.376   7.780   3.733  1.00  0.00     0.031 C 
ATOM     59  C   UNL     1     -11.420   8.453   6.119  1.00  0.00     0.034 A 
BRANCH  46  60
ATOM     60  C   UNL     1      -7.758   9.647  10.986  1.00  0.00     0.023 A 
ATOM     61  C   UNL     1      -7.079  10.798  11.421  1.00  0.00     0.031 A 
ATOM     62  C   UNL     1      -8.329   8.813  11.964  1.00  0.00     0.131 A 
ATOM     63  C   UNL     1      -6.929  11.046  12.795  1.00  0.00     0.055 A 
ATOM     64  C   UNL     1      -8.249   9.110  13.326  1.00  0.00     0.041 A 
ATOM     65  F   UNL     1      -8.969   7.686  11.613  1.00  0.00    -0.206 F 
ATOM     66  C   UNL     1      -7.533  10.225  13.749  1.00  0.00     0.022 A 
BRANCH  63  67
ATOM     67  S   UNL     1      -5.810  12.374  13.320  1.00  0.00     0.124 S 
ATOM     68  O   UNL     1      -4.553  11.963  12.700  1.00  0.00    -0.237 OA
ATOM     69  O   UNL     1      -6.443  13.561  12.759  1.00  0.00    -0.237 OA
ATOM     70  O   UNL     1      -5.833  12.284  14.779  1.00  0.00    -0.744 OA
ENDBRANCH  63  67
ENDBRANCH  46  60
BRANCH  47  71
ATOM     71  C   UNL     1      -8.000   6.971   1.329  1.00  0.00     0.023 A 
ATOM     72  C   UNL     1      -8.584   7.771   0.334  1.00  0.00     0.031 A 
ATOM     73  C   UNL     1      -7.517   5.704   0.954  1.00  0.00     0.131 A 
ATOM     74  C   UNL     1      -8.716   7.277  -0.974  1.00  0.00     0.055 A 
ATOM     75  C   UNL     1      -7.594   5.242  -0.361  1.00  0.00     0.041 A 
ATOM     76  F   UNL     1      -6.954   4.894   1.865  1.00  0.00    -0.206 F 
ATOM     77  C   UNL     1      -8.210   6.025  -1.331  1.00  0.00     0.022 A 
BRANCH  74  78
ATOM     78  S   UNL     1      -9.650   8.255  -2.182  1.00  0.00     0.124 S 
ATOM     79  O   UNL     1     -10.947   8.375  -1.527  1.00  0.00    -0.237 OA
ATOM     80  O   UNL     1      -8.855   9.476  -2.263  1.00  0.00    -0.237 OA
ATOM     81  O   UNL     1      -9.630   7.421  -3.382  1.00  0.00    -0.744 OA
ENDBRANCH  74  78
ENDBRANCH  47  71
BRANCH  59  82
ATOM     82  C   UNL     1     -12.927   8.539   6.022  1.00  0.00     0.023 A 
ATOM     83  C   UNL     1     -13.724   7.408   5.773  1.00  0.00     0.031 A 
ATOM     84  C   UNL     1     -13.573   9.780   6.175  1.00  0.00     0.131 A 
ATOM     85  C   UNL     1     -15.113   7.550   5.625  1.00  0.00     0.055 A 
ATOM     86  C   UNL     1     -14.961   9.903   6.095  1.00  0.00     0.041 A 
ATOM     87  F   UNL     1     -12.865  10.896   6.409  1.00  0.00    -0.206 F 
ATOM     88  C   UNL     1     -15.738   8.786   5.804  1.00  0.00     0.022 A 
BRANCH  85  89
ATOM     89  S   UNL     1     -16.084   6.113   5.092  1.00  0.00     0.124 S 
ATOM     90  O   UNL     1     -15.447   5.769   3.825  1.00  0.00    -0.237 OA
ATOM     91  O   UNL     1     -15.875   5.171   6.187  1.00  0.00    -0.237 OA
ATOM     92  O   UNL     1     -17.443   6.640   4.979  1.00  0.00    -0.744 OA
ENDBRANCH  85  89
ENDBRANCH  59  82
ENDBRANCH  33  34
ENDBRANCH  26  28
ENDBRANCH  25  26
ENDBRANCH  24  25
ENDBRANCH  23  24
ENDBRANCH  22  23
ENDBRANCH   1  22
TORSDOF 21
