REMARK SMILES O=C(OCCOCCOC(=O)[C@@H]1CN(c2ncccn2)CCN1C(=O)C1CCOCC1)c1ccc(-c2c3nc(c(-c4cc(S(=O)(=O)[O-])ccc4F)c4ccc([nH]4)c(-c4cc(S(=O)(=O)[O-])ccc4F)c4nc(c(-c5cc(S(=O)(=O)[O-])ccc5F)c5ccc2[nH]5)C=C4)C=C3)cc1
REMARK SMILES IDX 5 1 4 2 3 3 2 4 1 5 32 6 33 7 94 8 34 9 93 10 35 11 36 12
REMARK SMILES IDX 37 13 87 14 38 15 92 16 86 17 88 18 39 19 91 20 85 21 84 22
REMARK SMILES IDX 40 24 72 25 52 26 71 27 53 28 56 29 70 30 89 31 54 32 55 33
REMARK SMILES IDX 69 35 90 36 57 37 41 38 42 39 50 40 43 41 49 42 51 43 48 44
REMARK SMILES IDX 44 45 45 46 46 47 47 48 73 49 74 50 82 51 75 52 81 53 83 54
REMARK SMILES IDX 80 55 76 56 77 57 78 58 79 59 58 60 59 61 67 62 60 63 66 64
REMARK SMILES IDX 68 65 65 66 61 67 62 68 63 69 64 70 6 71 7 72 8 73 9 74
REMARK SMILES IDX 10 75 11 76 12 77 13 78 23 79 14 80 22 81 21 82 24 83 25 84
REMARK SMILES IDX 26 85 27 86 31 87 28 88 30 89 29 90 15 91 16 92 20 93 17 94
REMARK SMILES IDX 19 95 18 96
REMARK H PARENT 88 23 56 34
REMARK Flexibility Score: inf
ROOT
ATOM      1  C   UNL     1       4.883  -1.419   0.028  1.00  0.00     0.202 C 
ENDROOT
BRANCH   1   2
ATOM      2  C   UNL     1       4.364  -0.860   1.360  1.00  0.00     0.261 C 
BRANCH   2   3
ATOM      3  O   UNL     1       2.977  -0.491   1.241  1.00  0.00    -0.460 OA
BRANCH   3   4
ATOM      4  C   UNL     1       2.428   0.740   1.361  1.00  0.00     0.338 C 
ATOM      5  O   UNL     1       1.250   0.817   1.717  1.00  0.00    -0.246 OA
BRANCH   4   6
ATOM      6  C   UNL     1       3.119   1.989   0.903  1.00  0.00     0.060 A 
ATOM      7  C   UNL     1       4.442   2.064   0.465  1.00  0.00     0.016 A 
ATOM      8  C   UNL     1       2.335   3.156   0.810  1.00  0.00     0.016 A 
ATOM      9  C   UNL     1       4.951   3.208  -0.124  1.00  0.00     0.010 A 
ATOM     10  C   UNL     1       2.857   4.339   0.275  1.00  0.00     0.010 A 
ATOM     11  C   UNL     1       4.170   4.354  -0.197  1.00  0.00    -0.014 A 
BRANCH  11  12
ATOM     12  C   UNL     1       4.888   5.582  -0.558  1.00  0.00     0.031 A 
ATOM     13  C   UNL     1       5.623   6.273   0.550  1.00  0.00     0.074 A 
ATOM     14  C   UNL     1       5.066   5.896  -1.851  1.00  0.00     0.049 A 
ATOM     15  N   UNL     1       6.436   7.289   0.500  1.00  0.00    -0.248 NA
ATOM     16  C   UNL     1       5.454   5.695   1.896  1.00  0.00     0.031 C 
ATOM     17  C   UNL     1       4.522   5.140  -2.982  1.00  0.00     0.029 A 
ATOM     18  N   UNL     1       5.792   6.897  -2.434  1.00  0.00    -0.354 N 
ATOM     19  C   UNL     1       6.888   7.464   1.802  1.00  0.00     0.074 A 
ATOM     20  C   UNL     1       6.258   6.453   2.619  1.00  0.00     0.031 C 
ATOM     21  C   UNL     1       4.941   5.707  -4.127  1.00  0.00     0.029 A 
ATOM     22  C   UNL     1       5.736   6.889  -3.809  1.00  0.00     0.049 A 
ATOM     23  H   UNL     1       6.306   7.560  -1.919  1.00  0.00     0.167 HD
ATOM     24  C   UNL     1       7.742   8.404   2.269  1.00  0.00     0.034 A 
ATOM     25  C   UNL     1       6.250   7.770  -4.691  1.00  0.00     0.034 A 
ATOM     26  C   UNL     1       8.269   9.445   1.427  1.00  0.00     0.049 A 
ATOM     27  C   UNL     1       7.048   8.921  -4.125  1.00  0.00     0.074 A 
ATOM     28  C   UNL     1       8.998  10.564   1.776  1.00  0.00     0.029 A 
ATOM     29  N   UNL     1       8.087   9.498   0.047  1.00  0.00    -0.354 N 
ATOM     30  N   UNL     1       7.393   9.151  -2.876  1.00  0.00    -0.248 NA
ATOM     31  C   UNL     1       7.516   9.935  -5.075  1.00  0.00     0.031 C 
ATOM     32  C   UNL     1       9.200  11.325   0.618  1.00  0.00     0.029 A 
ATOM     33  C   UNL     1       8.664  10.645  -0.467  1.00  0.00     0.049 A 
ATOM     34  H   UNL     1       7.617   8.817  -0.486  1.00  0.00     0.167 HD
ATOM     35  C   UNL     1       8.128  10.331  -2.892  1.00  0.00     0.074 A 
ATOM     36  C   UNL     1       8.197  10.749  -4.281  1.00  0.00     0.031 C 
ATOM     37  C   UNL     1       8.691  11.018  -1.863  1.00  0.00     0.034 A 
BRANCH  24  38
ATOM     38  C   UNL     1       7.995   8.395   3.755  1.00  0.00     0.023 A 
ATOM     39  C   UNL     1       8.662   7.328   4.386  1.00  0.00     0.031 A 
ATOM     40  C   UNL     1       7.420   9.387   4.567  1.00  0.00     0.131 A 
ATOM     41  C   UNL     1       8.658   7.234   5.788  1.00  0.00     0.055 A 
ATOM     42  C   UNL     1       7.489   9.328   5.960  1.00  0.00     0.041 A 
ATOM     43  F   UNL     1       6.734  10.404   4.022  1.00  0.00    -0.206 F 
ATOM     44  C   UNL     1       8.094   8.238   6.579  1.00  0.00     0.022 A 
BRANCH  41  45
ATOM     45  S   UNL     1       9.238   5.696   6.560  1.00  0.00     0.124 S 
ATOM     46  O   UNL     1       8.317   4.714   5.992  1.00  0.00    -0.237 OA
ATOM     47  O   UNL     1      10.620   5.613   6.104  1.00  0.00    -0.237 OA
ATOM     48  O   UNL     1       9.067   5.944   7.990  1.00  0.00    -0.744 OA
ENDBRANCH  41  45
ENDBRANCH  24  38
BRANCH  25  49
ATOM     49  C   UNL     1       5.956   7.658  -6.151  1.00  0.00     0.023 A 
ATOM     50  C   UNL     1       6.976   7.546  -7.110  1.00  0.00     0.031 A 
ATOM     51  C   UNL     1       4.628   7.720  -6.619  1.00  0.00     0.131 A 
ATOM     52  C   UNL     1       6.656   7.535  -8.480  1.00  0.00     0.055 A 
ATOM     53  C   UNL     1       4.311   7.654  -7.977  1.00  0.00     0.041 A 
ATOM     54  F   UNL     1       3.607   7.842  -5.754  1.00  0.00    -0.206 F 
ATOM     55  C   UNL     1       5.330   7.574  -8.918  1.00  0.00     0.022 A 
BRANCH  52  56
ATOM     56  S   UNL     1       8.004   7.561  -9.696  1.00  0.00     0.124 S 
ATOM     57  O   UNL     1       8.740   8.755  -9.300  1.00  0.00    -0.237 OA
ATOM     58  O   UNL     1       8.665   6.285  -9.443  1.00  0.00    -0.237 OA
ATOM     59  O   UNL     1       7.305   7.655 -10.977  1.00  0.00    -0.744 OA
ENDBRANCH  52  56
ENDBRANCH  25  49
BRANCH  37  60
ATOM     60  C   UNL     1       9.446  12.268  -2.227  1.00  0.00     0.023 A 
ATOM     61  C   UNL     1       8.782  13.415  -2.692  1.00  0.00     0.031 A 
ATOM     62  C   UNL     1      10.844  12.309  -2.096  1.00  0.00     0.131 A 
ATOM     63  C   UNL     1       9.525  14.544  -3.059  1.00  0.00     0.055 A 
ATOM     64  C   UNL     1      11.573  13.456  -2.409  1.00  0.00     0.041 A 
ATOM     65  F   UNL     1      11.521  11.238  -1.652  1.00  0.00    -0.206 F 
ATOM     66  C   UNL     1      10.914  14.578  -2.904  1.00  0.00     0.022 A 
BRANCH  63  67
ATOM     67  S   UNL     1       8.658  15.945  -3.816  1.00  0.00     0.124 S 
ATOM     68  O   UNL     1       8.070  15.332  -5.002  1.00  0.00    -0.237 OA
ATOM     69  O   UNL     1       7.720  16.335  -2.768  1.00  0.00    -0.237 OA
ATOM     70  O   UNL     1       9.727  16.907  -4.079  1.00  0.00    -0.744 OA
ENDBRANCH  63  67
ENDBRANCH  37  60
ENDBRANCH  11  12
ENDBRANCH   4   6
ENDBRANCH   3   4
ENDBRANCH   2   3
ENDBRANCH   1   2
BRANCH   1  71
ATOM     71  O   UNL     1       5.040  -0.489  -1.050  1.00  0.00    -0.374 OA
BRANCH  71  72
ATOM     72  C   UNL     1       3.841  -0.066  -1.720  1.00  0.00     0.202 C 
BRANCH  72  73
ATOM     73  C   UNL     1       3.961  -0.318  -3.213  1.00  0.00     0.261 C 
BRANCH  73  74
ATOM     74  O   UNL     1       3.731  -1.720  -3.344  1.00  0.00    -0.462 OA
BRANCH  74  75
ATOM     75  C   UNL     1       4.784  -2.465  -3.721  1.00  0.00     0.330 C 
ATOM     76  O   UNL     1       5.677  -2.070  -4.458  1.00  0.00    -0.250 OA
BRANCH  75  77
ATOM     77  C   UNL     1       4.777  -3.770  -2.911  1.00  0.00     0.214 C 
ATOM     78  C   UNL     1       6.286  -4.172  -2.995  1.00  0.00     0.157 C 
ATOM     79  N   UNL     1       3.793  -4.901  -3.147  1.00  0.00    -0.325 N 
ATOM     80  N   UNL     1       6.553  -5.457  -2.360  1.00  0.00    -0.336 N 
ATOM     81  C   UNL     1       4.307  -6.235  -2.728  1.00  0.00     0.142 C 
ATOM     82  C   UNL     1       5.792  -6.535  -2.953  1.00  0.00     0.141 C 
BRANCH  79  83
ATOM     83  C   UNL     1       2.393  -4.869  -3.021  1.00  0.00     0.226 C 
ATOM     84  O   UNL     1       1.804  -5.894  -2.627  1.00  0.00    -0.275 OA
BRANCH  83  85
ATOM     85  C   UNL     1       1.451  -3.694  -3.313  1.00  0.00     0.083 C 
ATOM     86  C   UNL     1       1.570  -3.008  -4.670  1.00  0.00     0.042 C 
ATOM     87  C   UNL     1       1.239  -2.807  -2.086  1.00  0.00     0.042 C 
ATOM     88  C   UNL     1       0.810  -1.683  -4.737  1.00  0.00     0.161 C 
ATOM     89  C   UNL     1       0.417  -1.569  -2.409  1.00  0.00     0.161 C 
ATOM     90  O   UNL     1       0.942  -0.905  -3.551  1.00  0.00    -0.381 OA
ENDBRANCH  83  85
ENDBRANCH  79  83
BRANCH  80  91
ATOM     91  C   UNL     1       7.900  -5.643  -2.122  1.00  0.00     0.225 A 
ATOM     92  N   UNL     1       8.598  -6.511  -2.873  1.00  0.00    -0.221 NA
ATOM     93  N   UNL     1       8.459  -4.874  -1.172  1.00  0.00    -0.221 NA
ATOM     94  C   UNL     1       9.931  -6.550  -2.676  1.00  0.00     0.117 A 
ATOM     95  C   UNL     1       9.787  -4.975  -0.987  1.00  0.00     0.117 A 
ATOM     96  C   UNL     1      10.588  -5.798  -1.734  1.00  0.00     0.040 A 
ENDBRANCH  80  91
ENDBRANCH  75  77
ENDBRANCH  74  75
ENDBRANCH  73  74
ENDBRANCH  72  73
ENDBRANCH  71  72
ENDBRANCH   1  71
TORSDOF 20
