REMARK SMILES C/C=C/c1cncc(-c2ccc([C@@H](C)C(=O)OCCOCCOC(=O)c3ccc(-c4c5nc(c(-c6cc(S(=O)(=O)[O-])ccc6F)c6ccc([nH]6)c(-c6cc(S(=O)(=O)[O-])ccc6F)c6nc(c(-c7cc(S(=O)(=O)[O-])ccc7F)c7ccc4[nH]7)C=C6)C=C5)cc3)cc2)c1
REMARK SMILES IDX 20 1 19 2 18 3 17 4 15 5 16 6 13 7 14 8 12 9 9 10 10 11
REMARK SMILES IDX 90 12 11 13 89 14 8 15 4 16 5 17 91 18 6 19 7 20 3 21 1 22
REMARK SMILES IDX 2 23 21 24 22 25 23 26 24 27 25 28 26 29 27 30 88 31 28 32
REMARK SMILES IDX 87 33 29 34 30 35 31 36 81 37 32 38 86 39 80 40 82 41 33 42
REMARK SMILES IDX 85 43 79 44 78 45 34 47 66 48 46 49 65 50 47 51 50 52 64 53
REMARK SMILES IDX 83 54 48 55 49 56 63 58 84 59 51 60 35 61 36 62 44 63 37 64
REMARK SMILES IDX 43 65 45 66 42 67 38 68 39 69 40 70 41 71 67 72 68 73 76 74
REMARK SMILES IDX 69 75 75 76 77 77 74 78 70 79 71 80 72 81 73 82 52 83 53 84
REMARK SMILES IDX 61 85 54 86 60 87 62 88 59 89 55 90 56 91 57 92 58 93
REMARK H PARENT 82 46 50 57
REMARK Flexibility Score: inf
ROOT
ATOM      1  O   UNL     1       4.266   7.562   6.961  1.00  0.00    -0.374 OA
ENDROOT
BRANCH   1   2
ATOM      2  C   UNL     1       3.190   8.007   7.789  1.00  0.00     0.202 C 
BRANCH   2   3
ATOM      3  C   UNL     1       2.688   9.429   7.529  1.00  0.00     0.261 C 
BRANCH   3   4
ATOM      4  O   UNL     1       2.056   9.531   6.239  1.00  0.00    -0.463 OA
BRANCH   4   5
ATOM      5  C   UNL     1       2.668  10.336   5.335  1.00  0.00     0.313 C 
ATOM      6  O   UNL     1       3.626  11.063   5.585  1.00  0.00    -0.252 OA
BRANCH   5   7
ATOM      7  C   UNL     1       2.036  10.300   3.953  1.00  0.00     0.126 C 
ATOM      8  C   UNL     1       1.064  11.470   3.817  1.00  0.00     0.025 C 
BRANCH   7   9
ATOM      9  C   UNL     1       1.417   8.988   3.477  1.00  0.00    -0.034 A 
ATOM     10  C   UNL     1       0.136   6.710   2.328  1.00  0.00    -0.017 A 
ATOM     11  C   UNL     1      -0.372   7.333   3.480  1.00  0.00     0.009 A 
ATOM     12  C   UNL     1       1.340   7.204   1.806  1.00  0.00     0.009 A 
ATOM     13  C   UNL     1       0.254   8.454   4.044  1.00  0.00     0.005 A 
ATOM     14  C   UNL     1       1.969   8.323   2.368  1.00  0.00     0.005 A 
BRANCH  10  15
ATOM     15  C   UNL     1      -0.620   5.655   1.631  1.00  0.00     0.001 A 
ATOM     16  C   UNL     1      -0.808   3.498   0.508  1.00  0.00    -0.007 A 
ATOM     17  C   UNL     1      -2.126   3.836   0.207  1.00  0.00     0.119 A 
ATOM     18  C   UNL     1      -0.051   4.435   1.226  1.00  0.00     0.020 A 
ATOM     19  N   UNL     1      -2.720   4.993   0.570  1.00  0.00    -0.263 NA
ATOM     20  C   UNL     1      -1.956   5.862   1.272  1.00  0.00     0.119 A 
BRANCH  16  21
ATOM     21  C   UNL     1      -0.270   2.229   0.003  1.00  0.00     0.005 C 
ATOM     22  C   UNL     1       0.997   0.085   0.188  1.00  0.00     0.035 C 
ATOM     23  C   UNL     1       0.515   1.401   0.710  1.00  0.00    -0.030 C 
ENDBRANCH  16  21
ENDBRANCH  10  15
ENDBRANCH   7   9
ENDBRANCH   5   7
ENDBRANCH   4   5
ENDBRANCH   3   4
ENDBRANCH   2   3
ENDBRANCH   1   2
BRANCH   1  24
ATOM     24  C   UNL     1       3.944   7.165   5.628  1.00  0.00     0.202 C 
BRANCH  24  25
ATOM     25  C   UNL     1       3.289   5.790   5.453  1.00  0.00     0.261 C 
BRANCH  25  26
ATOM     26  O   UNL     1       1.974   5.727   6.032  1.00  0.00    -0.460 OA
BRANCH  26  27
ATOM     27  C   UNL     1       1.875   4.935   7.125  1.00  0.00     0.338 C 
ATOM     28  O   UNL     1       2.761   4.239   7.608  1.00  0.00    -0.246 OA
BRANCH  27  29
ATOM     29  C   UNL     1       0.583   5.150   7.802  1.00  0.00     0.060 A 
ATOM     30  C   UNL     1       0.613   5.399   9.180  1.00  0.00     0.016 A 
ATOM     31  C   UNL     1      -0.637   5.034   7.130  1.00  0.00     0.016 A 
ATOM     32  C   UNL     1      -0.575   5.477   9.903  1.00  0.00     0.010 A 
ATOM     33  C   UNL     1      -1.830   5.105   7.861  1.00  0.00     0.010 A 
ATOM     34  C   UNL     1      -1.803   5.288   9.256  1.00  0.00    -0.014 A 
BRANCH  34  35
ATOM     35  C   UNL     1      -3.032   5.120  10.073  1.00  0.00     0.031 A 
ATOM     36  C   UNL     1      -3.538   3.729  10.349  1.00  0.00     0.074 A 
ATOM     37  C   UNL     1      -3.658   6.185  10.607  1.00  0.00     0.049 A 
ATOM     38  N   UNL     1      -4.587   3.344  11.028  1.00  0.00    -0.248 NA
ATOM     39  C   UNL     1      -2.750   2.625   9.780  1.00  0.00     0.031 C 
ATOM     40  C   UNL     1      -3.235   7.576  10.453  1.00  0.00     0.029 A 
ATOM     41  N   UNL     1      -4.784   6.261  11.388  1.00  0.00    -0.354 N 
ATOM     42  C   UNL     1      -4.588   1.954  10.969  1.00  0.00     0.074 A 
ATOM     43  C   UNL     1      -3.456   1.569  10.153  1.00  0.00     0.031 C 
ATOM     44  C   UNL     1      -4.096   8.369  11.114  1.00  0.00     0.029 A 
ATOM     45  C   UNL     1      -5.149   7.547  11.708  1.00  0.00     0.049 A 
ATOM     46  H   UNL     1      -5.283   5.468  11.692  1.00  0.00     0.167 HD
ATOM     47  C   UNL     1      -5.447   1.079  11.549  1.00  0.00     0.034 A 
ATOM     48  C   UNL     1      -6.222   8.009  12.383  1.00  0.00     0.034 A 
ATOM     49  C   UNL     1      -6.580   1.478  12.350  1.00  0.00     0.049 A 
ATOM     50  C   UNL     1      -7.216   7.021  12.945  1.00  0.00     0.074 A 
ATOM     51  C   UNL     1      -7.507   0.676  12.993  1.00  0.00     0.029 A 
ATOM     52  N   UNL     1      -6.949   2.792  12.607  1.00  0.00    -0.354 N 
ATOM     53  N   UNL     1      -7.201   5.708  12.889  1.00  0.00    -0.248 NA
ATOM     54  C   UNL     1      -8.366   7.577  13.671  1.00  0.00     0.031 C 
ATOM     55  C   UNL     1      -8.474   1.502  13.577  1.00  0.00     0.029 A 
ATOM     56  C   UNL     1      -8.108   2.822  13.368  1.00  0.00     0.049 A 
ATOM     57  H   UNL     1      -6.459   3.587  12.295  1.00  0.00     0.167 HD
ATOM     58  C   UNL     1      -8.323   5.284  13.598  1.00  0.00     0.074 A 
ATOM     59  C   UNL     1      -8.983   6.479  14.083  1.00  0.00     0.031 C 
ATOM     60  C   UNL     1      -8.764   4.022  13.835  1.00  0.00     0.034 A 
BRANCH  47  61
ATOM     61  C   UNL     1      -5.220  -0.390  11.288  1.00  0.00     0.023 A 
ATOM     62  C   UNL     1      -4.065  -1.055  11.738  1.00  0.00     0.031 A 
ATOM     63  C   UNL     1      -6.159  -1.131  10.548  1.00  0.00     0.131 A 
ATOM     64  C   UNL     1      -3.847  -2.395  11.385  1.00  0.00     0.055 A 
ATOM     65  C   UNL     1      -5.972  -2.486  10.266  1.00  0.00     0.041 A 
ATOM     66  F   UNL     1      -7.269  -0.545  10.072  1.00  0.00    -0.206 F 
ATOM     67  C   UNL     1      -4.804  -3.122  10.673  1.00  0.00     0.022 A 
BRANCH  64  68
ATOM     68  S   UNL     1      -2.231  -3.137  11.748  1.00  0.00     0.124 S 
ATOM     69  O   UNL     1      -1.327  -2.244  11.027  1.00  0.00    -0.237 OA
ATOM     70  O   UNL     1      -2.172  -3.068  13.203  1.00  0.00    -0.237 OA
ATOM     71  O   UNL     1      -2.339  -4.484  11.191  1.00  0.00    -0.744 OA
ENDBRANCH  64  68
ENDBRANCH  47  61
BRANCH  48  72
ATOM     72  C   UNL     1      -6.446   9.476  12.532  1.00  0.00     0.023 A 
ATOM     73  C   UNL     1      -6.449  10.089  13.795  1.00  0.00     0.031 A 
ATOM     74  C   UNL     1      -6.721  10.277  11.409  1.00  0.00     0.131 A 
ATOM     75  C   UNL     1      -6.766  11.452  13.909  1.00  0.00     0.055 A 
ATOM     76  C   UNL     1      -6.984  11.643  11.523  1.00  0.00     0.041 A 
ATOM     77  F   UNL     1      -6.732   9.741  10.178  1.00  0.00    -0.206 F 
ATOM     78  C   UNL     1      -7.020  12.236  12.781  1.00  0.00     0.022 A 
BRANCH  75  79
ATOM     79  S   UNL     1      -6.923  12.173  15.567  1.00  0.00     0.124 S 
ATOM     80  O   UNL     1      -7.968  11.343  16.154  1.00  0.00    -0.237 OA
ATOM     81  O   UNL     1      -5.579  11.990  16.104  1.00  0.00    -0.237 OA
ATOM     82  O   UNL     1      -7.301  13.559  15.300  1.00  0.00    -0.744 OA
ENDBRANCH  75  79
ENDBRANCH  48  72
BRANCH  60  83
ATOM     83  C   UNL     1      -9.996   3.874  14.696  1.00  0.00     0.023 A 
ATOM     84  C   UNL     1     -11.261   4.310  14.264  1.00  0.00     0.031 A 
ATOM     85  C   UNL     1      -9.897   3.296  15.975  1.00  0.00     0.131 A 
ATOM     86  C   UNL     1     -12.366   4.212  15.124  1.00  0.00     0.055 A 
ATOM     87  C   UNL     1     -11.011   3.147  16.803  1.00  0.00     0.041 A 
ATOM     88  F   UNL     1      -8.714   2.864  16.440  1.00  0.00    -0.206 F 
ATOM     89  C   UNL     1     -12.252   3.618  16.384  1.00  0.00     0.022 A 
BRANCH  86  90
ATOM     90  S   UNL     1     -13.940   4.953  14.612  1.00  0.00     0.124 S 
ATOM     91  O   UNL     1     -13.565   6.347  14.400  1.00  0.00    -0.237 OA
ATOM     92  O   UNL     1     -14.267   4.192  13.411  1.00  0.00    -0.237 OA
ATOM     93  O   UNL     1     -14.820   4.715  15.754  1.00  0.00    -0.744 OA
ENDBRANCH  86  90
ENDBRANCH  60  83
ENDBRANCH  34  35
ENDBRANCH  27  29
ENDBRANCH  26  27
ENDBRANCH  25  26
ENDBRANCH  24  25
ENDBRANCH   1  24
TORSDOF 20
