REMARK SMILES O=C(OCCOCCOC(=O)c1cc(=O)[nH]c2c(Br)cccc12)c1ccc(-c2c3nc(c(-c4cc(S(=O)(=O)[O-])ccc4F)c4ccc([nH]4)c(-c4cc(S(=O)(=O)[O-])ccc4F)c4nc(c(-c5cc(S(=O)(=O)[O-])ccc5F)c5ccc2[nH]5)C=C4)C=C3)cc1
REMARK SMILES IDX 4 1 3 2 2 3 1 4 24 5 25 6 86 7 26 8 85 9 27 10 28 11 29 12
REMARK SMILES IDX 79 13 30 14 84 15 78 16 80 17 31 18 83 19 77 20 76 21 32 23
REMARK SMILES IDX 64 24 44 25 63 26 45 27 48 28 62 29 81 30 46 31 47 32 61 34
REMARK SMILES IDX 82 35 49 36 33 37 34 38 42 39 35 40 41 41 43 42 40 43 36 44
REMARK SMILES IDX 37 45 38 46 39 47 65 48 66 49 74 50 67 51 73 52 75 53 72 54
REMARK SMILES IDX 68 55 69 56 70 57 71 58 50 59 51 60 59 61 52 62 58 63 60 64
REMARK SMILES IDX 57 65 53 66 54 67 55 68 56 69 5 70 6 71 7 72 8 73 9 74 10 75
REMARK SMILES IDX 11 76 12 77 13 78 23 79 14 80 17 81 22 82 15 83 16 84 18 85
REMARK SMILES IDX 21 86 19 88 20 89
REMARK H PARENT 80 22 48 33 16 87
REMARK Flexibility Score: inf
ROOT
ATOM      1  C   UNL     1       3.827   1.001   0.874  1.00  0.00     0.261 C 
ENDROOT
BRANCH   1   2
ATOM      2  O   UNL     1       2.479   1.214   0.439  1.00  0.00    -0.460 OA
BRANCH   2   3
ATOM      3  C   UNL     1       1.941   1.026  -0.788  1.00  0.00     0.338 C 
ATOM      4  O   UNL     1       0.728   1.219  -0.897  1.00  0.00    -0.246 OA
BRANCH   3   5
ATOM      5  C   UNL     1       2.687   0.598  -2.025  1.00  0.00     0.060 A 
ATOM      6  C   UNL     1       1.961   0.660  -3.232  1.00  0.00     0.016 A 
ATOM      7  C   UNL     1       3.988   0.091  -2.092  1.00  0.00     0.016 A 
ATOM      8  C   UNL     1       2.501   0.204  -4.439  1.00  0.00     0.010 A 
ATOM      9  C   UNL     1       4.536  -0.369  -3.289  1.00  0.00     0.010 A 
ATOM     10  C   UNL     1       3.792  -0.324  -4.465  1.00  0.00    -0.014 A 
BRANCH  10  11
ATOM     11  C   UNL     1       4.447  -0.723  -5.723  1.00  0.00     0.031 A 
ATOM     12  C   UNL     1       4.563  -2.164  -6.105  1.00  0.00     0.074 A 
ATOM     13  C   UNL     1       5.050   0.246  -6.433  1.00  0.00     0.049 A 
ATOM     14  N   UNL     1       5.085  -2.683  -7.183  1.00  0.00    -0.248 NA
ATOM     15  C   UNL     1       4.045  -3.154  -5.147  1.00  0.00     0.031 C 
ATOM     16  C   UNL     1       5.070   1.660  -6.051  1.00  0.00     0.029 A 
ATOM     17  N   UNL     1       5.788   0.196  -7.583  1.00  0.00    -0.354 N 
ATOM     18  C   UNL     1       4.936  -4.059  -7.052  1.00  0.00     0.074 A 
ATOM     19  C   UNL     1       4.330  -4.297  -5.760  1.00  0.00     0.031 C 
ATOM     20  C   UNL     1       5.800   2.341  -6.944  1.00  0.00     0.029 A 
ATOM     21  C   UNL     1       6.297   1.416  -7.957  1.00  0.00     0.049 A 
ATOM     22  H   UNL     1       5.940  -0.633  -8.093  1.00  0.00     0.167 HD
ATOM     23  C   UNL     1       5.261  -5.019  -7.951  1.00  0.00     0.034 A 
ATOM     24  C   UNL     1       7.069   1.751  -9.009  1.00  0.00     0.034 A 
ATOM     25  C   UNL     1       5.893  -4.724  -9.214  1.00  0.00     0.049 A 
ATOM     26  C   UNL     1       7.386   0.680 -10.016  1.00  0.00     0.074 A 
ATOM     27  C   UNL     1       6.191  -5.592 -10.248  1.00  0.00     0.029 A 
ATOM     28  N   UNL     1       6.338  -3.466  -9.607  1.00  0.00    -0.354 N 
ATOM     29  N   UNL     1       7.091  -0.600  -9.969  1.00  0.00    -0.248 NA
ATOM     30  C   UNL     1       8.097   1.088 -11.233  1.00  0.00     0.031 C 
ATOM     31  C   UNL     1       6.873  -4.875 -11.233  1.00  0.00     0.029 A 
ATOM     32  C   UNL     1       6.936  -3.542 -10.853  1.00  0.00     0.049 A 
ATOM     33  H   UNL     1       6.242  -2.643  -9.076  1.00  0.00     0.167 HD
ATOM     34  C   UNL     1       7.558  -1.147 -11.157  1.00  0.00     0.074 A 
ATOM     35  C   UNL     1       8.138  -0.053 -11.912  1.00  0.00     0.031 C 
ATOM     36  C   UNL     1       7.511  -2.435 -11.584  1.00  0.00     0.034 A 
BRANCH  23  37
ATOM     37  C   UNL     1       4.912  -6.458  -7.650  1.00  0.00     0.023 A 
ATOM     38  C   UNL     1       5.915  -7.446  -7.610  1.00  0.00     0.031 A 
ATOM     39  C   UNL     1       3.571  -6.876  -7.553  1.00  0.00     0.131 A 
ATOM     40  C   UNL     1       5.561  -8.799  -7.511  1.00  0.00     0.055 A 
ATOM     41  C   UNL     1       3.225  -8.222  -7.414  1.00  0.00     0.041 A 
ATOM     42  F   UNL     1       2.572  -5.979  -7.596  1.00  0.00    -0.206 F 
ATOM     43  C   UNL     1       4.222  -9.191  -7.405  1.00  0.00     0.022 A 
BRANCH  40  44
ATOM     44  S   UNL     1       6.813 -10.111  -7.580  1.00  0.00     0.124 S 
ATOM     45  O   UNL     1       6.575 -10.820  -6.324  1.00  0.00    -0.237 OA
ATOM     46  O   UNL     1       6.427 -10.837  -8.787  1.00  0.00    -0.237 OA
ATOM     47  O   UNL     1       8.077  -9.387  -7.654  1.00  0.00    -0.744 OA
ENDBRANCH  40  44
ENDBRANCH  23  37
BRANCH  24  48
ATOM     48  C   UNL     1       7.447   3.183  -9.178  1.00  0.00     0.023 A 
ATOM     49  C   UNL     1       8.253   3.833  -8.224  1.00  0.00     0.031 A 
ATOM     50  C   UNL     1       6.841   3.963 -10.175  1.00  0.00     0.131 A 
ATOM     51  C   UNL     1       8.363   5.230  -8.241  1.00  0.00     0.055 A 
ATOM     52  C   UNL     1       7.007   5.348 -10.228  1.00  0.00     0.041 A 
ATOM     53  F   UNL     1       6.041   3.391 -11.088  1.00  0.00    -0.206 F 
ATOM     54  C   UNL     1       7.754   5.990  -9.245  1.00  0.00     0.022 A 
BRANCH  51  55
ATOM     55  S   UNL     1       9.152   6.120  -6.869  1.00  0.00     0.124 S 
ATOM     56  O   UNL     1      10.264   6.787  -7.538  1.00  0.00    -0.237 OA
ATOM     57  O   UNL     1       8.072   6.995  -6.417  1.00  0.00    -0.237 OA
ATOM     58  O   UNL     1       9.519   5.061  -5.935  1.00  0.00    -0.744 OA
ENDBRANCH  51  55
ENDBRANCH  24  48
BRANCH  36  59
ATOM     59  C   UNL     1       8.115  -2.761 -12.927  1.00  0.00     0.023 A 
ATOM     60  C   UNL     1       7.298  -3.253 -13.963  1.00  0.00     0.031 A 
ATOM     61  C   UNL     1       9.506  -2.748 -13.120  1.00  0.00     0.131 A 
ATOM     62  C   UNL     1       7.884  -3.757 -15.129  1.00  0.00     0.055 A 
ATOM     63  C   UNL     1      10.083  -3.207 -14.304  1.00  0.00     0.041 A 
ATOM     64  F   UNL     1      10.324  -2.297 -12.155  1.00  0.00    -0.206 F 
ATOM     65  C   UNL     1       9.272  -3.730 -15.308  1.00  0.00     0.022 A 
BRANCH  62  66
ATOM     66  S   UNL     1       6.879  -4.551 -16.413  1.00  0.00     0.124 S 
ATOM     67  O   UNL     1       7.166  -3.718 -17.578  1.00  0.00    -0.237 OA
ATOM     68  O   UNL     1       7.443  -5.897 -16.454  1.00  0.00    -0.237 OA
ATOM     69  O   UNL     1       5.516  -4.456 -15.902  1.00  0.00    -0.744 OA
ENDBRANCH  62  66
ENDBRANCH  36  59
ENDBRANCH  10  11
ENDBRANCH   3   5
ENDBRANCH   2   3
ENDBRANCH   1   2
BRANCH   1  70
ATOM     70  C   UNL     1       4.036  -0.444   1.327  1.00  0.00     0.202 C 
BRANCH  70  71
ATOM     71  O   UNL     1       3.679  -1.399   0.332  1.00  0.00    -0.374 OA
BRANCH  71  72
ATOM     72  C   UNL     1       2.468  -2.117   0.575  1.00  0.00     0.202 C 
BRANCH  72  73
ATOM     73  C   UNL     1       2.792  -3.550   0.999  1.00  0.00     0.261 C 
BRANCH  73  74
ATOM     74  O   UNL     1       3.413  -3.531   2.297  1.00  0.00    -0.460 OA
BRANCH  74  75
ATOM     75  C   UNL     1       4.772  -3.580   2.319  1.00  0.00     0.339 C 
ATOM     76  O   UNL     1       5.511  -3.802   1.376  1.00  0.00    -0.246 OA
BRANCH  75  77
ATOM     77  C   UNL     1       5.237  -3.170   3.671  1.00  0.00     0.074 A 
ATOM     78  C   UNL     1       4.594  -3.719   4.715  1.00  0.00     0.088 A 
ATOM     79  C   UNL     1       6.277  -2.143   3.898  1.00  0.00     0.014 A 
ATOM     80  C   UNL     1       4.857  -3.279   6.096  1.00  0.00     0.249 A 
ATOM     81  C   UNL     1       6.454  -1.655   5.204  1.00  0.00     0.063 A 
ATOM     82  C   UNL     1       7.053  -1.586   2.871  1.00  0.00     0.011 A 
ATOM     83  O   UNL     1       4.275  -3.797   7.041  1.00  0.00    -0.270 OA
ATOM     84  N   UNL     1       5.737  -2.251   6.254  1.00  0.00    -0.321 N 
ATOM     85  C   UNL     1       7.336  -0.593   5.456  1.00  0.00     0.042 A 
ATOM     86  C   UNL     1       7.923  -0.520   3.121  1.00  0.00     0.002 A 
ATOM     87  H   UNL     1       5.881  -1.903   7.164  1.00  0.00     0.170 HD
ATOM     88  Br  UNL     1       7.570   0.108   7.205  1.00  0.00    -0.049 Br
ATOM     89  C   UNL     1       8.056  -0.014   4.412  1.00  0.00     0.018 A 
ENDBRANCH  75  77
ENDBRANCH  74  75
ENDBRANCH  73  74
ENDBRANCH  72  73
ENDBRANCH  71  72
ENDBRANCH  70  71
ENDBRANCH   1  70
TORSDOF 17
