REMARK SMILES NS(=O)(=O)c1ccc(-n2ccnc2-c2ccc(O)c(C(=O)OCCOCCOC(=O)c3ccc(-c4c5nc(c(-c6cc(S(=O)(=O)[O-])ccc6F)c6ccc([nH]6)c(-c6cc(S(=O)(=O)[O-])ccc6F)c6nc(c(-c7cc(S(=O)(=O)[O-])ccc7F)c7ccc4[nH]7)C=C6)C=C5)cc3)c2)cc1
REMARK SMILES IDX 24 1 23 2 22 3 20 4 21 5 19 6 14 7 15 8 94 9 16 10 17 11
REMARK SMILES IDX 13 12 9 13 10 14 11 15 12 16 8 17 5 18 6 19 96 20 7 21 95 22
REMARK SMILES IDX 2 23 3 24 4 25 1 26 18 29 25 31 26 32 27 33 28 34 29 35
REMARK SMILES IDX 30 36 31 37 32 38 93 39 33 40 92 41 34 42 35 43 36 44 86 45
REMARK SMILES IDX 37 46 91 47 85 48 87 49 38 50 90 51 84 52 83 53 39 55 71 56
REMARK SMILES IDX 51 57 70 58 52 59 55 60 69 61 88 62 53 63 54 64 68 66 89 67
REMARK SMILES IDX 56 68 40 69 41 70 49 71 42 72 48 73 50 74 47 75 43 76 44 77
REMARK SMILES IDX 45 78 46 79 72 80 73 81 81 82 74 83 80 84 82 85 79 86 75 87
REMARK SMILES IDX 76 88 77 89 78 90 57 91 58 92 66 93 59 94 65 95 67 96 64 97
REMARK SMILES IDX 60 98 61 99 62 100 63 101
REMARK H PARENT 1 27 1 28 18 30 87 54 55 65
REMARK Flexibility Score: inf
ROOT
ATOM      1  C   UNL     1      -4.467   1.415  -6.680  1.00  0.00     0.202 C 
ENDROOT
BRANCH   1   2
ATOM      2  C   UNL     1      -3.340   1.060  -5.709  1.00  0.00     0.261 C 
BRANCH   2   3
ATOM      3  O   UNL     1      -2.126   1.774  -5.991  1.00  0.00    -0.460 OA
BRANCH   3   4
ATOM      4  C   UNL     1      -1.183   1.051  -6.637  1.00  0.00     0.342 C 
ATOM      5  O   UNL     1      -1.238  -0.133  -6.939  1.00  0.00    -0.246 OA
BRANCH   4   6
ATOM      6  C   UNL     1      -0.111   1.924  -7.158  1.00  0.00     0.102 A 
ATOM      7  C   UNL     1       1.432   3.778  -6.865  1.00  0.00     0.019 A 
ATOM      8  C   UNL     1       2.026   3.462  -8.092  1.00  0.00     0.016 A 
ATOM      9  C   UNL     1       0.307   3.048  -6.446  1.00  0.00     0.031 A 
ATOM     10  C   UNL     1       1.556   2.386  -8.851  1.00  0.00     0.048 A 
ATOM     11  C   UNL     1       0.513   1.601  -8.368  1.00  0.00     0.130 A 
BRANCH   7  12
ATOM     12  C   UNL     1       2.008   4.824  -6.006  1.00  0.00     0.144 A 
ATOM     13  N   UNL     1       2.107   4.743  -4.616  1.00  0.00    -0.300 N 
ATOM     14  C   UNL     1       2.414   6.003  -4.165  1.00  0.00     0.113 A 
ATOM     15  C   UNL     1       2.664   6.742  -5.295  1.00  0.00     0.132 A 
ATOM     16  N   UNL     1       2.442   5.999  -6.424  1.00  0.00    -0.236 NA
BRANCH  13  17
ATOM     17  C   UNL     1       1.877   3.600  -3.810  1.00  0.00     0.047 A 
ATOM     18  C   UNL     1       1.129   1.282  -2.481  1.00  0.00     0.082 A 
ATOM     19  C   UNL     1       2.064   1.205  -3.515  1.00  0.00     0.024 A 
ATOM     20  C   UNL     1       0.582   2.513  -2.092  1.00  0.00     0.024 A 
ATOM     21  C   UNL     1       2.437   2.368  -4.185  1.00  0.00     0.028 A 
ATOM     22  C   UNL     1       0.978   3.684  -2.742  1.00  0.00     0.028 A 
BRANCH  18  23
ATOM     23  S   UNL     1       0.595  -0.195  -1.671  1.00  0.00     0.238 S 
ATOM     24  O   UNL     1       1.299  -1.334  -2.233  1.00  0.00    -0.207 OA
ATOM     25  O   UNL     1      -0.833  -0.163  -1.520  1.00  0.00    -0.207 OA
BRANCH  23  26
ATOM     26  N   UNL     1       1.244   0.003  -0.135  1.00  0.00    -0.225 NA
ATOM     27  H   UNL     1       1.001  -0.802   0.443  1.00  0.00     0.137 HD
ATOM     28  H   UNL     1       0.867   0.851   0.287  1.00  0.00     0.137 HD
ENDBRANCH  23  26
ENDBRANCH  18  23
ENDBRANCH  13  17
ENDBRANCH   7  12
BRANCH  11  29
ATOM     29  O   UNL     1       0.133   0.538  -9.143  1.00  0.00    -0.507 OA
ATOM     30  H   UNL     1       0.581   0.361  -9.947  1.00  0.00     0.293 HD
ENDBRANCH  11  29
ENDBRANCH   4   6
ENDBRANCH   3   4
ENDBRANCH   2   3
ENDBRANCH   1   2
BRANCH   1  31
ATOM     31  O   UNL     1      -4.311   1.068  -8.056  1.00  0.00    -0.374 OA
BRANCH  31  32
ATOM     32  C   UNL     1      -3.410   1.795  -8.887  1.00  0.00     0.202 C 
BRANCH  32  33
ATOM     33  C   UNL     1      -3.719   3.238  -9.247  1.00  0.00     0.261 C 
BRANCH  33  34
ATOM     34  O   UNL     1      -3.839   4.053  -8.095  1.00  0.00    -0.460 OA
BRANCH  34  35
ATOM     35  C   UNL     1      -5.122   4.312  -7.752  1.00  0.00     0.338 C 
ATOM     36  O   UNL     1      -6.116   3.697  -8.098  1.00  0.00    -0.246 OA
BRANCH  35  37
ATOM     37  C   UNL     1      -5.145   5.574  -7.014  1.00  0.00     0.060 A 
ATOM     38  C   UNL     1      -6.408   6.144  -6.856  1.00  0.00     0.016 A 
ATOM     39  C   UNL     1      -3.959   6.308  -6.861  1.00  0.00     0.016 A 
ATOM     40  C   UNL     1      -6.487   7.513  -6.835  1.00  0.00     0.010 A 
ATOM     41  C   UNL     1      -4.042   7.676  -6.860  1.00  0.00     0.010 A 
ATOM     42  C   UNL     1      -5.305   8.255  -6.948  1.00  0.00    -0.014 A 
BRANCH  42  43
ATOM     43  C   UNL     1      -5.415   9.694  -6.984  1.00  0.00     0.031 A 
ATOM     44  C   UNL     1      -5.808  10.215  -5.659  1.00  0.00     0.074 A 
ATOM     45  C   UNL     1      -5.099  10.428  -8.066  1.00  0.00     0.049 A 
ATOM     46  N   UNL     1      -6.965  10.666  -5.312  1.00  0.00    -0.248 NA
ATOM     47  C   UNL     1      -4.912   9.931  -4.523  1.00  0.00     0.031 C 
ATOM     48  C   UNL     1      -4.490   9.990  -9.323  1.00  0.00     0.029 A 
ATOM     49  N   UNL     1      -5.183  11.773  -8.230  1.00  0.00    -0.354 N 
ATOM     50  C   UNL     1      -6.833  10.997  -3.971  1.00  0.00     0.074 A 
ATOM     51  C   UNL     1      -5.694  10.265  -3.498  1.00  0.00     0.031 C 
ATOM     52  C   UNL     1      -4.047  11.073 -10.006  1.00  0.00     0.029 A 
ATOM     53  C   UNL     1      -4.447  12.280  -9.299  1.00  0.00     0.049 A 
ATOM     54  H   UNL     1      -5.722  12.347  -7.639  1.00  0.00     0.167 HD
ATOM     55  C   UNL     1      -7.453  12.101  -3.476  1.00  0.00     0.034 A 
ATOM     56  C   UNL     1      -4.138  13.590  -9.520  1.00  0.00     0.034 A 
ATOM     57  C   UNL     1      -8.550  12.494  -4.342  1.00  0.00     0.049 A 
ATOM     58  C   UNL     1      -5.127  14.390  -8.748  1.00  0.00     0.074 A 
ATOM     59  C   UNL     1      -9.682  11.851  -4.807  1.00  0.00     0.029 A 
ATOM     60  N   UNL     1      -8.358  13.562  -5.195  1.00  0.00    -0.354 N 
ATOM     61  N   UNL     1      -6.403  14.402  -9.029  1.00  0.00    -0.248 NA
ATOM     62  C   UNL     1      -4.800  14.732  -7.369  1.00  0.00     0.031 C 
ATOM     63  C   UNL     1      -9.805  12.255  -6.170  1.00  0.00     0.029 A 
ATOM     64  C   UNL     1      -8.812  13.199  -6.440  1.00  0.00     0.049 A 
ATOM     65  H   UNL     1      -7.965  14.431  -4.954  1.00  0.00     0.167 HD
ATOM     66  C   UNL     1      -7.047  14.313  -7.803  1.00  0.00     0.074 A 
ATOM     67  C   UNL     1      -6.009  14.602  -6.811  1.00  0.00     0.031 C 
ATOM     68  C   UNL     1      -8.273  13.720  -7.686  1.00  0.00     0.034 A 
BRANCH  55  69
ATOM     69  C   UNL     1      -6.786  13.061  -2.508  1.00  0.00     0.023 A 
ATOM     70  C   UNL     1      -7.494  14.240  -2.225  1.00  0.00     0.031 A 
ATOM     71  C   UNL     1      -5.428  13.057  -2.103  1.00  0.00     0.131 A 
ATOM     72  C   UNL     1      -6.834  15.380  -1.740  1.00  0.00     0.055 A 
ATOM     73  C   UNL     1      -4.790  14.176  -1.565  1.00  0.00     0.041 A 
ATOM     74  F   UNL     1      -4.611  12.011  -2.257  1.00  0.00    -0.206 F 
ATOM     75  C   UNL     1      -5.481  15.362  -1.421  1.00  0.00     0.022 A 
BRANCH  72  76
ATOM     76  S   UNL     1      -7.746  16.940  -1.731  1.00  0.00     0.124 S 
ATOM     77  O   UNL     1      -8.207  17.009  -3.113  1.00  0.00    -0.237 OA
ATOM     78  O   UNL     1      -8.767  16.679  -0.721  1.00  0.00    -0.237 OA
ATOM     79  O   UNL     1      -6.731  17.920  -1.357  1.00  0.00    -0.744 OA
ENDBRANCH  72  76
ENDBRANCH  55  69
BRANCH  56  80
ATOM     80  C   UNL     1      -2.836  14.140 -10.015  1.00  0.00     0.023 A 
ATOM     81  C   UNL     1      -2.679  15.458 -10.509  1.00  0.00     0.031 A 
ATOM     82  C   UNL     1      -1.643  13.419  -9.774  1.00  0.00     0.131 A 
ATOM     83  C   UNL     1      -1.382  15.988 -10.742  1.00  0.00     0.055 A 
ATOM     84  C   UNL     1      -0.370  13.947 -10.004  1.00  0.00     0.041 A 
ATOM     85  F   UNL     1      -1.668  12.197  -9.221  1.00  0.00    -0.206 F 
ATOM     86  C   UNL     1      -0.234  15.238 -10.481  1.00  0.00     0.022 A 
BRANCH  83  87
ATOM     87  S   UNL     1      -1.153  17.706 -11.323  1.00  0.00     0.124 S 
ATOM     88  O   UNL     1      -1.702  17.655 -12.673  1.00  0.00    -0.237 OA
ATOM     89  O   UNL     1      -1.907  18.476 -10.342  1.00  0.00    -0.237 OA
ATOM     90  O   UNL     1       0.298  17.898 -11.262  1.00  0.00    -0.744 OA
ENDBRANCH  83  87
ENDBRANCH  56  80
BRANCH  68  91
ATOM     91  C   UNL     1      -9.054  13.415  -8.952  1.00  0.00     0.023 A 
ATOM     92  C   UNL     1      -8.608  12.594 -10.016  1.00  0.00     0.031 A 
ATOM     93  C   UNL     1     -10.373  13.898  -9.015  1.00  0.00     0.131 A 
ATOM     94  C   UNL     1      -9.475  12.298 -11.090  1.00  0.00     0.055 A 
ATOM     95  C   UNL     1     -11.234  13.583 -10.065  1.00  0.00     0.041 A 
ATOM     96  F   UNL     1     -10.866  14.662  -8.026  1.00  0.00    -0.206 F 
ATOM     97  C   UNL     1     -10.786  12.786 -11.110  1.00  0.00     0.022 A 
BRANCH  94  98
ATOM     98  S   UNL     1      -8.912  11.288 -12.501  1.00  0.00     0.124 S 
ATOM     99  O   UNL     1      -7.627  11.879 -12.852  1.00  0.00    -0.237 OA
ATOM    100  O   UNL     1      -8.865   9.945 -11.929  1.00  0.00    -0.237 OA
ATOM    101  O   UNL     1      -9.965  11.483 -13.500  1.00  0.00    -0.744 OA
ENDBRANCH  94  98
ENDBRANCH  68  91
ENDBRANCH  42  43
ENDBRANCH  35  37
ENDBRANCH  34  35
ENDBRANCH  33  34
ENDBRANCH  32  33
ENDBRANCH  31  32
ENDBRANCH   1  31
TORSDOF 22
