REMARK SMILES CC(=O)Oc1ccccc1C(=O)OCCOCCOC(=O)c1ccc(-c2c3nc(c(-c4cc(S(=O)(=O)[O-])ccc4F)c4ccc([nH]4)c(-c4cc(S(=O)(=O)[O-])ccc4F)c4nc(c(-c5cc(S(=O)(=O)[O-])ccc5F)c5ccc2[nH]5)C=C4)C=C3)cc1
REMARK SMILES IDX 17 1 16 2 15 3 14 4 13 5 11 6 12 7 10 8 5 9 6 10 7 11 9 12
REMARK SMILES IDX 8 13 4 14 2 15 1 16 3 17 18 18 19 19 20 20 21 21 22 22 23 23
REMARK SMILES IDX 84 24 24 25 83 26 25 27 26 28 27 29 77 30 28 31 82 32 76 33
REMARK SMILES IDX 78 34 29 35 81 36 75 37 74 38 30 40 62 41 42 42 61 43 43 44
REMARK SMILES IDX 46 45 60 46 79 47 44 48 45 49 59 51 80 52 47 53 31 54 32 55
REMARK SMILES IDX 40 56 33 57 39 58 41 59 38 60 34 61 35 62 36 63 37 64 63 65
REMARK SMILES IDX 64 66 72 67 65 68 71 69 73 70 70 71 66 72 67 73 68 74 69 75
REMARK SMILES IDX 48 76 49 77 57 78 50 79 56 80 58 81 55 82 51 83 52 84 53 85
REMARK SMILES IDX 54 86
REMARK H PARENT 78 39 46 50
REMARK Flexibility Score: inf
ROOT
ATOM      1  C   UNL     1      -3.619  -2.358  -1.825  1.00  0.00     0.202 C 
ENDROOT
BRANCH   1   2
ATOM      2  O   UNL     1      -4.313  -1.634  -0.810  1.00  0.00    -0.374 OA
BRANCH   2   3
ATOM      3  C   UNL     1      -3.579  -0.658  -0.071  1.00  0.00     0.202 C 
BRANCH   3   4
ATOM      4  C   UNL     1      -2.603  -1.193   0.979  1.00  0.00     0.261 C 
BRANCH   4   5
ATOM      5  O   UNL     1      -1.563  -1.976   0.370  1.00  0.00    -0.460 OA
BRANCH   5   6
ATOM      6  C   UNL     1      -1.469  -3.258   0.798  1.00  0.00     0.342 C 
ATOM      7  O   UNL     1      -2.126  -3.770   1.694  1.00  0.00    -0.246 OA
BRANCH   6   8
ATOM      8  C   UNL     1      -0.584  -4.056  -0.087  1.00  0.00     0.102 A 
ATOM      9  C   UNL     1       0.520  -3.567  -0.796  1.00  0.00     0.145 A 
ATOM     10  C   UNL     1       1.270  -4.417  -1.619  1.00  0.00     0.048 A 
ATOM     11  C   UNL     1       0.914  -5.760  -1.750  1.00  0.00     0.004 A 
ATOM     12  C   UNL     1      -0.936  -5.410  -0.240  1.00  0.00     0.019 A 
ATOM     13  C   UNL     1      -0.198  -6.254  -1.072  1.00  0.00     0.001 A 
BRANCH   9  14
ATOM     14  O   UNL     1       0.874  -2.210  -0.854  1.00  0.00    -0.426 OA
BRANCH  14  15
ATOM     15  C   UNL     1       1.300  -1.624   0.333  1.00  0.00     0.308 C 
ATOM     16  C   UNL     1       1.512  -0.155   0.105  1.00  0.00     0.139 C 
ATOM     17  O   UNL     1       1.495  -2.205   1.391  1.00  0.00    -0.252 OA
ENDBRANCH  14  15
ENDBRANCH   9  14
ENDBRANCH   6   8
ENDBRANCH   5   6
ENDBRANCH   4   5
ENDBRANCH   3   4
ENDBRANCH   2   3
ENDBRANCH   1   2
BRANCH   1  18
ATOM     18  C   UNL     1      -3.297  -1.610  -3.125  1.00  0.00     0.261 C 
BRANCH  18  19
ATOM     19  O   UNL     1      -2.368  -0.527  -2.942  1.00  0.00    -0.460 OA
BRANCH  19  20
ATOM     20  C   UNL     1      -2.897   0.707  -3.133  1.00  0.00     0.338 C 
ATOM     21  O   UNL     1      -4.046   0.972  -3.460  1.00  0.00    -0.246 OA
BRANCH  20  22
ATOM     22  C   UNL     1      -1.931   1.747  -2.739  1.00  0.00     0.060 A 
ATOM     23  C   UNL     1      -2.327   2.670  -1.763  1.00  0.00     0.016 A 
ATOM     24  C   UNL     1      -0.703   1.886  -3.389  1.00  0.00     0.016 A 
ATOM     25  C   UNL     1      -1.515   3.762  -1.463  1.00  0.00     0.010 A 
ATOM     26  C   UNL     1       0.107   2.989  -3.093  1.00  0.00     0.010 A 
ATOM     27  C   UNL     1      -0.309   3.950  -2.153  1.00  0.00    -0.014 A 
BRANCH  27  28
ATOM     28  C   UNL     1       0.442   5.220  -1.988  1.00  0.00     0.031 A 
ATOM     29  C   UNL     1       0.287   6.302  -3.024  1.00  0.00     0.074 A 
ATOM     30  C   UNL     1       1.226   5.420  -0.912  1.00  0.00     0.049 A 
ATOM     31  N   UNL     1       0.880   7.465  -3.105  1.00  0.00    -0.248 NA
ATOM     32  C   UNL     1      -0.666   6.034  -4.112  1.00  0.00     0.031 C 
ATOM     33  C   UNL     1       1.411   4.469   0.183  1.00  0.00     0.029 A 
ATOM     34  N   UNL     1       2.015   6.488  -0.567  1.00  0.00    -0.354 N 
ATOM     35  C   UNL     1       0.373   8.071  -4.250  1.00  0.00     0.074 A 
ATOM     36  C   UNL     1      -0.548   7.128  -4.850  1.00  0.00     0.031 C 
ATOM     37  C   UNL     1       2.270   4.994   1.074  1.00  0.00     0.029 A 
ATOM     38  C   UNL     1       2.725   6.298   0.596  1.00  0.00     0.049 A 
ATOM     39  H   UNL     1       2.068   7.313  -1.102  1.00  0.00     0.167 HD
ATOM     40  C   UNL     1       0.642   9.303  -4.750  1.00  0.00     0.034 A 
ATOM     41  C   UNL     1       3.653   7.075   1.189  1.00  0.00     0.034 A 
ATOM     42  C   UNL     1       1.572  10.229  -4.150  1.00  0.00     0.049 A 
ATOM     43  C   UNL     1       4.009   8.403   0.560  1.00  0.00     0.074 A 
ATOM     44  C   UNL     1       1.920  11.499  -4.575  1.00  0.00     0.029 A 
ATOM     45  N   UNL     1       2.308   9.982  -2.998  1.00  0.00    -0.354 N 
ATOM     46  N   UNL     1       3.523   8.960  -0.526  1.00  0.00    -0.248 NA
ATOM     47  C   UNL     1       5.032   9.208   1.242  1.00  0.00     0.031 C 
ATOM     48  C   UNL     1       2.912  11.994  -3.720  1.00  0.00     0.029 A 
ATOM     49  C   UNL     1       3.129  11.063  -2.717  1.00  0.00     0.049 A 
ATOM     50  H   UNL     1       2.254   9.160  -2.460  1.00  0.00     0.167 HD
ATOM     51  C   UNL     1       4.159  10.196  -0.634  1.00  0.00     0.074 A 
ATOM     52  C   UNL     1       5.050  10.306   0.502  1.00  0.00     0.031 C 
ATOM     53  C   UNL     1       4.016  11.157  -1.582  1.00  0.00     0.034 A 
BRANCH  40  54
ATOM     54  C   UNL     1      -0.045   9.697  -6.034  1.00  0.00     0.023 A 
ATOM     55  C   UNL     1      -1.436   9.884  -6.100  1.00  0.00     0.031 A 
ATOM     56  C   UNL     1       0.703   9.879  -7.211  1.00  0.00     0.131 A 
ATOM     57  C   UNL     1      -2.043  10.186  -7.329  1.00  0.00     0.055 A 
ATOM     58  C   UNL     1       0.101  10.249  -8.415  1.00  0.00     0.041 A 
ATOM     59  F   UNL     1       2.032   9.692  -7.212  1.00  0.00    -0.206 F 
ATOM     60  C   UNL     1      -1.282  10.393  -8.482  1.00  0.00     0.022 A 
BRANCH  57  61
ATOM     61  S   UNL     1      -3.854  10.188  -7.426  1.00  0.00     0.124 S 
ATOM     62  O   UNL     1      -4.172   8.815  -7.044  1.00  0.00    -0.237 OA
ATOM     63  O   UNL     1      -4.221  11.221  -6.464  1.00  0.00    -0.237 OA
ATOM     64  O   UNL     1      -4.122  10.516  -8.825  1.00  0.00    -0.744 OA
ENDBRANCH  57  61
ENDBRANCH  40  54
BRANCH  41  65
ATOM     65  C   UNL     1       4.356   6.615   2.422  1.00  0.00     0.023 A 
ATOM     66  C   UNL     1       4.256   7.331   3.626  1.00  0.00     0.031 A 
ATOM     67  C   UNL     1       5.207   5.495   2.391  1.00  0.00     0.131 A 
ATOM     68  C   UNL     1       5.038   6.956   4.730  1.00  0.00     0.055 A 
ATOM     69  C   UNL     1       5.938   5.091   3.510  1.00  0.00     0.041 A 
ATOM     70  F   UNL     1       5.342   4.776   1.266  1.00  0.00    -0.206 F 
ATOM     71  C   UNL     1       5.868   5.834   4.684  1.00  0.00     0.022 A 
BRANCH  68  72
ATOM     72  S   UNL     1       5.038   8.026   6.195  1.00  0.00     0.124 S 
ATOM     73  O   UNL     1       5.436   9.309   5.625  1.00  0.00    -0.237 OA
ATOM     74  O   UNL     1       3.653   7.925   6.642  1.00  0.00    -0.237 OA
ATOM     75  O   UNL     1       6.023   7.399   7.073  1.00  0.00    -0.744 OA
ENDBRANCH  68  72
ENDBRANCH  41  65
BRANCH  53  76
ATOM     76  C   UNL     1       4.806  12.430  -1.396  1.00  0.00     0.023 A 
ATOM     77  C   UNL     1       6.208  12.453  -1.493  1.00  0.00     0.031 A 
ATOM     78  C   UNL     1       4.143  13.635  -1.105  1.00  0.00     0.131 A 
ATOM     79  C   UNL     1       6.906  13.645  -1.246  1.00  0.00     0.055 A 
ATOM     80  C   UNL     1       4.838  14.830  -0.917  1.00  0.00     0.041 A 
ATOM     81  F   UNL     1       2.805  13.671  -1.000  1.00  0.00    -0.206 F 
ATOM     82  C   UNL     1       6.229  14.837  -0.974  1.00  0.00     0.022 A 
BRANCH  79  83
ATOM     83  S   UNL     1       8.719  13.601  -1.200  1.00  0.00     0.124 S 
ATOM     84  O   UNL     1       8.973  12.629  -0.141  1.00  0.00    -0.237 OA
ATOM     85  O   UNL     1       9.055  13.171  -2.553  1.00  0.00    -0.237 OA
ATOM     86  O   UNL     1       9.088  14.978  -0.879  1.00  0.00    -0.744 OA
ENDBRANCH  79  83
ENDBRANCH  53  76
ENDBRANCH  27  28
ENDBRANCH  20  22
ENDBRANCH  19  20
ENDBRANCH  18  19
ENDBRANCH   1  18
TORSDOF 19
