REMARK SMILES CC(C)(C)OC(=O)N1CCC2(CC1)C[C@@H](C(=O)OCCOCCOC(=O)c1ccc(-c3c4nc(c(-c5cc(S(=O)(=O)[O-])ccc5F)c5ccc([nH]5)c(-c5cc(S(=O)(=O)[O-])ccc5F)c5nc(c(-c6cc(S(=O)(=O)[O-])ccc6F)c6ccc3[nH]6)C=C5)C=C4)cc1)CO2
REMARK SMILES IDX 22 1 21 2 20 3 19 4 18 5 16 6 17 7 15 8 6 9 7 10 8 11 9 12
REMARK SMILES IDX 13 13 10 14 12 15 11 16 14 17 91 18 90 19 5 20 2 21 1 22
REMARK SMILES IDX 3 23 4 24 23 25 24 26 25 27 26 28 27 29 28 30 89 31 29 32
REMARK SMILES IDX 88 33 30 34 31 35 32 36 82 37 33 38 87 39 81 40 83 41 34 42
REMARK SMILES IDX 86 43 80 44 79 45 35 47 67 48 47 49 66 50 48 51 51 52 65 53
REMARK SMILES IDX 84 54 49 55 50 56 64 58 85 59 52 60 36 61 37 62 45 63 38 64
REMARK SMILES IDX 44 65 46 66 43 67 39 68 40 69 41 70 42 71 68 72 69 73 77 74
REMARK SMILES IDX 70 75 76 76 78 77 75 78 71 79 72 80 73 81 74 82 53 83 54 84
REMARK SMILES IDX 62 85 55 86 61 87 63 88 60 89 56 90 57 91 58 92 59 93
REMARK H PARENT 83 46 51 57
REMARK Flexibility Score: inf
ROOT
ATOM      1  C   UNL     1       4.960   1.088  11.152  1.00  0.00     0.202 C 
ENDROOT
BRANCH   1   2
ATOM      2  O   UNL     1       5.965   0.132  10.816  1.00  0.00    -0.374 OA
BRANCH   2   3
ATOM      3  C   UNL     1       6.467   0.137   9.479  1.00  0.00     0.202 C 
BRANCH   3   4
ATOM      4  C   UNL     1       5.573  -0.506   8.416  1.00  0.00     0.261 C 
BRANCH   4   5
ATOM      5  O   UNL     1       4.325   0.197   8.297  1.00  0.00    -0.463 OA
BRANCH   5   6
ATOM      6  C   UNL     1       3.208  -0.520   8.562  1.00  0.00     0.311 C 
ATOM      7  O   UNL     1       3.177  -1.730   8.760  1.00  0.00    -0.252 OA
BRANCH   6   8
ATOM      8  C   UNL     1       1.953   0.323   8.626  1.00  0.00     0.128 C 
ATOM      9  C   UNL     1       0.336   2.501   2.730  1.00  0.00     0.410 C 
ATOM     10  O   UNL     1      -0.694   3.111   2.467  1.00  0.00    -0.224 OA
ATOM     11  N   UNL     1       0.951   2.556   3.963  1.00  0.00    -0.308 N 
ATOM     12  C   UNL     1       0.221   3.064   5.108  1.00  0.00     0.126 C 
ATOM     13  C   UNL     1       2.272   2.013   4.258  1.00  0.00     0.126 C 
ATOM     14  C   UNL     1      -0.009   1.911   6.083  1.00  0.00     0.057 C 
ATOM     15  C   UNL     1       2.160   0.863   5.258  1.00  0.00     0.057 C 
ATOM     16  C   UNL     1       1.323   1.257   6.490  1.00  0.00     0.073 C 
ATOM     17  C   UNL     1       1.078   0.061   7.420  1.00  0.00     0.053 C 
ATOM     18  O   UNL     1       2.073   2.229   7.241  1.00  0.00    -0.374 OA
ATOM     19  C   UNL     1       2.133   1.822   8.606  1.00  0.00     0.176 C 
BRANCH   9  20
ATOM     20  O   UNL     1       0.958   1.640   1.889  1.00  0.00    -0.444 OA
BRANCH  20  21
ATOM     21  C   UNL     1       0.478   1.426   0.536  1.00  0.00     0.106 C 
ATOM     22  C   UNL     1       1.195   0.153   0.063  1.00  0.00     0.056 C 
ATOM     23  C   UNL     1       0.905   2.607  -0.336  1.00  0.00     0.056 C 
ATOM     24  C   UNL     1      -1.035   1.173   0.451  1.00  0.00     0.056 C 
ENDBRANCH  20  21
ENDBRANCH   9  20
ENDBRANCH   6   8
ENDBRANCH   5   6
ENDBRANCH   4   5
ENDBRANCH   3   4
ENDBRANCH   2   3
ENDBRANCH   1   2
BRANCH   1  25
ATOM     25  C   UNL     1       5.394   2.556  11.275  1.00  0.00     0.261 C 
BRANCH  25  26
ATOM     26  O   UNL     1       5.794   3.131  10.019  1.00  0.00    -0.460 OA
BRANCH  26  27
ATOM     27  C   UNL     1       7.112   3.447   9.937  1.00  0.00     0.338 C 
ATOM     28  O   UNL     1       7.947   3.328  10.818  1.00  0.00    -0.246 OA
BRANCH  27  29
ATOM     29  C   UNL     1       7.473   3.788   8.547  1.00  0.00     0.060 A 
ATOM     30  C   UNL     1       8.531   3.080   7.960  1.00  0.00     0.016 A 
ATOM     31  C   UNL     1       6.859   4.839   7.864  1.00  0.00     0.016 A 
ATOM     32  C   UNL     1       9.014   3.451   6.706  1.00  0.00     0.010 A 
ATOM     33  C   UNL     1       7.353   5.218   6.611  1.00  0.00     0.010 A 
ATOM     34  C   UNL     1       8.454   4.550   6.043  1.00  0.00    -0.014 A 
BRANCH  34  35
ATOM     35  C   UNL     1       9.124   5.110   4.843  1.00  0.00     0.031 A 
ATOM     36  C   UNL     1      10.007   6.316   5.008  1.00  0.00     0.074 A 
ATOM     37  C   UNL     1       8.947   4.562   3.629  1.00  0.00     0.049 A 
ATOM     38  N   UNL     1      10.605   7.042   4.100  1.00  0.00    -0.248 NA
ATOM     39  C   UNL     1      10.235   6.766   6.389  1.00  0.00     0.031 C 
ATOM     40  C   UNL     1       8.153   3.367   3.353  1.00  0.00     0.029 A 
ATOM     41  N   UNL     1       9.405   4.957   2.396  1.00  0.00    -0.354 N 
ATOM     42  C   UNL     1      11.264   8.050   4.797  1.00  0.00     0.074 A 
ATOM     43  C   UNL     1      10.967   7.852   6.200  1.00  0.00     0.031 C 
ATOM     44  C   UNL     1       8.150   3.145   2.027  1.00  0.00     0.029 A 
ATOM     45  C   UNL     1       8.904   4.206   1.360  1.00  0.00     0.049 A 
ATOM     46  H   UNL     1      10.031   5.706   2.268  1.00  0.00     0.167 HD
ATOM     47  C   UNL     1      12.045   9.046   4.308  1.00  0.00     0.034 A 
ATOM     48  C   UNL     1       9.003   4.380   0.026  1.00  0.00     0.034 A 
ATOM     49  C   UNL     1      12.320   9.230   2.904  1.00  0.00     0.049 A 
ATOM     50  C   UNL     1       9.809   5.540  -0.507  1.00  0.00     0.074 A 
ATOM     51  C   UNL     1      13.126  10.178   2.299  1.00  0.00     0.029 A 
ATOM     52  N   UNL     1      11.777   8.462   1.881  1.00  0.00    -0.354 N 
ATOM     53  N   UNL     1      10.444   6.478   0.158  1.00  0.00    -0.248 NA
ATOM     54  C   UNL     1       9.915   5.663  -1.967  1.00  0.00     0.031 C 
ATOM     55  C   UNL     1      13.008  10.034   0.912  1.00  0.00     0.029 A 
ATOM     56  C   UNL     1      12.195   8.942   0.650  1.00  0.00     0.049 A 
ATOM     57  H   UNL     1      11.181   7.689   2.012  1.00  0.00     0.167 HD
ATOM     58  C   UNL     1      11.049   7.285  -0.803  1.00  0.00     0.074 A 
ATOM     59  C   UNL     1      10.701   6.724  -2.093  1.00  0.00     0.031 C 
ATOM     60  C   UNL     1      11.832   8.380  -0.632  1.00  0.00     0.034 A 
BRANCH  47  61
ATOM     61  C   UNL     1      12.588  10.047   5.301  1.00  0.00     0.023 A 
ATOM     62  C   UNL     1      13.466   9.671   6.334  1.00  0.00     0.031 A 
ATOM     63  C   UNL     1      12.174  11.390   5.248  1.00  0.00     0.131 A 
ATOM     64  C   UNL     1      13.825  10.602   7.321  1.00  0.00     0.055 A 
ATOM     65  C   UNL     1      12.605  12.333   6.183  1.00  0.00     0.041 A 
ATOM     66  F   UNL     1      11.320  11.805   4.299  1.00  0.00    -0.206 F 
ATOM     67  C   UNL     1      13.420  11.936   7.239  1.00  0.00     0.022 A 
BRANCH  64  68
ATOM     68  S   UNL     1      14.679  10.003   8.805  1.00  0.00     0.124 S 
ATOM     69  O   UNL     1      13.765   8.964   9.274  1.00  0.00    -0.237 OA
ATOM     70  O   UNL     1      15.954   9.540   8.270  1.00  0.00    -0.237 OA
ATOM     71  O   UNL     1      14.752  11.187   9.660  1.00  0.00    -0.744 OA
ENDBRANCH  64  68
ENDBRANCH  47  61
BRANCH  48  72
ATOM     72  C   UNL     1       8.263   3.471  -0.893  1.00  0.00     0.023 A 
ATOM     73  C   UNL     1       8.934   2.584  -1.748  1.00  0.00     0.031 A 
ATOM     74  C   UNL     1       6.856   3.486  -0.926  1.00  0.00     0.131 A 
ATOM     75  C   UNL     1       8.197   1.762  -2.616  1.00  0.00     0.055 A 
ATOM     76  C   UNL     1       6.128   2.637  -1.760  1.00  0.00     0.041 A 
ATOM     77  F   UNL     1       6.167   4.315  -0.125  1.00  0.00    -0.206 F 
ATOM     78  C   UNL     1       6.800   1.773  -2.618  1.00  0.00     0.022 A 
BRANCH  75  79
ATOM     79  S   UNL     1       9.094   0.699  -3.781  1.00  0.00     0.124 S 
ATOM     80  O   UNL     1       9.818   1.680  -4.581  1.00  0.00    -0.237 OA
ATOM     81  O   UNL     1       9.902  -0.120  -2.884  1.00  0.00    -0.237 OA
ATOM     82  O   UNL     1       8.028  -0.015  -4.480  1.00  0.00    -0.744 OA
ENDBRANCH  75  79
ENDBRANCH  48  72
BRANCH  60  83
ATOM     83  C   UNL     1      12.418   9.019  -1.868  1.00  0.00     0.023 A 
ATOM     84  C   UNL     1      11.628   9.731  -2.786  1.00  0.00     0.031 A 
ATOM     85  C   UNL     1      13.803   8.942  -2.103  1.00  0.00     0.131 A 
ATOM     86  C   UNL     1      12.227  10.315  -3.914  1.00  0.00     0.055 A 
ATOM     87  C   UNL     1      14.399   9.566  -3.199  1.00  0.00     0.041 A 
ATOM     88  F   UNL     1      14.603   8.273  -1.258  1.00  0.00    -0.206 F 
ATOM     89  C   UNL     1      13.609  10.253  -4.116  1.00  0.00     0.022 A 
BRANCH  86  90
ATOM     90  S   UNL     1      11.171  11.123  -5.149  1.00  0.00     0.124 S 
ATOM     91  O   UNL     1      10.337  10.015  -5.605  1.00  0.00    -0.237 OA
ATOM     92  O   UNL     1      10.496  12.149  -4.362  1.00  0.00    -0.237 OA
ATOM     93  O   UNL     1      12.123  11.628  -6.137  1.00  0.00    -0.744 OA
ENDBRANCH  86  90
ENDBRANCH  60  83
ENDBRANCH  34  35
ENDBRANCH  27  29
ENDBRANCH  26  27
ENDBRANCH  25  26
ENDBRANCH   1  25
TORSDOF 19
