REMARK SMILES [NH3+][C@H]1CCCC[C@@H]1C(=O)N1CC(C(=O)OCCOCCOC(=O)c2ccc(-c3c4nc(c(-c5cc(S(=O)(=O)[O-])ccc5F)c5ccc([nH]5)c(-c5cc(S(=O)(=O)[O-])ccc5F)c5nc(c(-c6cc(S(=O)(=O)[O-])ccc6F)c6ccc3[nH]6)C=C5)C=C4)cc2)C1
REMARK SMILES IDX 19 1 18 2 17 3 16 4 15 5 13 6 14 7 12 8 8 9 9 10 10 11 11 12
REMARK SMILES IDX 87 13 7 14 2 15 3 16 4 17 6 18 5 19 1 20 20 24 21 25 22 26
REMARK SMILES IDX 23 27 24 28 25 29 86 30 26 31 85 32 27 33 28 34 29 35 79 36
REMARK SMILES IDX 30 37 84 38 78 39 80 40 31 41 83 42 77 43 76 44 32 46 64 47
REMARK SMILES IDX 44 48 63 49 45 50 48 51 62 52 81 53 46 54 47 55 61 57 82 58
REMARK SMILES IDX 49 59 33 60 34 61 42 62 35 63 41 64 43 65 40 66 36 67 37 68
REMARK SMILES IDX 38 69 39 70 65 71 66 72 74 73 67 74 73 75 75 76 72 77 68 78
REMARK SMILES IDX 69 79 70 80 71 81 50 82 51 83 59 84 52 85 58 86 60 87 57 88
REMARK SMILES IDX 53 89 54 90 55 91 56 92
REMARK H PARENT 1 21 1 22 1 23 80 45 48 56
REMARK Flexibility Score: inf
ROOT
ATOM      1  C   UNL     1      -2.409  -2.790  -6.788  1.00  0.00     0.202 C 
ENDROOT
BRANCH   1   2
ATOM      2  O   UNL     1      -3.648  -2.393  -7.379  1.00  0.00    -0.374 OA
BRANCH   2   3
ATOM      3  C   UNL     1      -4.078  -1.045  -7.196  1.00  0.00     0.202 C 
BRANCH   3   4
ATOM      4  C   UNL     1      -4.658  -0.684  -5.824  1.00  0.00     0.261 C 
BRANCH   4   5
ATOM      5  O   UNL     1      -3.759  -1.040  -4.762  1.00  0.00    -0.463 OA
BRANCH   5   6
ATOM      6  C   UNL     1      -4.202  -2.014  -3.913  1.00  0.00     0.312 C 
ATOM      7  O   UNL     1      -5.366  -2.417  -3.884  1.00  0.00    -0.252 OA
BRANCH   6   8
ATOM      8  C   UNL     1      -3.085  -2.624  -3.065  1.00  0.00     0.138 C 
ATOM      9  C   UNL     1      -1.191  -2.323  -0.273  1.00  0.00     0.231 C 
ATOM     10  O   UNL     1      -1.315  -3.220   0.570  1.00  0.00    -0.274 OA
ATOM     11  N   UNL     1      -1.844  -2.424  -1.462  1.00  0.00    -0.340 N 
ATOM     12  C   UNL     1      -3.294  -2.588  -1.552  1.00  0.00     0.136 C 
ATOM     13  C   UNL     1      -1.758  -1.875  -2.801  1.00  0.00     0.136 C 
BRANCH   9  14
ATOM     14  C   UNL     1      -0.347  -1.102   0.060  1.00  0.00     0.136 C 
ATOM     15  C   UNL     1      -1.002   0.250  -0.284  1.00  0.00     0.193 C 
ATOM     16  C   UNL     1      -0.146   1.413   0.234  1.00  0.00     0.066 C 
ATOM     17  C   UNL     1       1.293   1.319  -0.271  1.00  0.00     0.006 C 
ATOM     18  C   UNL     1       1.079  -1.192  -0.485  1.00  0.00     0.020 C 
ATOM     19  C   UNL     1       1.922  -0.034   0.055  1.00  0.00     0.001 C 
BRANCH  15  20
ATOM     20  N   UNL     1      -2.357   0.360   0.264  1.00  0.00    -0.354 N 
ATOM     21  H   UNL     1      -2.752   1.267   0.014  1.00  0.00     0.344 HD
ATOM     22  H   UNL     1      -2.321   0.274   1.280  1.00  0.00     0.344 HD
ATOM     23  H   UNL     1      -2.941  -0.383  -0.120  1.00  0.00     0.344 HD
ENDBRANCH  15  20
ENDBRANCH   9  14
ENDBRANCH   6   8
ENDBRANCH   5   6
ENDBRANCH   4   5
ENDBRANCH   3   4
ENDBRANCH   2   3
ENDBRANCH   1   2
BRANCH   1  24
ATOM     24  C   UNL     1      -1.114  -2.221  -7.382  1.00  0.00     0.261 C 
BRANCH  24  25
ATOM     25  O   UNL     1      -0.984  -0.802  -7.186  1.00  0.00    -0.460 OA
BRANCH  25  26
ATOM     26  C   UNL     1      -1.013  -0.070  -8.327  1.00  0.00     0.338 C 
ATOM     27  O   UNL     1      -1.097  -0.502  -9.471  1.00  0.00    -0.246 OA
BRANCH  26  28
ATOM     28  C   UNL     1      -1.121   1.365  -8.014  1.00  0.00     0.060 A 
ATOM     29  C   UNL     1      -2.184   2.079  -8.585  1.00  0.00     0.016 A 
ATOM     30  C   UNL     1      -0.153   2.022  -7.252  1.00  0.00     0.016 A 
ATOM     31  C   UNL     1      -2.260   3.462  -8.431  1.00  0.00     0.010 A 
ATOM     32  C   UNL     1      -0.227   3.413  -7.108  1.00  0.00     0.010 A 
ATOM     33  C   UNL     1      -1.262   4.142  -7.723  1.00  0.00    -0.014 A 
BRANCH  33  34
ATOM     34  C   UNL     1      -1.214   5.625  -7.756  1.00  0.00     0.031 A 
ATOM     35  C   UNL     1      -0.260   6.300  -8.704  1.00  0.00     0.074 A 
ATOM     36  C   UNL     1      -2.019   6.360  -6.968  1.00  0.00     0.049 A 
ATOM     37  N   UNL     1       0.008   7.571  -8.851  1.00  0.00    -0.248 NA
ATOM     38  C   UNL     1       0.495   5.416  -9.605  1.00  0.00     0.031 C 
ATOM     39  C   UNL     1      -3.024   5.820  -6.053  1.00  0.00     0.029 A 
ATOM     40  N   UNL     1      -2.113   7.720  -6.807  1.00  0.00    -0.354 N 
ATOM     41  C   UNL     1       0.966   7.643  -9.858  1.00  0.00     0.074 A 
ATOM     42  C   UNL     1       1.257   6.282 -10.256  1.00  0.00     0.031 C 
ATOM     43  C   UNL     1      -3.625   6.840  -5.417  1.00  0.00     0.029 A 
ATOM     44  C   UNL     1      -3.019   8.100  -5.845  1.00  0.00     0.049 A 
ATOM     45  H   UNL     1      -1.582   8.362  -7.331  1.00  0.00     0.167 HD
ATOM     46  C   UNL     1       1.541   8.743 -10.404  1.00  0.00     0.034 A 
ATOM     47  C   UNL     1      -3.302   9.320  -5.346  1.00  0.00     0.034 A 
ATOM     48  C   UNL     1       1.249  10.092  -9.986  1.00  0.00     0.049 A 
ATOM     49  C   UNL     1      -2.573  10.524  -5.896  1.00  0.00     0.074 A 
ATOM     50  C   UNL     1       1.771  11.279 -10.471  1.00  0.00     0.029 A 
ATOM     51  N   UNL     1       0.362  10.436  -8.973  1.00  0.00    -0.354 N 
ATOM     52  N   UNL     1      -1.664  10.579  -6.843  1.00  0.00    -0.248 NA
ATOM     53  C   UNL     1      -2.911  11.829  -5.313  1.00  0.00     0.031 C 
ATOM     54  C   UNL     1       1.255  12.331  -9.707  1.00  0.00     0.029 A 
ATOM     55  C   UNL     1       0.349  11.811  -8.797  1.00  0.00     0.049 A 
ATOM     56  H   UNL     1      -0.178   9.796  -8.456  1.00  0.00     0.167 HD
ATOM     57  C   UNL     1      -1.351  11.928  -6.992  1.00  0.00     0.074 A 
ATOM     58  C   UNL     1      -2.172  12.652  -6.044  1.00  0.00     0.031 C 
ATOM     59  C   UNL     1      -0.472  12.518  -7.842  1.00  0.00     0.034 A 
BRANCH  46  60
ATOM     60  C   UNL     1       2.583   8.520 -11.474  1.00  0.00     0.023 A 
ATOM     61  C   UNL     1       2.262   7.930 -12.709  1.00  0.00     0.031 A 
ATOM     62  C   UNL     1       3.924   8.873 -11.242  1.00  0.00     0.131 A 
ATOM     63  C   UNL     1       3.278   7.645 -13.634  1.00  0.00     0.055 A 
ATOM     64  C   UNL     1       4.918   8.660 -12.200  1.00  0.00     0.041 A 
ATOM     65  F   UNL     1       4.296   9.417 -10.073  1.00  0.00    -0.206 F 
ATOM     66  C   UNL     1       4.600   8.029 -13.399  1.00  0.00     0.022 A 
BRANCH  63  67
ATOM     67  S   UNL     1       2.871   6.635 -15.085  1.00  0.00     0.124 S 
ATOM     68  O   UNL     1       2.361   5.417 -14.461  1.00  0.00    -0.237 OA
ATOM     69  O   UNL     1       1.887   7.460 -15.777  1.00  0.00    -0.237 OA
ATOM     70  O   UNL     1       4.154   6.486 -15.769  1.00  0.00    -0.744 OA
ENDBRANCH  63  67
ENDBRANCH  46  60
BRANCH  47  71
ATOM     71  C   UNL     1      -4.286   9.475  -4.236  1.00  0.00     0.023 A 
ATOM     72  C   UNL     1      -5.467  10.214  -4.410  1.00  0.00     0.031 A 
ATOM     73  C   UNL     1      -4.028   8.935  -2.963  1.00  0.00     0.131 A 
ATOM     74  C   UNL     1      -6.321  10.435  -3.318  1.00  0.00     0.055 A 
ATOM     75  C   UNL     1      -4.908   9.111  -1.894  1.00  0.00     0.041 A 
ATOM     76  F   UNL     1      -2.913   8.221  -2.740  1.00  0.00    -0.206 F 
ATOM     77  C   UNL     1      -6.057   9.877  -2.065  1.00  0.00     0.022 A 
BRANCH  74  78
ATOM     78  S   UNL     1      -7.741  11.542  -3.537  1.00  0.00     0.124 S 
ATOM     79  O   UNL     1      -7.090  12.777  -3.960  1.00  0.00    -0.237 OA
ATOM     80  O   UNL     1      -8.515  10.841  -4.555  1.00  0.00    -0.237 OA
ATOM     81  O   UNL     1      -8.350  11.580  -2.209  1.00  0.00    -0.744 OA
ENDBRANCH  74  78
ENDBRANCH  47  71
BRANCH  59  82
ATOM     82  C   UNL     1      -0.398  14.026  -7.822  1.00  0.00     0.023 A 
ATOM     83  C   UNL     1       0.116  14.731  -6.720  1.00  0.00     0.031 A 
ATOM     84  C   UNL     1      -0.848  14.767  -8.930  1.00  0.00     0.131 A 
ATOM     85  C   UNL     1       0.122  16.135  -6.730  1.00  0.00     0.055 A 
ATOM     86  C   UNL     1      -0.786  16.161  -8.957  1.00  0.00     0.041 A 
ATOM     87  F   UNL     1      -1.350  14.145 -10.009  1.00  0.00    -0.206 F 
ATOM     88  C   UNL     1      -0.309  16.853  -7.848  1.00  0.00     0.022 A 
BRANCH  85  89
ATOM     89  S   UNL     1       0.632  17.016  -5.228  1.00  0.00     0.124 S 
ATOM     90  O   UNL     1      -0.333  16.528  -4.248  1.00  0.00    -0.237 OA
ATOM     91  O   UNL     1       2.007  16.562  -5.050  1.00  0.00    -0.237 OA
ATOM     92  O   UNL     1       0.488  18.425  -5.591  1.00  0.00    -0.744 OA
ENDBRANCH  85  89
ENDBRANCH  59  82
ENDBRANCH  33  34
ENDBRANCH  26  28
ENDBRANCH  25  26
ENDBRANCH  24  25
ENDBRANCH   1  24
TORSDOF 19
