REMARK SMILES CN(CC(N)=O)S(=O)(=O)c1ccc(C(=O)OCCOCCOC(=O)c2ccc(-c3c4nc(c(-c5cc(S(=O)(=O)[O-])ccc5F)c5ccc([nH]5)c(-c5cc(S(=O)(=O)[O-])ccc5F)c5nc(c(-c6cc(S(=O)(=O)[O-])ccc6F)c6ccc3[nH]6)C=C5)C=C4)cc2)cc1Br
REMARK SMILES IDX 18 1 17 2 16 3 14 4 15 5 13 6 10 7 11 8 89 9 12 10 88 11
REMARK SMILES IDX 90 12 7 13 8 14 9 15 2 16 1 17 3 18 4 19 5 20 6 21 19 24
REMARK SMILES IDX 20 25 21 26 22 27 23 28 24 29 25 30 26 31 87 32 27 33 86 34
REMARK SMILES IDX 28 35 29 36 30 37 80 38 31 39 85 40 79 41 81 42 32 43 84 44
REMARK SMILES IDX 78 45 77 46 33 48 65 49 45 50 64 51 46 52 49 53 63 54 82 55
REMARK SMILES IDX 47 56 48 57 62 59 83 60 50 61 34 62 35 63 43 64 36 65 42 66
REMARK SMILES IDX 44 67 41 68 37 69 38 70 39 71 40 72 66 73 67 74 75 75 68 76
REMARK SMILES IDX 74 77 76 78 73 79 69 80 70 81 71 82 72 83 51 84 52 85 60 86
REMARK SMILES IDX 53 87 59 88 61 89 58 90 54 91 55 92 56 93 57 94
REMARK H PARENT 5 22 5 23 81 47 49 58
REMARK Flexibility Score: inf
ROOT
ATOM      1  C   UNL     1      -1.709  -9.214   4.959  1.00  0.00     0.202 C 
ENDROOT
BRANCH   1   2
ATOM      2  C   UNL     1      -0.475  -8.495   5.513  1.00  0.00     0.261 C 
BRANCH   2   3
ATOM      3  O   UNL     1      -0.273  -7.234   4.846  1.00  0.00    -0.460 OA
BRANCH   3   4
ATOM      4  C   UNL     1       0.771  -7.205   3.987  1.00  0.00     0.338 C 
ATOM      5  O   UNL     1       1.609  -8.074   3.808  1.00  0.00    -0.246 OA
BRANCH   4   6
ATOM      6  C   UNL     1       0.688  -6.006   3.126  1.00  0.00     0.061 A 
ATOM      7  C   UNL     1       0.770  -3.774   1.425  1.00  0.00     0.096 A 
ATOM      8  C   UNL     1       1.011  -5.071   0.929  1.00  0.00     0.024 A 
ATOM      9  C   UNL     1       0.458  -3.604   2.778  1.00  0.00     0.038 A 
ATOM     10  C   UNL     1       0.990  -6.175   1.775  1.00  0.00     0.017 A 
ATOM     11  C   UNL     1       0.384  -4.733   3.621  1.00  0.00     0.032 A 
ATOM     12  Br  UNL     1       0.216  -1.938   3.651  1.00  0.00    -0.049 Br
BRANCH   7  13
ATOM     13  S   UNL     1       1.080  -2.486   0.236  1.00  0.00     0.244 S 
ATOM     14  O   UNL     1       0.551  -2.962  -1.023  1.00  0.00    -0.207 OA
ATOM     15  O   UNL     1       2.493  -2.182   0.372  1.00  0.00    -0.207 OA
BRANCH  13  16
ATOM     16  N   UNL     1       0.200  -1.102   0.642  1.00  0.00    -0.192 NA
ATOM     17  C   UNL     1       0.780   0.144   0.080  1.00  0.00     0.125 C 
BRANCH  16  18
ATOM     18  C   UNL     1      -1.276  -1.160   0.492  1.00  0.00     0.201 C 
BRANCH  18  19
ATOM     19  C   UNL     1      -1.803  -1.166  -0.934  1.00  0.00     0.232 C 
ATOM     20  N   UNL     1      -2.520  -2.268  -1.302  1.00  0.00    -0.369 N 
ATOM     21  O   UNL     1      -1.635  -0.241  -1.725  1.00  0.00    -0.274 OA
ATOM     22  H   UNL     1      -2.651  -3.006  -0.663  1.00  0.00     0.159 HD
ATOM     23  H   UNL     1      -2.906  -2.325  -2.206  1.00  0.00     0.159 HD
ENDBRANCH  18  19
ENDBRANCH  16  18
ENDBRANCH  13  16
ENDBRANCH   7  13
ENDBRANCH   4   6
ENDBRANCH   3   4
ENDBRANCH   2   3
ENDBRANCH   1   2
BRANCH   1  24
ATOM     24  O   UNL     1      -1.581  -9.657   3.606  1.00  0.00    -0.374 OA
BRANCH  24  25
ATOM     25  C   UNL     1      -1.936  -8.709   2.598  1.00  0.00     0.202 C 
BRANCH  25  26
ATOM     26  C   UNL     1      -3.430  -8.640   2.265  1.00  0.00     0.261 C 
BRANCH  26  27
ATOM     27  O   UNL     1      -4.176  -8.049   3.345  1.00  0.00    -0.460 OA
BRANCH  27  28
ATOM     28  C   UNL     1      -4.944  -8.923   4.043  1.00  0.00     0.338 C 
ATOM     29  O   UNL     1      -5.141 -10.096   3.774  1.00  0.00    -0.246 OA
BRANCH  28  30
ATOM     30  C   UNL     1      -5.387  -8.308   5.312  1.00  0.00     0.060 A 
ATOM     31  C   UNL     1      -5.276  -9.087   6.470  1.00  0.00     0.016 A 
ATOM     32  C   UNL     1      -5.944  -7.027   5.373  1.00  0.00     0.016 A 
ATOM     33  C   UNL     1      -5.774  -8.614   7.681  1.00  0.00     0.010 A 
ATOM     34  C   UNL     1      -6.448  -6.555   6.592  1.00  0.00     0.010 A 
ATOM     35  C   UNL     1      -6.399  -7.362   7.743  1.00  0.00    -0.014 A 
BRANCH  35  36
ATOM     36  C   UNL     1      -7.133  -6.982   8.976  1.00  0.00     0.031 A 
ATOM     37  C   UNL     1      -8.625  -7.178   9.024  1.00  0.00     0.074 A 
ATOM     38  C   UNL     1      -6.474  -6.524  10.056  1.00  0.00     0.049 A 
ATOM     39  N   UNL     1      -9.464  -6.936   9.998  1.00  0.00    -0.248 NA
ATOM     40  C   UNL     1      -9.252  -7.716   7.807  1.00  0.00     0.031 C 
ATOM     41  C   UNL     1      -5.027  -6.328  10.140  1.00  0.00     0.029 A 
ATOM     42  N   UNL     1      -6.937  -6.144  11.290  1.00  0.00    -0.354 N 
ATOM     43  C   UNL     1     -10.718  -7.295   9.515  1.00  0.00     0.074 A 
ATOM     44  C   UNL     1     -10.532  -7.730   8.146  1.00  0.00     0.031 C 
ATOM     45  C   UNL     1      -4.722  -5.858  11.362  1.00  0.00     0.029 A 
ATOM     46  C   UNL     1      -5.951  -5.693  12.136  1.00  0.00     0.049 A 
ATOM     47  H   UNL     1      -7.887  -6.189  11.546  1.00  0.00     0.167 HD
ATOM     48  C   UNL     1     -11.913  -7.277  10.157  1.00  0.00     0.034 A 
ATOM     49  C   UNL     1      -6.034  -5.191  13.385  1.00  0.00     0.034 A 
ATOM     50  C   UNL     1     -12.086  -6.831  11.518  1.00  0.00     0.049 A 
ATOM     51  C   UNL     1      -7.385  -5.112  14.055  1.00  0.00     0.074 A 
ATOM     52  C   UNL     1     -13.248  -6.787  12.270  1.00  0.00     0.029 A 
ATOM     53  N   UNL     1     -11.071  -6.341  12.330  1.00  0.00    -0.354 N 
ATOM     54  N   UNL     1      -8.560  -5.474  13.593  1.00  0.00    -0.248 NA
ATOM     55  C   UNL     1      -7.417  -4.571  15.420  1.00  0.00     0.031 C 
ATOM     56  C   UNL     1     -12.948  -6.207  13.509  1.00  0.00     0.029 A 
ATOM     57  C   UNL     1     -11.585  -5.960  13.560  1.00  0.00     0.049 A 
ATOM     58  H   UNL     1     -10.124  -6.274  12.069  1.00  0.00     0.167 HD
ATOM     59  C   UNL     1      -9.465  -5.229  14.624  1.00  0.00     0.074 A 
ATOM     60  C   UNL     1      -8.697  -4.705  15.734  1.00  0.00     0.031 C 
ATOM     61  C   UNL     1     -10.809  -5.424  14.653  1.00  0.00     0.034 A 
BRANCH  48  62
ATOM     62  C   UNL     1     -13.128  -7.704   9.370  1.00  0.00     0.023 A 
ATOM     63  C   UNL     1     -13.282  -9.021   8.902  1.00  0.00     0.031 A 
ATOM     64  C   UNL     1     -14.133  -6.772   9.057  1.00  0.00     0.131 A 
ATOM     65  C   UNL     1     -14.380  -9.352   8.092  1.00  0.00     0.055 A 
ATOM     66  C   UNL     1     -15.261  -7.126   8.315  1.00  0.00     0.041 A 
ATOM     67  F   UNL     1     -14.028  -5.495   9.457  1.00  0.00    -0.206 F 
ATOM     68  C   UNL     1     -15.382  -8.420   7.815  1.00  0.00     0.022 A 
BRANCH  65  69
ATOM     69  S   UNL     1     -14.409 -10.980   7.292  1.00  0.00     0.124 S 
ATOM     70  O   UNL     1     -13.176 -10.946   6.509  1.00  0.00    -0.237 OA
ATOM     71  O   UNL     1     -14.419 -11.890   8.431  1.00  0.00    -0.237 OA
ATOM     72  O   UNL     1     -15.640 -10.952   6.504  1.00  0.00    -0.744 OA
ENDBRANCH  65  69
ENDBRANCH  48  62
BRANCH  49  73
ATOM     73  C   UNL     1      -4.815  -4.685  14.078  1.00  0.00     0.023 A 
ATOM     74  C   UNL     1      -4.341  -5.286  15.255  1.00  0.00     0.031 A 
ATOM     75  C   UNL     1      -4.139  -3.548  13.599  1.00  0.00     0.131 A 
ATOM     76  C   UNL     1      -3.253  -4.720  15.939  1.00  0.00     0.055 A 
ATOM     77  C   UNL     1      -3.027  -3.019  14.256  1.00  0.00     0.041 A 
ATOM     78  F   UNL     1      -4.550  -2.935  12.478  1.00  0.00    -0.206 F 
ATOM     79  C   UNL     1      -2.586  -3.598  15.442  1.00  0.00     0.022 A 
BRANCH  76  80
ATOM     80  S   UNL     1      -2.773  -5.425  17.540  1.00  0.00     0.124 S 
ATOM     81  O   UNL     1      -4.007  -5.294  18.305  1.00  0.00    -0.237 OA
ATOM     82  O   UNL     1      -2.388  -6.782  17.168  1.00  0.00    -0.237 OA
ATOM     83  O   UNL     1      -1.674  -4.564  17.974  1.00  0.00    -0.744 OA
ENDBRANCH  76  80
ENDBRANCH  49  73
BRANCH  61  84
ATOM     84  C   UNL     1     -11.519  -5.104  15.947  1.00  0.00     0.023 A 
ATOM     85  C   UNL     1     -11.623  -3.787  16.428  1.00  0.00     0.031 A 
ATOM     86  C   UNL     1     -12.084  -6.136  16.717  1.00  0.00     0.131 A 
ATOM     87  C   UNL     1     -12.223  -3.543  17.673  1.00  0.00     0.055 A 
ATOM     88  C   UNL     1     -12.733  -5.880  17.926  1.00  0.00     0.041 A 
ATOM     89  F   UNL     1     -12.014  -7.412  16.306  1.00  0.00    -0.206 F 
ATOM     90  C   UNL     1     -12.793  -4.579  18.417  1.00  0.00     0.022 A 
BRANCH  87  91
ATOM     91  S   UNL     1     -12.165  -1.862  18.353  1.00  0.00     0.124 S 
ATOM     92  O   UNL     1     -10.730  -1.598  18.390  1.00  0.00    -0.237 OA
ATOM     93  O   UNL     1     -12.928  -1.101  17.369  1.00  0.00    -0.237 OA
ATOM     94  O   UNL     1     -12.804  -1.999  19.661  1.00  0.00    -0.744 OA
ENDBRANCH  87  91
ENDBRANCH  61  84
ENDBRANCH  35  36
ENDBRANCH  28  30
ENDBRANCH  27  28
ENDBRANCH  26  27
ENDBRANCH  25  26
ENDBRANCH  24  25
ENDBRANCH   1  24
TORSDOF 21
