REMARK SMILES O=C(OCCOCCOC(=O)c1ccnc(-c2ccnc(COc3ccccc3)n2)c1)c1ccc(-c2c3nc(c(-c4cc(S(=O)(=O)[O-])ccc4F)c4ccc([nH]4)c(-c4cc(S(=O)(=O)[O-])ccc4F)c4nc(c(-c5cc(S(=O)(=O)[O-])ccc5F)c5ccc2[nH]5)C=C4)C=C3)cc1
REMARK SMILES IDX 7 1 6 2 5 3 4 4 3 5 2 6 1 7 32 8 33 9 94 10 34 11 93 12
REMARK SMILES IDX 35 13 36 14 37 15 87 16 38 17 92 18 86 19 88 20 39 21 91 22
REMARK SMILES IDX 85 23 84 24 40 26 72 27 52 28 71 29 53 30 56 31 70 32 89 33
REMARK SMILES IDX 54 34 55 35 69 37 90 38 57 39 41 40 42 41 50 42 43 43 49 44
REMARK SMILES IDX 51 45 48 46 44 47 45 48 46 49 47 50 73 51 74 52 82 53 75 54
REMARK SMILES IDX 81 55 83 56 80 57 76 58 77 59 78 60 79 61 58 62 59 63 67 64
REMARK SMILES IDX 60 65 66 66 68 67 65 68 61 69 62 70 63 71 64 72 8 73 9 74
REMARK SMILES IDX 10 75 11 76 12 77 13 78 31 79 14 80 16 81 15 82 17 83 18 84
REMARK SMILES IDX 30 85 19 86 21 87 20 88 22 89 23 90 24 91 25 92 29 93 26 94
REMARK SMILES IDX 28 95 27 96
REMARK H PARENT 88 25 56 36
REMARK Flexibility Score: inf
ROOT
ATOM      1  C   UNL     1       2.695   2.188   0.572  1.00  0.00     0.202 C 
ENDROOT
BRANCH   1   2
ATOM      2  O   UNL     1       4.029   1.804   0.214  1.00  0.00    -0.374 OA
BRANCH   2   3
ATOM      3  C   UNL     1       4.219   1.431  -1.152  1.00  0.00     0.202 C 
BRANCH   3   4
ATOM      4  C   UNL     1       3.838  -0.015  -1.494  1.00  0.00     0.261 C 
BRANCH   4   5
ATOM      5  O   UNL     1       2.469  -0.277  -1.137  1.00  0.00    -0.460 OA
BRANCH   5   6
ATOM      6  C   UNL     1       2.004  -1.065  -0.135  1.00  0.00     0.338 C 
ATOM      7  O   UNL     1       0.796  -1.289  -0.074  1.00  0.00    -0.246 OA
BRANCH   6   8
ATOM      8  C   UNL     1       2.888  -1.665   0.908  1.00  0.00     0.060 A 
ATOM      9  C   UNL     1       4.098  -1.109   1.317  1.00  0.00     0.016 A 
ATOM     10  C   UNL     1       2.430  -2.812   1.580  1.00  0.00     0.016 A 
ATOM     11  C   UNL     1       4.885  -1.715   2.280  1.00  0.00     0.010 A 
ATOM     12  C   UNL     1       3.183  -3.388   2.612  1.00  0.00     0.010 A 
ATOM     13  C   UNL     1       4.428  -2.846   2.951  1.00  0.00    -0.014 A 
BRANCH  13  14
ATOM     14  C   UNL     1       5.334  -3.438   3.955  1.00  0.00     0.031 A 
ATOM     15  C   UNL     1       6.054  -4.707   3.618  1.00  0.00     0.074 A 
ATOM     16  C   UNL     1       5.635  -2.723   5.057  1.00  0.00     0.049 A 
ATOM     17  N   UNL     1       6.936  -5.367   4.317  1.00  0.00    -0.248 NA
ATOM     18  C   UNL     1       5.753  -5.302   2.305  1.00  0.00     0.031 C 
ATOM     19  C   UNL     1       5.055  -1.417   5.391  1.00  0.00     0.029 A 
ATOM     20  N   UNL     1       6.533  -2.952   6.064  1.00  0.00    -0.354 N 
ATOM     21  C   UNL     1       7.298  -6.456   3.533  1.00  0.00     0.074 A 
ATOM     22  C   UNL     1       6.514  -6.384   2.319  1.00  0.00     0.031 C 
ATOM     23  C   UNL     1       5.649  -0.942   6.496  1.00  0.00     0.029 A 
ATOM     24  C   UNL     1       6.585  -1.940   6.997  1.00  0.00     0.049 A 
ATOM     25  H   UNL     1       7.090  -3.762   6.116  1.00  0.00     0.167 HD
ATOM     26  C   UNL     1       8.207  -7.422   3.809  1.00  0.00     0.034 A 
ATOM     27  C   UNL     1       7.289  -1.851   8.143  1.00  0.00     0.034 A 
ATOM     28  C   UNL     1       8.944  -7.470   5.047  1.00  0.00     0.049 A 
ATOM     29  C   UNL     1       8.208  -2.999   8.478  1.00  0.00     0.074 A 
ATOM     30  C   UNL     1       9.800  -8.450   5.513  1.00  0.00     0.029 A 
ATOM     31  N   UNL     1       8.907  -6.478   6.024  1.00  0.00    -0.354 N 
ATOM     32  N   UNL     1       8.471  -4.078   7.773  1.00  0.00    -0.248 NA
ATOM     33  C   UNL     1       8.921  -2.924   9.757  1.00  0.00     0.031 C 
ATOM     34  C   UNL     1      10.236  -8.077   6.791  1.00  0.00     0.029 A 
ATOM     35  C   UNL     1       9.711  -6.830   7.095  1.00  0.00     0.049 A 
ATOM     36  H   UNL     1       8.383  -5.646   5.962  1.00  0.00     0.167 HD
ATOM     37  C   UNL     1       9.387  -4.808   8.523  1.00  0.00     0.074 A 
ATOM     38  C   UNL     1       9.661  -4.022   9.711  1.00  0.00     0.031 C 
ATOM     39  C   UNL     1       9.944  -6.021   8.270  1.00  0.00     0.034 A 
BRANCH  26  40
ATOM     40  C   UNL     1       8.360  -8.522   2.789  1.00  0.00     0.023 A 
ATOM     41  C   UNL     1       8.860  -8.270   1.498  1.00  0.00     0.031 A 
ATOM     42  C   UNL     1       7.908  -9.822   3.077  1.00  0.00     0.131 A 
ATOM     43  C   UNL     1       8.818  -9.278   0.522  1.00  0.00     0.055 A 
ATOM     44  C   UNL     1       7.943 -10.842   2.124  1.00  0.00     0.041 A 
ATOM     45  F   UNL     1       7.390 -10.114   4.280  1.00  0.00    -0.206 F 
ATOM     46  C   UNL     1       8.385 -10.569   0.833  1.00  0.00     0.022 A 
BRANCH  43  47
ATOM     47  S   UNL     1       9.188  -8.838  -1.200  1.00  0.00     0.124 S 
ATOM     48  O   UNL     1       8.148  -7.851  -1.482  1.00  0.00    -0.237 OA
ATOM     49  O   UNL     1      10.549  -8.323  -1.111  1.00  0.00    -0.237 OA
ATOM     50  O   UNL     1       9.046 -10.104  -1.916  1.00  0.00    -0.744 OA
ENDBRANCH  43  47
ENDBRANCH  26  40
BRANCH  27  51
ATOM     51  C   UNL     1       7.090  -0.705   9.082  1.00  0.00     0.023 A 
ATOM     52  C   UNL     1       8.155   0.112   9.494  1.00  0.00     0.031 A 
ATOM     53  C   UNL     1       5.822  -0.452   9.643  1.00  0.00     0.131 A 
ATOM     54  C   UNL     1       7.945   1.101  10.471  1.00  0.00     0.055 A 
ATOM     55  C   UNL     1       5.604   0.576  10.561  1.00  0.00     0.041 A 
ATOM     56  F   UNL     1       4.763  -1.205   9.301  1.00  0.00    -0.206 F 
ATOM     57  C   UNL     1       6.674   1.349  10.994  1.00  0.00     0.022 A 
BRANCH  54  58
ATOM     58  S   UNL     1       9.381   1.984  11.145  1.00  0.00     0.124 S 
ATOM     59  O   UNL     1      10.237   0.882  11.568  1.00  0.00    -0.237 OA
ATOM     60  O   UNL     1       9.838   2.745   9.987  1.00  0.00    -0.237 OA
ATOM     61  O   UNL     1       8.811   2.783  12.229  1.00  0.00    -0.744 OA
ENDBRANCH  54  58
ENDBRANCH  27  51
BRANCH  39  62
ATOM     62  C   UNL     1      10.915  -6.535   9.300  1.00  0.00     0.023 A 
ATOM     63  C   UNL     1      10.493  -6.881  10.595  1.00  0.00     0.031 A 
ATOM     64  C   UNL     1      12.282  -6.647   8.992  1.00  0.00     0.131 A 
ATOM     65  C   UNL     1      11.440  -7.256  11.558  1.00  0.00     0.055 A 
ATOM     66  C   UNL     1      13.210  -7.085   9.935  1.00  0.00     0.041 A 
ATOM     67  F   UNL     1      12.735  -6.328   7.769  1.00  0.00    -0.206 F 
ATOM     68  C   UNL     1      12.793  -7.376  11.232  1.00  0.00     0.022 A 
BRANCH  65  69
ATOM     69  S   UNL     1      10.891  -7.473  13.272  1.00  0.00     0.124 S 
ATOM     70  O   UNL     1      10.306  -6.170  13.571  1.00  0.00    -0.237 OA
ATOM     71  O   UNL     1       9.950  -8.583  13.159  1.00  0.00    -0.237 OA
ATOM     72  O   UNL     1      12.126  -7.779  13.990  1.00  0.00    -0.744 OA
ENDBRANCH  65  69
ENDBRANCH  39  62
ENDBRANCH  13  14
ENDBRANCH   6   8
ENDBRANCH   5   6
ENDBRANCH   4   5
ENDBRANCH   3   4
ENDBRANCH   2   3
ENDBRANCH   1   2
BRANCH   1  73
ATOM     73  C   UNL     1       2.725   3.524   1.321  1.00  0.00     0.261 C 
BRANCH  73  74
ATOM     74  O   UNL     1       3.279   4.519   0.443  1.00  0.00    -0.460 OA
BRANCH  74  75
ATOM     75  C   UNL     1       4.628   4.650   0.525  1.00  0.00     0.338 C 
ATOM     76  O   UNL     1       5.348   4.360   1.464  1.00  0.00    -0.246 OA
BRANCH  75  77
ATOM     77  C   UNL     1       5.124   4.962  -0.829  1.00  0.00     0.063 A 
ATOM     78  C   UNL     1       4.409   5.790  -1.690  1.00  0.00     0.036 A 
ATOM     79  C   UNL     1       6.266   4.296  -1.273  1.00  0.00     0.046 A 
ATOM     80  C   UNL     1       4.848   5.883  -2.993  1.00  0.00     0.112 A 
ATOM     81  C   UNL     1       6.615   4.424  -2.607  1.00  0.00     0.090 A 
ATOM     82  N   UNL     1       5.904   5.196  -3.475  1.00  0.00    -0.255 NA
BRANCH  81  83
ATOM     83  C   UNL     1       7.740   3.688  -3.186  1.00  0.00     0.092 A 
ATOM     84  C   UNL     1       7.571   2.449  -3.774  1.00  0.00     0.051 A 
ATOM     85  N   UNL     1       8.925   4.333  -3.179  1.00  0.00    -0.228 NA
ATOM     86  C   UNL     1       8.687   1.902  -4.359  1.00  0.00     0.115 A 
ATOM     87  C   UNL     1       9.942   3.749  -3.838  1.00  0.00     0.166 A 
ATOM     88  N   UNL     1       9.873   2.531  -4.417  1.00  0.00    -0.238 NA
BRANCH  87  89
ATOM     89  C   UNL     1      11.171   4.585  -4.118  1.00  0.00     0.306 C 
BRANCH  89  90
ATOM     90  O   UNL     1      10.892   5.932  -4.555  1.00  0.00    -0.486 OA
BRANCH  90  91
ATOM     91  C   UNL     1      10.544   6.068  -5.872  1.00  0.00     0.119 A 
ATOM     92  C   UNL     1      11.217   7.056  -6.589  1.00  0.00     0.046 A 
ATOM     93  C   UNL     1       9.497   5.377  -6.483  1.00  0.00     0.046 A 
ATOM     94  C   UNL     1      10.879   7.318  -7.919  1.00  0.00     0.004 A 
ATOM     95  C   UNL     1       9.159   5.633  -7.813  1.00  0.00     0.004 A 
ATOM     96  C   UNL     1       9.853   6.601  -8.534  1.00  0.00     0.000 A 
ENDBRANCH  90  91
ENDBRANCH  89  90
ENDBRANCH  87  89
ENDBRANCH  81  83
ENDBRANCH  75  77
ENDBRANCH  74  75
ENDBRANCH  73  74
ENDBRANCH   1  73
TORSDOF 21
