REMARK SMILES C=CCOC(=O)N[C@@H](Cc1ccccc1)C(=O)OCCOCCOC(=O)c1ccc(-c2c3nc(c(-c4cc(S(=O)(=O)[O-])ccc4F)c4ccc([nH]4)c(-c4cc(S(=O)(=O)[O-])ccc4F)c4nc(c(-c5cc(S(=O)(=O)[O-])ccc5F)c5ccc2[nH]5)C=C4)C=C3)cc1
REMARK SMILES IDX 20 1 19 2 18 3 16 4 17 5 8 6 7 7 5 8 6 9 4 11 3 12 2 13 1 14
REMARK SMILES IDX 9 15 10 16 11 17 15 18 12 19 14 20 13 21 21 22 22 23 23 24
REMARK SMILES IDX 24 25 25 26 26 27 27 28 28 29 89 30 29 31 88 32 30 33 31 34
REMARK SMILES IDX 32 35 82 36 33 37 87 38 81 39 83 40 34 41 86 42 80 43 79 44
REMARK SMILES IDX 35 46 67 47 47 48 66 49 48 50 51 51 65 52 84 53 49 54 50 55
REMARK SMILES IDX 64 57 85 58 52 59 36 60 37 61 45 62 38 63 44 64 46 65 43 66
REMARK SMILES IDX 39 67 40 68 41 69 42 70 68 71 69 72 77 73 70 74 76 75 78 76
REMARK SMILES IDX 75 77 71 78 72 79 73 80 74 81 53 82 54 83 62 84 55 85 61 86
REMARK SMILES IDX 63 87 60 88 56 89 57 90 58 91 59 92
REMARK H PARENT 7 10 83 45 51 56
REMARK Flexibility Score: inf
ROOT
ATOM      1  C   UNL     1      -0.187   0.849   8.190  1.00  0.00     0.202 C 
ENDROOT
BRANCH   1   2
ATOM      2  C   UNL     1      -1.625   0.327   8.164  1.00  0.00     0.261 C 
BRANCH   2   3
ATOM      3  O   UNL     1      -1.971  -0.207   6.880  1.00  0.00    -0.462 OA
BRANCH   3   4
ATOM      4  C   UNL     1      -3.017   0.397   6.252  1.00  0.00     0.329 C 
ATOM      5  O   UNL     1      -3.741   1.255   6.746  1.00  0.00    -0.250 OA
BRANCH   4   6
ATOM      6  C   UNL     1      -3.265  -0.183   4.856  1.00  0.00     0.199 C 
BRANCH   6   7
ATOM      7  N   UNL     1      -2.158  -0.963   4.287  1.00  0.00    -0.308 N 
ATOM      8  C   UNL     1      -1.582  -0.796   3.067  1.00  0.00     0.408 C 
ATOM      9  O   UNL     1      -0.882  -1.673   2.568  1.00  0.00    -0.225 OA
ATOM     10  H   UNL     1      -1.793  -1.683   4.850  1.00  0.00     0.168 HD
BRANCH   8  11
ATOM     11  O   UNL     1      -1.863   0.400   2.500  1.00  0.00    -0.445 OA
BRANCH  11  12
ATOM     12  C   UNL     1      -1.414   0.588   1.150  1.00  0.00     0.262 C 
BRANCH  12  13
ATOM     13  C   UNL     1       0.069   0.806   1.065  1.00  0.00     0.006 C 
ATOM     14  C   UNL     1       0.873   0.108   0.249  1.00  0.00     0.007 C 
ENDBRANCH  12  13
ENDBRANCH  11  12
ENDBRANCH   8  11
ENDBRANCH   6   7
BRANCH   6  15
ATOM     15  C   UNL     1      -4.554  -1.028   4.911  1.00  0.00     0.072 C 
BRANCH  15  16
ATOM     16  C   UNL     1      -4.431  -2.243   5.810  1.00  0.00    -0.045 A 
ATOM     17  C   UNL     1      -3.932  -3.452   5.306  1.00  0.00     0.004 A 
ATOM     18  C   UNL     1      -4.736  -2.151   7.176  1.00  0.00     0.004 A 
ATOM     19  C   UNL     1      -3.720  -4.538   6.156  1.00  0.00     0.000 A 
ATOM     20  C   UNL     1      -4.521  -3.238   8.024  1.00  0.00     0.000 A 
ATOM     21  C   UNL     1      -4.010  -4.429   7.514  1.00  0.00     0.000 A 
ENDBRANCH  15  16
ENDBRANCH   6  15
ENDBRANCH   4   6
ENDBRANCH   3   4
ENDBRANCH   2   3
ENDBRANCH   1   2
BRANCH   1  22
ATOM     22  O   UNL     1       0.191   1.794   7.192  1.00  0.00    -0.374 OA
BRANCH  22  23
ATOM     23  C   UNL     1       0.263   1.363   5.834  1.00  0.00     0.202 C 
BRANCH  23  24
ATOM     24  C   UNL     1       1.322   0.326   5.428  1.00  0.00     0.261 C 
BRANCH  24  25
ATOM     25  O   UNL     1       1.269  -0.909   6.162  1.00  0.00    -0.460 OA
BRANCH  25  26
ATOM     26  C   UNL     1       2.313  -1.083   7.014  1.00  0.00     0.338 C 
ATOM     27  O   UNL     1       3.235  -0.306   7.206  1.00  0.00    -0.246 OA
BRANCH  26  28
ATOM     28  C   UNL     1       2.121  -2.282   7.851  1.00  0.00     0.060 A 
ATOM     29  C   UNL     1       2.157  -2.103   9.239  1.00  0.00     0.016 A 
ATOM     30  C   UNL     1       2.050  -3.563   7.301  1.00  0.00     0.016 A 
ATOM     31  C   UNL     1       2.184  -3.209  10.083  1.00  0.00     0.010 A 
ATOM     32  C   UNL     1       2.077  -4.676   8.155  1.00  0.00     0.010 A 
ATOM     33  C   UNL     1       2.187  -4.504   9.547  1.00  0.00    -0.014 A 
BRANCH  33  34
ATOM     34  C   UNL     1       2.438  -5.652  10.458  1.00  0.00     0.031 A 
ATOM     35  C   UNL     1       3.801  -6.292  10.489  1.00  0.00     0.074 A 
ATOM     36  C   UNL     1       1.480  -6.058  11.312  1.00  0.00     0.049 A 
ATOM     37  N   UNL     1       4.248  -7.259  11.250  1.00  0.00    -0.248 NA
ATOM     38  C   UNL     1       4.790  -5.775   9.532  1.00  0.00     0.031 C 
ATOM     39  C   UNL     1       0.135  -5.489  11.399  1.00  0.00     0.029 A 
ATOM     40  N   UNL     1       1.495  -7.031  12.279  1.00  0.00    -0.354 N 
ATOM     41  C   UNL     1       5.571  -7.465  10.867  1.00  0.00     0.074 A 
ATOM     42  C   UNL     1       5.833  -6.554   9.772  1.00  0.00     0.031 C 
ATOM     43  C   UNL     1      -0.541  -6.114  12.376  1.00  0.00     0.029 A 
ATOM     44  C   UNL     1       0.307  -7.151  12.961  1.00  0.00     0.049 A 
ATOM     45  H   UNL     1       2.283  -7.591  12.467  1.00  0.00     0.167 HD
ATOM     46  C   UNL     1       6.483  -8.324  11.389  1.00  0.00     0.034 A 
ATOM     47  C   UNL     1      -0.059  -8.005  13.937  1.00  0.00     0.034 A 
ATOM     48  C   UNL     1       6.199  -9.235  12.474  1.00  0.00     0.049 A 
ATOM     49  C   UNL     1       0.954  -8.996  14.457  1.00  0.00     0.074 A 
ATOM     50  C   UNL     1       7.050 -10.140  13.085  1.00  0.00     0.029 A 
ATOM     51  N   UNL     1       4.968  -9.365  13.106  1.00  0.00    -0.354 N 
ATOM     52  N   UNL     1       2.205  -9.170  14.095  1.00  0.00    -0.248 NA
ATOM     53  C   UNL     1       0.509  -9.889  15.533  1.00  0.00     0.031 C 
ATOM     54  C   UNL     1       6.315 -10.870  14.027  1.00  0.00     0.029 A 
ATOM     55  C   UNL     1       5.029 -10.358  14.074  1.00  0.00     0.049 A 
ATOM     56  H   UNL     1       4.168  -8.831  12.897  1.00  0.00     0.167 HD
ATOM     57  C   UNL     1       2.704 -10.172  14.925  1.00  0.00     0.074 A 
ATOM     58  C   UNL     1       1.626 -10.540  15.819  1.00  0.00     0.031 C 
ATOM     59  C   UNL     1       3.942 -10.733  14.950  1.00  0.00     0.034 A 
BRANCH  46  60
ATOM     60  C   UNL     1       7.855  -8.353  10.753  1.00  0.00     0.023 A 
ATOM     61  C   UNL     1       8.708  -7.234  10.767  1.00  0.00     0.031 A 
ATOM     62  C   UNL     1       8.310  -9.515  10.102  1.00  0.00     0.131 A 
ATOM     63  C   UNL     1       9.935  -7.278  10.085  1.00  0.00     0.055 A 
ATOM     64  C   UNL     1       9.568  -9.578   9.498  1.00  0.00     0.041 A 
ATOM     65  F   UNL     1       7.535 -10.608  10.033  1.00  0.00    -0.206 F 
ATOM     66  C   UNL     1      10.382  -8.451   9.474  1.00  0.00     0.022 A 
BRANCH  63  67
ATOM     67  S   UNL     1      10.873  -5.738   9.883  1.00  0.00     0.124 S 
ATOM     68  O   UNL     1       9.902  -4.889   9.197  1.00  0.00    -0.237 OA
ATOM     69  O   UNL     1      11.181  -5.373  11.261  1.00  0.00    -0.237 OA
ATOM     70  O   UNL     1      12.021  -6.139   9.072  1.00  0.00    -0.744 OA
ENDBRANCH  63  67
ENDBRANCH  46  60
BRANCH  47  71
ATOM     71  C   UNL     1      -1.451  -7.986  14.476  1.00  0.00     0.023 A 
ATOM     72  C   UNL     1      -1.709  -7.692  15.824  1.00  0.00     0.031 A 
ATOM     73  C   UNL     1      -2.543  -8.318  13.654  1.00  0.00     0.131 A 
ATOM     74  C   UNL     1      -3.018  -7.786  16.323  1.00  0.00     0.055 A 
ATOM     75  C   UNL     1      -3.851  -8.351  14.141  1.00  0.00     0.041 A 
ATOM     76  F   UNL     1      -2.355  -8.607  12.357  1.00  0.00    -0.206 F 
ATOM     77  C   UNL     1      -4.092  -8.099  15.487  1.00  0.00     0.022 A 
BRANCH  74  78
ATOM     78  S   UNL     1      -3.286  -7.585  18.106  1.00  0.00     0.124 S 
ATOM     79  O   UNL     1      -2.430  -8.630  18.655  1.00  0.00    -0.237 OA
ATOM     80  O   UNL     1      -2.844  -6.212  18.324  1.00  0.00    -0.237 OA
ATOM     81  O   UNL     1      -4.722  -7.807  18.260  1.00  0.00    -0.744 OA
ENDBRANCH  74  78
ENDBRANCH  47  71
BRANCH  59  82
ATOM     82  C   UNL     1       4.198 -11.775  16.018  1.00  0.00     0.023 A 
ATOM     83  C   UNL     1       3.483 -12.985  16.063  1.00  0.00     0.031 A 
ATOM     84  C   UNL     1       5.136 -11.529  17.038  1.00  0.00     0.131 A 
ATOM     85  C   UNL     1       3.647 -13.857  17.150  1.00  0.00     0.055 A 
ATOM     86  C   UNL     1       5.354 -12.438  18.074  1.00  0.00     0.041 A 
ATOM     87  F   UNL     1       5.849 -10.391  17.052  1.00  0.00    -0.206 F 
ATOM     88  C   UNL     1       4.592 -13.600  18.146  1.00  0.00     0.022 A 
BRANCH  85  89
ATOM     89  S   UNL     1       2.502 -15.254  17.324  1.00  0.00     0.124 S 
ATOM     90  O   UNL     1       1.204 -14.588  17.285  1.00  0.00    -0.237 OA
ATOM     91  O   UNL     1       2.833 -16.073  16.163  1.00  0.00    -0.237 OA
ATOM     92  O   UNL     1       2.863 -15.834  18.616  1.00  0.00    -0.744 OA
ENDBRANCH  85  89
ENDBRANCH  59  82
ENDBRANCH  33  34
ENDBRANCH  26  28
ENDBRANCH  25  26
ENDBRANCH  24  25
ENDBRANCH  23  24
ENDBRANCH  22  23
ENDBRANCH   1  22
TORSDOF 23
