REMARK SMILES C[C@H]1CCC[C@@H]1n1c(SCC(=O)OCCOCCOC(=O)c2ccc(-c3c4nc(c(-c5cc(S(=O)(=O)[O-])ccc5F)c5ccc([nH]5)c(-c5cc(S(=O)(=O)[O-])ccc5F)c5nc(c(-c6cc(S(=O)(=O)[O-])ccc6F)c6ccc3[nH]6)C=C5)C=C4)cc2)nc2cnccc21
REMARK SMILES IDX 16 1 15 2 14 3 13 4 11 5 12 6 10 7 9 8 8 9 7 10 91 11 85 12
REMARK SMILES IDX 86 13 90 14 87 15 89 16 88 17 6 18 1 19 2 20 3 21 4 22 5 23
REMARK SMILES IDX 17 24 18 25 19 26 20 27 21 28 22 29 23 30 84 31 24 32 83 33
REMARK SMILES IDX 25 34 26 35 27 36 77 37 28 38 82 39 76 40 78 41 29 42 81 43
REMARK SMILES IDX 75 44 74 45 30 47 62 48 42 49 61 50 43 51 46 52 60 53 79 54
REMARK SMILES IDX 44 55 45 56 59 58 80 59 47 60 31 61 32 62 40 63 33 64 39 65
REMARK SMILES IDX 41 66 38 67 34 68 35 69 36 70 37 71 63 72 64 73 72 74 65 75
REMARK SMILES IDX 71 76 73 77 70 78 66 79 67 80 68 81 69 82 48 83 49 84 57 85
REMARK SMILES IDX 50 86 56 87 58 88 55 89 51 90 52 91 53 92 54 93
REMARK H PARENT 78 46 46 57
REMARK Flexibility Score: inf
ROOT
ATOM      1  O   UNL     1       0.433   0.186  -3.084  1.00  0.00    -0.374 OA
ENDROOT
BRANCH   1   2
ATOM      2  C   UNL     1      -0.501   0.608  -4.078  1.00  0.00     0.202 C 
BRANCH   2   3
ATOM      3  C   UNL     1      -1.960   0.859  -3.679  1.00  0.00     0.261 C 
BRANCH   3   4
ATOM      4  O   UNL     1      -2.061   2.014  -2.822  1.00  0.00    -0.463 OA
BRANCH   4   5
ATOM      5  C   UNL     1      -2.951   1.936  -1.799  1.00  0.00     0.316 C 
ATOM      6  O   UNL     1      -3.771   1.032  -1.661  1.00  0.00    -0.251 OA
BRANCH   5   7
ATOM      7  C   UNL     1      -2.827   3.067  -0.782  1.00  0.00     0.200 C 
BRANCH   7   8
ATOM      8  S   UNL     1      -1.189   3.818  -0.700  1.00  0.00    -0.076 SA
BRANCH   8   9
ATOM      9  C   UNL     1      -0.335   3.319   0.774  1.00  0.00     0.169 A 
ATOM     10  N   UNL     1       0.389   2.117   0.901  1.00  0.00    -0.315 N 
ATOM     11  C   UNL     1       1.728   2.508   1.020  1.00  0.00     0.072 A 
ATOM     12  N   UNL     1       0.354   4.290   1.351  1.00  0.00    -0.221 NA
ATOM     13  C   UNL     1       1.660   3.867   1.322  1.00  0.00     0.108 A 
ATOM     14  C   UNL     1       2.965   1.863   0.892  1.00  0.00     0.049 A 
ATOM     15  C   UNL     1       2.847   4.587   1.501  1.00  0.00     0.141 A 
ATOM     16  C   UNL     1       4.085   2.660   1.085  1.00  0.00     0.113 A 
ATOM     17  N   UNL     1       4.055   3.973   1.391  1.00  0.00    -0.262 NA
BRANCH  10  18
ATOM     18  C   UNL     1      -0.147   0.856   1.450  1.00  0.00     0.093 C 
ATOM     19  C   UNL     1       1.659  -0.613   2.602  1.00  0.00     0.010 C 
ATOM     20  C   UNL     1       0.757  -0.411   1.388  1.00  0.00     0.009 C 
ATOM     21  C   UNL     1      -0.200  -1.593   1.221  1.00  0.00     0.005 C 
ATOM     22  C   UNL     1      -1.269  -1.041   0.312  1.00  0.00     0.002 C 
ATOM     23  C   UNL     1      -1.456   0.385   0.801  1.00  0.00     0.026 C 
ENDBRANCH  10  18
ENDBRANCH   8   9
ENDBRANCH   7   8
ENDBRANCH   5   7
ENDBRANCH   4   5
ENDBRANCH   3   4
ENDBRANCH   2   3
ENDBRANCH   1   2
BRANCH   1  24
ATOM     24  C   UNL     1       0.779   1.154  -2.105  1.00  0.00     0.202 C 
BRANCH  24  25
ATOM     25  C   UNL     1       1.770   2.283  -2.442  1.00  0.00     0.261 C 
BRANCH  25  26
ATOM     26  O   UNL     1       1.399   3.021  -3.596  1.00  0.00    -0.460 OA
BRANCH  26  27
ATOM     27  C   UNL     1       2.409   3.185  -4.487  1.00  0.00     0.338 C 
ATOM     28  O   UNL     1       3.606   3.285  -4.254  1.00  0.00    -0.246 OA
BRANCH  27  29
ATOM     29  C   UNL     1       1.816   2.748  -5.753  1.00  0.00     0.060 A 
ATOM     30  C   UNL     1       0.586   3.282  -6.152  1.00  0.00     0.016 A 
ATOM     31  C   UNL     1       2.301   1.533  -6.261  1.00  0.00     0.016 A 
ATOM     32  C   UNL     1      -0.218   2.513  -6.974  1.00  0.00     0.010 A 
ATOM     33  C   UNL     1       1.494   0.773  -7.092  1.00  0.00     0.010 A 
ATOM     34  C   UNL     1       0.217   1.241  -7.402  1.00  0.00    -0.014 A 
BRANCH  34  35
ATOM     35  C   UNL     1      -0.643   0.548  -8.354  1.00  0.00     0.031 A 
ATOM     36  C   UNL     1      -0.800   1.326  -9.613  1.00  0.00     0.074 A 
ATOM     37  C   UNL     1      -1.150  -0.694  -8.260  1.00  0.00     0.049 A 
ATOM     38  N   UNL     1      -1.865   1.869 -10.101  1.00  0.00    -0.248 NA
ATOM     39  C   UNL     1       0.449   1.692 -10.298  1.00  0.00     0.031 C 
ATOM     40  C   UNL     1      -0.830  -1.760  -7.311  1.00  0.00     0.029 A 
ATOM     41  N   UNL     1      -2.025  -1.292  -9.116  1.00  0.00    -0.354 N 
ATOM     42  C   UNL     1      -1.443   2.546 -11.243  1.00  0.00     0.074 A 
ATOM     43  C   UNL     1      -0.002   2.540 -11.215  1.00  0.00     0.031 C 
ATOM     44  C   UNL     1      -1.337  -2.928  -7.772  1.00  0.00     0.029 A 
ATOM     45  C   UNL     1      -2.109  -2.666  -8.976  1.00  0.00     0.049 A 
ATOM     46  H   UNL     1      -2.553  -0.790  -9.778  1.00  0.00     0.167 HD
ATOM     47  C   UNL     1      -2.292   2.943 -12.231  1.00  0.00     0.034 A 
ATOM     48  C   UNL     1      -2.670  -3.527  -9.860  1.00  0.00     0.034 A 
ATOM     49  C   UNL     1      -3.662   2.905 -11.812  1.00  0.00     0.049 A 
ATOM     50  C   UNL     1      -3.564  -2.760 -10.762  1.00  0.00     0.074 A 
ATOM     51  C   UNL     1      -4.411   3.607 -10.890  1.00  0.00     0.029 A 
ATOM     52  N   UNL     1      -4.401   1.793 -12.132  1.00  0.00    -0.354 N 
ATOM     53  N   UNL     1      -4.687  -2.209 -10.396  1.00  0.00    -0.248 NA
ATOM     54  C   UNL     1      -2.997  -2.253 -12.003  1.00  0.00     0.031 C 
ATOM     55  C   UNL     1      -5.334   2.660 -10.364  1.00  0.00     0.029 A 
ATOM     56  C   UNL     1      -5.114   1.442 -11.013  1.00  0.00     0.049 A 
ATOM     57  H   UNL     1      -4.417   1.333 -13.002  1.00  0.00     0.167 HD
ATOM     58  C   UNL     1      -4.742  -1.016 -11.103  1.00  0.00     0.074 A 
ATOM     59  C   UNL     1      -3.736  -1.151 -12.153  1.00  0.00     0.031 C 
ATOM     60  C   UNL     1      -5.398   0.077 -10.613  1.00  0.00     0.034 A 
BRANCH  47  61
ATOM     61  C   UNL     1      -1.863   3.122 -13.660  1.00  0.00     0.023 A 
ATOM     62  C   UNL     1      -0.672   2.559 -14.160  1.00  0.00     0.031 A 
ATOM     63  C   UNL     1      -2.717   3.701 -14.614  1.00  0.00     0.131 A 
ATOM     64  C   UNL     1      -0.325   2.643 -15.511  1.00  0.00     0.055 A 
ATOM     65  C   UNL     1      -2.411   3.714 -15.982  1.00  0.00     0.041 A 
ATOM     66  F   UNL     1      -3.895   4.234 -14.253  1.00  0.00    -0.206 F 
ATOM     67  C   UNL     1      -1.203   3.194 -16.436  1.00  0.00     0.022 A 
BRANCH  64  68
ATOM     68  S   UNL     1       1.294   2.050 -16.070  1.00  0.00     0.124 S 
ATOM     69  O   UNL     1       0.921   0.949 -16.951  1.00  0.00    -0.237 OA
ATOM     70  O   UNL     1       1.835   3.236 -16.729  1.00  0.00    -0.237 OA
ATOM     71  O   UNL     1       1.967   1.676 -14.829  1.00  0.00    -0.744 OA
ENDBRANCH  64  68
ENDBRANCH  47  61
BRANCH  48  72
ATOM     72  C   UNL     1      -2.096  -4.832 -10.262  1.00  0.00     0.023 A 
ATOM     73  C   UNL     1      -0.700  -5.012 -10.242  1.00  0.00     0.031 A 
ATOM     74  C   UNL     1      -2.862  -5.790 -10.945  1.00  0.00     0.131 A 
ATOM     75  C   UNL     1      -0.108  -6.086 -10.915  1.00  0.00     0.055 A 
ATOM     76  C   UNL     1      -2.270  -6.873 -11.607  1.00  0.00     0.041 A 
ATOM     77  F   UNL     1      -4.194  -5.656 -11.037  1.00  0.00    -0.206 F 
ATOM     78  C   UNL     1      -0.885  -7.018 -11.604  1.00  0.00     0.022 A 
BRANCH  75  79
ATOM     79  S   UNL     1       1.698  -6.246 -10.970  1.00  0.00     0.124 S 
ATOM     80  O   UNL     1       1.893  -7.655 -10.638  1.00  0.00    -0.237 OA
ATOM     81  O   UNL     1       1.985  -5.878 -12.352  1.00  0.00    -0.237 OA
ATOM     82  O   UNL     1       2.155  -5.304  -9.952  1.00  0.00    -0.744 OA
ENDBRANCH  75  79
ENDBRANCH  48  72
BRANCH  60  83
ATOM     83  C   UNL     1      -6.273  -0.083  -9.387  1.00  0.00     0.023 A 
ATOM     84  C   UNL     1      -7.562   0.478  -9.432  1.00  0.00     0.031 A 
ATOM     85  C   UNL     1      -5.804  -0.532  -8.137  1.00  0.00     0.131 A 
ATOM     86  C   UNL     1      -8.312   0.622  -8.258  1.00  0.00     0.055 A 
ATOM     87  C   UNL     1      -6.587  -0.456  -6.981  1.00  0.00     0.041 A 
ATOM     88  F   UNL     1      -4.548  -0.967  -7.976  1.00  0.00    -0.206 F 
ATOM     89  C   UNL     1      -7.841   0.141  -7.034  1.00  0.00     0.022 A 
BRANCH  86  90
ATOM     90  S   UNL     1      -9.843   1.591  -8.262  1.00  0.00     0.124 S 
ATOM     91  O   UNL     1     -10.839   0.599  -7.866  1.00  0.00    -0.237 OA
ATOM     92  O   UNL     1      -9.557   2.622  -7.266  1.00  0.00    -0.237 OA
ATOM     93  O   UNL     1      -9.954   2.074  -9.635  1.00  0.00    -0.744 OA
ENDBRANCH  86  90
ENDBRANCH  60  83
ENDBRANCH  34  35
ENDBRANCH  27  29
ENDBRANCH  26  27
ENDBRANCH  25  26
ENDBRANCH  24  25
ENDBRANCH   1  24
TORSDOF 20
