REMARK SMILES O=C(Cc1cncnc1N1CCC2(CC1)OCCC[C@@H]2O)OCCOCCOC(=O)c1ccc(-c2c3nc(c(-c4cc(S(=O)(=O)[O-])ccc4F)c4ccc([nH]4)c(-c4cc(S(=O)(=O)[O-])ccc4F)c4nc(c(-c5cc(S(=O)(=O)[O-])ccc5F)c5ccc2[nH]5)C=C4)C=C3)cc1
REMARK SMILES IDX 25 1 24 2 23 3 22 4 2 5 1 6 3 7 4 8 5 9 9 10 6 11 8 12 7 13
REMARK SMILES IDX 10 14 11 15 15 16 12 17 14 18 13 19 16 20 20 21 17 22 19 23
REMARK SMILES IDX 18 24 21 25 26 27 27 28 28 29 29 30 30 31 31 32 32 33 93 34
REMARK SMILES IDX 33 35 92 36 34 37 35 38 36 39 86 40 37 41 91 42 85 43 87 44
REMARK SMILES IDX 38 45 90 46 84 47 83 48 39 50 71 51 51 52 70 53 52 54 55 55
REMARK SMILES IDX 69 56 88 57 53 58 54 59 68 61 89 62 56 63 40 64 41 65 49 66
REMARK SMILES IDX 42 67 48 68 50 69 47 70 43 71 44 72 45 73 46 74 72 75 73 76
REMARK SMILES IDX 81 77 74 78 80 79 82 80 79 81 75 82 76 83 77 84 78 85 57 86
REMARK SMILES IDX 58 87 66 88 59 89 65 90 67 91 64 92 60 93 61 94 62 95 63 96
REMARK H PARENT 21 26 87 49 55 60
REMARK Flexibility Score: inf
ROOT
ATOM      1  O   UNL     1       4.614  -2.987   1.117  1.00  0.00    -0.374 OA
ENDROOT
BRANCH   1   2
ATOM      2  C   UNL     1       5.338  -1.762   1.074  1.00  0.00     0.202 C 
BRANCH   2   3
ATOM      3  C   UNL     1       4.835  -0.723   0.071  1.00  0.00     0.261 C 
BRANCH   3   4
ATOM      4  O   UNL     1       3.441  -0.420   0.257  1.00  0.00    -0.463 OA
BRANCH   4   5
ATOM      5  C   UNL     1       2.487  -0.653  -0.681  1.00  0.00     0.310 C 
ATOM      6  O   UNL     1       1.304  -0.749  -0.344  1.00  0.00    -0.252 OA
BRANCH   5   7
ATOM      7  C   UNL     1       2.897  -0.860  -2.116  1.00  0.00     0.163 C 
BRANCH   7   8
ATOM      8  C   UNL     1       3.727   0.229  -2.736  1.00  0.00     0.024 A 
ATOM      9  C   UNL     1       4.740  -0.094  -3.620  1.00  0.00     0.121 A 
ATOM     10  C   UNL     1       3.525   1.587  -2.512  1.00  0.00     0.135 A 
ATOM     11  N   UNL     1       5.531   0.811  -4.213  1.00  0.00    -0.244 NA
ATOM     12  N   UNL     1       4.299   2.522  -3.083  1.00  0.00    -0.219 NA
ATOM     13  C   UNL     1       5.271   2.087  -3.899  1.00  0.00     0.224 A 
BRANCH  10  14
ATOM     14  N   UNL     1       2.474   1.989  -1.703  1.00  0.00    -0.356 N 
ATOM     15  C   UNL     1       1.327   2.546  -2.405  1.00  0.00     0.121 C 
ATOM     16  C   UNL     1       2.807   2.730  -0.488  1.00  0.00     0.121 C 
ATOM     17  C   UNL     1       0.102   2.302  -1.534  1.00  0.00     0.060 C 
ATOM     18  C   UNL     1       1.661   2.529   0.506  1.00  0.00     0.060 C 
ATOM     19  C   UNL     1       0.259   2.836  -0.083  1.00  0.00     0.097 C 
ATOM     20  O   UNL     1       0.160   4.276  -0.063  1.00  0.00    -0.372 OA
ATOM     21  C   UNL     1      -0.841   2.179   0.818  1.00  0.00     0.146 C 
ATOM     22  C   UNL     1      -1.127   4.831  -0.316  1.00  0.00     0.161 C 
ATOM     23  C   UNL     1      -2.228   2.733   0.498  1.00  0.00     0.037 C 
ATOM     24  C   UNL     1      -2.212   4.253   0.579  1.00  0.00     0.031 C 
BRANCH  21  25
ATOM     25  O   UNL     1      -0.622   2.408   2.215  1.00  0.00    -0.390 OA
ATOM     26  H   UNL     1      -0.676   3.358   2.400  1.00  0.00     0.211 HD
ENDBRANCH  21  25
ENDBRANCH  10  14
ENDBRANCH   7   8
ENDBRANCH   5   7
ENDBRANCH   4   5
ENDBRANCH   3   4
ENDBRANCH   2   3
ENDBRANCH   1   2
BRANCH   1  27
ATOM     27  C   UNL     1       3.299  -2.977   1.675  1.00  0.00     0.202 C 
BRANCH  27  28
ATOM     28  C   UNL     1       3.103  -2.507   3.124  1.00  0.00     0.261 C 
BRANCH  28  29
ATOM     29  O   UNL     1       3.444  -1.127   3.368  1.00  0.00    -0.460 OA
BRANCH  29  30
ATOM     30  C   UNL     1       4.466  -0.964   4.246  1.00  0.00     0.338 C 
ATOM     31  O   UNL     1       5.126  -1.851   4.763  1.00  0.00    -0.246 OA
BRANCH  30  32
ATOM     32  C   UNL     1       4.810   0.454   4.453  1.00  0.00     0.060 A 
ATOM     33  C   UNL     1       6.114   0.854   4.133  1.00  0.00     0.016 A 
ATOM     34  C   UNL     1       3.978   1.281   5.210  1.00  0.00     0.016 A 
ATOM     35  C   UNL     1       6.626   2.040   4.658  1.00  0.00     0.010 A 
ATOM     36  C   UNL     1       4.496   2.470   5.740  1.00  0.00     0.010 A 
ATOM     37  C   UNL     1       5.844   2.815   5.525  1.00  0.00    -0.014 A 
BRANCH  37  38
ATOM     38  C   UNL     1       6.520   3.818   6.391  1.00  0.00     0.031 A 
ATOM     39  C   UNL     1       6.937   3.405   7.782  1.00  0.00     0.074 A 
ATOM     40  C   UNL     1       6.819   5.046   5.936  1.00  0.00     0.049 A 
ATOM     41  N   UNL     1       7.574   4.087   8.700  1.00  0.00    -0.248 NA
ATOM     42  C   UNL     1       6.582   2.036   8.190  1.00  0.00     0.031 C 
ATOM     43  C   UNL     1       6.502   5.554   4.603  1.00  0.00     0.029 A 
ATOM     44  N   UNL     1       7.466   6.090   6.550  1.00  0.00    -0.354 N 
ATOM     45  C   UNL     1       7.695   3.233   9.793  1.00  0.00     0.074 A 
ATOM     46  C   UNL     1       7.031   1.998   9.435  1.00  0.00     0.031 C 
ATOM     47  C   UNL     1       6.953   6.816   4.500  1.00  0.00     0.029 A 
ATOM     48  C   UNL     1       7.575   7.211   5.763  1.00  0.00     0.049 A 
ATOM     49  H   UNL     1       7.819   6.039   7.467  1.00  0.00     0.167 HD
ATOM     50  C   UNL     1       8.312   3.451  10.982  1.00  0.00     0.034 A 
ATOM     51  C   UNL     1       8.109   8.419   6.035  1.00  0.00     0.034 A 
ATOM     52  C   UNL     1       8.964   4.687  11.335  1.00  0.00     0.049 A 
ATOM     53  C   UNL     1       8.751   8.656   7.380  1.00  0.00     0.074 A 
ATOM     54  C   UNL     1       9.623   5.013  12.509  1.00  0.00     0.029 A 
ATOM     55  N   UNL     1       9.033   5.809  10.519  1.00  0.00    -0.354 N 
ATOM     56  N   UNL     1       8.872   7.835   8.398  1.00  0.00    -0.248 NA
ATOM     57  C   UNL     1       9.345   9.982   7.604  1.00  0.00     0.031 C 
ATOM     58  C   UNL     1      10.042   6.347  12.422  1.00  0.00     0.029 A 
ATOM     59  C   UNL     1       9.702   6.833  11.170  1.00  0.00     0.049 A 
ATOM     60  H   UNL     1       8.660   5.867   9.610  1.00  0.00     0.167 HD
ATOM     61  C   UNL     1       9.586   8.535   9.367  1.00  0.00     0.074 A 
ATOM     62  C   UNL     1       9.874   9.840   8.810  1.00  0.00     0.031 C 
ATOM     63  C   UNL     1       9.977   8.132  10.604  1.00  0.00     0.034 A 
BRANCH  50  64
ATOM     64  C   UNL     1       8.254   2.337  11.999  1.00  0.00     0.023 A 
ATOM     65  C   UNL     1       8.893   1.103  11.784  1.00  0.00     0.031 A 
ATOM     66  C   UNL     1       7.509   2.495  13.181  1.00  0.00     0.131 A 
ATOM     67  C   UNL     1       8.716   0.053  12.700  1.00  0.00     0.055 A 
ATOM     68  C   UNL     1       7.396   1.472  14.123  1.00  0.00     0.041 A 
ATOM     69  F   UNL     1       6.860   3.644  13.430  1.00  0.00    -0.206 F 
ATOM     70  C   UNL     1       7.989   0.237  13.878  1.00  0.00     0.022 A 
BRANCH  67  71
ATOM     71  S   UNL     1       9.333  -1.596  12.263  1.00  0.00     0.124 S 
ATOM     72  O   UNL     1       8.617  -1.859  11.017  1.00  0.00    -0.237 OA
ATOM     73  O   UNL     1      10.769  -1.374  12.141  1.00  0.00    -0.237 OA
ATOM     74  O   UNL     1       8.924  -2.426  13.395  1.00  0.00    -0.744 OA
ENDBRANCH  67  71
ENDBRANCH  50  64
BRANCH  51  75
ATOM     75  C   UNL     1       8.051   9.511   5.025  1.00  0.00     0.023 A 
ATOM     76  C   UNL     1       9.217  10.008   4.421  1.00  0.00     0.031 A 
ATOM     77  C   UNL     1       6.824  10.109   4.688  1.00  0.00     0.131 A 
ATOM     78  C   UNL     1       9.137  11.099   3.542  1.00  0.00     0.055 A 
ATOM     79  C   UNL     1       6.745  11.166   3.780  1.00  0.00     0.041 A 
ATOM     80  F   UNL     1       5.681   9.668   5.237  1.00  0.00    -0.206 F 
ATOM     81  C   UNL     1       7.908  11.675   3.210  1.00  0.00     0.022 A 
BRANCH  78  82
ATOM     82  S   UNL     1      10.675  11.801   2.887  1.00  0.00     0.124 S 
ATOM     83  O   UNL     1      11.373  12.184   4.109  1.00  0.00    -0.237 OA
ATOM     84  O   UNL     1      11.236  10.671   2.154  1.00  0.00    -0.237 OA
ATOM     85  O   UNL     1      10.215  12.912   2.055  1.00  0.00    -0.744 OA
ENDBRANCH  78  82
ENDBRANCH  51  75
BRANCH  63  86
ATOM     86  C   UNL     1      10.808   9.102  11.407  1.00  0.00     0.023 A 
ATOM     87  C   UNL     1      10.271  10.298  11.914  1.00  0.00     0.031 A 
ATOM     88  C   UNL     1      12.168   8.832  11.646  1.00  0.00     0.131 A 
ATOM     89  C   UNL     1      11.102  11.207  12.585  1.00  0.00     0.055 A 
ATOM     90  C   UNL     1      12.978   9.716  12.360  1.00  0.00     0.041 A 
ATOM     91  F   UNL     1      12.731   7.704  11.185  1.00  0.00    -0.206 F 
ATOM     92  C   UNL     1      12.449  10.919  12.821  1.00  0.00     0.022 A 
BRANCH  89  93
ATOM     93  S   UNL     1      10.424  12.821  13.064  1.00  0.00     0.124 S 
ATOM     94  O   UNL     1       9.923  13.332  11.792  1.00  0.00    -0.237 OA
ATOM     95  O   UNL     1       9.411  12.453  14.047  1.00  0.00    -0.237 OA
ATOM     96  O   UNL     1      11.581  13.533  13.604  1.00  0.00    -0.744 OA
ENDBRANCH  89  93
ENDBRANCH  63  86
ENDBRANCH  37  38
ENDBRANCH  30  32
ENDBRANCH  29  30
ENDBRANCH  28  29
ENDBRANCH  27  28
ENDBRANCH   1  27
TORSDOF 20
