REMARK SMILES O=C(OCCOCCOC(=O)[C@@]12C[NH2+]C[C@H]1CN(C(=O)c1ccccc1-n1cncn1)C2)c1ccc(-c2c3nc(c(-c4cc(S(=O)(=O)[O-])ccc4F)c4ccc([nH]4)c(-c4cc(S(=O)(=O)[O-])ccc4F)c4nc(c(-c5cc(S(=O)(=O)[O-])ccc5F)c5ccc2[nH]5)C=C4)C=C3)cc1
REMARK SMILES IDX 6 1 5 2 4 3 3 4 2 5 1 6 33 7 34 8 95 9 35 10 94 11 36 12
REMARK SMILES IDX 37 13 38 14 88 15 39 16 93 17 87 18 89 19 40 20 92 21 86 22
REMARK SMILES IDX 85 23 41 25 73 26 53 27 72 28 54 29 57 30 71 31 90 32 55 33
REMARK SMILES IDX 56 34 70 36 91 37 58 38 42 39 43 40 51 41 44 42 50 43 52 44
REMARK SMILES IDX 49 45 45 46 46 47 47 48 48 49 74 50 75 51 83 52 76 53 82 54
REMARK SMILES IDX 84 55 81 56 77 57 78 58 79 59 80 60 59 61 60 62 68 63 61 64
REMARK SMILES IDX 67 65 69 66 66 67 62 68 63 69 64 70 65 71 7 72 8 73 9 74
REMARK SMILES IDX 10 75 11 76 12 77 13 78 16 79 32 80 14 81 15 82 17 83 18 84
REMARK SMILES IDX 19 87 20 88 21 89 22 90 26 91 23 92 25 93 24 94 27 95 28 96
REMARK SMILES IDX 31 97 29 98 30 99
REMARK H PARENT 89 24 57 35 14 85 14 86
REMARK Flexibility Score: inf
ROOT
ATOM      1  O   UNL     1       3.902  -0.553   1.340  1.00  0.00    -0.374 OA
ENDROOT
BRANCH   1   2
ATOM      2  C   UNL     1       4.581   0.533   0.731  1.00  0.00     0.202 C 
BRANCH   2   3
ATOM      3  C   UNL     1       4.462   0.734  -0.775  1.00  0.00     0.261 C 
BRANCH   3   4
ATOM      4  O   UNL     1       3.130   0.967  -1.260  1.00  0.00    -0.460 OA
BRANCH   4   5
ATOM      5  C   UNL     1       2.084   0.274  -0.751  1.00  0.00     0.338 C 
ATOM      6  O   UNL     1       1.189   0.825  -0.118  1.00  0.00    -0.246 OA
BRANCH   5   7
ATOM      7  C   UNL     1       1.950  -1.114  -1.262  1.00  0.00     0.060 A 
ATOM      8  C   UNL     1       3.037  -1.871  -1.697  1.00  0.00     0.016 A 
ATOM      9  C   UNL     1       0.659  -1.651  -1.359  1.00  0.00     0.016 A 
ATOM     10  C   UNL     1       2.843  -3.073  -2.344  1.00  0.00     0.010 A 
ATOM     11  C   UNL     1       0.461  -2.885  -1.974  1.00  0.00     0.010 A 
ATOM     12  C   UNL     1       1.553  -3.563  -2.517  1.00  0.00    -0.014 A 
BRANCH  12  13
ATOM     13  C   UNL     1       1.453  -4.797  -3.284  1.00  0.00     0.031 A 
ATOM     14  C   UNL     1       2.215  -5.968  -2.767  1.00  0.00     0.074 A 
ATOM     15  C   UNL     1       0.718  -4.903  -4.405  1.00  0.00     0.049 A 
ATOM     16  N   UNL     1       3.152  -6.642  -3.353  1.00  0.00    -0.248 NA
ATOM     17  C   UNL     1       1.955  -6.387  -1.384  1.00  0.00     0.031 C 
ATOM     18  C   UNL     1      -0.268  -3.958  -4.929  1.00  0.00     0.029 A 
ATOM     19  N   UNL     1       0.633  -5.961  -5.258  1.00  0.00    -0.354 N 
ATOM     20  C   UNL     1       3.485  -7.684  -2.490  1.00  0.00     0.074 A 
ATOM     21  C   UNL     1       2.798  -7.411  -1.253  1.00  0.00     0.031 C 
ATOM     22  C   UNL     1      -1.023  -4.586  -5.856  1.00  0.00     0.029 A 
ATOM     23  C   UNL     1      -0.476  -5.913  -6.085  1.00  0.00     0.049 A 
ATOM     24  H   UNL     1       1.296  -6.688  -5.285  1.00  0.00     0.167 HD
ATOM     25  C   UNL     1       4.185  -8.777  -2.903  1.00  0.00     0.034 A 
ATOM     26  C   UNL     1      -0.974  -6.928  -6.829  1.00  0.00     0.034 A 
ATOM     27  C   UNL     1       4.911  -8.517  -4.120  1.00  0.00     0.049 A 
ATOM     28  C   UNL     1       0.131  -7.881  -7.087  1.00  0.00     0.074 A 
ATOM     29  C   UNL     1       5.911  -7.634  -4.483  1.00  0.00     0.029 A 
ATOM     30  N   UNL     1       4.433  -9.033  -5.301  1.00  0.00    -0.354 N 
ATOM     31  N   UNL     1       1.184  -7.594  -7.804  1.00  0.00    -0.248 NA
ATOM     32  C   UNL     1       0.278  -9.037  -6.215  1.00  0.00     0.031 C 
ATOM     33  C   UNL     1       5.640  -7.305  -5.842  1.00  0.00     0.029 A 
ATOM     34  C   UNL     1       4.512  -8.028  -6.232  1.00  0.00     0.049 A 
ATOM     35  H   UNL     1       4.100  -9.947  -5.450  1.00  0.00     0.167 HD
ATOM     36  C   UNL     1       2.234  -8.254  -7.187  1.00  0.00     0.074 A 
ATOM     37  C   UNL     1       1.600  -9.216  -6.292  1.00  0.00     0.031 C 
ATOM     38  C   UNL     1       3.513  -7.779  -7.253  1.00  0.00     0.034 A 
BRANCH  25  39
ATOM     39  C   UNL     1       4.014 -10.177  -2.357  1.00  0.00     0.023 A 
ATOM     40  C   UNL     1       4.848 -11.193  -2.870  1.00  0.00     0.031 A 
ATOM     41  C   UNL     1       2.915 -10.617  -1.587  1.00  0.00     0.131 A 
ATOM     42  C   UNL     1       4.535 -12.552  -2.684  1.00  0.00     0.055 A 
ATOM     43  C   UNL     1       2.650 -11.969  -1.342  1.00  0.00     0.041 A 
ATOM     44  F   UNL     1       1.988  -9.778  -1.111  1.00  0.00    -0.206 F 
ATOM     45  C   UNL     1       3.444 -12.947  -1.917  1.00  0.00     0.022 A 
BRANCH  42  46
ATOM     46  S   UNL     1       5.465 -13.792  -3.625  1.00  0.00     0.124 S 
ATOM     47  O   UNL     1       5.408 -13.246  -4.977  1.00  0.00    -0.237 OA
ATOM     48  O   UNL     1       6.767 -13.753  -2.968  1.00  0.00    -0.237 OA
ATOM     49  O   UNL     1       4.698 -15.018  -3.418  1.00  0.00    -0.744 OA
ENDBRANCH  42  46
ENDBRANCH  25  39
BRANCH  26  50
ATOM     50  C   UNL     1      -2.417  -7.232  -6.986  1.00  0.00     0.023 A 
ATOM     51  C   UNL     1      -2.913  -7.999  -8.053  1.00  0.00     0.031 A 
ATOM     52  C   UNL     1      -3.325  -6.919  -5.946  1.00  0.00     0.131 A 
ATOM     53  C   UNL     1      -4.267  -8.400  -8.062  1.00  0.00     0.055 A 
ATOM     54  C   UNL     1      -4.666  -7.298  -5.971  1.00  0.00     0.041 A 
ATOM     55  F   UNL     1      -2.918  -6.296  -4.828  1.00  0.00    -0.206 F 
ATOM     56  C   UNL     1      -5.144  -8.047  -7.032  1.00  0.00     0.022 A 
BRANCH  53  57
ATOM     57  S   UNL     1      -4.881  -9.484  -9.386  1.00  0.00     0.124 S 
ATOM     58  O   UNL     1      -4.867  -8.596 -10.543  1.00  0.00    -0.237 OA
ATOM     59  O   UNL     1      -3.900 -10.563  -9.384  1.00  0.00    -0.237 OA
ATOM     60  O   UNL     1      -6.214  -9.868  -8.920  1.00  0.00    -0.744 OA
ENDBRANCH  53  57
ENDBRANCH  26  50
BRANCH  38  61
ATOM     61  C   UNL     1       3.849  -6.717  -8.275  1.00  0.00     0.023 A 
ATOM     62  C   UNL     1       3.263  -5.433  -8.304  1.00  0.00     0.031 A 
ATOM     63  C   UNL     1       4.924  -6.968  -9.146  1.00  0.00     0.131 A 
ATOM     64  C   UNL     1       3.759  -4.456  -9.188  1.00  0.00     0.055 A 
ATOM     65  C   UNL     1       5.421  -5.993 -10.010  1.00  0.00     0.041 A 
ATOM     66  F   UNL     1       5.547  -8.159  -9.133  1.00  0.00    -0.206 F 
ATOM     67  C   UNL     1       4.837  -4.732 -10.036  1.00  0.00     0.022 A 
BRANCH  64  68
ATOM     68  S   UNL     1       3.018  -2.793  -9.230  1.00  0.00     0.124 S 
ATOM     69  O   UNL     1       1.595  -3.060  -9.403  1.00  0.00    -0.237 OA
ATOM     70  O   UNL     1       3.416  -2.237  -7.939  1.00  0.00    -0.237 OA
ATOM     71  O   UNL     1       3.663  -2.161 -10.383  1.00  0.00    -0.744 OA
ENDBRANCH  64  68
ENDBRANCH  38  61
ENDBRANCH  12  13
ENDBRANCH   5   7
ENDBRANCH   4   5
ENDBRANCH   3   4
ENDBRANCH   2   3
ENDBRANCH   1   2
BRANCH   1  72
ATOM     72  C   UNL     1       3.026  -0.211   2.438  1.00  0.00     0.202 C 
BRANCH  72  73
ATOM     73  C   UNL     1       3.597   0.675   3.578  1.00  0.00     0.261 C 
BRANCH  73  74
ATOM     74  O   UNL     1       3.545   2.057   3.150  1.00  0.00    -0.463 OA
BRANCH  74  75
ATOM     75  C   UNL     1       4.496   2.944   3.570  1.00  0.00     0.320 C 
ATOM     76  O   UNL     1       4.968   2.963   4.696  1.00  0.00    -0.251 OA
BRANCH  75  77
ATOM     77  C   UNL     1       5.050   3.686   2.341  1.00  0.00     0.144 C 
ATOM     78  C   UNL     1       3.895   4.080   1.423  1.00  0.00     0.281 C 
ATOM     79  C   UNL     1       5.711   5.055   2.377  1.00  0.00     0.088 C 
ATOM     80  C   UNL     1       6.279   2.858   1.972  1.00  0.00     0.145 C 
ATOM     81  N   UNL     1       3.475   5.423   1.936  1.00  0.00    -0.345 N 
ATOM     82  C   UNL     1       4.601   5.995   2.715  1.00  0.00     0.267 C 
ATOM     83  C   UNL     1       7.002   4.873   3.112  1.00  0.00     0.130 C 
ATOM     84  N   UNL     1       7.401   3.535   2.665  1.00  0.00    -0.337 N 
ATOM     85  H   UNL     1       2.656   5.324   2.536  1.00  0.00     0.346 HD
ATOM     86  H   UNL     1       3.237   6.039   1.158  1.00  0.00     0.346 HD
BRANCH  84  87
ATOM     87  C   UNL     1       8.621   3.024   3.069  1.00  0.00     0.256 C 
ATOM     88  O   UNL     1       9.486   3.712   3.607  1.00  0.00    -0.269 OA
BRANCH  87  89
ATOM     89  C   UNL     1       8.893   1.574   2.934  1.00  0.00     0.065 A 
ATOM     90  C   UNL     1       9.084   0.899   4.154  1.00  0.00     0.016 A 
ATOM     91  C   UNL     1       8.913   0.849   1.736  1.00  0.00     0.079 A 
ATOM     92  C   UNL     1       9.266  -0.483   4.186  1.00  0.00     0.001 A 
ATOM     93  C   UNL     1       9.047  -0.553   1.782  1.00  0.00     0.029 A 
ATOM     94  C   UNL     1       9.237  -1.210   3.000  1.00  0.00     0.002 A 
BRANCH  91  95
ATOM     95  N   UNL     1       8.818   1.462   0.467  1.00  0.00    -0.220 N 
ATOM     96  C   UNL     1       9.173   2.727   0.069  1.00  0.00     0.225 A 
ATOM     97  N   UNL     1       8.270   0.803  -0.585  1.00  0.00    -0.155 NA
ATOM     98  N   UNL     1       8.811   2.934  -1.177  1.00  0.00    -0.223 NA
ATOM     99  C   UNL     1       8.277   1.734  -1.539  1.00  0.00     0.246 A 
ENDBRANCH  91  95
ENDBRANCH  87  89
ENDBRANCH  84  87
ENDBRANCH  75  77
ENDBRANCH  74  75
ENDBRANCH  73  74
ENDBRANCH  72  73
ENDBRANCH   1  72
TORSDOF 20
