REMARK SMILES CCc1ccc(OCC(=O)Nc2cc(C)c(O)c(C(=O)OCCOCCOC(=O)c3ccc(-c4c5nc(c(-c6cc(S(=O)(=O)[O-])ccc6F)c6ccc([nH]6)c(-c6cc(S(=O)(=O)[O-])ccc6F)c6nc(c(-c7cc(S(=O)(=O)[O-])ccc7F)c7ccc4[nH]7)C=C6)C=C5)cc3)c2)cc1
REMARK SMILES IDX 23 1 22 2 21 3 19 4 20 5 18 6 12 7 13 8 93 9 14 10 15 11
REMARK SMILES IDX 16 12 11 13 9 14 10 15 8 17 7 18 6 19 3 20 4 21 95 22 5 23
REMARK SMILES IDX 94 24 2 25 1 26 17 27 24 29 25 30 26 31 27 32 28 33 29 34
REMARK SMILES IDX 30 35 31 36 92 37 32 38 91 39 33 40 34 41 35 42 85 43 36 44
REMARK SMILES IDX 90 45 84 46 86 47 37 48 89 49 83 50 82 51 38 53 70 54 50 55
REMARK SMILES IDX 69 56 51 57 54 58 68 59 87 60 52 61 53 62 67 64 88 65 55 66
REMARK SMILES IDX 39 67 40 68 48 69 41 70 47 71 49 72 46 73 42 74 43 75 44 76
REMARK SMILES IDX 45 77 71 78 72 79 80 80 73 81 79 82 81 83 78 84 74 85 75 86
REMARK SMILES IDX 76 87 77 88 56 89 57 90 65 91 58 92 64 93 66 94 63 95 59 96
REMARK SMILES IDX 60 97 61 98 62 99
REMARK H PARENT 11 16 17 28 86 52 54 63
REMARK Flexibility Score: inf
ROOT
ATOM      1  C   UNL     1       5.885   3.476   4.628  1.00  0.00     0.202 C 
ENDROOT
BRANCH   1   2
ATOM      2  C   UNL     1       5.340   4.856   5.008  1.00  0.00     0.261 C 
BRANCH   2   3
ATOM      3  O   UNL     1       4.974   5.587   3.826  1.00  0.00    -0.460 OA
BRANCH   3   4
ATOM      4  C   UNL     1       5.858   6.526   3.419  1.00  0.00     0.342 C 
ATOM      5  O   UNL     1       6.841   6.927   4.025  1.00  0.00    -0.246 OA
BRANCH   4   6
ATOM      6  C   UNL     1       5.609   6.903   2.006  1.00  0.00     0.104 A 
ATOM      7  C   UNL     1       4.116   7.079   0.098  1.00  0.00     0.042 A 
ATOM      8  C   UNL     1       5.213   7.465  -0.687  1.00  0.00     0.033 A 
ATOM      9  C   UNL     1       4.334   6.772   1.436  1.00  0.00     0.045 A 
ATOM     10  C   UNL     1       6.500   7.603  -0.139  1.00  0.00    -0.006 A 
ATOM     11  C   UNL     1       7.619   8.095  -1.012  1.00  0.00     0.048 C 
ATOM     12  C   UNL     1       6.684   7.339   1.220  1.00  0.00     0.133 A 
BRANCH   7  13
ATOM     13  N   UNL     1       2.876   7.015  -0.556  1.00  0.00    -0.323 N 
ATOM     14  C   UNL     1       1.579   7.013  -0.129  1.00  0.00     0.262 C 
ATOM     15  O   UNL     1       0.706   6.948  -1.005  1.00  0.00    -0.271 OA
ATOM     16  H   UNL     1       2.959   6.958  -1.535  1.00  0.00     0.170 HD
BRANCH  14  17
ATOM     17  C   UNL     1       1.182   7.227   1.339  1.00  0.00     0.329 C 
BRANCH  17  18
ATOM     18  O   UNL     1       1.362   6.194   2.288  1.00  0.00    -0.484 OA
BRANCH  18  19
ATOM     19  C   UNL     1       0.950   4.947   1.922  1.00  0.00     0.120 A 
ATOM     20  C   UNL     1       0.278   2.294   1.302  1.00  0.00    -0.048 A 
ATOM     21  C   UNL     1       1.372   2.584   2.124  1.00  0.00     0.007 A 
ATOM     22  C   UNL     1      -0.480   3.355   0.800  1.00  0.00     0.007 A 
ATOM     23  C   UNL     1       1.702   3.899   2.441  1.00  0.00     0.047 A 
ATOM     24  C   UNL     1      -0.154   4.675   1.117  1.00  0.00     0.047 A 
BRANCH  20  25
ATOM     25  C   UNL     1      -0.102   0.871   0.985  1.00  0.00     0.032 C 
ATOM     26  C   UNL     1       0.772   0.260  -0.101  1.00  0.00     0.009 C 
ENDBRANCH  20  25
ENDBRANCH  18  19
ENDBRANCH  17  18
ENDBRANCH  14  17
ENDBRANCH   7  13
BRANCH  12  27
ATOM     27  O   UNL     1       7.948   7.492   1.732  1.00  0.00    -0.507 OA
ATOM     28  H   UNL     1       8.645   7.785   1.178  1.00  0.00     0.293 HD
ENDBRANCH  12  27
ENDBRANCH   4   6
ENDBRANCH   3   4
ENDBRANCH   2   3
ENDBRANCH   1   2
BRANCH   1  29
ATOM     29  O   UNL     1       7.129   3.511   3.924  1.00  0.00    -0.374 OA
BRANCH  29  30
ATOM     30  C   UNL     1       7.027   3.554   2.499  1.00  0.00     0.202 C 
BRANCH  30  31
ATOM     31  C   UNL     1       6.894   2.197   1.799  1.00  0.00     0.261 C 
BRANCH  31  32
ATOM     32  O   UNL     1       5.679   1.518   2.154  1.00  0.00    -0.460 OA
BRANCH  32  33
ATOM     33  C   UNL     1       5.803   0.581   3.128  1.00  0.00     0.338 C 
ATOM     34  O   UNL     1       6.824   0.235   3.697  1.00  0.00    -0.246 OA
BRANCH  33  35
ATOM     35  C   UNL     1       4.452   0.143   3.523  1.00  0.00     0.060 A 
ATOM     36  C   UNL     1       4.048   0.283   4.857  1.00  0.00     0.016 A 
ATOM     37  C   UNL     1       3.586  -0.404   2.582  1.00  0.00     0.016 A 
ATOM     38  C   UNL     1       2.765  -0.117   5.251  1.00  0.00     0.010 A 
ATOM     39  C   UNL     1       2.306  -0.794   2.983  1.00  0.00     0.010 A 
ATOM     40  C   UNL     1       1.871  -0.662   4.319  1.00  0.00    -0.014 A 
BRANCH  40  41
ATOM     41  C   UNL     1       0.543  -1.221   4.732  1.00  0.00     0.031 A 
ATOM     42  C   UNL     1       0.262  -2.682   4.462  1.00  0.00     0.074 A 
ATOM     43  C   UNL     1      -0.417  -0.469   5.313  1.00  0.00     0.049 A 
ATOM     44  N   UNL     1      -0.854  -3.355   4.578  1.00  0.00    -0.248 NA
ATOM     45  C   UNL     1       1.386  -3.474   3.937  1.00  0.00     0.031 C 
ATOM     46  C   UNL     1      -0.314   0.956   5.628  1.00  0.00     0.029 A 
ATOM     47  N   UNL     1      -1.683  -0.806   5.743  1.00  0.00    -0.354 N 
ATOM     48  C   UNL     1      -0.570  -4.634   4.109  1.00  0.00     0.074 A 
ATOM     49  C   UNL     1       0.787  -4.606   3.611  1.00  0.00     0.031 C 
ATOM     50  C   UNL     1      -1.448   1.358   6.232  1.00  0.00     0.029 A 
ATOM     51  C   UNL     1      -2.386   0.239   6.304  1.00  0.00     0.049 A 
ATOM     52  H   UNL     1      -2.053  -1.714   5.657  1.00  0.00     0.167 HD
ATOM     53  C   UNL     1      -1.340  -5.751   4.134  1.00  0.00     0.034 A 
ATOM     54  C   UNL     1      -3.641   0.291   6.805  1.00  0.00     0.034 A 
ATOM     55  C   UNL     1      -2.670  -5.801   4.680  1.00  0.00     0.049 A 
ATOM     56  C   UNL     1      -4.501  -0.958   6.781  1.00  0.00     0.074 A 
ATOM     57  C   UNL     1      -3.521  -6.888   4.776  1.00  0.00     0.029 A 
ATOM     58  N   UNL     1      -3.337  -4.722   5.243  1.00  0.00    -0.354 N 
ATOM     59  N   UNL     1      -4.208  -2.161   6.343  1.00  0.00    -0.248 NA
ATOM     60  C   UNL     1      -5.863  -0.841   7.327  1.00  0.00     0.031 C 
ATOM     61  C   UNL     1      -4.722  -6.456   5.346  1.00  0.00     0.029 A 
ATOM     62  C   UNL     1      -4.592  -5.118   5.678  1.00  0.00     0.049 A 
ATOM     63  H   UNL     1      -2.973  -3.811   5.321  1.00  0.00     0.167 HD
ATOM     64  C   UNL     1      -5.329  -2.948   6.612  1.00  0.00     0.074 A 
ATOM     65  C   UNL     1      -6.295  -2.090   7.260  1.00  0.00     0.031 C 
ATOM     66  C   UNL     1      -5.540  -4.263   6.350  1.00  0.00     0.034 A 
BRANCH  53  67
ATOM     67  C   UNL     1      -0.740  -7.010   3.555  1.00  0.00     0.023 A 
ATOM     68  C   UNL     1       0.424  -7.579   4.100  1.00  0.00     0.031 A 
ATOM     69  C   UNL     1      -1.302  -7.620   2.421  1.00  0.00     0.131 A 
ATOM     70  C   UNL     1       1.047  -8.653   3.452  1.00  0.00     0.055 A 
ATOM     71  C   UNL     1      -0.734  -8.755   1.841  1.00  0.00     0.041 A 
ATOM     72  F   UNL     1      -2.403  -7.111   1.845  1.00  0.00    -0.206 F 
ATOM     73  C   UNL     1       0.460  -9.266   2.344  1.00  0.00     0.022 A 
BRANCH  70  74
ATOM     74  S   UNL     1       2.719  -9.117   3.976  1.00  0.00     0.124 S 
ATOM     75  O   UNL     1       3.458  -7.883   3.717  1.00  0.00    -0.237 OA
ATOM     76  O   UNL     1       2.527  -9.464   5.379  1.00  0.00    -0.237 OA
ATOM     77  O   UNL     1       3.056 -10.234   3.095  1.00  0.00    -0.744 OA
ENDBRANCH  70  74
ENDBRANCH  53  67
BRANCH  54  78
ATOM     78  C   UNL     1      -4.208   1.559   7.366  1.00  0.00     0.023 A 
ATOM     79  C   UNL     1      -4.653   1.622   8.700  1.00  0.00     0.031 A 
ATOM     80  C   UNL     1      -4.436   2.682   6.551  1.00  0.00     0.131 A 
ATOM     81  C   UNL     1      -5.374   2.740   9.151  1.00  0.00     0.055 A 
ATOM     82  C   UNL     1      -5.088   3.823   7.027  1.00  0.00     0.041 A 
ATOM     83  F   UNL     1      -4.044   2.681   5.268  1.00  0.00    -0.206 F 
ATOM     84  C   UNL     1      -5.582   3.847   8.328  1.00  0.00     0.022 A 
BRANCH  81  85
ATOM     85  S   UNL     1      -6.168   2.662  10.783  1.00  0.00     0.124 S 
ATOM     86  O   UNL     1      -7.001   1.472  10.648  1.00  0.00    -0.237 OA
ATOM     87  O   UNL     1      -5.019   2.544  11.674  1.00  0.00    -0.237 OA
ATOM     88  O   UNL     1      -6.895   3.927  10.868  1.00  0.00    -0.744 OA
ENDBRANCH  81  85
ENDBRANCH  54  78
BRANCH  66  89
ATOM     89  C   UNL     1      -6.829  -4.880   6.841  1.00  0.00     0.023 A 
ATOM     90  C   UNL     1      -8.083  -4.506   6.329  1.00  0.00     0.031 A 
ATOM     91  C   UNL     1      -6.793  -5.875   7.837  1.00  0.00     0.131 A 
ATOM     92  C   UNL     1      -9.252  -5.083   6.850  1.00  0.00     0.055 A 
ATOM     93  C   UNL     1      -7.954  -6.491   8.305  1.00  0.00     0.041 A 
ATOM     94  F   UNL     1      -5.624  -6.273   8.364  1.00  0.00    -0.206 F 
ATOM     95  C   UNL     1      -9.194  -6.087   7.820  1.00  0.00     0.022 A 
BRANCH  92  96
ATOM     96  S   UNL     1     -10.860  -4.444   6.303  1.00  0.00     0.124 S 
ATOM     97  O   UNL     1     -10.764  -3.033   6.660  1.00  0.00    -0.237 OA
ATOM     98  O   UNL     1     -10.845  -4.743   4.875  1.00  0.00    -0.237 OA
ATOM     99  O   UNL     1     -11.821  -5.218   7.087  1.00  0.00    -0.744 OA
ENDBRANCH  92  96
ENDBRANCH  66  89
ENDBRANCH  40  41
ENDBRANCH  33  35
ENDBRANCH  32  33
ENDBRANCH  31  32
ENDBRANCH  30  31
ENDBRANCH  29  30
ENDBRANCH   1  29
TORSDOF 23
