REMARK SMILES CC(C)c1nc(OCC(=O)OCCOCCOC(=O)c2ccc(-c3c4nc(c(-c5cc(S(=O)(=O)[O-])ccc5F)c5ccc([nH]5)c(-c5cc(S(=O)(=O)[O-])ccc5F)c5nc(c(-c6cc(S(=O)(=O)[O-])ccc6F)c6ccc3[nH]6)C=C5)C=C4)cc2)cc(-c2ccccn2)n1
REMARK SMILES IDX 14 1 13 2 12 3 11 4 9 5 10 6 8 7 7 8 6 9 4 10 5 11 91 12
REMARK SMILES IDX 84 13 83 14 2 15 1 16 3 17 85 18 86 19 90 20 87 21 89 22
REMARK SMILES IDX 88 23 15 24 16 25 17 26 18 27 19 28 20 29 21 30 82 31 22 32
REMARK SMILES IDX 81 33 23 34 24 35 25 36 75 37 26 38 80 39 74 40 76 41 27 42
REMARK SMILES IDX 79 43 73 44 72 45 28 47 60 48 40 49 59 50 41 51 44 52 58 53
REMARK SMILES IDX 77 54 42 55 43 56 57 58 78 59 45 60 29 61 30 62 38 63 31 64
REMARK SMILES IDX 37 65 39 66 36 67 32 68 33 69 34 70 35 71 61 72 62 73 70 74
REMARK SMILES IDX 63 75 69 76 71 77 68 78 64 79 65 80 66 81 67 82 46 83 47 84
REMARK SMILES IDX 55 85 48 86 54 87 56 88 53 89 49 90 50 91 51 92 52 93
REMARK H PARENT 76 46 44 57
REMARK Flexibility Score: inf
ROOT
ATOM      1  O   UNL     1      -5.915  -0.324   4.647  1.00  0.00    -0.374 OA
ENDROOT
BRANCH   1   2
ATOM      2  C   UNL     1      -5.884  -1.631   5.215  1.00  0.00     0.202 C 
BRANCH   2   3
ATOM      3  C   UNL     1      -6.283  -2.795   4.301  1.00  0.00     0.261 C 
BRANCH   3   4
ATOM      4  O   UNL     1      -5.409  -2.940   3.157  1.00  0.00    -0.461 OA
BRANCH   4   5
ATOM      5  C   UNL     1      -6.028  -3.020   1.946  1.00  0.00     0.344 C 
ATOM      6  O   UNL     1      -7.245  -3.029   1.784  1.00  0.00    -0.248 OA
BRANCH   5   7
ATOM      7  C   UNL     1      -5.067  -3.107   0.754  1.00  0.00     0.353 C 
BRANCH   7   8
ATOM      8  O   UNL     1      -3.693  -2.844   0.909  1.00  0.00    -0.466 OA
BRANCH   8   9
ATOM      9  C   UNL     1      -3.141  -1.644   0.580  1.00  0.00     0.217 A 
ATOM     10  C   UNL     1      -1.130  -0.523   0.705  1.00  0.00     0.135 A 
ATOM     11  N   UNL     1      -1.807  -1.680   0.740  1.00  0.00    -0.198 NA
ATOM     12  N   UNL     1      -1.708   0.677   0.538  1.00  0.00    -0.231 NA
ATOM     13  C   UNL     1      -3.045   0.697   0.334  1.00  0.00     0.096 A 
ATOM     14  C   UNL     1      -3.811  -0.467   0.312  1.00  0.00     0.099 A 
BRANCH  10  15
ATOM     15  C   UNL     1       0.360  -0.590   0.958  1.00  0.00     0.051 C 
ATOM     16  C   UNL     1       1.144  -0.023  -0.223  1.00  0.00     0.016 C 
ATOM     17  C   UNL     1       0.733   0.116   2.262  1.00  0.00     0.016 C 
ENDBRANCH  10  15
BRANCH  13  18
ATOM     18  C   UNL     1      -3.660   2.042   0.324  1.00  0.00     0.089 A 
ATOM     19  C   UNL     1      -3.912   2.736   1.511  1.00  0.00     0.030 A 
ATOM     20  N   UNL     1      -3.970   2.576  -0.882  1.00  0.00    -0.255 NA
ATOM     21  C   UNL     1      -4.540   3.977   1.483  1.00  0.00     0.004 A 
ATOM     22  C   UNL     1      -4.511   3.821  -0.884  1.00  0.00     0.112 A 
ATOM     23  C   UNL     1      -4.834   4.542   0.256  1.00  0.00     0.020 A 
ENDBRANCH  13  18
ENDBRANCH   8   9
ENDBRANCH   7   8
ENDBRANCH   5   7
ENDBRANCH   4   5
ENDBRANCH   3   4
ENDBRANCH   2   3
ENDBRANCH   1   2
BRANCH   1  24
ATOM     24  C   UNL     1      -5.090  -0.068   3.524  1.00  0.00     0.202 C 
BRANCH  24  25
ATOM     25  C   UNL     1      -3.567  -0.182   3.667  1.00  0.00     0.261 C 
BRANCH  25  26
ATOM     26  O   UNL     1      -3.095  -0.807   4.832  1.00  0.00    -0.460 OA
BRANCH  26  27
ATOM     27  C   UNL     1      -2.833   0.053   5.830  1.00  0.00     0.338 C 
ATOM     28  O   UNL     1      -2.999   1.262   5.858  1.00  0.00    -0.246 OA
BRANCH  27  29
ATOM     29  C   UNL     1      -2.415  -0.792   6.936  1.00  0.00     0.060 A 
ATOM     30  C   UNL     1      -3.109  -0.664   8.135  1.00  0.00     0.016 A 
ATOM     31  C   UNL     1      -1.396  -1.740   6.752  1.00  0.00     0.016 A 
ATOM     32  C   UNL     1      -2.738  -1.465   9.196  1.00  0.00     0.010 A 
ATOM     33  C   UNL     1      -1.039  -2.554   7.812  1.00  0.00     0.010 A 
ATOM     34  C   UNL     1      -1.685  -2.381   9.043  1.00  0.00    -0.014 A 
BRANCH  34  35
ATOM     35  C   UNL     1      -1.175  -3.040  10.251  1.00  0.00     0.031 A 
ATOM     36  C   UNL     1       0.033  -2.454  10.913  1.00  0.00     0.074 A 
ATOM     37  C   UNL     1      -1.871  -4.062  10.771  1.00  0.00     0.049 A 
ATOM     38  N   UNL     1       0.568  -2.752  12.064  1.00  0.00    -0.248 NA
ATOM     39  C   UNL     1       0.731  -1.383  10.181  1.00  0.00     0.031 C 
ATOM     40  C   UNL     1      -3.066  -4.658  10.168  1.00  0.00     0.029 A 
ATOM     41  N   UNL     1      -1.699  -4.751  11.937  1.00  0.00    -0.354 N 
ATOM     42  C   UNL     1       1.652  -1.894  12.204  1.00  0.00     0.074 A 
ATOM     43  C   UNL     1       1.736  -1.108  10.995  1.00  0.00     0.031 C 
ATOM     44  C   UNL     1      -3.539  -5.608  10.990  1.00  0.00     0.029 A 
ATOM     45  C   UNL     1      -2.669  -5.697  12.158  1.00  0.00     0.049 A 
ATOM     46  H   UNL     1      -0.953  -4.586  12.557  1.00  0.00     0.167 HD
ATOM     47  C   UNL     1       2.485  -1.770  13.265  1.00  0.00     0.034 A 
ATOM     48  C   UNL     1      -2.828  -6.531  13.202  1.00  0.00     0.034 A 
ATOM     49  C   UNL     1       2.374  -2.599  14.439  1.00  0.00     0.049 A 
ATOM     50  C   UNL     1      -1.858  -6.405  14.348  1.00  0.00     0.074 A 
ATOM     51  C   UNL     1       3.156  -2.599  15.578  1.00  0.00     0.029 A 
ATOM     52  N   UNL     1       1.414  -3.593  14.614  1.00  0.00    -0.354 N 
ATOM     53  N   UNL     1      -0.846  -5.576  14.487  1.00  0.00    -0.248 NA
ATOM     54  C   UNL     1      -2.065  -7.305  15.485  1.00  0.00     0.031 C 
ATOM     55  C   UNL     1       2.712  -3.635  16.409  1.00  0.00     0.029 A 
ATOM     56  C   UNL     1       1.602  -4.231  15.829  1.00  0.00     0.049 A 
ATOM     57  H   UNL     1       0.704  -3.810  13.968  1.00  0.00     0.167 HD
ATOM     58  C   UNL     1      -0.305  -5.843  15.740  1.00  0.00     0.074 A 
ATOM     59  C   UNL     1      -1.129  -6.887  16.323  1.00  0.00     0.031 C 
ATOM     60  C   UNL     1       0.770  -5.287  16.360  1.00  0.00     0.034 A 
BRANCH  47  61
ATOM     61  C   UNL     1       3.596  -0.755  13.154  1.00  0.00     0.023 A 
ATOM     62  C   UNL     1       3.335   0.622  13.021  1.00  0.00     0.031 A 
ATOM     63  C   UNL     1       4.937  -1.175  13.116  1.00  0.00     0.131 A 
ATOM     64  C   UNL     1       4.391   1.517  12.785  1.00  0.00     0.055 A 
ATOM     65  C   UNL     1       5.989  -0.269  12.959  1.00  0.00     0.041 A 
ATOM     66  F   UNL     1       5.248  -2.477  13.204  1.00  0.00    -0.206 F 
ATOM     67  C   UNL     1       5.718   1.084  12.778  1.00  0.00     0.022 A 
BRANCH  64  68
ATOM     68  S   UNL     1       3.997   3.233  12.342  1.00  0.00     0.124 S 
ATOM     69  O   UNL     1       3.207   3.050  11.127  1.00  0.00    -0.237 OA
ATOM     70  O   UNL     1       3.268   3.703  13.514  1.00  0.00    -0.237 OA
ATOM     71  O   UNL     1       5.309   3.844  12.137  1.00  0.00    -0.744 OA
ENDBRANCH  64  68
ENDBRANCH  47  61
BRANCH  48  72
ATOM     72  C   UNL     1      -3.927  -7.536  13.205  1.00  0.00     0.023 A 
ATOM     73  C   UNL     1      -4.948  -7.503  14.166  1.00  0.00     0.031 A 
ATOM     74  C   UNL     1      -3.957  -8.568  12.248  1.00  0.00     0.131 A 
ATOM     75  C   UNL     1      -5.932  -8.505  14.177  1.00  0.00     0.055 A 
ATOM     76  C   UNL     1      -4.965  -9.532  12.232  1.00  0.00     0.041 A 
ATOM     77  F   UNL     1      -3.009  -8.642  11.300  1.00  0.00    -0.206 F 
ATOM     78  C   UNL     1      -5.954  -9.512  13.209  1.00  0.00     0.022 A 
BRANCH  75  79
ATOM     79  S   UNL     1      -7.143  -8.521  15.527  1.00  0.00     0.124 S 
ATOM     80  O   UNL     1      -6.280  -8.566  16.702  1.00  0.00    -0.237 OA
ATOM     81  O   UNL     1      -7.859  -7.269  15.304  1.00  0.00    -0.237 OA
ATOM     82  O   UNL     1      -7.919  -9.733  15.274  1.00  0.00    -0.744 OA
ENDBRANCH  75  79
ENDBRANCH  48  72
BRANCH  60  83
ATOM     83  C   UNL     1       1.081  -5.801  17.743  1.00  0.00     0.023 A 
ATOM     84  C   UNL     1       1.484  -7.130  17.956  1.00  0.00     0.031 A 
ATOM     85  C   UNL     1       0.932  -4.963  18.861  1.00  0.00     0.131 A 
ATOM     86  C   UNL     1       1.643  -7.607  19.264  1.00  0.00     0.055 A 
ATOM     87  C   UNL     1       1.166  -5.424  20.156  1.00  0.00     0.041 A 
ATOM     88  F   UNL     1       0.549  -3.685  18.712  1.00  0.00    -0.206 F 
ATOM     89  C   UNL     1       1.504  -6.758  20.365  1.00  0.00     0.022 A 
BRANCH  86  90
ATOM     90  S   UNL     1       1.901  -9.385  19.509  1.00  0.00     0.124 S 
ATOM     91  O   UNL     1       0.740  -9.955  18.834  1.00  0.00    -0.237 OA
ATOM     92  O   UNL     1       3.188  -9.605  18.857  1.00  0.00    -0.237 OA
ATOM     93  O   UNL     1       1.909  -9.532  20.963  1.00  0.00    -0.744 OA
ENDBRANCH  86  90
ENDBRANCH  60  83
ENDBRANCH  34  35
ENDBRANCH  27  29
ENDBRANCH  26  27
ENDBRANCH  25  26
ENDBRANCH  24  25
ENDBRANCH   1  24
TORSDOF 21
