REMARK SMILES Nc1cccc(CC(=O)N2CC(C(=O)OCCOCCOC(=O)c3ccc(-c4c5nc(c(-c6cc(S(=O)(=O)[O-])ccc6F)c6ccc([nH]6)c(-c6cc(S(=O)(=O)[O-])ccc6F)c6nc(c(-c7cc(S(=O)(=O)[O-])ccc7F)c7ccc4[nH]7)C=C6)C=C5)cc3)C2)c1
REMARK SMILES IDX 18 1 17 2 16 3 15 4 13 5 14 6 12 7 8 8 9 9 10 10 11 11 87 12
REMARK SMILES IDX 7 13 6 14 2 15 3 16 88 17 4 18 5 19 1 20 19 23 20 24 21 25
REMARK SMILES IDX 22 26 23 27 24 28 25 29 86 30 26 31 85 32 27 33 28 34 29 35
REMARK SMILES IDX 79 36 30 37 84 38 78 39 80 40 31 41 83 42 77 43 76 44 32 46
REMARK SMILES IDX 64 47 44 48 63 49 45 50 48 51 62 52 81 53 46 54 47 55 61 57
REMARK SMILES IDX 82 58 49 59 33 60 34 61 42 62 35 63 41 64 43 65 40 66 36 67
REMARK SMILES IDX 37 68 38 69 39 70 65 71 66 72 74 73 67 74 73 75 75 76 72 77
REMARK SMILES IDX 68 78 69 79 70 80 71 81 50 82 51 83 59 84 52 85 58 86 60 87
REMARK SMILES IDX 57 88 53 89 54 90 55 91 56 92
REMARK H PARENT 1 21 1 22 80 45 48 56
REMARK Flexibility Score: inf
ROOT
ATOM      1  O   UNL     1      -0.107   0.697  -7.780  1.00  0.00    -0.374 OA
ENDROOT
BRANCH   1   2
ATOM      2  C   UNL     1       0.561   1.950  -7.916  1.00  0.00     0.202 C 
BRANCH   2   3
ATOM      3  C   UNL     1      -0.214   3.190  -7.460  1.00  0.00     0.261 C 
BRANCH   3   4
ATOM      4  O   UNL     1      -0.609   3.088  -6.082  1.00  0.00    -0.463 OA
BRANCH   4   5
ATOM      5  C   UNL     1      -1.954   3.052  -5.849  1.00  0.00     0.312 C 
ATOM      6  O   UNL     1      -2.803   3.248  -6.720  1.00  0.00    -0.252 OA
BRANCH   5   7
ATOM      7  C   UNL     1      -2.315   2.681  -4.412  1.00  0.00     0.138 C 
ATOM      8  C   UNL     1      -2.761   2.816  -1.238  1.00  0.00     0.227 C 
ATOM      9  O   UNL     1      -3.976   2.836  -1.035  1.00  0.00    -0.275 OA
ATOM     10  N   UNL     1      -2.214   3.205  -2.435  1.00  0.00    -0.341 N 
ATOM     11  C   UNL     1      -2.904   3.811  -3.564  1.00  0.00     0.136 C 
ATOM     12  C   UNL     1      -1.260   2.509  -3.299  1.00  0.00     0.136 C 
BRANCH   8  13
ATOM     13  C   UNL     1      -1.782   2.521  -0.122  1.00  0.00     0.135 C 
BRANCH  13  14
ATOM     14  C   UNL     1      -1.091   1.184  -0.166  1.00  0.00    -0.037 A 
ATOM     15  C   UNL     1       0.997  -0.084  -0.107  1.00  0.00     0.032 A 
ATOM     16  C   UNL     1       0.257  -1.266  -0.105  1.00  0.00     0.025 A 
ATOM     17  C   UNL     1       0.314   1.132  -0.166  1.00  0.00     0.029 A 
ATOM     18  C   UNL     1      -1.140  -1.234  -0.104  1.00  0.00     0.002 A 
ATOM     19  C   UNL     1      -1.814  -0.012  -0.127  1.00  0.00     0.004 A 
BRANCH  15  20
ATOM     20  N   UNL     1       2.380  -0.113  -0.165  1.00  0.00    -0.399 N 
ATOM     21  H   UNL     1       2.857  -0.973  -0.123  1.00  0.00     0.156 HD
ATOM     22  H   UNL     1       2.887   0.727  -0.248  1.00  0.00     0.156 HD
ENDBRANCH  15  20
ENDBRANCH  13  14
ENDBRANCH   8  13
ENDBRANCH   5   7
ENDBRANCH   4   5
ENDBRANCH   3   4
ENDBRANCH   2   3
ENDBRANCH   1   2
BRANCH   1  23
ATOM     23  C   UNL     1      -0.192   0.122  -6.476  1.00  0.00     0.202 C 
BRANCH  23  24
ATOM     24  C   UNL     1       1.096  -0.447  -5.867  1.00  0.00     0.261 C 
BRANCH  24  25
ATOM     25  O   UNL     1       2.078   0.568  -5.590  1.00  0.00    -0.460 OA
BRANCH  25  26
ATOM     26  C   UNL     1       3.208   0.477  -6.332  1.00  0.00     0.338 C 
ATOM     27  O   UNL     1       3.475  -0.389  -7.159  1.00  0.00    -0.246 OA
BRANCH  26  28
ATOM     28  C   UNL     1       4.038   1.682  -6.159  1.00  0.00     0.060 A 
ATOM     29  C   UNL     1       4.425   2.376  -7.314  1.00  0.00     0.016 A 
ATOM     30  C   UNL     1       4.503   2.081  -4.904  1.00  0.00     0.016 A 
ATOM     31  C   UNL     1       5.316   3.443  -7.223  1.00  0.00     0.010 A 
ATOM     32  C   UNL     1       5.406   3.147  -4.817  1.00  0.00     0.010 A 
ATOM     33  C   UNL     1       5.843   3.812  -5.978  1.00  0.00    -0.014 A 
BRANCH  33  34
ATOM     34  C   UNL     1       6.956   4.792  -5.916  1.00  0.00     0.031 A 
ATOM     35  C   UNL     1       8.367   4.285  -5.777  1.00  0.00     0.074 A 
ATOM     36  C   UNL     1       6.718   6.112  -6.013  1.00  0.00     0.049 A 
ATOM     37  N   UNL     1       9.484   4.956  -5.666  1.00  0.00    -0.248 NA
ATOM     38  C   UNL     1       8.536   2.825  -5.759  1.00  0.00     0.031 C 
ATOM     39  C   UNL     1       5.400   6.719  -6.197  1.00  0.00     0.029 A 
ATOM     40  N   UNL     1       7.577   7.182  -5.966  1.00  0.00    -0.354 N 
ATOM     41  C   UNL     1      10.491   4.001  -5.561  1.00  0.00     0.074 A 
ATOM     42  C   UNL     1       9.843   2.706  -5.584  1.00  0.00     0.031 C 
ATOM     43  C   UNL     1       5.538   8.055  -6.236  1.00  0.00     0.029 A 
ATOM     44  C   UNL     1       6.945   8.401  -6.043  1.00  0.00     0.049 A 
ATOM     45  H   UNL     1       8.553   7.085  -5.885  1.00  0.00     0.167 HD
ATOM     46  C   UNL     1      11.831   4.188  -5.464  1.00  0.00     0.034 A 
ATOM     47  C   UNL     1       7.442   9.650  -5.943  1.00  0.00     0.034 A 
ATOM     48  C   UNL     1      12.461   5.486  -5.432  1.00  0.00     0.049 A 
ATOM     49  C   UNL     1       8.928   9.835  -5.747  1.00  0.00     0.074 A 
ATOM     50  C   UNL     1      13.809   5.789  -5.351  1.00  0.00     0.029 A 
ATOM     51  N   UNL     1      11.785   6.699  -5.465  1.00  0.00    -0.354 N 
ATOM     52  N   UNL     1       9.870   8.924  -5.657  1.00  0.00    -0.248 NA
ATOM     53  C   UNL     1       9.418  11.216  -5.648  1.00  0.00     0.031 C 
ATOM     54  C   UNL     1      13.943   7.179  -5.262  1.00  0.00     0.029 A 
ATOM     55  C   UNL     1      12.685   7.750  -5.369  1.00  0.00     0.049 A 
ATOM     56  H   UNL     1      10.809   6.799  -5.545  1.00  0.00     0.167 HD
ATOM     57  C   UNL     1      11.066   9.625  -5.521  1.00  0.00     0.074 A 
ATOM     58  C   UNL     1      10.727  11.033  -5.554  1.00  0.00     0.031 C 
ATOM     59  C   UNL     1      12.332   9.150  -5.389  1.00  0.00     0.034 A 
BRANCH  46  60
ATOM     60  C   UNL     1      12.694   2.956  -5.330  1.00  0.00     0.023 A 
ATOM     61  C   UNL     1      12.788   2.001  -6.357  1.00  0.00     0.031 A 
ATOM     62  C   UNL     1      13.409   2.718  -4.143  1.00  0.00     0.131 A 
ATOM     63  C   UNL     1      13.521   0.821  -6.151  1.00  0.00     0.055 A 
ATOM     64  C   UNL     1      14.200   1.580  -3.974  1.00  0.00     0.041 A 
ATOM     65  F   UNL     1      13.339   3.582  -3.118  1.00  0.00    -0.206 F 
ATOM     66  C   UNL     1      14.247   0.616  -4.976  1.00  0.00     0.022 A 
BRANCH  63  67
ATOM     67  S   UNL     1      13.395  -0.505  -7.383  1.00  0.00     0.124 S 
ATOM     68  O   UNL     1      11.957  -0.764  -7.391  1.00  0.00    -0.237 OA
ATOM     69  O   UNL     1      13.937   0.125  -8.581  1.00  0.00    -0.237 OA
ATOM     70  O   UNL     1      14.210  -1.577  -6.817  1.00  0.00    -0.744 OA
ENDBRANCH  63  67
ENDBRANCH  46  60
BRANCH  47  71
ATOM     71  C   UNL     1       6.531  10.830  -5.979  1.00  0.00     0.023 A 
ATOM     72  C   UNL     1       6.615  11.785  -7.003  1.00  0.00     0.031 A 
ATOM     73  C   UNL     1       5.596  11.047  -4.950  1.00  0.00     0.131 A 
ATOM     74  C   UNL     1       5.812  12.936  -6.954  1.00  0.00     0.055 A 
ATOM     75  C   UNL     1       4.763  12.166  -4.933  1.00  0.00     0.041 A 
ATOM     76  F   UNL     1       5.476  10.165  -3.945  1.00  0.00    -0.206 F 
ATOM     77  C   UNL     1       4.878  13.126  -5.934  1.00  0.00     0.022 A 
BRANCH  74  78
ATOM     78  S   UNL     1       6.064  14.226  -8.204  1.00  0.00     0.124 S 
ATOM     79  O   UNL     1       7.469  14.562  -8.004  1.00  0.00    -0.237 OA
ATOM     80  O   UNL     1       5.743  13.517  -9.438  1.00  0.00    -0.237 OA
ATOM     81  O   UNL     1       5.112  15.264  -7.818  1.00  0.00    -0.744 OA
ENDBRANCH  74  78
ENDBRANCH  47  71
BRANCH  59  82
ATOM     82  C   UNL     1      13.444  10.169  -5.316  1.00  0.00     0.023 A 
ATOM     83  C   UNL     1      13.584  11.038  -4.220  1.00  0.00     0.031 A 
ATOM     84  C   UNL     1      14.374  10.275  -6.367  1.00  0.00     0.131 A 
ATOM     85  C   UNL     1      14.596  12.011  -4.224  1.00  0.00     0.055 A 
ATOM     86  C   UNL     1      15.414  11.204  -6.338  1.00  0.00     0.041 A 
ATOM     87  F   UNL     1      14.288   9.471  -7.439  1.00  0.00    -0.206 F 
ATOM     88  C   UNL     1      15.522  12.088  -5.268  1.00  0.00     0.022 A 
BRANCH  85  89
ATOM     89  S   UNL     1      14.635  13.235  -2.886  1.00  0.00     0.124 S 
ATOM     90  O   UNL     1      13.320  13.856  -3.004  1.00  0.00    -0.237 OA
ATOM     91  O   UNL     1      14.842  12.401  -1.706  1.00  0.00    -0.237 OA
ATOM     92  O   UNL     1      15.762  14.096  -3.240  1.00  0.00    -0.744 OA
ENDBRANCH  85  89
ENDBRANCH  59  82
ENDBRANCH  33  34
ENDBRANCH  26  28
ENDBRANCH  25  26
ENDBRANCH  24  25
ENDBRANCH  23  24
ENDBRANCH   1  23
TORSDOF 20
