REMARK SMILES Cc1cc(N2CC[NH+]([C@@H](C(=O)OCCOCCOC(=O)c3ccc(-c4c5nc(c(-c6cc(S(=O)(=O)[O-])ccc6F)c6ccc([nH]6)c(-c6cc(S(=O)(=O)[O-])ccc6F)c6nc(c(-c7cc(S(=O)(=O)[O-])ccc7F)c7ccc4[nH]7)C=C6)C=C5)cc3)c3c[nH]c4ccccc34)CC2)nc2ccccc12
REMARK SMILES IDX 16 1 15 2 14 3 13 4 12 5 10 6 11 7 9 8 8 9 5 10 6 11 94 12
REMARK SMILES IDX 7 13 93 14 4 16 1 17 2 18 3 19 101 20 96 21 100 22 95 23
REMARK SMILES IDX 97 24 99 25 98 26 84 27 85 28 92 29 86 30 87 31 91 32 88 34
REMARK SMILES IDX 90 35 89 36 17 37 18 38 19 39 20 40 21 41 22 42 83 43 23 44
REMARK SMILES IDX 82 45 24 46 25 47 26 48 76 49 27 50 81 51 75 52 77 53 28 54
REMARK SMILES IDX 80 55 74 56 73 57 29 59 61 60 41 61 60 62 42 63 45 64 59 65
REMARK SMILES IDX 78 66 43 67 44 68 58 70 79 71 46 72 30 73 31 74 39 75 32 76
REMARK SMILES IDX 38 77 40 78 37 79 33 80 34 81 35 82 36 83 62 84 63 85 71 86
REMARK SMILES IDX 64 87 70 88 72 89 69 90 65 91 66 92 67 93 68 94 47 95 48 96
REMARK SMILES IDX 56 97 49 98 55 99 57 100 54 101 50 102 51 103 52 104 53 105
REMARK H PARENT 8 15 86 33 77 58 45 69
REMARK Flexibility Score: inf
ROOT
ATOM      1  C   UNL     1      -0.801  -5.539  -0.078  1.00  0.00     0.202 C 
ENDROOT
BRANCH   1   2
ATOM      2  O   UNL     1      -0.547  -6.082  -1.365  1.00  0.00    -0.374 OA
BRANCH   2   3
ATOM      3  C   UNL     1      -1.103  -5.410  -2.487  1.00  0.00     0.202 C 
BRANCH   3   4
ATOM      4  C   UNL     1      -2.627  -5.430  -2.647  1.00  0.00     0.261 C 
BRANCH   4   5
ATOM      5  O   UNL     1      -3.355  -4.969  -1.488  1.00  0.00    -0.459 OA
BRANCH   5   6
ATOM      6  C   UNL     1      -4.059  -5.915  -0.799  1.00  0.00     0.370 C 
ATOM      7  O   UNL     1      -4.043  -7.108  -1.107  1.00  0.00    -0.245 OA
BRANCH   6   8
ATOM      8  C   UNL     1      -4.926  -5.398   0.366  1.00  0.00     0.328 C 
BRANCH   8   9
ATOM      9  N   UNL     1      -5.286  -3.937   0.491  1.00  0.00    -0.316 N 
ATOM     10  N   UNL     1      -3.658  -1.520   0.949  1.00  0.00    -0.345 N 
ATOM     11  C   UNL     1      -3.755  -2.587   1.940  1.00  0.00     0.179 C 
ATOM     12  C   UNL     1      -3.886  -1.986  -0.447  1.00  0.00     0.179 C 
ATOM     13  C   UNL     1      -5.145  -3.217   1.762  1.00  0.00     0.285 C 
ATOM     14  C   UNL     1      -5.104  -2.965  -0.597  1.00  0.00     0.285 C 
ATOM     15  H   UNL     1      -6.229  -4.316   0.401  1.00  0.00     0.349 HD
BRANCH  10  16
ATOM     16  C   UNL     1      -2.587  -0.639   1.145  1.00  0.00     0.129 A 
ATOM     17  C   UNL     1      -1.945   3.061   0.632  1.00  0.00     0.045 C 
ATOM     18  C   UNL     1      -1.702   1.604   0.916  1.00  0.00    -0.038 A 
ATOM     19  C   UNL     1      -2.790   0.719   0.928  1.00  0.00     0.051 A 
ATOM     20  C   UNL     1      -0.399   1.082   1.065  1.00  0.00     0.003 A 
ATOM     21  C   UNL     1      -0.283  -0.299   1.322  1.00  0.00     0.073 A 
ATOM     22  C   UNL     1       0.775   1.856   0.894  1.00  0.00     0.010 A 
ATOM     23  N   UNL     1      -1.355  -1.121   1.419  1.00  0.00    -0.231 NA
ATOM     24  C   UNL     1       0.997  -0.849   1.360  1.00  0.00     0.029 A 
ATOM     25  C   UNL     1       2.036   1.263   0.865  1.00  0.00     0.001 A 
ATOM     26  C   UNL     1       2.146  -0.099   1.088  1.00  0.00     0.002 A 
ENDBRANCH  10  16
ENDBRANCH   8   9
BRANCH   8  27
ATOM     27  C   UNL     1      -4.683  -6.081   1.735  1.00  0.00     0.046 A 
ATOM     28  C   UNL     1      -5.661  -6.615   2.567  1.00  0.00     0.094 A 
ATOM     29  C   UNL     1      -3.580  -6.083   2.647  1.00  0.00     0.009 A 
ATOM     30  N   UNL     1      -5.473  -5.910   3.738  1.00  0.00    -0.361 N 
ATOM     31  C   UNL     1      -4.136  -5.605   3.834  1.00  0.00     0.046 A 
ATOM     32  C   UNL     1      -2.218  -6.410   2.683  1.00  0.00     0.011 A 
ATOM     33  H   UNL     1      -6.172  -5.668   4.388  1.00  0.00     0.166 HD
ATOM     34  C   UNL     1      -3.386  -5.010   4.846  1.00  0.00     0.026 A 
ATOM     35  C   UNL     1      -1.447  -6.005   3.783  1.00  0.00     0.001 A 
ATOM     36  C   UNL     1      -2.008  -5.223   4.793  1.00  0.00     0.002 A 
ENDBRANCH   8  27
ENDBRANCH   6   8
ENDBRANCH   5   6
ENDBRANCH   4   5
ENDBRANCH   3   4
ENDBRANCH   2   3
ENDBRANCH   1   2
BRANCH   1  37
ATOM     37  C   UNL     1      -0.198  -4.192   0.302  1.00  0.00     0.261 C 
BRANCH  37  38
ATOM     38  O   UNL     1      -0.516  -3.152  -0.625  1.00  0.00    -0.460 OA
BRANCH  38  39
ATOM     39  C   UNL     1       0.538  -2.718  -1.367  1.00  0.00     0.338 C 
ATOM     40  O   UNL     1       1.650  -3.200  -1.378  1.00  0.00    -0.246 OA
BRANCH  39  41
ATOM     41  C   UNL     1       0.147  -1.578  -2.235  1.00  0.00     0.060 A 
ATOM     42  C   UNL     1       0.960  -1.278  -3.325  1.00  0.00     0.016 A 
ATOM     43  C   UNL     1      -0.935  -0.750  -1.946  1.00  0.00     0.016 A 
ATOM     44  C   UNL     1       0.743  -0.108  -4.050  1.00  0.00     0.010 A 
ATOM     45  C   UNL     1      -1.157   0.426  -2.650  1.00  0.00     0.010 A 
ATOM     46  C   UNL     1      -0.285   0.769  -3.680  1.00  0.00    -0.014 A 
BRANCH  46  47
ATOM     47  C   UNL     1      -0.455   2.051  -4.381  1.00  0.00     0.031 A 
ATOM     48  C   UNL     1       0.149   3.303  -3.828  1.00  0.00     0.074 A 
ATOM     49  C   UNL     1      -1.206   2.065  -5.490  1.00  0.00     0.049 A 
ATOM     50  N   UNL     1       0.205   4.499  -4.348  1.00  0.00    -0.248 NA
ATOM     51  C   UNL     1       0.743   3.199  -2.490  1.00  0.00     0.031 C 
ATOM     52  C   UNL     1      -1.915   0.905  -6.032  1.00  0.00     0.029 A 
ATOM     53  N   UNL     1      -1.501   3.082  -6.351  1.00  0.00    -0.354 N 
ATOM     54  C   UNL     1       0.850   5.294  -3.404  1.00  0.00     0.074 A 
ATOM     55  C   UNL     1       1.098   4.454  -2.251  1.00  0.00     0.031 C 
ATOM     56  C   UNL     1      -2.557   1.276  -7.149  1.00  0.00     0.029 A 
ATOM     57  C   UNL     1      -2.300   2.692  -7.394  1.00  0.00     0.049 A 
ATOM     58  H   UNL     1      -1.173   4.002  -6.234  1.00  0.00     0.167 HD
ATOM     59  C   UNL     1       1.214   6.596  -3.518  1.00  0.00     0.034 A 
ATOM     60  C   UNL     1      -2.753   3.401  -8.442  1.00  0.00     0.034 A 
ATOM     61  C   UNL     1       0.933   7.383  -4.699  1.00  0.00     0.049 A 
ATOM     62  C   UNL     1      -2.287   4.823  -8.589  1.00  0.00     0.074 A 
ATOM     63  C   UNL     1       1.337   8.671  -5.000  1.00  0.00     0.029 A 
ATOM     64  N   UNL     1       0.152   6.954  -5.768  1.00  0.00    -0.354 N 
ATOM     65  N   UNL     1      -1.554   5.540  -7.766  1.00  0.00    -0.248 NA
ATOM     66  C   UNL     1      -2.670   5.516  -9.821  1.00  0.00     0.031 C 
ATOM     67  C   UNL     1       0.734   9.047  -6.206  1.00  0.00     0.029 A 
ATOM     68  C   UNL     1       0.028   7.964  -6.709  1.00  0.00     0.049 A 
ATOM     69  H   UNL     1      -0.255   6.060  -5.845  1.00  0.00     0.167 HD
ATOM     70  C   UNL     1      -1.365   6.766  -8.395  1.00  0.00     0.074 A 
ATOM     71  C   UNL     1      -2.048   6.677  -9.673  1.00  0.00     0.031 C 
ATOM     72  C   UNL     1      -0.685   7.861  -7.963  1.00  0.00     0.034 A 
BRANCH  59  73
ATOM     73  C   UNL     1       1.930   7.243  -2.350  1.00  0.00     0.023 A 
ATOM     74  C   UNL     1       3.139   6.731  -1.843  1.00  0.00     0.031 A 
ATOM     75  C   UNL     1       1.398   8.384  -1.723  1.00  0.00     0.131 A 
ATOM     76  C   UNL     1       3.724   7.298  -0.700  1.00  0.00     0.055 A 
ATOM     77  C   UNL     1       2.035   9.002  -0.642  1.00  0.00     0.041 A 
ATOM     78  F   UNL     1       0.237   8.915  -2.138  1.00  0.00    -0.206 F 
ATOM     79  C   UNL     1       3.196   8.449  -0.113  1.00  0.00     0.022 A 
BRANCH  76  80
ATOM     80  S   UNL     1       5.084   6.408   0.106  1.00  0.00     0.124 S 
ATOM     81  O   UNL     1       4.484   5.094   0.332  1.00  0.00    -0.237 OA
ATOM     82  O   UNL     1       6.137   6.465  -0.901  1.00  0.00    -0.237 OA
ATOM     83  O   UNL     1       5.334   7.187   1.317  1.00  0.00    -0.744 OA
ENDBRANCH  76  80
ENDBRANCH  59  73
BRANCH  60  84
ATOM     84  C   UNL     1      -3.634   2.740  -9.437  1.00  0.00     0.023 A 
ATOM     85  C   UNL     1      -3.179   2.452 -10.731  1.00  0.00     0.031 A 
ATOM     86  C   UNL     1      -4.930   2.325  -9.079  1.00  0.00     0.131 A 
ATOM     87  C   UNL     1      -4.023   1.789 -11.633  1.00  0.00     0.055 A 
ATOM     88  C   UNL     1      -5.749   1.626  -9.966  1.00  0.00     0.041 A 
ATOM     89  F   UNL     1      -5.399   2.555  -7.842  1.00  0.00    -0.206 F 
ATOM     90  C   UNL     1      -5.298   1.361 -11.255  1.00  0.00     0.022 A 
BRANCH  87  91
ATOM     91  S   UNL     1      -3.443   1.532 -13.331  1.00  0.00     0.124 S 
ATOM     92  O   UNL     1      -3.159   2.897 -13.759  1.00  0.00    -0.237 OA
ATOM     93  O   UNL     1      -2.284   0.669 -13.127  1.00  0.00    -0.237 OA
ATOM     94  O   UNL     1      -4.584   0.896 -13.986  1.00  0.00    -0.744 OA
ENDBRANCH  87  91
ENDBRANCH  60  84
BRANCH  72  95
ATOM     95  C   UNL     1      -0.637   9.041  -8.902  1.00  0.00     0.023 A 
ATOM     96  C   UNL     1      -1.797   9.755  -9.248  1.00  0.00     0.031 A 
ATOM     97  C   UNL     1       0.585   9.446  -9.469  1.00  0.00     0.131 A 
ATOM     98  C   UNL     1      -1.722  10.793 -10.187  1.00  0.00     0.055 A 
ATOM     99  C   UNL     1       0.663  10.527 -10.348  1.00  0.00     0.041 A 
ATOM    100  F   UNL     1       1.723   8.797  -9.177  1.00  0.00    -0.206 F 
ATOM    101  C   UNL     1      -0.497  11.197 -10.723  1.00  0.00     0.022 A 
BRANCH  98 102
ATOM    102  S   UNL     1      -3.265  11.534 -10.784  1.00  0.00     0.124 S 
ATOM    103  O   UNL     1      -3.966  10.374 -11.327  1.00  0.00    -0.237 OA
ATOM    104  O   UNL     1      -3.829  12.107  -9.567  1.00  0.00    -0.237 OA
ATOM    105  O   UNL     1      -2.816  12.507 -11.778  1.00  0.00    -0.744 OA
ENDBRANCH  98 102
ENDBRANCH  72  95
ENDBRANCH  46  47
ENDBRANCH  39  41
ENDBRANCH  38  39
ENDBRANCH  37  38
ENDBRANCH   1  37
TORSDOF 20
