REMARK SMILES C[C@H]([C@H](C)C(=O)OCCOCCOC(=O)c1ccc(-c2c3nc(c(-c4cc(S(=O)(=O)[O-])ccc4F)c4ccc([nH]4)c(-c4cc(S(=O)(=O)[O-])ccc4F)c4nc(c(-c5cc(S(=O)(=O)[O-])ccc5F)c5ccc2[nH]5)C=C4)C=C3)cc1)[C@H](O)c1cncn1C1CC1
REMARK SMILES IDX 9 1 8 2 7 3 5 4 6 5 3 6 4 7 2 8 1 9 79 10 81 11 82 12 85 13
REMARK SMILES IDX 83 14 84 15 86 16 87 17 88 18 80 19 10 21 11 22 12 23 13 24
REMARK SMILES IDX 14 25 15 26 16 27 17 28 78 29 18 30 77 31 19 32 20 33 21 34
REMARK SMILES IDX 71 35 22 36 76 37 70 38 72 39 23 40 75 41 69 42 68 43 24 45
REMARK SMILES IDX 56 46 36 47 55 48 37 49 40 50 54 51 73 52 38 53 39 54 53 56
REMARK SMILES IDX 74 57 41 58 25 59 26 60 34 61 27 62 33 63 35 64 32 65 28 66
REMARK SMILES IDX 29 67 30 68 31 69 57 70 58 71 66 72 59 73 65 74 67 75 64 76
REMARK SMILES IDX 60 77 61 78 62 79 63 80 42 81 43 82 51 83 44 84 50 85 52 86
REMARK SMILES IDX 49 87 45 88 46 89 47 90 48 91
REMARK H PARENT 80 20 72 44 40 55
REMARK Flexibility Score: inf
ROOT
ATOM      1  C   UNL     1      -2.266   3.459   0.898  1.00  0.00     0.202 C 
ENDROOT
BRANCH   1   2
ATOM      2  C   UNL     1      -3.609   2.735   0.730  1.00  0.00     0.261 C 
BRANCH   2   3
ATOM      3  O   UNL     1      -3.402   1.371   0.299  1.00  0.00    -0.463 OA
BRANCH   3   4
ATOM      4  C   UNL     1      -4.082   0.962  -0.801  1.00  0.00     0.309 C 
ATOM      5  O   UNL     1      -4.885   1.645  -1.425  1.00  0.00    -0.252 OA
BRANCH   4   6
ATOM      6  C   UNL     1      -3.724  -0.459  -1.223  1.00  0.00     0.102 C 
ATOM      7  C   UNL     1      -2.225  -0.685  -1.441  1.00  0.00     0.020 C 
BRANCH   6   8
ATOM      8  C   UNL     1      -4.450  -1.557  -0.398  1.00  0.00     0.035 C 
ATOM      9  C   UNL     1      -4.502  -2.852  -1.236  1.00  0.00     0.012 C 
BRANCH   8  10
ATOM     10  C   UNL     1      -3.875  -1.824   1.028  1.00  0.00     0.166 C 
BRANCH  10  11
ATOM     11  C   UNL     1      -4.479  -0.968   2.088  1.00  0.00     0.067 A 
ATOM     12  C   UNL     1      -5.825  -0.738   2.343  1.00  0.00     0.137 A 
ATOM     13  N   UNL     1      -3.848  -0.281   3.105  1.00  0.00    -0.329 N 
ATOM     14  N   UNL     1      -6.016   0.094   3.408  1.00  0.00    -0.245 NA
ATOM     15  C   UNL     1      -4.810   0.345   3.853  1.00  0.00     0.199 A 
BRANCH  13  16
ATOM     16  C   UNL     1      -2.451  -0.125   3.438  1.00  0.00     0.088 C 
ATOM     17  C   UNL     1      -1.369  -1.170   3.253  1.00  0.00     0.027 C 
ATOM     18  C   UNL     1      -1.394   0.031   2.379  1.00  0.00     0.027 C 
ENDBRANCH  13  16
ENDBRANCH  10  11
BRANCH  10  19
ATOM     19  O   UNL     1      -4.205  -3.157   1.426  1.00  0.00    -0.387 OA
ATOM     20  H   UNL     1      -5.169  -3.251   1.473  1.00  0.00     0.211 HD
ENDBRANCH  10  19
ENDBRANCH   8  10
ENDBRANCH   6   8
ENDBRANCH   4   6
ENDBRANCH   3   4
ENDBRANCH   2   3
ENDBRANCH   1   2
BRANCH   1  21
ATOM     21  O   UNL     1      -1.655   3.836  -0.340  1.00  0.00    -0.374 OA
BRANCH  21  22
ATOM     22  C   UNL     1      -0.963   2.797  -1.027  1.00  0.00     0.202 C 
BRANCH  22  23
ATOM     23  C   UNL     1       0.525   2.675  -0.684  1.00  0.00     0.261 C 
BRANCH  23  24
ATOM     24  O   UNL     1       0.748   2.155   0.642  1.00  0.00    -0.460 OA
BRANCH  24  25
ATOM     25  C   UNL     1       1.122   3.079   1.568  1.00  0.00     0.338 C 
ATOM     26  O   UNL     1       1.245   4.274   1.392  1.00  0.00    -0.246 OA
BRANCH  25  27
ATOM     27  C   UNL     1       1.232   2.445   2.906  1.00  0.00     0.060 A 
ATOM     28  C   UNL     1       0.637   3.106   3.987  1.00  0.00     0.016 A 
ATOM     29  C   UNL     1       1.892   1.228   3.109  1.00  0.00     0.016 A 
ATOM     30  C   UNL     1       0.737   2.576   5.278  1.00  0.00     0.010 A 
ATOM     31  C   UNL     1       1.979   0.692   4.403  1.00  0.00     0.010 A 
ATOM     32  C   UNL     1       1.435   1.381   5.504  1.00  0.00    -0.014 A 
BRANCH  32  33
ATOM     33  C   UNL     1       1.748   0.961   6.900  1.00  0.00     0.031 A 
ATOM     34  C   UNL     1       3.144   1.186   7.426  1.00  0.00     0.074 A 
ATOM     35  C   UNL     1       0.811   0.436   7.714  1.00  0.00     0.049 A 
ATOM     36  N   UNL     1       3.646   0.907   8.602  1.00  0.00    -0.248 NA
ATOM     37  C   UNL     1       4.100   1.803   6.495  1.00  0.00     0.031 C 
ATOM     38  C   UNL     1      -0.585   0.198   7.354  1.00  0.00     0.029 A 
ATOM     39  N   UNL     1       0.894   0.011   9.019  1.00  0.00    -0.354 N 
ATOM     40  C   UNL     1       4.977   1.310   8.551  1.00  0.00     0.074 A 
ATOM     41  C   UNL     1       5.213   1.804   7.210  1.00  0.00     0.031 C 
ATOM     42  C   UNL     1      -1.229  -0.324   8.413  1.00  0.00     0.029 A 
ATOM     43  C   UNL     1      -0.286  -0.491   9.520  1.00  0.00     0.049 A 
ATOM     44  H   UNL     1       1.722   0.061   9.548  1.00  0.00     0.167 HD
ATOM     45  C   UNL     1       5.914   1.290   9.531  1.00  0.00     0.034 A 
ATOM     46  C   UNL     1      -0.572  -1.034  10.723  1.00  0.00     0.034 A 
ATOM     47  C   UNL     1       5.678   0.803  10.867  1.00  0.00     0.049 A 
ATOM     48  C   UNL     1       0.513  -1.126  11.773  1.00  0.00     0.074 A 
ATOM     49  C   UNL     1       6.554   0.771  11.938  1.00  0.00     0.029 A 
ATOM     50  N   UNL     1       4.486   0.250  11.315  1.00  0.00    -0.354 N 
ATOM     51  N   UNL     1       1.760  -0.717  11.715  1.00  0.00    -0.248 NA
ATOM     52  C   UNL     1       0.148  -1.746  13.056  1.00  0.00     0.031 C 
ATOM     53  C   UNL     1       5.920   0.130  13.007  1.00  0.00     0.029 A 
ATOM     54  C   UNL     1       4.619  -0.162  12.633  1.00  0.00     0.049 A 
ATOM     55  H   UNL     1       3.667   0.163  10.777  1.00  0.00     0.167 HD
ATOM     56  C   UNL     1       2.311  -0.996  12.966  1.00  0.00     0.074 A 
ATOM     57  C   UNL     1       1.261  -1.598  13.758  1.00  0.00     0.031 C 
ATOM     58  C   UNL     1       3.570  -0.767  13.419  1.00  0.00     0.034 A 
BRANCH  45  59
ATOM     59  C   UNL     1       7.300   1.772   9.172  1.00  0.00     0.023 A 
ATOM     60  C   UNL     1       7.548   3.104   8.799  1.00  0.00     0.031 A 
ATOM     61  C   UNL     1       8.383   0.875   9.178  1.00  0.00     0.131 A 
ATOM     62  C   UNL     1       8.831   3.483   8.375  1.00  0.00     0.055 A 
ATOM     63  C   UNL     1       9.674   1.279   8.835  1.00  0.00     0.041 A 
ATOM     64  F   UNL     1       8.201  -0.414   9.503  1.00  0.00    -0.206 F 
ATOM     65  C   UNL     1       9.901   2.587   8.416  1.00  0.00     0.022 A 
BRANCH  62  66
ATOM     66  S   UNL     1       9.046   5.121   7.628  1.00  0.00     0.124 S 
ATOM     67  O   UNL     1       8.107   5.060   6.510  1.00  0.00    -0.237 OA
ATOM     68  O   UNL     1       8.682   6.016   8.720  1.00  0.00    -0.237 OA
ATOM     69  O   UNL     1      10.457   5.141   7.246  1.00  0.00    -0.744 OA
ENDBRANCH  62  66
ENDBRANCH  45  59
BRANCH  46  70
ATOM     70  C   UNL     1      -1.935  -1.574  11.013  1.00  0.00     0.023 A 
ATOM     71  C   UNL     1      -2.727  -1.038  12.042  1.00  0.00     0.031 A 
ATOM     72  C   UNL     1      -2.428  -2.694  10.320  1.00  0.00     0.131 A 
ATOM     73  C   UNL     1      -3.940  -1.655  12.386  1.00  0.00     0.055 A 
ATOM     74  C   UNL     1      -3.662  -3.269  10.628  1.00  0.00     0.041 A 
ATOM     75  F   UNL     1      -1.711  -3.250   9.330  1.00  0.00    -0.206 F 
ATOM     76  C   UNL     1      -4.420  -2.758  11.677  1.00  0.00     0.022 A 
BRANCH  73  77
ATOM     77  S   UNL     1      -4.838  -1.055  13.845  1.00  0.00     0.124 S 
ATOM     78  O   UNL     1      -3.844  -1.235  14.897  1.00  0.00    -0.237 OA
ATOM     79  O   UNL     1      -5.134   0.324  13.471  1.00  0.00    -0.237 OA
ATOM     80  O   UNL     1      -5.996  -1.942  13.920  1.00  0.00    -0.744 OA
ENDBRANCH  73  77
ENDBRANCH  46  70
BRANCH  58  81
ATOM     81  C   UNL     1       3.868  -1.119  14.859  1.00  0.00     0.023 A 
ATOM     82  C   UNL     1       3.866  -2.448  15.319  1.00  0.00     0.031 A 
ATOM     83  C   UNL     1       4.159  -0.102  15.787  1.00  0.00     0.131 A 
ATOM     84  C   UNL     1       4.099  -2.720  16.677  1.00  0.00     0.055 A 
ATOM     85  C   UNL     1       4.450  -0.384  17.123  1.00  0.00     0.041 A 
ATOM     86  F   UNL     1       4.174   1.186  15.408  1.00  0.00    -0.206 F 
ATOM     87  C   UNL     1       4.408  -1.698  17.578  1.00  0.00     0.022 A 
BRANCH  84  88
ATOM     88  S   UNL     1       3.908  -4.424  17.271  1.00  0.00     0.124 S 
ATOM     89  O   UNL     1       2.526  -4.719  16.908  1.00  0.00    -0.237 OA
ATOM     90  O   UNL     1       4.933  -5.135  16.514  1.00  0.00    -0.237 OA
ATOM     91  O   UNL     1       4.163  -4.317  18.707  1.00  0.00    -0.744 OA
ENDBRANCH  84  88
ENDBRANCH  58  81
ENDBRANCH  32  33
ENDBRANCH  25  27
ENDBRANCH  24  25
ENDBRANCH  23  24
ENDBRANCH  22  23
ENDBRANCH  21  22
ENDBRANCH   1  21
TORSDOF 22
