REMARK SMILES Cc1ccc(-c2cnnc(-n3nc(C)c4c3NC(=O)C[C@@H]4c3ccc(C(=O)OCCOCCOC(=O)c4ccc(-c5c6nc(c(-c7cc(S(=O)(=O)[O-])ccc7F)c7ccc([nH]7)c(-c7cc(S(=O)(=O)[O-])ccc7F)c7nc(c(-c8cc(S(=O)(=O)[O-])ccc8F)c8ccc5[nH]8)C=C7)C=C6)cc4)cc3)n2)cc1
REMARK SMILES IDX 31 1 30 2 29 3 28 4 26 5 27 6 25 7 22 8 23 9 101 10 24 11
REMARK SMILES IDX 100 12 21 13 11 14 12 15 16 16 13 17 15 18 17 19 14 20 18 21
REMARK SMILES IDX 20 23 19 24 10 25 6 26 7 27 102 28 8 29 9 30 5 31 1 32 2 33
REMARK SMILES IDX 3 34 104 35 4 36 103 37 32 38 33 39 34 40 35 41 36 42 37 43
REMARK SMILES IDX 38 44 99 45 39 46 98 47 40 48 41 49 42 50 92 51 43 52 97 53
REMARK SMILES IDX 91 54 93 55 44 56 96 57 90 58 89 59 45 61 77 62 57 63 76 64
REMARK SMILES IDX 58 65 61 66 75 67 94 68 59 69 60 70 74 72 95 73 62 74 46 75
REMARK SMILES IDX 47 76 55 77 48 78 54 79 56 80 53 81 49 82 50 83 51 84 52 85
REMARK SMILES IDX 78 86 79 87 87 88 80 89 86 90 88 91 85 92 81 93 82 94 83 95
REMARK SMILES IDX 84 96 63 97 64 98 72 99 65 100 71 101 73 102 70 103 66 104
REMARK SMILES IDX 67 105 68 106 69 107
REMARK H PARENT 17 22 93 60 61 71
REMARK Flexibility Score: inf
ROOT
ATOM      1  O   UNL     1      -9.334   6.870  -9.438  1.00  0.00    -0.374 OA
ENDROOT
BRANCH   1   2
ATOM      2  C   UNL     1      -9.648   7.199  -8.095  1.00  0.00     0.202 C 
BRANCH   2   3
ATOM      3  C   UNL     1     -10.806   6.338  -7.772  1.00  0.00     0.261 C 
BRANCH   3   4
ATOM      4  O   UNL     1     -10.490   4.939  -7.738  1.00  0.00    -0.460 OA
BRANCH   4   5
ATOM      5  C   UNL     1     -10.037   4.210  -8.791  1.00  0.00     0.338 C 
ATOM      6  O   UNL     1     -10.349   4.216  -9.948  1.00  0.00    -0.246 OA
BRANCH   5   7
ATOM      7  C   UNL     1      -9.029   3.344  -8.148  1.00  0.00     0.060 A 
ATOM      8  C   UNL     1      -7.345   1.769  -6.605  1.00  0.00    -0.040 A 
ATOM      9  C   UNL     1      -7.845   1.288  -7.837  1.00  0.00     0.005 A 
ATOM     10  C   UNL     1      -7.553   3.101  -6.271  1.00  0.00     0.005 A 
ATOM     11  C   UNL     1      -8.682   2.086  -8.626  1.00  0.00     0.016 A 
ATOM     12  C   UNL     1      -8.423   3.853  -7.000  1.00  0.00     0.016 A 
BRANCH   8  13
ATOM     13  C   UNL     1      -6.595   0.859  -5.671  1.00  0.00     0.064 C 
ATOM     14  N   UNL     1      -5.737   2.099  -2.383  1.00  0.00    -0.180 N 
ATOM     15  N   UNL     1      -7.046   2.408  -2.251  1.00  0.00    -0.168 NA
ATOM     16  C   UNL     1      -5.444   1.985  -3.728  1.00  0.00     0.143 A 
ATOM     17  C   UNL     1      -7.602   1.948  -3.380  1.00  0.00     0.066 A 
ATOM     18  C   UNL     1      -6.594   1.452  -4.285  1.00  0.00     0.026 A 
ATOM     19  N   UNL     1      -4.384   2.374  -4.529  1.00  0.00    -0.310 N 
ATOM     20  C   UNL     1      -9.056   2.221  -3.558  1.00  0.00     0.069 C 
ATOM     21  C   UNL     1      -4.369   1.927  -5.891  1.00  0.00     0.226 C 
ATOM     22  H   UNL     1      -3.662   2.941  -4.173  1.00  0.00     0.171 HD
ATOM     23  C   UNL     1      -5.162   0.676  -6.178  1.00  0.00     0.113 C 
ATOM     24  O   UNL     1      -3.631   2.504  -6.671  1.00  0.00    -0.275 OA
BRANCH  14  25
ATOM     25  C   UNL     1      -5.064   1.396  -1.342  1.00  0.00     0.272 A 
ATOM     26  C   UNL     1      -3.253   0.303  -0.498  1.00  0.00     0.095 A 
ATOM     27  C   UNL     1      -4.076  -0.336   0.413  1.00  0.00     0.164 A 
ATOM     28  N   UNL     1      -3.740   1.149  -1.442  1.00  0.00    -0.208 NA
ATOM     29  N   UNL     1      -5.388  -0.081   0.456  1.00  0.00    -0.153 NA
ATOM     30  N   UNL     1      -5.876   0.831  -0.408  1.00  0.00    -0.109 NA
BRANCH  26  31
ATOM     31  C   UNL     1      -1.796   0.190  -0.405  1.00  0.00     0.002 A 
ATOM     32  C   UNL     1       2.495  -0.041   0.069  1.00  0.00     0.044 C 
ATOM     33  C   UNL     1       1.006   0.046  -0.076  1.00  0.00    -0.051 A 
ATOM     34  C   UNL     1       0.238  -1.122  -0.138  1.00  0.00     0.004 A 
ATOM     35  C   UNL     1       0.369   1.285  -0.172  1.00  0.00     0.004 A 
ATOM     36  C   UNL     1      -1.149  -1.052  -0.300  1.00  0.00     0.011 A 
ATOM     37  C   UNL     1      -1.014   1.354  -0.340  1.00  0.00     0.011 A 
ENDBRANCH  26  31
ENDBRANCH  14  25
ENDBRANCH   8  13
ENDBRANCH   5   7
ENDBRANCH   4   5
ENDBRANCH   3   4
ENDBRANCH   2   3
ENDBRANCH   1   2
BRANCH   1  38
ATOM     38  C   UNL     1      -8.257   7.601  -9.965  1.00  0.00     0.202 C 
BRANCH  38  39
ATOM     39  C   UNL     1      -8.562   9.102 -10.006  1.00  0.00     0.261 C 
BRANCH  39  40
ATOM     40  O   UNL     1      -9.754   9.335 -10.794  1.00  0.00    -0.460 OA
BRANCH  40  41
ATOM     41  C   UNL     1     -10.882   9.693 -10.111  1.00  0.00     0.338 C 
ATOM     42  O   UNL     1     -10.959  10.621  -9.323  1.00  0.00    -0.246 OA
BRANCH  41  43
ATOM     43  C   UNL     1     -11.959   8.675 -10.322  1.00  0.00     0.060 A 
ATOM     44  C   UNL     1     -13.087   8.624  -9.472  1.00  0.00     0.016 A 
ATOM     45  C   UNL     1     -11.677   7.597 -11.152  1.00  0.00     0.016 A 
ATOM     46  C   UNL     1     -13.825   7.431  -9.332  1.00  0.00     0.010 A 
ATOM     47  C   UNL     1     -12.327   6.404 -10.925  1.00  0.00     0.010 A 
ATOM     48  C   UNL     1     -13.381   6.290  -9.998  1.00  0.00    -0.014 A 
BRANCH  48  49
ATOM     49  C   UNL     1     -13.808   4.902  -9.754  1.00  0.00     0.031 A 
ATOM     50  C   UNL     1     -14.394   4.179 -10.895  1.00  0.00     0.074 A 
ATOM     51  C   UNL     1     -13.437   4.210  -8.646  1.00  0.00     0.049 A 
ATOM     52  N   UNL     1     -15.090   3.106 -10.788  1.00  0.00    -0.248 NA
ATOM     53  C   UNL     1     -14.311   4.656 -12.273  1.00  0.00     0.031 C 
ATOM     54  C   UNL     1     -13.288   2.764  -8.451  1.00  0.00     0.029 A 
ATOM     55  N   UNL     1     -13.045   4.711  -7.408  1.00  0.00    -0.354 N 
ATOM     56  C   UNL     1     -15.207   2.570 -12.049  1.00  0.00     0.074 A 
ATOM     57  C   UNL     1     -14.879   3.650 -12.935  1.00  0.00     0.031 C 
ATOM     58  C   UNL     1     -13.104   2.495  -7.140  1.00  0.00     0.029 A 
ATOM     59  C   UNL     1     -13.223   3.750  -6.409  1.00  0.00     0.049 A 
ATOM     60  H   UNL     1     -12.692   5.617  -7.256  1.00  0.00     0.167 HD
ATOM     61  C   UNL     1     -15.387   1.226 -12.167  1.00  0.00     0.034 A 
ATOM     62  C   UNL     1     -13.982   4.062  -5.327  1.00  0.00     0.034 A 
ATOM     63  C   UNL     1     -15.493   0.613 -10.824  1.00  0.00     0.049 A 
ATOM     64  C   UNL     1     -15.255   3.276  -5.510  1.00  0.00     0.074 A 
ATOM     65  C   UNL     1     -14.639  -0.179 -10.072  1.00  0.00     0.029 A 
ATOM     66  N   UNL     1     -16.457   1.087  -9.929  1.00  0.00    -0.354 N 
ATOM     67  N   UNL     1     -15.598   2.774  -6.670  1.00  0.00    -0.248 NA
ATOM     68  C   UNL     1     -16.139   2.849  -4.436  1.00  0.00     0.031 C 
ATOM     69  C   UNL     1     -15.044  -0.083  -8.703  1.00  0.00     0.029 A 
ATOM     70  C   UNL     1     -16.160   0.739  -8.623  1.00  0.00     0.049 A 
ATOM     71  H   UNL     1     -17.250   1.605 -10.196  1.00  0.00     0.167 HD
ATOM     72  C   UNL     1     -16.602   1.880  -6.510  1.00  0.00     0.074 A 
ATOM     73  C   UNL     1     -16.949   2.000  -5.097  1.00  0.00     0.031 C 
ATOM     74  C   UNL     1     -17.066   1.104  -7.534  1.00  0.00     0.034 A 
BRANCH  61  75
ATOM     75  C   UNL     1     -15.190   0.426 -13.449  1.00  0.00     0.023 A 
ATOM     76  C   UNL     1     -15.119  -0.979 -13.358  1.00  0.00     0.031 A 
ATOM     77  C   UNL     1     -15.035   0.930 -14.762  1.00  0.00     0.131 A 
ATOM     78  C   UNL     1     -14.863  -1.786 -14.487  1.00  0.00     0.055 A 
ATOM     79  C   UNL     1     -14.757   0.132 -15.880  1.00  0.00     0.041 A 
ATOM     80  F   UNL     1     -15.183   2.217 -15.075  1.00  0.00    -0.206 F 
ATOM     81  C   UNL     1     -14.668  -1.237 -15.748  1.00  0.00     0.022 A 
BRANCH  78  82
ATOM     82  S   UNL     1     -14.802  -3.584 -14.286  1.00  0.00     0.124 S 
ATOM     83  O   UNL     1     -13.635  -3.754 -13.426  1.00  0.00    -0.237 OA
ATOM     84  O   UNL     1     -16.099  -3.872 -13.684  1.00  0.00    -0.237 OA
ATOM     85  O   UNL     1     -14.637  -4.072 -15.654  1.00  0.00    -0.744 OA
ENDBRANCH  78  82
ENDBRANCH  61  75
BRANCH  62  86
ATOM     86  C   UNL     1     -13.751   5.490  -4.890  1.00  0.00     0.023 A 
ATOM     87  C   UNL     1     -12.466   5.808  -4.354  1.00  0.00     0.031 A 
ATOM     88  C   UNL     1     -14.495   6.557  -5.418  1.00  0.00     0.131 A 
ATOM     89  C   UNL     1     -11.923   7.109  -4.471  1.00  0.00     0.055 A 
ATOM     90  C   UNL     1     -13.955   7.853  -5.523  1.00  0.00     0.041 A 
ATOM     91  F   UNL     1     -15.691   6.338  -5.982  1.00  0.00    -0.206 F 
ATOM     92  C   UNL     1     -12.658   8.128  -5.081  1.00  0.00     0.022 A 
BRANCH  89  93
ATOM     93  S   UNL     1     -10.117   7.365  -4.220  1.00  0.00     0.124 S 
ATOM     94  O   UNL     1     -10.038   7.750  -2.818  1.00  0.00    -0.237 OA
ATOM     95  O   UNL     1      -9.543   6.063  -4.556  1.00  0.00    -0.237 OA
ATOM     96  O   UNL     1      -9.787   8.413  -5.185  1.00  0.00    -0.744 OA
ENDBRANCH  89  93
ENDBRANCH  62  86
BRANCH  74  97
ATOM     97  C   UNL     1     -18.465   0.574  -7.533  1.00  0.00     0.023 A 
ATOM     98  C   UNL     1     -19.436   1.121  -6.691  1.00  0.00     0.031 A 
ATOM     99  C   UNL     1     -18.908  -0.398  -8.453  1.00  0.00     0.131 A 
ATOM    100  C   UNL     1     -20.727   0.602  -6.652  1.00  0.00     0.055 A 
ATOM    101  C   UNL     1     -20.238  -0.812  -8.515  1.00  0.00     0.041 A 
ATOM    102  F   UNL     1     -18.078  -0.974  -9.334  1.00  0.00    -0.206 F 
ATOM    103  C   UNL     1     -21.153  -0.337  -7.584  1.00  0.00     0.022 A 
BRANCH 100 104
ATOM    104  S   UNL     1     -21.752   1.085  -5.248  1.00  0.00     0.124 S 
ATOM    105  O   UNL     1     -20.965   0.578  -4.125  1.00  0.00    -0.237 OA
ATOM    106  O   UNL     1     -21.801   2.538  -5.375  1.00  0.00    -0.237 OA
ATOM    107  O   UNL     1     -23.012   0.390  -5.490  1.00  0.00    -0.744 OA
ENDBRANCH 100 104
ENDBRANCH  74  97
ENDBRANCH  48  49
ENDBRANCH  41  43
ENDBRANCH  40  41
ENDBRANCH  39  40
ENDBRANCH  38  39
ENDBRANCH   1  38
TORSDOF 20
