REMARK SMILES O=C(C[NH2+]Cc1cccs1)OCCOCCOC(=O)c1ccc(-c2c3nc(c(-c4cc(S(=O)(=O)[O-])ccc4F)c4ccc([nH]4)c(-c4cc(S(=O)(=O)[O-])ccc4F)c4nc(c(-c5cc(S(=O)(=O)[O-])ccc5F)c5ccc2[nH]5)C=C4)C=C3)cc1
REMARK SMILES IDX 14 1 13 2 12 3 11 4 2 5 1 6 3 7 4 8 5 11 6 12 7 13 10 14
REMARK SMILES IDX 8 15 9 16 15 17 16 18 17 19 18 20 19 21 20 22 21 23 82 24
REMARK SMILES IDX 22 25 81 26 23 27 24 28 25 29 75 30 26 31 80 32 74 33 76 34
REMARK SMILES IDX 27 35 79 36 73 37 72 38 28 40 60 41 40 42 59 43 41 44 44 45
REMARK SMILES IDX 58 46 77 47 42 48 43 49 57 51 78 52 45 53 29 54 30 55 38 56
REMARK SMILES IDX 31 57 37 58 39 59 36 60 32 61 33 62 34 63 35 64 61 65 62 66
REMARK SMILES IDX 70 67 63 68 69 69 71 70 68 71 64 72 65 73 66 74 67 75 46 76
REMARK SMILES IDX 47 77 55 78 48 79 54 80 56 81 53 82 49 83 50 84 51 85 52 86
REMARK H PARENT 4 9 4 10 76 39 44 50
REMARK Flexibility Score: inf
ROOT
ATOM      1  O   UNL     1       4.110  -0.061   1.591  1.00  0.00    -0.374 OA
ENDROOT
BRANCH   1   2
ATOM      2  C   UNL     1       4.664   0.768   0.569  1.00  0.00     0.202 C 
BRANCH   2   3
ATOM      3  C   UNL     1       4.405   0.303  -0.860  1.00  0.00     0.261 C 
BRANCH   3   4
ATOM      4  O   UNL     1       3.019   0.430  -1.235  1.00  0.00    -0.459 OA
BRANCH   4   5
ATOM      5  C   UNL     1       2.094  -0.554  -1.186  1.00  0.00     0.361 C 
ATOM      6  O   UNL     1       0.953  -0.338  -1.599  1.00  0.00    -0.245 OA
BRANCH   5   7
ATOM      7  C   UNL     1       2.414  -1.862  -0.487  1.00  0.00     0.385 C 
BRANCH   7   8
ATOM      8  N   UNL     1       3.543  -2.607  -1.062  1.00  0.00    -0.333 N 
ATOM      9  H   UNL     1       4.160  -1.954  -1.543  1.00  0.00     0.347 HD
ATOM     10  H   UNL     1       3.168  -3.301  -1.709  1.00  0.00     0.347 HD
BRANCH   8  11
ATOM     11  C   UNL     1       4.311  -3.314  -0.028  1.00  0.00     0.308 C 
BRANCH  11  12
ATOM     12  C   UNL     1       3.583  -4.488   0.562  1.00  0.00     0.059 A 
ATOM     13  C   UNL     1       3.756  -5.827   0.268  1.00  0.00     0.021 A 
ATOM     14  S   UNL     1       2.415  -4.279   1.806  1.00  0.00    -0.143 S 
ATOM     15  C   UNL     1       2.848  -6.662   0.980  1.00  0.00     0.012 A 
ATOM     16  C   UNL     1       2.024  -5.939   1.811  1.00  0.00     0.065 A 
ENDBRANCH  11  12
ENDBRANCH   8  11
ENDBRANCH   7   8
ENDBRANCH   5   7
ENDBRANCH   4   5
ENDBRANCH   3   4
ENDBRANCH   2   3
ENDBRANCH   1   2
BRANCH   1  17
ATOM     17  C   UNL     1       2.857   0.382   2.129  1.00  0.00     0.202 C 
BRANCH  17  18
ATOM     18  C   UNL     1       2.942   1.456   3.218  1.00  0.00     0.261 C 
BRANCH  18  19
ATOM     19  O   UNL     1       3.278   2.735   2.664  1.00  0.00    -0.460 OA
BRANCH  19  20
ATOM     20  C   UNL     1       4.588   3.072   2.740  1.00  0.00     0.338 C 
ATOM     21  O   UNL     1       5.473   2.457   3.313  1.00  0.00    -0.246 OA
BRANCH  20  22
ATOM     22  C   UNL     1       4.835   4.189   1.807  1.00  0.00     0.060 A 
ATOM     23  C   UNL     1       5.973   4.126   0.990  1.00  0.00     0.016 A 
ATOM     24  C   UNL     1       3.960   5.273   1.729  1.00  0.00     0.016 A 
ATOM     25  C   UNL     1       6.272   5.179   0.129  1.00  0.00     0.010 A 
ATOM     26  C   UNL     1       4.262   6.329   0.873  1.00  0.00     0.010 A 
ATOM     27  C   UNL     1       5.441   6.304   0.105  1.00  0.00    -0.014 A 
BRANCH  27  28
ATOM     28  C   UNL     1       5.892   7.559  -0.536  1.00  0.00     0.031 A 
ATOM     29  C   UNL     1       6.415   8.647   0.357  1.00  0.00     0.074 A 
ATOM     30  C   UNL     1       5.790   7.741  -1.862  1.00  0.00     0.049 A 
ATOM     31  N   UNL     1       6.685   9.894   0.083  1.00  0.00    -0.248 NA
ATOM     32  C   UNL     1       6.636   8.273   1.764  1.00  0.00     0.031 C 
ATOM     33  C   UNL     1       5.344   6.732  -2.821  1.00  0.00     0.029 A 
ATOM     34  N   UNL     1       6.027   8.855  -2.624  1.00  0.00    -0.354 N 
ATOM     35  C   UNL     1       7.080  10.464   1.289  1.00  0.00     0.074 A 
ATOM     36  C   UNL     1       6.976   9.434   2.298  1.00  0.00     0.031 C 
ATOM     37  C   UNL     1       5.313   7.285  -4.045  1.00  0.00     0.029 A 
ATOM     38  C   UNL     1       5.681   8.696  -3.945  1.00  0.00     0.049 A 
ATOM     39  H   UNL     1       6.408   9.687  -2.262  1.00  0.00     0.167 HD
ATOM     40  C   UNL     1       7.492  11.734   1.524  1.00  0.00     0.034 A 
ATOM     41  C   UNL     1       5.622   9.601  -4.941  1.00  0.00     0.034 A 
ATOM     42  C   UNL     1       7.567  12.741   0.495  1.00  0.00     0.049 A 
ATOM     43  C   UNL     1       6.001  11.033  -4.647  1.00  0.00     0.074 A 
ATOM     44  C   UNL     1       7.984  14.055   0.601  1.00  0.00     0.029 A 
ATOM     45  N   UNL     1       7.197  12.548  -0.832  1.00  0.00    -0.354 N 
ATOM     46  N   UNL     1       6.371  11.573  -3.507  1.00  0.00    -0.248 NA
ATOM     47  C   UNL     1       5.962  11.975  -5.773  1.00  0.00     0.031 C 
ATOM     48  C   UNL     1       7.784  14.677  -0.635  1.00  0.00     0.029 A 
ATOM     49  C   UNL     1       7.342  13.728  -1.544  1.00  0.00     0.049 A 
ATOM     50  H   UNL     1       6.878  11.696  -1.210  1.00  0.00     0.167 HD
ATOM     51  C   UNL     1       6.648  12.909  -3.789  1.00  0.00     0.074 A 
ATOM     52  C   UNL     1       6.399  13.091  -5.205  1.00  0.00     0.031 C 
ATOM     53  C   UNL     1       7.086  13.890  -2.958  1.00  0.00     0.034 A 
BRANCH  40  54
ATOM     54  C   UNL     1       7.816  12.102   2.954  1.00  0.00     0.023 A 
ATOM     55  C   UNL     1       8.826  11.446   3.680  1.00  0.00     0.031 A 
ATOM     56  C   UNL     1       7.058  13.079   3.624  1.00  0.00     0.131 A 
ATOM     57  C   UNL     1       8.982  11.701   5.051  1.00  0.00     0.055 A 
ATOM     58  C   UNL     1       7.286  13.400   4.963  1.00  0.00     0.041 A 
ATOM     59  F   UNL     1       6.061  13.722   2.995  1.00  0.00    -0.206 F 
ATOM     60  C   UNL     1       8.238  12.694   5.692  1.00  0.00     0.022 A 
BRANCH  57  61
ATOM     61  S   UNL     1      10.033  10.586   6.023  1.00  0.00     0.124 S 
ATOM     62  O   UNL     1       9.418   9.289   5.750  1.00  0.00    -0.237 OA
ATOM     63  O   UNL     1      11.351  10.805   5.439  1.00  0.00    -0.237 OA
ATOM     64  O   UNL     1       9.868  11.067   7.394  1.00  0.00    -0.744 OA
ENDBRANCH  57  61
ENDBRANCH  40  54
BRANCH  41  65
ATOM     65  C   UNL     1       5.149   9.190  -6.293  1.00  0.00     0.023 A 
ATOM     66  C   UNL     1       6.007   9.220  -7.402  1.00  0.00     0.031 A 
ATOM     67  C   UNL     1       3.822   8.768  -6.497  1.00  0.00     0.131 A 
ATOM     68  C   UNL     1       5.523   8.861  -8.671  1.00  0.00     0.055 A 
ATOM     69  C   UNL     1       3.360   8.362  -7.750  1.00  0.00     0.041 A 
ATOM     70  F   UNL     1       2.959   8.722  -5.469  1.00  0.00    -0.206 F 
ATOM     71  C   UNL     1       4.211   8.416  -8.849  1.00  0.00     0.022 A 
BRANCH  68  72
ATOM     72  S   UNL     1       6.620   9.047 -10.103  1.00  0.00     0.124 S 
ATOM     73  O   UNL     1       6.913  10.476 -10.068  1.00  0.00    -0.237 OA
ATOM     74  O   UNL     1       7.723   8.157  -9.758  1.00  0.00    -0.237 OA
ATOM     75  O   UNL     1       5.793   8.606 -11.224  1.00  0.00    -0.744 OA
ENDBRANCH  68  72
ENDBRANCH  41  65
BRANCH  53  76
ATOM     76  C   UNL     1       7.402  15.234  -3.572  1.00  0.00     0.023 A 
ATOM     77  C   UNL     1       6.407  16.069  -4.109  1.00  0.00     0.031 A 
ATOM     78  C   UNL     1       8.732  15.695  -3.588  1.00  0.00     0.131 A 
ATOM     79  C   UNL     1       6.765  17.303  -4.676  1.00  0.00     0.055 A 
ATOM     80  C   UNL     1       9.072  16.949  -4.093  1.00  0.00     0.041 A 
ATOM     81  F   UNL     1       9.723  14.937  -3.093  1.00  0.00    -0.206 F 
ATOM     82  C   UNL     1       8.086  17.757  -4.651  1.00  0.00     0.022 A 
BRANCH  79  83
ATOM     83  S   UNL     1       5.492  18.278  -5.524  1.00  0.00     0.124 S 
ATOM     84  O   UNL     1       5.037  17.350  -6.555  1.00  0.00    -0.237 OA
ATOM     85  O   UNL     1       4.542  18.555  -4.451  1.00  0.00    -0.237 OA
ATOM     86  O   UNL     1       6.224  19.443  -6.019  1.00  0.00    -0.744 OA
ENDBRANCH  79  83
ENDBRANCH  53  76
ENDBRANCH  27  28
ENDBRANCH  20  22
ENDBRANCH  19  20
ENDBRANCH  18  19
ENDBRANCH  17  18
ENDBRANCH   1  17
TORSDOF 20
