REMARK SMILES N#C[C@@]1([C@@H](O)C(=O)OCCOCCOC(=O)c2ccc(-c3c4nc(c(-c5cc(S(=O)(=O)[O-])ccc5F)c5ccc([nH]5)c(-c5cc(S(=O)(=O)[O-])ccc5F)c5nc(c(-c6cc(S(=O)(=O)[O-])ccc6F)c6ccc3[nH]6)C=C5)C=C4)cc2)CCCc2ccccc21
REMARK SMILES IDX 12 1 11 2 10 3 9 4 8 5 6 6 7 7 4 8 3 9 80 10 88 11 81 12
REMARK SMILES IDX 83 13 87 14 82 15 84 16 86 17 85 18 2 19 1 20 5 21 13 23
REMARK SMILES IDX 14 24 15 25 16 26 17 27 18 28 79 29 19 30 78 31 20 32 21 33
REMARK SMILES IDX 22 34 72 35 23 36 77 37 71 38 73 39 24 40 76 41 70 42 69 43
REMARK SMILES IDX 25 45 57 46 37 47 56 48 38 49 41 50 55 51 74 52 39 53 40 54
REMARK SMILES IDX 54 56 75 57 42 58 26 59 27 60 35 61 28 62 34 63 36 64 33 65
REMARK SMILES IDX 29 66 30 67 31 68 32 69 58 70 59 71 67 72 60 73 66 74 68 75
REMARK SMILES IDX 65 76 61 77 62 78 63 79 64 80 43 81 44 82 52 83 45 84 51 85
REMARK SMILES IDX 53 86 50 87 46 88 47 89 48 90 49 91
REMARK H PARENT 5 22 73 44 41 55
REMARK Flexibility Score: inf
ROOT
ATOM      1  C   UNL     1       2.209  -2.011   3.226  1.00  0.00     0.202 C 
ENDROOT
BRANCH   1   2
ATOM      2  O   UNL     1       1.183  -2.933   2.862  1.00  0.00    -0.374 OA
BRANCH   2   3
ATOM      3  C   UNL     1       1.412  -3.718   1.694  1.00  0.00     0.202 C 
BRANCH   3   4
ATOM      4  C   UNL     1       0.973  -3.094   0.369  1.00  0.00     0.261 C 
BRANCH   4   5
ATOM      5  O   UNL     1       1.887  -2.079  -0.106  1.00  0.00    -0.461 OA
BRANCH   5   6
ATOM      6  C   UNL     1       1.554  -0.785   0.136  1.00  0.00     0.337 C 
ATOM      7  O   UNL     1       0.593  -0.434   0.814  1.00  0.00    -0.249 OA
BRANCH   6   8
ATOM      8  C   UNL     1       2.405   0.222  -0.651  1.00  0.00     0.248 C 
BRANCH   8   9
ATOM      9  C   UNL     1       3.967   0.274  -0.488  1.00  0.00     0.119 C 
ATOM     10  C   UNL     1       4.671  -1.084  -0.754  1.00  0.00     0.031 C 
ATOM     11  C   UNL     1       4.399   0.924   0.849  1.00  0.00    -0.021 A 
ATOM     12  C   UNL     1       4.952  -1.880   0.506  1.00  0.00     0.007 C 
ATOM     13  C   UNL     1       5.231   0.259   1.773  1.00  0.00    -0.043 A 
ATOM     14  C   UNL     1       4.042   2.262   1.131  1.00  0.00     0.006 A 
ATOM     15  C   UNL     1       5.814  -1.096   1.478  1.00  0.00     0.036 C 
ATOM     16  C   UNL     1       5.637   0.910   2.953  1.00  0.00     0.004 A 
ATOM     17  C   UNL     1       4.479   2.908   2.289  1.00  0.00     0.000 A 
ATOM     18  C   UNL     1       5.262   2.226   3.210  1.00  0.00     0.000 A 
BRANCH   9  19
ATOM     19  C   UNL     1       4.454   1.184  -1.586  1.00  0.00     0.077 C 
ATOM     20  N   UNL     1       4.803   1.912  -2.417  1.00  0.00    -0.197 NA
ENDBRANCH   9  19
ENDBRANCH   8   9
BRANCH   8  21
ATOM     21  O   UNL     1       2.041   0.064  -2.037  1.00  0.00    -0.380 OA
ATOM     22  H   UNL     1       2.301  -0.820  -2.340  1.00  0.00     0.211 HD
ENDBRANCH   8  21
ENDBRANCH   6   8
ENDBRANCH   5   6
ENDBRANCH   4   5
ENDBRANCH   3   4
ENDBRANCH   2   3
ENDBRANCH   1   2
BRANCH   1  23
ATOM     23  C   UNL     1       3.448  -2.620   3.909  1.00  0.00     0.261 C 
BRANCH  23  24
ATOM     24  O   UNL     1       4.210  -3.471   3.022  1.00  0.00    -0.460 OA
BRANCH  24  25
ATOM     25  C   UNL     1       4.143  -4.808   3.257  1.00  0.00     0.338 C 
ATOM     26  O   UNL     1       3.626  -5.338   4.225  1.00  0.00    -0.246 OA
BRANCH  25  27
ATOM     27  C   UNL     1       4.576  -5.566   2.046  1.00  0.00     0.060 A 
ATOM     28  C   UNL     1       5.729  -5.266   1.318  1.00  0.00     0.016 A 
ATOM     29  C   UNL     1       3.762  -6.624   1.625  1.00  0.00     0.016 A 
ATOM     30  C   UNL     1       6.061  -6.027   0.178  1.00  0.00     0.010 A 
ATOM     31  C   UNL     1       4.113  -7.401   0.511  1.00  0.00     0.010 A 
ATOM     32  C   UNL     1       5.277  -7.129  -0.223  1.00  0.00    -0.014 A 
BRANCH  32  33
ATOM     33  C   UNL     1       5.725  -8.084  -1.293  1.00  0.00     0.031 A 
ATOM     34  C   UNL     1       4.915  -8.342  -2.544  1.00  0.00     0.074 A 
ATOM     35  C   UNL     1       6.840  -8.821  -1.090  1.00  0.00     0.049 A 
ATOM     36  N   UNL     1       5.138  -9.204  -3.507  1.00  0.00    -0.248 NA
ATOM     37  C   UNL     1       3.699  -7.540  -2.736  1.00  0.00     0.031 C 
ATOM     38  C   UNL     1       7.703  -8.721   0.086  1.00  0.00     0.029 A 
ATOM     39  N   UNL     1       7.430  -9.809  -1.848  1.00  0.00    -0.354 N 
ATOM     40  C   UNL     1       4.093  -9.056  -4.416  1.00  0.00     0.074 A 
ATOM     41  C   UNL     1       3.214  -8.045  -3.866  1.00  0.00     0.031 C 
ATOM     42  C   UNL     1       8.718  -9.588  -0.037  1.00  0.00     0.029 A 
ATOM     43  C   UNL     1       8.552 -10.360  -1.267  1.00  0.00     0.049 A 
ATOM     44  H   UNL     1       7.082 -10.095  -2.723  1.00  0.00     0.167 HD
ATOM     45  C   UNL     1       3.894  -9.688  -5.602  1.00  0.00     0.034 A 
ATOM     46  C   UNL     1       9.353 -11.379  -1.651  1.00  0.00     0.034 A 
ATOM     47  C   UNL     1       4.779 -10.687  -6.158  1.00  0.00     0.049 A 
ATOM     48  C   UNL     1       9.089 -12.089  -2.956  1.00  0.00     0.074 A 
ATOM     49  C   UNL     1       4.679 -11.321  -7.386  1.00  0.00     0.029 A 
ATOM     50  N   UNL     1       5.909 -11.205  -5.543  1.00  0.00    -0.354 N 
ATOM     51  N   UNL     1       8.156 -11.857  -3.847  1.00  0.00    -0.248 NA
ATOM     52  C   UNL     1       9.994 -13.192  -3.319  1.00  0.00     0.031 C 
ATOM     53  C   UNL     1       5.685 -12.281  -7.474  1.00  0.00     0.029 A 
ATOM     54  C   UNL     1       6.485 -12.177  -6.350  1.00  0.00     0.049 A 
ATOM     55  H   UNL     1       6.252 -10.924  -4.663  1.00  0.00     0.167 HD
ATOM     56  C   UNL     1       8.386 -12.756  -4.888  1.00  0.00     0.074 A 
ATOM     57  C   UNL     1       9.560 -13.519  -4.529  1.00  0.00     0.031 C 
ATOM     58  C   UNL     1       7.676 -12.928  -6.031  1.00  0.00     0.034 A 
BRANCH  45  59
ATOM     59  C   UNL     1       2.691  -9.319  -6.447  1.00  0.00     0.023 A 
ATOM     60  C   UNL     1       1.751 -10.308  -6.809  1.00  0.00     0.031 A 
ATOM     61  C   UNL     1       2.595  -8.060  -7.065  1.00  0.00     0.131 A 
ATOM     62  C   UNL     1       0.801 -10.039  -7.803  1.00  0.00     0.055 A 
ATOM     63  C   UNL     1       1.610  -7.780  -8.015  1.00  0.00     0.041 A 
ATOM     64  F   UNL     1       3.472  -7.087  -6.769  1.00  0.00    -0.206 F 
ATOM     65  C   UNL     1       0.720  -8.778  -8.402  1.00  0.00     0.022 A 
BRANCH  62  66
ATOM     66  S   UNL     1      -0.296 -11.340  -8.436  1.00  0.00     0.124 S 
ATOM     67  O   UNL     1      -1.617 -10.772  -8.174  1.00  0.00    -0.237 OA
ATOM     68  O   UNL     1       0.087 -11.404  -9.843  1.00  0.00    -0.237 OA
ATOM     69  O   UNL     1       0.046 -12.508  -7.633  1.00  0.00    -0.744 OA
ENDBRANCH  62  66
ENDBRANCH  45  59
BRANCH  46  70
ATOM     70  C   UNL     1      10.522 -11.751  -0.794  1.00  0.00     0.023 A 
ATOM     71  C   UNL     1      10.344 -12.179   0.534  1.00  0.00     0.031 A 
ATOM     72  C   UNL     1      11.837 -11.598  -1.266  1.00  0.00     0.131 A 
ATOM     73  C   UNL     1      11.458 -12.364   1.362  1.00  0.00     0.055 A 
ATOM     74  C   UNL     1      12.946 -11.869  -0.462  1.00  0.00     0.041 A 
ATOM     75  F   UNL     1      12.062 -11.181  -2.521  1.00  0.00    -0.206 F 
ATOM     76  C   UNL     1      12.759 -12.236   0.866  1.00  0.00     0.022 A 
BRANCH  73  77
ATOM     77  S   UNL     1      11.255 -12.634   3.145  1.00  0.00     0.124 S 
ATOM     78  O   UNL     1      11.934 -13.910   3.341  1.00  0.00    -0.237 OA
ATOM     79  O   UNL     1      11.935 -11.465   3.700  1.00  0.00    -0.237 OA
ATOM     80  O   UNL     1       9.808 -12.653   3.328  1.00  0.00    -0.744 OA
ENDBRANCH  73  77
ENDBRANCH  46  70
BRANCH  58  81
ATOM     81  C   UNL     1       8.130 -13.962  -7.042  1.00  0.00     0.023 A 
ATOM     82  C   UNL     1       8.437 -13.567  -8.361  1.00  0.00     0.031 A 
ATOM     83  C   UNL     1       8.095 -15.339  -6.761  1.00  0.00     0.131 A 
ATOM     84  C   UNL     1       8.634 -14.533  -9.356  1.00  0.00     0.055 A 
ATOM     85  C   UNL     1       8.356 -16.298  -7.743  1.00  0.00     0.041 A 
ATOM     86  F   UNL     1       7.796 -15.777  -5.527  1.00  0.00    -0.206 F 
ATOM     87  C   UNL     1       8.608 -15.897  -9.052  1.00  0.00     0.022 A 
BRANCH  84  88
ATOM     88  S   UNL     1       8.823 -14.061 -11.099  1.00  0.00     0.124 S 
ATOM     89  O   UNL     1      10.129 -14.627 -11.428  1.00  0.00    -0.237 OA
ATOM     90  O   UNL     1       7.682 -14.727 -11.722  1.00  0.00    -0.237 OA
ATOM     91  O   UNL     1       8.766 -12.603 -11.078  1.00  0.00    -0.744 OA
ENDBRANCH  84  88
ENDBRANCH  58  81
ENDBRANCH  32  33
ENDBRANCH  25  27
ENDBRANCH  24  25
ENDBRANCH  23  24
ENDBRANCH   1  23
TORSDOF 20
