REMARK SMILES CCCc1nnc(SCC(=O)OCCOCCOC(=O)c2ccc(-c3c4nc(c(-c5cc(S(=O)(=O)[O-])ccc5F)c5ccc([nH]5)c(-c5cc(S(=O)(=O)[O-])ccc5F)c5nc(c(-c6cc(S(=O)(=O)[O-])ccc6F)c6ccc3[nH]6)C=C5)C=C4)cc2)n1C[C@H]1CCCO1
REMARK SMILES IDX 14 1 13 2 12 3 10 4 11 5 9 6 8 7 7 8 4 9 5 10 84 11 6 12
REMARK SMILES IDX 3 13 2 14 1 15 85 16 86 17 87 18 90 19 88 20 89 21 15 22
REMARK SMILES IDX 16 23 17 24 18 25 19 26 20 27 21 28 22 29 83 30 23 31 82 32
REMARK SMILES IDX 24 33 25 34 26 35 76 36 27 37 81 38 75 39 77 40 28 41 80 42
REMARK SMILES IDX 74 43 73 44 29 46 61 47 41 48 60 49 42 50 45 51 59 52 78 53
REMARK SMILES IDX 43 54 44 55 58 57 79 58 46 59 30 60 31 61 39 62 32 63 38 64
REMARK SMILES IDX 40 65 37 66 33 67 34 68 35 69 36 70 62 71 63 72 71 73 64 74
REMARK SMILES IDX 70 75 72 76 69 77 65 78 66 79 67 80 68 81 47 82 48 83 56 84
REMARK SMILES IDX 49 85 55 86 57 87 54 88 50 89 51 90 52 91 53 92
REMARK H PARENT 77 45 45 56
REMARK Flexibility Score: inf
ROOT
ATOM      1  C   UNL     1      -1.139   6.032  -2.365  1.00  0.00     0.202 C 
ENDROOT
BRANCH   1   2
ATOM      2  C   UNL     1      -1.859   6.145  -1.014  1.00  0.00     0.261 C 
BRANCH   2   3
ATOM      3  O   UNL     1      -0.995   6.081   0.155  1.00  0.00    -0.463 OA
BRANCH   3   4
ATOM      4  C   UNL     1      -1.402   5.242   1.144  1.00  0.00     0.316 C 
ATOM      5  O   UNL     1      -2.368   4.487   1.030  1.00  0.00    -0.251 OA
BRANCH   4   6
ATOM      6  C   UNL     1      -0.662   5.337   2.464  1.00  0.00     0.200 C 
BRANCH   6   7
ATOM      7  S   UNL     1       1.107   5.457   2.467  1.00  0.00    -0.074 SA
BRANCH   7   8
ATOM      8  C   UNL     1       1.940   3.941   2.380  1.00  0.00     0.191 A 
ATOM      9  C   UNL     1       2.900   2.325   1.250  1.00  0.00     0.133 A 
ATOM     10  N   UNL     1       3.776   2.796   2.119  1.00  0.00    -0.134 NA
ATOM     11  N   UNL     1       1.663   2.837   1.614  1.00  0.00    -0.303 N 
ATOM     12  N   UNL     1       3.179   3.824   2.808  1.00  0.00    -0.123 NA
BRANCH   9  13
ATOM     13  C   UNL     1       3.294   1.700  -0.062  1.00  0.00     0.077 C 
BRANCH  13  14
ATOM     14  C   UNL     1       3.026   0.222  -0.300  1.00  0.00     0.005 C 
ATOM     15  C   UNL     1       1.630  -0.094  -0.816  1.00  0.00     0.004 C 
ENDBRANCH  13  14
ENDBRANCH   9  13
BRANCH  11  16
ATOM     16  C   UNL     1       0.380   2.304   1.258  1.00  0.00     0.158 C 
BRANCH  16  17
ATOM     17  C   UNL     1      -0.142   1.198   2.186  1.00  0.00     0.138 C 
ATOM     18  C   UNL     1      -0.728   1.659   3.511  1.00  0.00     0.036 C 
ATOM     19  O   UNL     1      -1.237   0.541   1.518  1.00  0.00    -0.376 OA
ATOM     20  C   UNL     1      -2.186   1.924   3.212  1.00  0.00     0.031 C 
ATOM     21  C   UNL     1      -2.471   1.123   1.960  1.00  0.00     0.160 C 
ENDBRANCH  16  17
ENDBRANCH  11  16
ENDBRANCH   7   8
ENDBRANCH   6   7
ENDBRANCH   4   6
ENDBRANCH   3   4
ENDBRANCH   2   3
ENDBRANCH   1   2
BRANCH   1  22
ATOM     22  O   UNL     1      -0.706   4.731  -2.771  1.00  0.00    -0.374 OA
BRANCH  22  23
ATOM     23  C   UNL     1       0.082   3.981  -1.863  1.00  0.00     0.202 C 
BRANCH  23  24
ATOM     24  C   UNL     1       1.479   4.501  -1.579  1.00  0.00     0.261 C 
BRANCH  24  25
ATOM     25  O   UNL     1       1.480   5.832  -1.120  1.00  0.00    -0.460 OA
BRANCH  25  26
ATOM     26  C   UNL     1       1.935   6.725  -2.013  1.00  0.00     0.338 C 
ATOM     27  O   UNL     1       2.027   6.568  -3.232  1.00  0.00    -0.246 OA
BRANCH  26  28
ATOM     28  C   UNL     1       2.445   7.874  -1.277  1.00  0.00     0.060 A 
ATOM     29  C   UNL     1       3.128   8.832  -2.014  1.00  0.00     0.016 A 
ATOM     30  C   UNL     1       2.534   7.807   0.120  1.00  0.00     0.016 A 
ATOM     31  C   UNL     1       4.103   9.547  -1.367  1.00  0.00     0.010 A 
ATOM     32  C   UNL     1       3.527   8.487   0.764  1.00  0.00     0.010 A 
ATOM     33  C   UNL     1       4.351   9.281  -0.014  1.00  0.00    -0.014 A 
BRANCH  33  34
ATOM     34  C   UNL     1       5.409  10.009   0.630  1.00  0.00     0.031 A 
ATOM     35  C   UNL     1       5.012  11.413   0.845  1.00  0.00     0.074 A 
ATOM     36  C   UNL     1       6.542   9.429   1.053  1.00  0.00     0.049 A 
ATOM     37  N   UNL     1       5.355  12.434   0.135  1.00  0.00    -0.248 NA
ATOM     38  C   UNL     1       3.872  11.662   1.746  1.00  0.00     0.031 C 
ATOM     39  C   UNL     1       6.883   8.009   1.134  1.00  0.00     0.029 A 
ATOM     40  N   UNL     1       7.626  10.033   1.590  1.00  0.00    -0.354 N 
ATOM     41  C   UNL     1       4.665  13.501   0.691  1.00  0.00     0.074 A 
ATOM     42  C   UNL     1       3.585  12.925   1.438  1.00  0.00     0.031 C 
ATOM     43  C   UNL     1       7.996   7.864   1.894  1.00  0.00     0.029 A 
ATOM     44  C   UNL     1       8.508   9.182   2.238  1.00  0.00     0.049 A 
ATOM     45  H   UNL     1       7.778  11.004   1.525  1.00  0.00     0.167 HD
ATOM     46  C   UNL     1       5.233  14.734   0.752  1.00  0.00     0.034 A 
ATOM     47  C   UNL     1       9.514   9.571   3.069  1.00  0.00     0.034 A 
ATOM     48  C   UNL     1       6.344  14.829  -0.175  1.00  0.00     0.049 A 
ATOM     49  C   UNL     1       9.802  10.997   2.736  1.00  0.00     0.074 A 
ATOM     50  C   UNL     1       6.463  14.699  -1.547  1.00  0.00     0.029 A 
ATOM     51  N   UNL     1       7.619  14.657   0.324  1.00  0.00    -0.354 N 
ATOM     52  N   UNL     1      10.271  11.375   1.575  1.00  0.00    -0.248 NA
ATOM     53  C   UNL     1       9.077  12.032   3.465  1.00  0.00     0.031 C 
ATOM     54  C   UNL     1       7.679  13.979  -1.747  1.00  0.00     0.029 A 
ATOM     55  C   UNL     1       8.284  13.781  -0.503  1.00  0.00     0.049 A 
ATOM     56  H   UNL     1       7.987  15.086   1.130  1.00  0.00     0.167 HD
ATOM     57  C   UNL     1       9.558  12.520   1.242  1.00  0.00     0.074 A 
ATOM     58  C   UNL     1       8.899  12.925   2.484  1.00  0.00     0.031 C 
ATOM     59  C   UNL     1       9.321  12.860  -0.063  1.00  0.00     0.034 A 
BRANCH  46  60
ATOM     60  C   UNL     1       5.051  15.680   1.918  1.00  0.00     0.023 A 
ATOM     61  C   UNL     1       5.747  16.898   1.853  1.00  0.00     0.031 A 
ATOM     62  C   UNL     1       4.482  15.368   3.179  1.00  0.00     0.131 A 
ATOM     63  C   UNL     1       5.952  17.674   3.005  1.00  0.00     0.055 A 
ATOM     64  C   UNL     1       4.637  16.175   4.307  1.00  0.00     0.041 A 
ATOM     65  F   UNL     1       3.818  14.237   3.432  1.00  0.00    -0.206 F 
ATOM     66  C   UNL     1       5.406  17.318   4.235  1.00  0.00     0.022 A 
BRANCH  63  67
ATOM     67  S   UNL     1       7.099  19.066   2.900  1.00  0.00     0.124 S 
ATOM     68  O   UNL     1       8.286  18.428   2.344  1.00  0.00    -0.237 OA
ATOM     69  O   UNL     1       6.380  19.976   2.015  1.00  0.00    -0.237 OA
ATOM     70  O   UNL     1       7.219  19.509   4.287  1.00  0.00    -0.744 OA
ENDBRANCH  63  67
ENDBRANCH  46  60
BRANCH  47  71
ATOM     71  C   UNL     1       9.889   8.915   4.356  1.00  0.00     0.023 A 
ATOM     72  C   UNL     1      11.128   9.120   5.001  1.00  0.00     0.031 A 
ATOM     73  C   UNL     1       8.903   8.220   5.097  1.00  0.00     0.131 A 
ATOM     74  C   UNL     1      11.339   8.630   6.315  1.00  0.00     0.055 A 
ATOM     75  C   UNL     1       9.119   7.734   6.388  1.00  0.00     0.041 A 
ATOM     76  F   UNL     1       7.658   8.062   4.622  1.00  0.00    -0.206 F 
ATOM     77  C   UNL     1      10.339   7.943   7.007  1.00  0.00     0.022 A 
BRANCH  74  78
ATOM     78  S   UNL     1      12.911   8.945   7.187  1.00  0.00     0.124 S 
ATOM     79  O   UNL     1      13.866   8.174   6.399  1.00  0.00    -0.237 OA
ATOM     80  O   UNL     1      13.028  10.397   7.108  1.00  0.00    -0.237 OA
ATOM     81  O   UNL     1      12.668   8.426   8.534  1.00  0.00    -0.744 OA
ENDBRANCH  74  78
ENDBRANCH  47  71
BRANCH  59  82
ATOM     82  C   UNL     1      10.051  12.082  -1.149  1.00  0.00     0.023 A 
ATOM     83  C   UNL     1       9.927  10.689  -1.375  1.00  0.00     0.031 A 
ATOM     84  C   UNL     1      10.799  12.824  -2.079  1.00  0.00     0.131 A 
ATOM     85  C   UNL     1      10.547  10.095  -2.495  1.00  0.00     0.055 A 
ATOM     86  C   UNL     1      11.391  12.237  -3.197  1.00  0.00     0.041 A 
ATOM     87  F   UNL     1      10.930  14.153  -1.939  1.00  0.00    -0.206 F 
ATOM     88  C   UNL     1      11.271  10.869  -3.407  1.00  0.00     0.022 A 
BRANCH  85  89
ATOM     89  S   UNL     1      10.429   8.298  -2.790  1.00  0.00     0.124 S 
ATOM     90  O   UNL     1      10.840   7.718  -1.517  1.00  0.00    -0.237 OA
ATOM     91  O   UNL     1       9.024   8.127  -3.150  1.00  0.00    -0.237 OA
ATOM     92  O   UNL     1      11.367   8.070  -3.892  1.00  0.00    -0.744 OA
ENDBRANCH  85  89
ENDBRANCH  59  82
ENDBRANCH  33  34
ENDBRANCH  26  28
ENDBRANCH  25  26
ENDBRANCH  24  25
ENDBRANCH  23  24
ENDBRANCH  22  23
ENDBRANCH   1  22
TORSDOF 23
