REMARK SMILES O=C(OCCOCCOC(=O)[C@@H](CCOC(F)(F)F)Cc1ccccc1Cl)c1ccc(-c2c3nc(c(-c4cc(S(=O)(=O)[O-])ccc4F)c4ccc([nH]4)c(-c4cc(S(=O)(=O)[O-])ccc4F)c4nc(c(-c5cc(S(=O)(=O)[O-])ccc5F)c5ccc2[nH]5)C=C4)C=C3)cc1
REMARK SMILES IDX 7 1 6 2 5 3 4 4 3 5 2 6 1 7 28 8 29 9 90 10 30 11 89 12
REMARK SMILES IDX 31 13 32 14 33 15 83 16 34 17 88 18 82 19 84 20 35 21 87 22
REMARK SMILES IDX 81 23 80 24 36 26 68 27 48 28 67 29 49 30 52 31 66 32 85 33
REMARK SMILES IDX 50 34 51 35 65 37 86 38 53 39 37 40 38 41 46 42 39 43 45 44
REMARK SMILES IDX 47 45 44 46 40 47 41 48 42 49 43 50 69 51 70 52 78 53 71 54
REMARK SMILES IDX 77 55 79 56 76 57 72 58 73 59 74 60 75 61 54 62 55 63 63 64
REMARK SMILES IDX 56 65 62 66 64 67 61 68 57 69 58 70 59 71 60 72 8 73 9 74
REMARK SMILES IDX 10 75 11 76 12 77 13 78 14 79 15 80 16 81 17 82 18 83 19 84
REMARK SMILES IDX 20 85 21 86 22 87 26 88 23 89 25 90 27 91 24 92
REMARK H PARENT 84 25 52 36
REMARK Flexibility Score: inf
ROOT
ATOM      1  C   UNL     1       2.636   1.756  -0.110  1.00  0.00     0.202 C 
ENDROOT
BRANCH   1   2
ATOM      2  O   UNL     1       3.972   1.264  -0.048  1.00  0.00    -0.374 OA
BRANCH   2   3
ATOM      3  C   UNL     1       4.428   0.351  -1.044  1.00  0.00     0.202 C 
BRANCH   3   4
ATOM      4  C   UNL     1       4.143  -1.128  -0.774  1.00  0.00     0.261 C 
BRANCH   4   5
ATOM      5  O   UNL     1       2.744  -1.323  -0.520  1.00  0.00    -0.460 OA
BRANCH   5   6
ATOM      6  C   UNL     1       2.140  -1.323   0.694  1.00  0.00     0.338 C 
ATOM      7  O   UNL     1       0.915  -1.415   0.746  1.00  0.00    -0.246 OA
BRANCH   6   8
ATOM      8  C   UNL     1       2.897  -1.223   1.977  1.00  0.00     0.060 A 
ATOM      9  C   UNL     1       4.092  -0.522   2.133  1.00  0.00     0.016 A 
ATOM     10  C   UNL     1       2.329  -1.807   3.118  1.00  0.00     0.016 A 
ATOM     11  C   UNL     1       4.724  -0.397   3.342  1.00  0.00     0.010 A 
ATOM     12  C   UNL     1       2.956  -1.685   4.362  1.00  0.00     0.010 A 
ATOM     13  C   UNL     1       4.155  -0.972   4.462  1.00  0.00    -0.014 A 
BRANCH  13  14
ATOM     14  C   UNL     1       4.990  -0.922   5.661  1.00  0.00     0.031 A 
ATOM     15  C   UNL     1       5.796  -2.136   5.977  1.00  0.00     0.074 A 
ATOM     16  C   UNL     1       5.197   0.269   6.251  1.00  0.00     0.049 A 
ATOM     17  N   UNL     1       6.578  -2.366   6.990  1.00  0.00    -0.248 NA
ATOM     18  C   UNL     1       5.726  -3.238   5.000  1.00  0.00     0.031 C 
ATOM     19  C   UNL     1       4.610   1.542   5.810  1.00  0.00     0.029 A 
ATOM     20  N   UNL     1       5.995   0.619   7.300  1.00  0.00    -0.354 N 
ATOM     21  C   UNL     1       7.061  -3.654   6.798  1.00  0.00     0.074 A 
ATOM     22  C   UNL     1       6.489  -4.154   5.570  1.00  0.00     0.031 C 
ATOM     23  C   UNL     1       5.084   2.533   6.580  1.00  0.00     0.029 A 
ATOM     24  C   UNL     1       5.917   1.953   7.623  1.00  0.00     0.049 A 
ATOM     25  H   UNL     1       6.570  -0.021   7.779  1.00  0.00     0.167 HD
ATOM     26  C   UNL     1       7.896  -4.344   7.608  1.00  0.00     0.034 A 
ATOM     27  C   UNL     1       6.420   2.601   8.690  1.00  0.00     0.034 A 
ATOM     28  C   UNL     1       8.411  -3.776   8.826  1.00  0.00     0.049 A 
ATOM     29  C   UNL     1       7.209   1.766   9.667  1.00  0.00     0.074 A 
ATOM     30  C   UNL     1       9.159  -4.375   9.820  1.00  0.00     0.029 A 
ATOM     31  N   UNL     1       8.216  -2.450   9.213  1.00  0.00    -0.354 N 
ATOM     32  N   UNL     1       7.549   0.497   9.580  1.00  0.00    -0.248 NA
ATOM     33  C   UNL     1       7.667   2.433  10.887  1.00  0.00     0.031 C 
ATOM     34  C   UNL     1       9.355  -3.431  10.836  1.00  0.00     0.029 A 
ATOM     35  C   UNL     1       8.806  -2.218  10.440  1.00  0.00     0.049 A 
ATOM     36  H   UNL     1       7.728  -1.777   8.686  1.00  0.00     0.167 HD
ATOM     37  C   UNL     1       8.280   0.217  10.726  1.00  0.00     0.074 A 
ATOM     38  C   UNL     1       8.350   1.461  11.474  1.00  0.00     0.031 C 
ATOM     39  C   UNL     1       8.841  -0.951  11.137  1.00  0.00     0.034 A 
BRANCH  26  40
ATOM     40  C   UNL     1       8.150  -5.785   7.248  1.00  0.00     0.023 A 
ATOM     41  C   UNL     1       8.803  -6.156   6.058  1.00  0.00     0.031 A 
ATOM     42  C   UNL     1       7.610  -6.808   8.047  1.00  0.00     0.131 A 
ATOM     43  C   UNL     1       8.815  -7.502   5.658  1.00  0.00     0.055 A 
ATOM     44  C   UNL     1       7.704  -8.153   7.687  1.00  0.00     0.041 A 
ATOM     45  F   UNL     1       6.938  -6.514   9.171  1.00  0.00    -0.206 F 
ATOM     46  C   UNL     1       8.292  -8.506   6.477  1.00  0.00     0.022 A 
BRANCH  43  47
ATOM     47  S   UNL     1       9.355  -7.903   3.971  1.00  0.00     0.124 S 
ATOM     48  O   UNL     1       8.386  -7.162   3.168  1.00  0.00    -0.237 OA
ATOM     49  O   UNL     1      10.723  -7.397   3.948  1.00  0.00    -0.237 OA
ATOM     50  O   UNL     1       9.227  -9.357   3.906  1.00  0.00    -0.744 OA
ENDBRANCH  43  47
ENDBRANCH  26  40
BRANCH  27  51
ATOM     51  C   UNL     1       6.105   4.038   8.943  1.00  0.00     0.023 A 
ATOM     52  C   UNL     1       7.119   4.992   9.110  1.00  0.00     0.031 A 
ATOM     53  C   UNL     1       4.771   4.473   9.085  1.00  0.00     0.131 A 
ATOM     54  C   UNL     1       6.790   6.313   9.457  1.00  0.00     0.055 A 
ATOM     55  C   UNL     1       4.447   5.801   9.366  1.00  0.00     0.041 A 
ATOM     56  F   UNL     1       3.753   3.608   8.951  1.00  0.00    -0.206 F 
ATOM     57  C   UNL     1       5.461   6.728   9.571  1.00  0.00     0.022 A 
BRANCH  54  58
ATOM     58  S   UNL     1       8.132   7.462   9.872  1.00  0.00     0.124 S 
ATOM     59  O   UNL     1       8.826   6.737  10.930  1.00  0.00    -0.237 OA
ATOM     60  O   UNL     1       8.838   7.574   8.600  1.00  0.00    -0.237 OA
ATOM     61  O   UNL     1       7.426   8.668  10.300  1.00  0.00    -0.744 OA
ENDBRANCH  54  58
ENDBRANCH  27  51
BRANCH  39  62
ATOM     62  C   UNL     1       9.615  -0.898  12.425  1.00  0.00     0.023 A 
ATOM     63  C   UNL     1       8.980  -0.674  13.657  1.00  0.00     0.031 A 
ATOM     64  C   UNL     1      11.009  -1.075  12.411  1.00  0.00     0.131 A 
ATOM     65  C   UNL     1       9.749  -0.571  14.822  1.00  0.00     0.055 A 
ATOM     66  C   UNL     1      11.760  -1.045  13.584  1.00  0.00     0.041 A 
ATOM     67  F   UNL     1      11.660  -1.290  11.256  1.00  0.00    -0.206 F 
ATOM     68  C   UNL     1      11.132  -0.777  14.797  1.00  0.00     0.022 A 
BRANCH  65  69
ATOM     69  S   UNL     1       8.930  -0.060  16.355  1.00  0.00     0.124 S 
ATOM     70  O   UNL     1       8.375   1.238  15.982  1.00  0.00    -0.237 OA
ATOM     71  O   UNL     1       7.961  -1.131  16.563  1.00  0.00    -0.237 OA
ATOM     72  O   UNL     1      10.021  -0.013  17.326  1.00  0.00    -0.744 OA
ENDBRANCH  65  69
ENDBRANCH  39  62
ENDBRANCH  13  14
ENDBRANCH   6   8
ENDBRANCH   5   6
ENDBRANCH   4   5
ENDBRANCH   3   4
ENDBRANCH   2   3
ENDBRANCH   1   2
BRANCH   1  73
ATOM     73  C   UNL     1       2.653   3.279  -0.295  1.00  0.00     0.261 C 
BRANCH  73  74
ATOM     74  O   UNL     1       3.198   3.603  -1.586  1.00  0.00    -0.463 OA
BRANCH  74  75
ATOM     75  C   UNL     1       4.543   3.464  -1.683  1.00  0.00     0.309 C 
ATOM     76  O   UNL     1       5.317   3.398  -0.743  1.00  0.00    -0.252 OA
BRANCH  75  77
ATOM     77  C   UNL     1       5.011   3.402  -3.126  1.00  0.00     0.106 C 
BRANCH  77  78
ATOM     78  C   UNL     1       4.381   2.317  -4.052  1.00  0.00     0.044 C 
BRANCH  78  79
ATOM     79  C   UNL     1       2.927   1.830  -3.888  1.00  0.00     0.171 C 
BRANCH  79  80
ATOM     80  O   UNL     1       2.055   2.204  -4.940  1.00  0.00    -0.292 OA
BRANCH  80  81
ATOM     81  C   UNL     1       1.565   3.522  -4.840  1.00  0.00     0.522 C 
ATOM     82  F   UNL     1       1.468   3.934  -3.564  1.00  0.00    -0.144 F 
ATOM     83  F   UNL     1       2.385   4.341  -5.521  1.00  0.00    -0.144 F 
ATOM     84  F   UNL     1       0.340   3.575  -5.399  1.00  0.00    -0.144 F 
ENDBRANCH  80  81
ENDBRANCH  79  80
ENDBRANCH  78  79
ENDBRANCH  77  78
BRANCH  77  85
ATOM     85  C   UNL     1       5.036   4.798  -3.771  1.00  0.00     0.052 C 
BRANCH  85  86
ATOM     86  C   UNL     1       5.400   5.971  -2.878  1.00  0.00    -0.028 A 
ATOM     87  C   UNL     1       6.410   5.851  -1.904  1.00  0.00     0.005 A 
ATOM     88  C   UNL     1       4.713   7.194  -2.958  1.00  0.00     0.044 A 
ATOM     89  C   UNL     1       6.605   6.844  -0.942  1.00  0.00     0.000 A 
ATOM     90  C   UNL     1       4.932   8.200  -2.012  1.00  0.00     0.021 A 
ATOM     91  Cl  UNL     1       3.565   7.529  -4.210  1.00  0.00    -0.084 Cl
ATOM     92  C   UNL     1       5.851   8.010  -0.984  1.00  0.00     0.002 A 
ENDBRANCH  85  86
ENDBRANCH  77  85
ENDBRANCH  75  77
ENDBRANCH  74  75
ENDBRANCH  73  74
ENDBRANCH   1  73
TORSDOF 23
