REMARK SMILES Nc1c(C(=O)OCCOCCOC(=O)c2ccc(-c3c4nc(c(-c5cc(S(=O)(=O)[O-])ccc5F)c5ccc([nH]5)c(-c5cc(S(=O)(=O)[O-])ccc5F)c5nc(c(-c6cc(S(=O)(=O)[O-])ccc6F)c6ccc3[nH]6)C=C5)C=C4)cc2)cccc1-c1cc(F)c(F)c(F)c1
REMARK SMILES IDX 10 1 9 2 8 3 7 4 6 5 4 6 5 7 3 8 2 9 81 10 78 11 80 12 79 13
REMARK SMILES IDX 1 14 82 17 83 18 90 19 84 20 88 21 85 22 86 23 89 24 87 25
REMARK SMILES IDX 11 26 12 27 13 28 14 29 15 30 16 31 77 32 17 33 76 34 18 35
REMARK SMILES IDX 19 36 20 37 70 38 21 39 75 40 69 41 71 42 22 43 74 44 68 45
REMARK SMILES IDX 67 46 23 48 55 49 35 50 54 51 36 52 39 53 53 54 72 55 37 56
REMARK SMILES IDX 38 57 52 59 73 60 40 61 24 62 25 63 33 64 26 65 32 66 34 67
REMARK SMILES IDX 31 68 27 69 28 70 29 71 30 72 56 73 57 74 65 75 58 76 64 77
REMARK SMILES IDX 66 78 63 79 59 80 60 81 61 82 62 83 41 84 42 85 50 86 43 87
REMARK SMILES IDX 49 88 51 89 48 90 44 91 45 92 46 93 47 94
REMARK H PARENT 1 15 1 16 71 47 39 58
REMARK Flexibility Score: inf
ROOT
ATOM      1  C   UNL     1       0.672  -3.723   1.908  1.00  0.00     0.202 C 
ENDROOT
BRANCH   1   2
ATOM      2  O   UNL     1       1.219  -4.857   1.236  1.00  0.00    -0.374 OA
BRANCH   2   3
ATOM      3  C   UNL     1       2.471  -4.679   0.571  1.00  0.00     0.202 C 
BRANCH   3   4
ATOM      4  C   UNL     1       2.402  -4.012  -0.805  1.00  0.00     0.261 C 
BRANCH   4   5
ATOM      5  O   UNL     1       1.964  -2.647  -0.682  1.00  0.00    -0.460 OA
BRANCH   5   6
ATOM      6  C   UNL     1       0.773  -2.362  -1.264  1.00  0.00     0.340 C 
ATOM      7  O   UNL     1       0.131  -3.102  -1.995  1.00  0.00    -0.246 OA
BRANCH   6   8
ATOM      8  C   UNL     1       0.225  -1.074  -0.761  1.00  0.00     0.083 A 
ATOM      9  C   UNL     1       1.003   0.065  -0.449  1.00  0.00     0.054 A 
ATOM     10  C   UNL     1       0.325   1.285  -0.167  1.00  0.00     0.006 A 
ATOM     11  C   UNL     1      -1.173  -1.051  -0.607  1.00  0.00     0.018 A 
ATOM     12  C   UNL     1      -1.079   1.266  -0.007  1.00  0.00     0.011 A 
ATOM     13  C   UNL     1      -1.820   0.104  -0.198  1.00  0.00     0.002 A 
BRANCH   9  14
ATOM     14  N   UNL     1       2.400   0.045  -0.565  1.00  0.00    -0.398 N 
ATOM     15  H   UNL     1       2.866  -0.799  -0.760  1.00  0.00     0.156 HD
ATOM     16  H   UNL     1       2.915   0.877  -0.451  1.00  0.00     0.156 HD
ENDBRANCH   9  14
BRANCH  10  17
ATOM     17  C   UNL     1       1.012   2.598  -0.122  1.00  0.00    -0.010 A 
ATOM     18  C   UNL     1       0.814   3.504   0.934  1.00  0.00     0.051 A 
ATOM     19  C   UNL     1       1.821   3.013  -1.199  1.00  0.00     0.051 A 
ATOM     20  C   UNL     1       1.399   4.771   0.902  1.00  0.00     0.162 A 
ATOM     21  C   UNL     1       2.407   4.277  -1.210  1.00  0.00     0.162 A 
ATOM     22  F   UNL     1       1.163   5.623   1.909  1.00  0.00    -0.204 F 
ATOM     23  C   UNL     1       2.194   5.161  -0.166  1.00  0.00     0.194 A 
ATOM     24  F   UNL     1       3.160   4.638  -2.258  1.00  0.00    -0.204 F 
ATOM     25  F   UNL     1       2.735   6.387  -0.195  1.00  0.00    -0.200 F 
ENDBRANCH  10  17
ENDBRANCH   6   8
ENDBRANCH   5   6
ENDBRANCH   4   5
ENDBRANCH   3   4
ENDBRANCH   2   3
ENDBRANCH   1   2
BRANCH   1  26
ATOM     26  C   UNL     1       1.255  -3.392   3.287  1.00  0.00     0.261 C 
BRANCH  26  27
ATOM     27  O   UNL     1       2.624  -2.958   3.211  1.00  0.00    -0.460 OA
BRANCH  27  28
ATOM     28  C   UNL     1       3.527  -3.858   3.667  1.00  0.00     0.338 C 
ATOM     29  O   UNL     1       3.285  -4.946   4.176  1.00  0.00    -0.246 OA
BRANCH  28  30
ATOM     30  C   UNL     1       4.891  -3.438   3.298  1.00  0.00     0.060 A 
ATOM     31  C   UNL     1       5.706  -4.378   2.654  1.00  0.00     0.016 A 
ATOM     32  C   UNL     1       5.391  -2.176   3.630  1.00  0.00     0.016 A 
ATOM     33  C   UNL     1       7.038  -4.078   2.381  1.00  0.00     0.010 A 
ATOM     34  C   UNL     1       6.732  -1.879   3.361  1.00  0.00     0.010 A 
ATOM     35  C   UNL     1       7.570  -2.841   2.766  1.00  0.00    -0.014 A 
BRANCH  35  36
ATOM     36  C   UNL     1       9.035  -2.615   2.678  1.00  0.00     0.031 A 
ATOM     37  C   UNL     1       9.869  -2.755   3.922  1.00  0.00     0.074 A 
ATOM     38  C   UNL     1       9.616  -2.319   1.502  1.00  0.00     0.049 A 
ATOM     39  N   UNL     1      11.154  -2.574   4.088  1.00  0.00    -0.248 NA
ATOM     40  C   UNL     1       9.153  -3.148   5.145  1.00  0.00     0.031 C 
ATOM     41  C   UNL     1       8.918  -2.203   0.223  1.00  0.00     0.029 A 
ATOM     42  N   UNL     1      10.928  -2.060   1.194  1.00  0.00    -0.354 N 
ATOM     43  C   UNL     1      11.402  -2.825   5.434  1.00  0.00     0.074 A 
ATOM     44  C   UNL     1      10.125  -3.130   6.044  1.00  0.00     0.031 C 
ATOM     45  C   UNL     1       9.810  -1.890  -0.733  1.00  0.00     0.029 A 
ATOM     46  C   UNL     1      11.133  -1.746  -0.128  1.00  0.00     0.049 A 
ATOM     47  H   UNL     1      11.654  -2.096   1.858  1.00  0.00     0.167 HD
ATOM     48  C   UNL     1      12.586  -2.810   6.095  1.00  0.00     0.034 A 
ATOM     49  C   UNL     1      12.254  -1.363  -0.771  1.00  0.00     0.034 A 
ATOM     50  C   UNL     1      13.849  -2.493   5.472  1.00  0.00     0.049 A 
ATOM     51  C   UNL     1      13.546  -1.264   0.004  1.00  0.00     0.074 A 
ATOM     52  C   UNL     1      15.110  -2.471   6.041  1.00  0.00     0.029 A 
ATOM     53  N   UNL     1      14.010  -2.124   4.142  1.00  0.00    -0.354 N 
ATOM     54  N   UNL     1      13.771  -1.515   1.274  1.00  0.00    -0.248 NA
ATOM     55  C   UNL     1      14.735  -0.834  -0.743  1.00  0.00     0.031 C 
ATOM     56  C   UNL     1      16.019  -2.016   5.079  1.00  0.00     0.029 A 
ATOM     57  C   UNL     1      15.341  -1.834   3.884  1.00  0.00     0.049 A 
ATOM     58  H   UNL     1      13.284  -2.076   3.479  1.00  0.00     0.167 HD
ATOM     59  C   UNL     1      15.135  -1.305   1.467  1.00  0.00     0.074 A 
ATOM     60  C   UNL     1      15.680  -0.917   0.182  1.00  0.00     0.031 C 
ATOM     61  C   UNL     1      15.871  -1.431   2.601  1.00  0.00     0.034 A 
BRANCH  48  62
ATOM     62  C   UNL     1      12.552  -3.090   7.580  1.00  0.00     0.023 A 
ATOM     63  C   UNL     1      12.129  -4.329   8.094  1.00  0.00     0.031 A 
ATOM     64  C   UNL     1      12.909  -2.086   8.497  1.00  0.00     0.131 A 
ATOM     65  C   UNL     1      11.997  -4.504   9.480  1.00  0.00     0.055 A 
ATOM     66  C   UNL     1      12.855  -2.295   9.877  1.00  0.00     0.041 A 
ATOM     67  F   UNL     1      13.298  -0.875   8.069  1.00  0.00    -0.206 F 
ATOM     68  C   UNL     1      12.381  -3.504  10.376  1.00  0.00     0.022 A 
BRANCH  65  69
ATOM     69  S   UNL     1      11.166  -5.997  10.090  1.00  0.00     0.124 S 
ATOM     70  O   UNL     1       9.874  -5.913   9.413  1.00  0.00    -0.237 OA
ATOM     71  O   UNL     1      12.057  -7.059   9.639  1.00  0.00    -0.237 OA
ATOM     72  O   UNL     1      11.116  -5.795  11.536  1.00  0.00    -0.744 OA
ENDBRANCH  65  69
ENDBRANCH  48  62
BRANCH  49  73
ATOM     73  C   UNL     1      12.209  -1.007  -2.218  1.00  0.00     0.023 A 
ATOM     74  C   UNL     1      12.912  -1.757  -3.173  1.00  0.00     0.031 A 
ATOM     75  C   UNL     1      11.493   0.120  -2.660  1.00  0.00     0.131 A 
ATOM     76  C   UNL     1      12.918  -1.349  -4.516  1.00  0.00     0.055 A 
ATOM     77  C   UNL     1      11.461   0.493  -4.005  1.00  0.00     0.041 A 
ATOM     78  F   UNL     1      10.803   0.872  -1.788  1.00  0.00    -0.206 F 
ATOM     79  C   UNL     1      12.187  -0.237  -4.940  1.00  0.00     0.022 A 
BRANCH  76  80
ATOM     80  S   UNL     1      13.959  -2.253  -5.694  1.00  0.00     0.124 S 
ATOM     81  O   UNL     1      15.285  -2.081  -5.112  1.00  0.00    -0.237 OA
ATOM     82  O   UNL     1      13.397  -3.598  -5.624  1.00  0.00    -0.237 OA
ATOM     83  O   UNL     1      13.734  -1.551  -6.956  1.00  0.00    -0.744 OA
ENDBRANCH  76  80
ENDBRANCH  49  73
BRANCH  61  84
ATOM     84  C   UNL     1      17.358  -1.188   2.487  1.00  0.00     0.023 A 
ATOM     85  C   UNL     1      17.883   0.083   2.197  1.00  0.00     0.031 A 
ATOM     86  C   UNL     1      18.262  -2.252   2.661  1.00  0.00     0.131 A 
ATOM     87  C   UNL     1      19.268   0.248   2.036  1.00  0.00     0.055 A 
ATOM     88  C   UNL     1      19.642  -2.070   2.561  1.00  0.00     0.041 A 
ATOM     89  F   UNL     1      17.817  -3.489   2.937  1.00  0.00    -0.206 F 
ATOM     90  C   UNL     1      20.151  -0.817   2.234  1.00  0.00     0.022 A 
BRANCH  87  91
ATOM     91  S   UNL     1      19.897   1.854   1.473  1.00  0.00     0.124 S 
ATOM     92  O   UNL     1      19.201   2.023   0.201  1.00  0.00    -0.237 OA
ATOM     93  O   UNL     1      19.482   2.747   2.550  1.00  0.00    -0.237 OA
ATOM     94  O   UNL     1      21.339   1.640   1.367  1.00  0.00    -0.744 OA
ENDBRANCH  87  91
ENDBRANCH  61  84
ENDBRANCH  35  36
ENDBRANCH  28  30
ENDBRANCH  27  28
ENDBRANCH  26  27
ENDBRANCH   1  26
TORSDOF 19
