REMARK SMILES Cc1cccc(NC(=O)C[C@@H]2CCCCO2)c1C(=O)OCCOCCOC(=O)c1ccc(-c2c3nc(c(-c4cc(S(=O)(=O)[O-])ccc4F)c4ccc([nH]4)c(-c4cc(S(=O)(=O)[O-])ccc4F)c4nc(c(-c5cc(S(=O)(=O)[O-])ccc5F)c5ccc2[nH]5)C=C4)C=C3)cc1
REMARK SMILES IDX 23 1 22 2 21 3 20 4 18 5 19 6 17 7 1 8 2 9 3 10 4 11 6 12
REMARK SMILES IDX 5 13 7 14 8 15 9 17 10 18 11 19 12 20 16 21 13 22 15 23
REMARK SMILES IDX 14 24 24 25 25 26 26 27 27 28 28 29 29 30 30 31 91 32 31 33
REMARK SMILES IDX 90 34 32 35 33 36 34 37 84 38 35 39 89 40 83 41 85 42 36 43
REMARK SMILES IDX 88 44 82 45 81 46 37 48 69 49 49 50 68 51 50 52 53 53 67 54
REMARK SMILES IDX 86 55 51 56 52 57 66 59 87 60 54 61 38 62 39 63 47 64 40 65
REMARK SMILES IDX 46 66 48 67 45 68 41 69 42 70 43 71 44 72 70 73 71 74 79 75
REMARK SMILES IDX 72 76 78 77 80 78 77 79 73 80 74 81 75 82 76 83 55 84 56 85
REMARK SMILES IDX 64 86 57 87 63 88 65 89 62 90 58 91 59 92 60 93 61 94
REMARK H PARENT 7 16 85 47 53 58
REMARK Flexibility Score: inf
ROOT
ATOM      1  O   UNL     1       1.175   3.214  -2.400  1.00  0.00    -0.374 OA
ENDROOT
BRANCH   1   2
ATOM      2  C   UNL     1       2.313   2.378  -2.540  1.00  0.00     0.202 C 
BRANCH   2   3
ATOM      3  C   UNL     1       2.787   2.227  -1.143  1.00  0.00     0.261 C 
BRANCH   3   4
ATOM      4  O   UNL     1       1.889   1.383  -0.400  1.00  0.00    -0.460 OA
BRANCH   4   5
ATOM      5  C   UNL     1       0.743   1.794   0.177  1.00  0.00     0.340 C 
ATOM      6  O   UNL     1       0.304   2.925   0.213  1.00  0.00    -0.246 OA
BRANCH   5   7
ATOM      7  C   UNL     1       0.080   0.616   0.838  1.00  0.00     0.086 A 
ATOM      8  C   UNL     1       2.006  -1.050   0.289  1.00  0.00     0.045 C 
ATOM      9  C   UNL     1       0.684  -0.674   0.917  1.00  0.00    -0.034 A 
ATOM     10  C   UNL     1      -0.023  -1.727   1.512  1.00  0.00     0.004 A 
ATOM     11  C   UNL     1      -1.280  -1.520   2.062  1.00  0.00     0.002 A 
ATOM     12  C   UNL     1      -1.263   0.783   1.287  1.00  0.00     0.056 A 
ATOM     13  C   UNL     1      -1.890  -0.270   1.963  1.00  0.00     0.027 A 
BRANCH  12  14
ATOM     14  N   UNL     1      -1.975   1.959   0.930  1.00  0.00    -0.325 N 
ATOM     15  C   UNL     1      -3.190   2.128   0.315  1.00  0.00     0.227 C 
ATOM     16  H   UNL     1      -1.517   2.799   1.165  1.00  0.00     0.169 HD
ATOM     17  O   UNL     1      -3.510   3.256  -0.077  1.00  0.00    -0.275 OA
BRANCH  15  18
ATOM     18  C   UNL     1      -4.146   0.980   0.081  1.00  0.00     0.132 C 
BRANCH  18  19
ATOM     19  C   UNL     1      -4.263   0.427  -1.354  1.00  0.00     0.127 C 
ATOM     20  C   UNL     1      -4.879  -0.981  -1.351  1.00  0.00     0.033 C 
ATOM     21  O   UNL     1      -3.090   0.402  -2.164  1.00  0.00    -0.378 OA
ATOM     22  C   UNL     1      -3.897  -2.011  -0.800  1.00  0.00     0.005 C 
ATOM     23  C   UNL     1      -2.084  -0.528  -1.792  1.00  0.00     0.160 C 
ATOM     24  C   UNL     1      -2.575  -1.948  -1.552  1.00  0.00     0.029 C 
ENDBRANCH  18  19
ENDBRANCH  15  18
ENDBRANCH  12  14
ENDBRANCH   5   7
ENDBRANCH   4   5
ENDBRANCH   3   4
ENDBRANCH   2   3
ENDBRANCH   1   2
BRANCH   1  25
ATOM     25  C   UNL     1       0.408   3.394  -3.561  1.00  0.00     0.202 C 
BRANCH  25  26
ATOM     26  C   UNL     1       1.222   4.098  -4.647  1.00  0.00     0.261 C 
BRANCH  26  27
ATOM     27  O   UNL     1       1.616   5.416  -4.195  1.00  0.00    -0.460 OA
BRANCH  27  28
ATOM     28  C   UNL     1       2.895   5.541  -3.732  1.00  0.00     0.338 C 
ATOM     29  O   UNL     1       3.897   5.301  -4.384  1.00  0.00    -0.246 OA
BRANCH  28  30
ATOM     30  C   UNL     1       2.895   5.870  -2.273  1.00  0.00     0.060 A 
ATOM     31  C   UNL     1       4.070   5.743  -1.503  1.00  0.00     0.016 A 
ATOM     32  C   UNL     1       1.667   6.017  -1.637  1.00  0.00     0.016 A 
ATOM     33  C   UNL     1       3.990   5.594  -0.106  1.00  0.00     0.010 A 
ATOM     34  C   UNL     1       1.587   5.756  -0.287  1.00  0.00     0.010 A 
ATOM     35  C   UNL     1       2.734   5.507   0.487  1.00  0.00    -0.014 A 
BRANCH  35  36
ATOM     36  C   UNL     1       2.429   5.060   1.853  1.00  0.00     0.031 A 
ATOM     37  C   UNL     1       1.651   5.982   2.712  1.00  0.00     0.074 A 
ATOM     38  C   UNL     1       2.545   3.751   2.197  1.00  0.00     0.049 A 
ATOM     39  N   UNL     1       1.348   5.727   3.931  1.00  0.00    -0.248 NA
ATOM     40  C   UNL     1       1.163   7.297   2.289  1.00  0.00     0.031 C 
ATOM     41  C   UNL     1       1.806   2.995   3.213  1.00  0.00     0.029 A 
ATOM     42  N   UNL     1       3.390   2.779   1.661  1.00  0.00    -0.354 N 
ATOM     43  C   UNL     1       0.387   6.621   4.332  1.00  0.00     0.074 A 
ATOM     44  C   UNL     1       0.403   7.651   3.330  1.00  0.00     0.031 C 
ATOM     45  C   UNL     1       2.392   1.797   3.409  1.00  0.00     0.029 A 
ATOM     46  C   UNL     1       3.608   1.774   2.612  1.00  0.00     0.049 A 
ATOM     47  H   UNL     1       3.775   2.796   0.755  1.00  0.00     0.167 HD
ATOM     48  C   UNL     1      -0.370   6.287   5.413  1.00  0.00     0.034 A 
ATOM     49  C   UNL     1       4.876   1.498   3.014  1.00  0.00     0.034 A 
ATOM     50  C   UNL     1       0.189   5.092   6.067  1.00  0.00     0.049 A 
ATOM     51  C   UNL     1       4.967   1.995   4.440  1.00  0.00     0.074 A 
ATOM     52  C   UNL     1      -0.213   3.773   6.175  1.00  0.00     0.029 A 
ATOM     53  N   UNL     1       1.529   5.120   6.461  1.00  0.00    -0.354 N 
ATOM     54  N   UNL     1       4.151   2.898   4.925  1.00  0.00    -0.248 NA
ATOM     55  C   UNL     1       5.823   1.410   5.464  1.00  0.00     0.031 C 
ATOM     56  C   UNL     1       0.942   2.998   6.513  1.00  0.00     0.029 A 
ATOM     57  C   UNL     1       2.031   3.849   6.655  1.00  0.00     0.049 A 
ATOM     58  H   UNL     1       2.051   5.945   6.584  1.00  0.00     0.167 HD
ATOM     59  C   UNL     1       4.250   2.925   6.280  1.00  0.00     0.074 A 
ATOM     60  C   UNL     1       5.352   2.017   6.569  1.00  0.00     0.031 C 
ATOM     61  C   UNL     1       3.417   3.659   7.079  1.00  0.00     0.034 A 
BRANCH  48  62
ATOM     62  C   UNL     1      -1.685   6.922   5.819  1.00  0.00     0.023 A 
ATOM     63  C   UNL     1      -2.324   6.449   6.985  1.00  0.00     0.031 A 
ATOM     64  C   UNL     1      -2.408   7.902   5.101  1.00  0.00     0.131 A 
ATOM     65  C   UNL     1      -3.584   6.934   7.388  1.00  0.00     0.055 A 
ATOM     66  C   UNL     1      -3.639   8.420   5.529  1.00  0.00     0.041 A 
ATOM     67  F   UNL     1      -2.001   8.383   3.923  1.00  0.00    -0.206 F 
ATOM     68  C   UNL     1      -4.238   7.935   6.676  1.00  0.00     0.022 A 
BRANCH  65  69
ATOM     69  S   UNL     1      -4.384   6.208   8.843  1.00  0.00     0.124 S 
ATOM     70  O   UNL     1      -4.586   4.824   8.423  1.00  0.00    -0.237 OA
ATOM     71  O   UNL     1      -3.391   6.430   9.887  1.00  0.00    -0.237 OA
ATOM     72  O   UNL     1      -5.611   6.992   8.984  1.00  0.00    -0.744 OA
ENDBRANCH  65  69
ENDBRANCH  48  62
BRANCH  49  73
ATOM     73  C   UNL     1       5.849   1.610   1.865  1.00  0.00     0.023 A 
ATOM     74  C   UNL     1       5.787   0.617   0.843  1.00  0.00     0.031 A 
ATOM     75  C   UNL     1       6.417   2.845   1.512  1.00  0.00     0.131 A 
ATOM     76  C   UNL     1       6.166   0.912  -0.486  1.00  0.00     0.055 A 
ATOM     77  C   UNL     1       6.783   3.136   0.186  1.00  0.00     0.041 A 
ATOM     78  F   UNL     1       6.478   3.845   2.403  1.00  0.00    -0.206 F 
ATOM     79  C   UNL     1       6.625   2.186  -0.824  1.00  0.00     0.022 A 
BRANCH  76  80
ATOM     80  S   UNL     1       5.767  -0.251  -1.848  1.00  0.00     0.124 S 
ATOM     81  O   UNL     1       6.965  -1.079  -1.911  1.00  0.00    -0.237 OA
ATOM     82  O   UNL     1       4.561  -0.921  -1.373  1.00  0.00    -0.237 OA
ATOM     83  O   UNL     1       5.545   0.633  -2.991  1.00  0.00    -0.744 OA
ENDBRANCH  76  80
ENDBRANCH  49  73
BRANCH  61  84
ATOM     84  C   UNL     1       3.886   4.221   8.392  1.00  0.00     0.023 A 
ATOM     85  C   UNL     1       5.242   4.218   8.734  1.00  0.00     0.031 A 
ATOM     86  C   UNL     1       3.025   4.894   9.285  1.00  0.00     0.131 A 
ATOM     87  C   UNL     1       5.681   4.710   9.964  1.00  0.00     0.055 A 
ATOM     88  C   UNL     1       3.486   5.509  10.451  1.00  0.00     0.041 A 
ATOM     89  F   UNL     1       1.709   5.005   9.060  1.00  0.00    -0.206 F 
ATOM     90  C   UNL     1       4.819   5.390  10.816  1.00  0.00     0.022 A 
BRANCH  87  91
ATOM     91  S   UNL     1       7.368   4.293  10.453  1.00  0.00     0.124 S 
ATOM     92  O   UNL     1       7.320   2.831  10.452  1.00  0.00    -0.237 OA
ATOM     93  O   UNL     1       8.165   4.896   9.391  1.00  0.00    -0.237 OA
ATOM     94  O   UNL     1       7.505   4.910  11.769  1.00  0.00    -0.744 OA
ENDBRANCH  87  91
ENDBRANCH  61  84
ENDBRANCH  35  36
ENDBRANCH  28  30
ENDBRANCH  27  28
ENDBRANCH  26  27
ENDBRANCH  25  26
ENDBRANCH   1  25
TORSDOF 20
