REMARK SMILES O=C(OCCOCCOC(=O)[C@H]1CCCCN1c1cc(-c2ccccc2)nc(-c2cccc(Cl)c2)n1)c1ccc(-c2c3nc(c(-c4cc(S(=O)(=O)[O-])ccc4F)c4ccc([nH]4)c(-c4cc(S(=O)(=O)[O-])ccc4F)c4nc(c(-c5cc(S(=O)(=O)[O-])ccc5F)c5ccc2[nH]5)C=C4)C=C3)cc1
REMARK SMILES IDX 5 1 4 2 3 3 2 4 1 5 37 6 38 7 99 8 39 9 98 10 40 11 41 12
REMARK SMILES IDX 42 13 92 14 43 15 97 16 91 17 93 18 44 19 96 20 90 21 89 22
REMARK SMILES IDX 45 24 77 25 57 26 76 27 58 28 61 29 75 30 94 31 59 32 60 33
REMARK SMILES IDX 74 35 95 36 62 37 46 38 47 39 55 40 48 41 54 42 56 43 53 44
REMARK SMILES IDX 49 45 50 46 51 47 52 48 78 49 79 50 87 51 80 52 86 53 88 54
REMARK SMILES IDX 85 55 81 56 82 57 83 58 84 59 63 60 64 61 72 62 65 63 71 64
REMARK SMILES IDX 73 65 70 66 66 67 67 68 68 69 69 70 6 71 7 72 8 73 9 74
REMARK SMILES IDX 10 75 11 76 12 77 13 78 17 79 14 80 16 81 15 82 18 83 19 84
REMARK SMILES IDX 36 85 20 86 28 87 27 88 21 89 22 90 26 91 23 92 25 93 24 94
REMARK SMILES IDX 29 95 30 96 35 97 31 98 33 99 32 100 34 101
REMARK H PARENT 93 23 61 34
REMARK Flexibility Score: inf
ROOT
ATOM      1  C   UNL     1       2.534  -0.651  -5.338  1.00  0.00     0.202 C 
ENDROOT
BRANCH   1   2
ATOM      2  C   UNL     1       1.508  -1.772  -5.568  1.00  0.00     0.261 C 
BRANCH   2   3
ATOM      3  O   UNL     1       1.878  -2.604  -6.681  1.00  0.00    -0.460 OA
BRANCH   3   4
ATOM      4  C   UNL     1       1.502  -2.462  -7.978  1.00  0.00     0.338 C 
ATOM      5  O   UNL     1       1.913  -3.277  -8.802  1.00  0.00    -0.246 OA
BRANCH   4   6
ATOM      6  C   UNL     1       0.640  -1.340  -8.460  1.00  0.00     0.060 A 
ATOM      7  C   UNL     1       0.456  -0.147  -7.769  1.00  0.00     0.016 A 
ATOM      8  C   UNL     1       0.021  -1.462  -9.713  1.00  0.00     0.016 A 
ATOM      9  C   UNL     1      -0.295   0.886  -8.253  1.00  0.00     0.010 A 
ATOM     10  C   UNL     1      -0.768  -0.421 -10.223  1.00  0.00     0.010 A 
ATOM     11  C   UNL     1      -0.926   0.749  -9.474  1.00  0.00    -0.014 A 
BRANCH  11  12
ATOM     12  C   UNL     1      -1.917   1.796  -9.726  1.00  0.00     0.031 A 
ATOM     13  C   UNL     1      -3.326   1.493  -9.324  1.00  0.00     0.074 A 
ATOM     14  C   UNL     1      -1.476   3.047  -9.954  1.00  0.00     0.049 A 
ATOM     15  N   UNL     1      -4.378   2.257  -9.357  1.00  0.00    -0.248 NA
ATOM     16  C   UNL     1      -3.572   0.148  -8.770  1.00  0.00     0.031 C 
ATOM     17  C   UNL     1      -0.062   3.430 -10.078  1.00  0.00     0.029 A 
ATOM     18  N   UNL     1      -2.148   4.231 -10.031  1.00  0.00    -0.354 N 
ATOM     19  C   UNL     1      -5.420   1.474  -8.877  1.00  0.00     0.074 A 
ATOM     20  C   UNL     1      -4.874   0.180  -8.543  1.00  0.00     0.031 C 
ATOM     21  C   UNL     1       0.021   4.765 -10.189  1.00  0.00     0.029 A 
ATOM     22  C   UNL     1      -1.327   5.314 -10.239  1.00  0.00     0.049 A 
ATOM     23  H   UNL     1      -3.126   4.303  -9.947  1.00  0.00     0.167 HD
ATOM     24  C   UNL     1      -6.722   1.821  -8.757  1.00  0.00     0.034 A 
ATOM     25  C   UNL     1      -1.654   6.594 -10.492  1.00  0.00     0.034 A 
ATOM     26  C   UNL     1      -7.193   3.132  -9.118  1.00  0.00     0.049 A 
ATOM     27  C   UNL     1      -3.127   6.917 -10.510  1.00  0.00     0.074 A 
ATOM     28  C   UNL     1      -8.488   3.607  -9.177  1.00  0.00     0.029 A 
ATOM     29  N   UNL     1      -6.360   4.187  -9.489  1.00  0.00    -0.354 N 
ATOM     30  N   UNL     1      -4.145   6.136 -10.214  1.00  0.00    -0.248 NA
ATOM     31  C   UNL     1      -3.499   8.276 -10.904  1.00  0.00     0.031 C 
ATOM     32  C   UNL     1      -8.441   4.921  -9.658  1.00  0.00     0.029 A 
ATOM     33  C   UNL     1      -7.114   5.302  -9.807  1.00  0.00     0.049 A 
ATOM     34  H   UNL     1      -5.377   4.144  -9.520  1.00  0.00     0.167 HD
ATOM     35  C   UNL     1      -5.282   6.921 -10.359  1.00  0.00     0.074 A 
ATOM     36  C   UNL     1      -4.814   8.241 -10.749  1.00  0.00     0.031 C 
ATOM     37  C   UNL     1      -6.591   6.595 -10.191  1.00  0.00     0.034 A 
BRANCH  24  38
ATOM     38  C   UNL     1      -7.686   0.722  -8.384  1.00  0.00     0.023 A 
ATOM     39  C   UNL     1      -7.636   0.059  -7.144  1.00  0.00     0.031 A 
ATOM     40  C   UNL     1      -8.585   0.237  -9.351  1.00  0.00     0.131 A 
ATOM     41  C   UNL     1      -8.401  -1.102  -6.941  1.00  0.00     0.055 A 
ATOM     42  C   UNL     1      -9.408  -0.863  -9.109  1.00  0.00     0.041 A 
ATOM     43  F   UNL     1      -8.646   0.799 -10.569  1.00  0.00    -0.206 F 
ATOM     44  C   UNL     1      -9.306  -1.552  -7.905  1.00  0.00     0.022 A 
BRANCH  41  45
ATOM     45  S   UNL     1      -8.062  -2.124  -5.479  1.00  0.00     0.124 S 
ATOM     46  O   UNL     1      -6.657  -2.473  -5.683  1.00  0.00    -0.237 OA
ATOM     47  O   UNL     1      -8.338  -1.208  -4.379  1.00  0.00    -0.237 OA
ATOM     48  O   UNL     1      -8.998  -3.239  -5.613  1.00  0.00    -0.744 OA
ENDBRANCH  41  45
ENDBRANCH  24  38
BRANCH  25  49
ATOM     49  C   UNL     1      -0.613   7.606 -10.840  1.00  0.00     0.023 A 
ATOM     50  C   UNL     1      -0.484   8.806 -10.124  1.00  0.00     0.031 A 
ATOM     51  C   UNL     1       0.235   7.415 -11.950  1.00  0.00     0.131 A 
ATOM     52  C   UNL     1       0.430   9.784 -10.553  1.00  0.00     0.055 A 
ATOM     53  C   UNL     1       1.186   8.362 -12.333  1.00  0.00     0.041 A 
ATOM     54  F   UNL     1       0.155   6.294 -12.685  1.00  0.00    -0.206 F 
ATOM     55  C   UNL     1       1.276   9.564 -11.642  1.00  0.00     0.022 A 
BRANCH  52  56
ATOM     56  S   UNL     1       0.423  11.402  -9.731  1.00  0.00     0.124 S 
ATOM     57  O   UNL     1      -0.967  11.811  -9.895  1.00  0.00    -0.237 OA
ATOM     58  O   UNL     1       0.835  11.053  -8.376  1.00  0.00    -0.237 OA
ATOM     59  O   UNL     1       1.397  12.177 -10.498  1.00  0.00    -0.744 OA
ENDBRANCH  52  56
ENDBRANCH  25  49
BRANCH  37  60
ATOM     60  C   UNL     1      -7.583   7.712 -10.370  1.00  0.00     0.023 A 
ATOM     61  C   UNL     1      -7.787   8.327 -11.615  1.00  0.00     0.031 A 
ATOM     62  C   UNL     1      -8.322   8.173  -9.266  1.00  0.00     0.131 A 
ATOM     63  C   UNL     1      -8.653   9.423 -11.711  1.00  0.00     0.055 A 
ATOM     64  C   UNL     1      -9.243   9.211  -9.386  1.00  0.00     0.041 A 
ATOM     65  F   UNL     1      -8.161   7.617  -8.054  1.00  0.00    -0.206 F 
ATOM     66  C   UNL     1      -9.400   9.854 -10.611  1.00  0.00     0.022 A 
BRANCH  63  67
ATOM     67  S   UNL     1      -8.695  10.355 -13.264  1.00  0.00     0.124 S 
ATOM     68  O   UNL     1      -7.295  10.737 -13.425  1.00  0.00    -0.237 OA
ATOM     69  O   UNL     1      -9.197   9.364 -14.210  1.00  0.00    -0.237 OA
ATOM     70  O   UNL     1      -9.610  11.458 -12.976  1.00  0.00    -0.744 OA
ENDBRANCH  63  67
ENDBRANCH  37  60
ENDBRANCH  11  12
ENDBRANCH   4   6
ENDBRANCH   3   4
ENDBRANCH   2   3
ENDBRANCH   1   2
BRANCH   1  71
ATOM     71  O   UNL     1       2.886   0.185  -6.441  1.00  0.00    -0.374 OA
BRANCH  71  72
ATOM     72  C   UNL     1       3.876  -0.315  -7.341  1.00  0.00     0.202 C 
BRANCH  72  73
ATOM     73  C   UNL     1       5.221   0.352  -7.081  1.00  0.00     0.261 C 
BRANCH  73  74
ATOM     74  O   UNL     1       5.773  -0.205  -5.878  1.00  0.00    -0.462 OA
BRANCH  74  75
ATOM     75  C   UNL     1       5.426   0.377  -4.697  1.00  0.00     0.328 C 
ATOM     76  O   UNL     1       4.850   1.458  -4.593  1.00  0.00    -0.250 OA
BRANCH  75  77
ATOM     77  C   UNL     1       5.832  -0.502  -3.494  1.00  0.00     0.193 C 
ATOM     78  C   UNL     1       5.008  -1.762  -3.235  1.00  0.00     0.037 C 
ATOM     79  N   UNL     1       7.243  -0.907  -3.579  1.00  0.00    -0.343 N 
ATOM     80  C   UNL     1       5.266  -2.845  -4.283  1.00  0.00     0.005 C 
ATOM     81  C   UNL     1       7.654  -1.925  -4.527  1.00  0.00     0.119 C 
ATOM     82  C   UNL     1       6.756  -3.164  -4.388  1.00  0.00     0.022 C 
BRANCH  79  83
ATOM     83  C   UNL     1       8.062   0.080  -3.103  1.00  0.00     0.134 A 
ATOM     84  C   UNL     1       8.680   1.002  -3.907  1.00  0.00     0.076 A 
ATOM     85  N   UNL     1       8.038   0.211  -1.777  1.00  0.00    -0.211 NA
ATOM     86  C   UNL     1       9.250   2.088  -3.267  1.00  0.00     0.076 A 
ATOM     87  C   UNL     1       8.599   1.295  -1.234  1.00  0.00     0.162 A 
ATOM     88  N   UNL     1       9.218   2.261  -1.924  1.00  0.00    -0.228 NA
BRANCH  86  89
ATOM     89  C   UNL     1       9.979   3.097  -4.035  1.00  0.00     0.000 A 
ATOM     90  C   UNL     1      11.380   3.140  -3.962  1.00  0.00     0.010 A 
ATOM     91  C   UNL     1       9.324   3.989  -4.900  1.00  0.00     0.010 A 
ATOM     92  C   UNL     1      12.111   4.032  -4.747  1.00  0.00     0.001 A 
ATOM     93  C   UNL     1      10.056   4.889  -5.679  1.00  0.00     0.001 A 
ATOM     94  C   UNL     1      11.448   4.905  -5.607  1.00  0.00     0.000 A 
ENDBRANCH  86  89
BRANCH  87  95
ATOM     95  C   UNL     1       8.461   1.376   0.222  1.00  0.00     0.021 A 
ATOM     96  C   UNL     1       8.565   0.199   0.996  1.00  0.00     0.012 A 
ATOM     97  C   UNL     1       8.129   2.569   0.878  1.00  0.00     0.032 A 
ATOM     98  C   UNL     1       8.352   0.206   2.373  1.00  0.00     0.002 A 
ATOM     99  C   UNL     1       7.904   2.571   2.257  1.00  0.00     0.041 A 
ATOM    100  C   UNL     1       8.018   1.398   3.005  1.00  0.00     0.020 A 
ATOM    101  Cl  UNL     1       7.455   4.032   3.049  1.00  0.00    -0.084 Cl
ENDBRANCH  87  95
ENDBRANCH  79  83
ENDBRANCH  75  77
ENDBRANCH  74  75
ENDBRANCH  73  74
ENDBRANCH  72  73
ENDBRANCH  71  72
ENDBRANCH   1  71
TORSDOF 20
