REMARK SMILES O=C(Cc1ccccc1)Nc1cccc(C(=O)Nc2ccccc2C(=O)OCCOCCOC(=O)c2ccc(-c3c4nc(c(-c5cc(S(=O)(=O)[O-])ccc5F)c5ccc([nH]5)c(-c5cc(S(=O)(=O)[O-])ccc5F)c5nc(c(-c6cc(S(=O)(=O)[O-])ccc6F)c6ccc3[nH]6)C=C5)C=C4)cc2)c1
REMARK SMILES IDX 29 1 28 2 27 3 25 4 26 5 24 6 19 7 20 8 21 9 23 10 22 11
REMARK SMILES IDX 18 12 16 13 17 14 15 16 11 17 12 18 99 19 13 20 14 21 10 22
REMARK SMILES IDX 1 23 2 24 3 26 4 27 5 28 9 29 6 30 8 31 7 32 30 33 31 34
REMARK SMILES IDX 32 35 33 36 34 37 35 38 36 39 37 40 98 41 38 42 97 43 39 44
REMARK SMILES IDX 40 45 41 46 91 47 42 48 96 49 90 50 92 51 43 52 95 53 89 54
REMARK SMILES IDX 88 55 44 57 76 58 56 59 75 60 57 61 60 62 74 63 93 64 58 65
REMARK SMILES IDX 59 66 73 68 94 69 61 70 45 71 46 72 54 73 47 74 53 75 55 76
REMARK SMILES IDX 52 77 48 78 49 79 50 80 51 81 77 82 78 83 86 84 79 85 85 86
REMARK SMILES IDX 87 87 84 88 80 89 81 90 82 91 83 92 62 93 63 94 71 95 64 96
REMARK SMILES IDX 70 97 72 98 69 99 65 100 66 101 67 102 68 103
REMARK H PARENT 18 15 10 25 92 56 60 67
REMARK Flexibility Score: inf
ROOT
ATOM      1  C   UNL     1       3.425  -2.274  -6.015  1.00  0.00     0.202 C 
ENDROOT
BRANCH   1   2
ATOM      2  C   UNL     1       2.596  -2.485  -4.745  1.00  0.00     0.261 C 
BRANCH   2   3
ATOM      3  O   UNL     1       1.736  -1.385  -4.395  1.00  0.00    -0.460 OA
BRANCH   3   4
ATOM      4  C   UNL     1       2.133  -0.695  -3.298  1.00  0.00     0.340 C 
ATOM      5  O   UNL     1       3.182  -0.870  -2.687  1.00  0.00    -0.246 OA
BRANCH   4   6
ATOM      6  C   UNL     1       1.240   0.448  -2.976  1.00  0.00     0.083 A 
ATOM      7  C   UNL     1      -0.161   0.519  -3.099  1.00  0.00     0.056 A 
ATOM      8  C   UNL     1      -0.784   1.754  -2.815  1.00  0.00     0.027 A 
ATOM      9  C   UNL     1      -0.067   2.854  -2.336  1.00  0.00     0.002 A 
ATOM     10  C   UNL     1       1.952   1.579  -2.504  1.00  0.00     0.018 A 
ATOM     11  C   UNL     1       1.305   2.765  -2.171  1.00  0.00     0.001 A 
BRANCH   7  12
ATOM     12  N   UNL     1      -1.084  -0.503  -3.425  1.00  0.00    -0.321 N 
ATOM     13  C   UNL     1      -1.144  -1.860  -3.187  1.00  0.00     0.255 C 
ATOM     14  O   UNL     1      -2.024  -2.522  -3.734  1.00  0.00    -0.269 OA
ATOM     15  H   UNL     1      -1.857  -0.171  -3.937  1.00  0.00     0.170 HD
BRANCH  13  16
ATOM     16  C   UNL     1      -0.228  -2.538  -2.248  1.00  0.00     0.042 A 
ATOM     17  C   UNL     1       1.448  -2.346  -0.548  1.00  0.00     0.041 A 
ATOM     18  C   UNL     1       1.951  -3.600  -0.919  1.00  0.00     0.026 A 
ATOM     19  C   UNL     1       0.277  -1.875  -1.130  1.00  0.00     0.040 A 
ATOM     20  C   UNL     1       1.303  -4.365  -1.889  1.00  0.00     0.003 A 
ATOM     21  C   UNL     1       0.224  -3.820  -2.577  1.00  0.00     0.014 A 
BRANCH  17  22
ATOM     22  N   UNL     1       2.276  -1.515   0.224  1.00  0.00    -0.326 N 
ATOM     23  O   UNL     1       0.822   0.161   0.934  1.00  0.00    -0.274 OA
ATOM     24  C   UNL     1       1.953  -0.300   0.803  1.00  0.00     0.228 C 
ATOM     25  H   UNL     1       3.196  -1.834   0.371  1.00  0.00     0.169 HD
BRANCH  24  26
ATOM     26  C   UNL     1       3.173   0.489   1.244  1.00  0.00     0.135 C 
BRANCH  26  27
ATOM     27  C   UNL     1       3.934  -0.029   2.447  1.00  0.00    -0.039 A 
ATOM     28  C   UNL     1       3.900  -1.364   2.877  1.00  0.00     0.004 A 
ATOM     29  C   UNL     1       4.788   0.860   3.120  1.00  0.00     0.004 A 
ATOM     30  C   UNL     1       4.709  -1.802   3.925  1.00  0.00     0.000 A 
ATOM     31  C   UNL     1       5.582   0.426   4.184  1.00  0.00     0.000 A 
ATOM     32  C   UNL     1       5.550  -0.908   4.579  1.00  0.00     0.000 A 
ENDBRANCH  26  27
ENDBRANCH  24  26
ENDBRANCH  17  22
ENDBRANCH  13  16
ENDBRANCH   7  12
ENDBRANCH   4   6
ENDBRANCH   3   4
ENDBRANCH   2   3
ENDBRANCH   1   2
BRANCH   1  33
ATOM     33  O   UNL     1       4.265  -1.129  -6.086  1.00  0.00    -0.374 OA
BRANCH  33  34
ATOM     34  C   UNL     1       3.655   0.157  -6.134  1.00  0.00     0.202 C 
BRANCH  34  35
ATOM     35  C   UNL     1       2.716   0.490  -7.301  1.00  0.00     0.261 C 
BRANCH  35  36
ATOM     36  O   UNL     1       1.535  -0.330  -7.367  1.00  0.00    -0.460 OA
BRANCH  36  37
ATOM     37  C   UNL     1       1.454  -1.107  -8.475  1.00  0.00     0.338 C 
ATOM     38  O   UNL     1       2.284  -1.188  -9.372  1.00  0.00    -0.246 OA
BRANCH  37  39
ATOM     39  C   UNL     1       0.272  -1.982  -8.436  1.00  0.00     0.060 A 
ATOM     40  C   UNL     1       0.474  -3.369  -8.468  1.00  0.00     0.016 A 
ATOM     41  C   UNL     1      -1.010  -1.448  -8.572  1.00  0.00     0.016 A 
ATOM     42  C   UNL     1      -0.602  -4.226  -8.698  1.00  0.00     0.010 A 
ATOM     43  C   UNL     1      -2.086  -2.309  -8.813  1.00  0.00     0.010 A 
ATOM     44  C   UNL     1      -1.880  -3.697  -8.924  1.00  0.00    -0.014 A 
BRANCH  44  45
ATOM     45  C   UNL     1      -2.959  -4.568  -9.456  1.00  0.00     0.031 A 
ATOM     46  C   UNL     1      -3.228  -4.563 -10.939  1.00  0.00     0.074 A 
ATOM     47  C   UNL     1      -3.680  -5.356  -8.638  1.00  0.00     0.049 A 
ATOM     48  N   UNL     1      -4.175  -5.162 -11.615  1.00  0.00    -0.248 NA
ATOM     49  C   UNL     1      -2.306  -3.771 -11.768  1.00  0.00     0.031 C 
ATOM     50  C   UNL     1      -3.480  -5.482  -7.196  1.00  0.00     0.029 A 
ATOM     51  N   UNL     1      -4.739  -6.188  -8.906  1.00  0.00    -0.354 N 
ATOM     52  C   UNL     1      -3.975  -4.806 -12.945  1.00  0.00     0.074 A 
ATOM     53  C   UNL     1      -2.826  -3.926 -12.977  1.00  0.00     0.031 C 
ATOM     54  C   UNL     1      -4.401  -6.327  -6.701  1.00  0.00     0.029 A 
ATOM     55  C   UNL     1      -5.282  -6.766  -7.782  1.00  0.00     0.049 A 
ATOM     56  H   UNL     1      -5.078  -6.354  -9.815  1.00  0.00     0.167 HD
ATOM     57  C   UNL     1      -4.686  -5.179 -14.038  1.00  0.00     0.034 A 
ATOM     58  C   UNL     1      -6.386  -7.529  -7.640  1.00  0.00     0.034 A 
ATOM     59  C   UNL     1      -5.829  -6.056 -13.992  1.00  0.00     0.049 A 
ATOM     60  C   UNL     1      -7.204  -7.872  -8.864  1.00  0.00     0.074 A 
ATOM     61  C   UNL     1      -6.611  -6.511 -15.040  1.00  0.00     0.029 A 
ATOM     62  N   UNL     1      -6.362  -6.606 -12.833  1.00  0.00    -0.354 N 
ATOM     63  N   UNL     1      -7.004  -7.530 -10.116  1.00  0.00    -0.248 NA
ATOM     64  C   UNL     1      -8.396  -8.706  -8.655  1.00  0.00     0.031 C 
ATOM     65  C   UNL     1      -7.650  -7.284 -14.511  1.00  0.00     0.029 A 
ATOM     66  C   UNL     1      -7.477  -7.370 -13.139  1.00  0.00     0.049 A 
ATOM     67  H   UNL     1      -6.000  -6.473 -11.927  1.00  0.00     0.167 HD
ATOM     68  C   UNL     1      -8.024  -8.139 -10.844  1.00  0.00     0.074 A 
ATOM     69  C   UNL     1      -8.832  -8.873  -9.895  1.00  0.00     0.031 C 
ATOM     70  C   UNL     1      -8.269  -8.101 -12.179  1.00  0.00     0.034 A 
BRANCH  57  71
ATOM     71  C   UNL     1      -4.283  -4.591 -15.367  1.00  0.00     0.023 A 
ATOM     72  C   UNL     1      -3.065  -4.920 -15.987  1.00  0.00     0.031 A 
ATOM     73  C   UNL     1      -5.134  -3.683 -16.021  1.00  0.00     0.131 A 
ATOM     74  C   UNL     1      -2.712  -4.308 -17.200  1.00  0.00     0.055 A 
ATOM     75  C   UNL     1      -4.807  -3.127 -17.258  1.00  0.00     0.041 A 
ATOM     76  F   UNL     1      -6.300  -3.318 -15.464  1.00  0.00    -0.206 F 
ATOM     77  C   UNL     1      -3.584  -3.431 -17.850  1.00  0.00     0.022 A 
BRANCH  74  78
ATOM     78  S   UNL     1      -1.051  -4.593 -17.870  1.00  0.00     0.124 S 
ATOM     79  O   UNL     1      -0.207  -4.051 -16.808  1.00  0.00    -0.237 OA
ATOM     80  O   UNL     1      -1.020  -6.042 -18.034  1.00  0.00    -0.237 OA
ATOM     81  O   UNL     1      -1.046  -3.825 -19.113  1.00  0.00    -0.744 OA
ENDBRANCH  74  78
ENDBRANCH  57  71
BRANCH  58  82
ATOM     82  C   UNL     1      -6.831  -7.979  -6.289  1.00  0.00     0.023 A 
ATOM     83  C   UNL     1      -6.903  -9.342  -5.963  1.00  0.00     0.031 A 
ATOM     84  C   UNL     1      -7.267  -7.048  -5.329  1.00  0.00     0.131 A 
ATOM     85  C   UNL     1      -7.451  -9.740  -4.733  1.00  0.00     0.055 A 
ATOM     86  C   UNL     1      -7.757  -7.446  -4.084  1.00  0.00     0.041 A 
ATOM     87  F   UNL     1      -7.228  -5.732  -5.591  1.00  0.00    -0.206 F 
ATOM     88  C   UNL     1      -7.866  -8.800  -3.786  1.00  0.00     0.022 A 
BRANCH  85  89
ATOM     89  S   UNL     1      -7.716 -11.509  -4.432  1.00  0.00     0.124 S 
ATOM     90  O   UNL     1      -8.538 -11.886  -5.576  1.00  0.00    -0.237 OA
ATOM     91  O   UNL     1      -6.351 -12.023  -4.425  1.00  0.00    -0.237 OA
ATOM     92  O   UNL     1      -8.397 -11.536  -3.139  1.00  0.00    -0.744 OA
ENDBRANCH  85  89
ENDBRANCH  58  82
BRANCH  70  93
ATOM     93  C   UNL     1      -9.419  -8.930 -12.693  1.00  0.00     0.023 A 
ATOM     94  C   UNL     1     -10.756  -8.603 -12.412  1.00  0.00     0.031 A 
ATOM     95  C   UNL     1      -9.165 -10.068 -13.479  1.00  0.00     0.131 A 
ATOM     96  C   UNL     1     -11.789  -9.432 -12.876  1.00  0.00     0.055 A 
ATOM     97  C   UNL     1     -10.198 -10.860 -13.982  1.00  0.00     0.041 A 
ATOM     98  F   UNL     1      -7.905 -10.425 -13.778  1.00  0.00    -0.206 F 
ATOM     99  C   UNL     1     -11.519 -10.549 -13.671  1.00  0.00     0.022 A 
BRANCH  96 100
ATOM    100  S   UNL     1     -13.493  -9.071 -12.371  1.00  0.00     0.124 S 
ATOM    101  O   UNL     1     -13.406  -9.164 -10.917  1.00  0.00    -0.237 OA
ATOM    102  O   UNL     1     -13.704  -7.732 -12.912  1.00  0.00    -0.237 OA
ATOM    103  O   UNL     1     -14.274 -10.127 -13.014  1.00  0.00    -0.744 OA
ENDBRANCH  96 100
ENDBRANCH  70  93
ENDBRANCH  44  45
ENDBRANCH  37  39
ENDBRANCH  36  37
ENDBRANCH  35  36
ENDBRANCH  34  35
ENDBRANCH  33  34
ENDBRANCH   1  33
TORSDOF 22
