REMARK SMILES CC1(C)CCC[C@@H]1NC(=O)CC1(C(=O)OCCOCCOC(=O)c2ccc(-c3c4nc(c(-c5cc(S(=O)(=O)[O-])ccc5F)c5ccc([nH]5)c(-c5cc(S(=O)(=O)[O-])ccc5F)c5nc(c(-c6cc(S(=O)(=O)[O-])ccc6F)c6ccc3[nH]6)C=C5)C=C4)cc2)CCCCC1
REMARK SMILES IDX 18 1 17 2 16 3 15 4 13 5 14 6 12 7 87 8 91 9 88 10 90 11
REMARK SMILES IDX 89 12 11 13 9 14 8 15 10 17 7 18 1 19 2 20 3 21 4 22 5 23
REMARK SMILES IDX 6 24 19 25 20 26 21 27 22 28 23 29 24 30 25 31 86 32 26 33
REMARK SMILES IDX 85 34 27 35 28 36 29 37 79 38 30 39 84 40 78 41 80 42 31 43
REMARK SMILES IDX 83 44 77 45 76 46 32 48 64 49 44 50 63 51 45 52 48 53 62 54
REMARK SMILES IDX 81 55 46 56 47 57 61 59 82 60 49 61 33 62 34 63 42 64 35 65
REMARK SMILES IDX 41 66 43 67 40 68 36 69 37 70 38 71 39 72 65 73 66 74 74 75
REMARK SMILES IDX 67 76 73 77 75 78 72 79 68 80 69 81 70 82 71 83 50 84 51 85
REMARK SMILES IDX 59 86 52 87 58 88 60 89 57 90 53 91 54 92 55 93 56 94
REMARK H PARENT 8 16 80 47 48 58
REMARK Flexibility Score: inf
ROOT
ATOM      1  O   UNL     1      -2.533   1.253   4.810  1.00  0.00    -0.374 OA
ENDROOT
BRANCH   1   2
ATOM      2  C   UNL     1      -3.941   1.293   4.569  1.00  0.00     0.202 C 
BRANCH   2   3
ATOM      3  C   UNL     1      -4.446   2.536   3.831  1.00  0.00     0.261 C 
BRANCH   3   4
ATOM      4  O   UNL     1      -3.957   2.609   2.480  1.00  0.00    -0.463 OA
BRANCH   4   5
ATOM      5  C   UNL     1      -3.198   3.689   2.160  1.00  0.00     0.312 C 
ATOM      6  O   UNL     1      -2.869   4.564   2.954  1.00  0.00    -0.252 OA
BRANCH   5   7
ATOM      7  C   UNL     1      -2.749   3.697   0.686  1.00  0.00     0.077 C 
ATOM      8  C   UNL     1      -3.304   5.000   0.061  1.00  0.00     0.019 C 
ATOM      9  C   UNL     1      -3.242   2.480  -0.117  1.00  0.00     0.019 C 
ATOM     10  C   UNL     1      -4.819   4.937  -0.160  1.00  0.00     0.001 C 
ATOM     11  C   UNL     1      -4.725   2.452  -0.479  1.00  0.00     0.001 C 
ATOM     12  C   UNL     1      -5.194   3.773  -1.067  1.00  0.00     0.000 C 
BRANCH   7  13
ATOM     13  C   UNL     1      -1.190   3.698   0.755  1.00  0.00     0.118 C 
BRANCH  13  14
ATOM     14  C   UNL     1      -0.447   3.498  -0.554  1.00  0.00     0.221 C 
ATOM     15  N   UNL     1       0.037   2.279  -0.929  1.00  0.00    -0.353 N 
ATOM     16  H   UNL     1       0.591   2.305  -1.742  1.00  0.00     0.163 HD
ATOM     17  O   UNL     1      -0.246   4.451  -1.312  1.00  0.00    -0.275 OA
BRANCH  15  18
ATOM     18  C   UNL     1      -0.107   0.940  -0.359  1.00  0.00     0.087 C 
ATOM     19  C   UNL     1       2.201   0.451   0.655  1.00  0.00     0.013 C 
ATOM     20  C   UNL     1       1.184   0.074  -0.424  1.00  0.00    -0.015 C 
ATOM     21  C   UNL     1       1.880   0.102  -1.801  1.00  0.00     0.013 C 
ATOM     22  C   UNL     1       0.618  -1.336  -0.167  1.00  0.00     0.008 C 
ATOM     23  C   UNL     1      -0.724  -1.374  -0.888  1.00  0.00     0.003 C 
ATOM     24  C   UNL     1      -1.114   0.079  -1.139  1.00  0.00     0.025 C 
ENDBRANCH  15  18
ENDBRANCH  13  14
ENDBRANCH   7  13
ENDBRANCH   5   7
ENDBRANCH   4   5
ENDBRANCH   3   4
ENDBRANCH   2   3
ENDBRANCH   1   2
BRANCH   1  25
ATOM     25  C   UNL     1      -1.693   0.926   3.702  1.00  0.00     0.202 C 
BRANCH  25  26
ATOM     26  C   UNL     1      -1.826  -0.505   3.185  1.00  0.00     0.261 C 
BRANCH  26  27
ATOM     27  O   UNL     1      -3.080  -0.674   2.508  1.00  0.00    -0.460 OA
BRANCH  27  28
ATOM     28  C   UNL     1      -3.408  -1.969   2.306  1.00  0.00     0.338 C 
ATOM     29  O   UNL     1      -2.667  -2.935   2.406  1.00  0.00    -0.246 OA
BRANCH  28  30
ATOM     30  C   UNL     1      -4.851  -2.062   2.039  1.00  0.00     0.060 A 
ATOM     31  C   UNL     1      -5.736  -2.119   3.122  1.00  0.00     0.016 A 
ATOM     32  C   UNL     1      -5.311  -2.209   0.731  1.00  0.00     0.016 A 
ATOM     33  C   UNL     1      -7.090  -2.375   2.895  1.00  0.00     0.010 A 
ATOM     34  C   UNL     1      -6.671  -2.450   0.507  1.00  0.00     0.010 A 
ATOM     35  C   UNL     1      -7.562  -2.572   1.589  1.00  0.00    -0.014 A 
BRANCH  35  36
ATOM     36  C   UNL     1      -8.960  -3.026   1.365  1.00  0.00     0.031 A 
ATOM     37  C   UNL     1      -9.226  -4.480   1.077  1.00  0.00     0.074 A 
ATOM     38  C   UNL     1      -9.981  -2.153   1.431  1.00  0.00     0.049 A 
ATOM     39  N   UNL     1     -10.362  -5.086   0.843  1.00  0.00    -0.248 NA
ATOM     40  C   UNL     1      -8.053  -5.367   1.044  1.00  0.00     0.031 C 
ATOM     41  C   UNL     1      -9.850  -0.725   1.718  1.00  0.00     0.029 A 
ATOM     42  N   UNL     1     -11.330  -2.337   1.252  1.00  0.00    -0.354 N 
ATOM     43  C   UNL     1     -10.043  -6.425   0.635  1.00  0.00     0.074 A 
ATOM     44  C   UNL     1      -8.602  -6.532   0.732  1.00  0.00     0.031 C 
ATOM     45  C   UNL     1     -11.069  -0.160   1.687  1.00  0.00     0.029 A 
ATOM     46  C   UNL     1     -12.063  -1.177   1.349  1.00  0.00     0.049 A 
ATOM     47  H   UNL     1     -11.734  -3.216   1.073  1.00  0.00     0.167 HD
ATOM     48  C   UNL     1     -10.876  -7.469   0.395  1.00  0.00     0.034 A 
ATOM     49  C   UNL     1     -13.381  -0.958   1.165  1.00  0.00     0.034 A 
ATOM     50  C   UNL     1     -12.310  -7.347   0.290  1.00  0.00     0.049 A 
ATOM     51  C   UNL     1     -14.280  -2.123   0.833  1.00  0.00     0.074 A 
ATOM     52  C   UNL     1     -13.248  -8.345   0.090  1.00  0.00     0.029 A 
ATOM     53  N   UNL     1     -13.013  -6.152   0.357  1.00  0.00    -0.354 N 
ATOM     54  N   UNL     1     -13.968  -3.390   0.680  1.00  0.00    -0.248 NA
ATOM     55  C   UNL     1     -15.709  -1.831   0.659  1.00  0.00     0.031 C 
ATOM     56  C   UNL     1     -14.508  -7.747  -0.031  1.00  0.00     0.029 A 
ATOM     57  C   UNL     1     -14.367  -6.382   0.163  1.00  0.00     0.049 A 
ATOM     58  H   UNL     1     -12.610  -5.269   0.520  1.00  0.00     0.167 HD
ATOM     59  C   UNL     1     -15.168  -4.047   0.415  1.00  0.00     0.074 A 
ATOM     60  C   UNL     1     -16.208  -3.039   0.444  1.00  0.00     0.031 C 
ATOM     61  C   UNL     1     -15.391  -5.364   0.175  1.00  0.00     0.034 A 
BRANCH  48  62
ATOM     62  C   UNL     1     -10.245  -8.824   0.182  1.00  0.00     0.023 A 
ATOM     63  C   UNL     1      -9.556  -9.491   1.210  1.00  0.00     0.031 A 
ATOM     64  C   UNL     1     -10.319  -9.450  -1.075  1.00  0.00     0.131 A 
ATOM     65  C   UNL     1      -8.915 -10.711   0.946  1.00  0.00     0.055 A 
ATOM     66  C   UNL     1      -9.739 -10.697  -1.312  1.00  0.00     0.041 A 
ATOM     67  F   UNL     1     -10.947  -8.851  -2.100  1.00  0.00    -0.206 F 
ATOM     68  C   UNL     1      -9.020 -11.329  -0.302  1.00  0.00     0.022 A 
BRANCH  65  69
ATOM     69  S   UNL     1      -7.834 -11.418   2.220  1.00  0.00     0.124 S 
ATOM     70  O   UNL     1      -6.862 -10.345   2.413  1.00  0.00    -0.237 OA
ATOM     71  O   UNL     1      -8.758 -11.650   3.324  1.00  0.00    -0.237 OA
ATOM     72  O   UNL     1      -7.302 -12.624   1.587  1.00  0.00    -0.744 OA
ENDBRANCH  65  69
ENDBRANCH  48  62
BRANCH  49  73
ATOM     73  C   UNL     1     -13.931   0.425   1.247  1.00  0.00     0.023 A 
ATOM     74  C   UNL     1     -14.847   0.788   2.247  1.00  0.00     0.031 A 
ATOM     75  C   UNL     1     -13.579   1.394   0.291  1.00  0.00     0.131 A 
ATOM     76  C   UNL     1     -15.409   2.075   2.245  1.00  0.00     0.055 A 
ATOM     77  C   UNL     1     -14.105   2.687   0.321  1.00  0.00     0.041 A 
ATOM     78  F   UNL     1     -12.707   1.098  -0.686  1.00  0.00    -0.206 F 
ATOM     79  C   UNL     1     -15.036   3.030   1.296  1.00  0.00     0.022 A 
BRANCH  76  80
ATOM     80  S   UNL     1     -16.697   2.463   3.462  1.00  0.00     0.124 S 
ATOM     81  O   UNL     1     -17.699   1.444   3.171  1.00  0.00    -0.237 OA
ATOM     82  O   UNL     1     -15.976   2.313   4.722  1.00  0.00    -0.237 OA
ATOM     83  O   UNL     1     -17.082   3.832   3.126  1.00  0.00    -0.744 OA
ENDBRANCH  76  80
ENDBRANCH  49  73
BRANCH  61  84
ATOM     84  C   UNL     1     -16.822  -5.788  -0.043  1.00  0.00     0.023 A 
ATOM     85  C   UNL     1     -17.538  -5.407  -1.192  1.00  0.00     0.031 A 
ATOM     86  C   UNL     1     -17.482  -6.574   0.918  1.00  0.00     0.131 A 
ATOM     87  C   UNL     1     -18.886  -5.772  -1.328  1.00  0.00     0.055 A 
ATOM     88  C   UNL     1     -18.807  -6.979   0.752  1.00  0.00     0.041 A 
ATOM     89  F   UNL     1     -16.846  -6.965   2.034  1.00  0.00    -0.206 F 
ATOM     90  C   UNL     1     -19.520  -6.568  -0.370  1.00  0.00     0.022 A 
BRANCH  87  91
ATOM     91  S   UNL     1     -19.826  -5.125  -2.738  1.00  0.00     0.124 S 
ATOM     92  O   UNL     1     -19.723  -3.684  -2.536  1.00  0.00    -0.237 OA
ATOM     93  O   UNL     1     -19.091  -5.664  -3.877  1.00  0.00    -0.237 OA
ATOM     94  O   UNL     1     -21.163  -5.684  -2.544  1.00  0.00    -0.744 OA
ENDBRANCH  87  91
ENDBRANCH  61  84
ENDBRANCH  35  36
ENDBRANCH  28  30
ENDBRANCH  27  28
ENDBRANCH  26  27
ENDBRANCH  25  26
ENDBRANCH   1  25
TORSDOF 20
