REMARK SMILES CC1(C)[C@@H](C(=O)OCCOCCOC(=O)c2ccc(-c3c4nc(c(-c5cc(S(=O)(=O)[O-])ccc5F)c5ccc([nH]5)c(-c5cc(S(=O)(=O)[O-])ccc5F)c5nc(c(-c6cc(S(=O)(=O)[O-])ccc6F)c6ccc3[nH]6)C=C5)C=C4)cc2)CC[C@@]1(C)C(N)=O
REMARK SMILES IDX 11 1 10 2 9 3 8 4 7 5 5 6 6 7 4 8 1 9 2 10 3 11 81 12 79 13
REMARK SMILES IDX 80 14 82 15 83 16 84 17 85 18 12 21 13 22 14 23 15 24 16 25
REMARK SMILES IDX 17 26 78 27 18 28 77 29 19 30 20 31 21 32 71 33 22 34 76 35
REMARK SMILES IDX 70 36 72 37 23 38 75 39 69 40 68 41 24 43 56 44 36 45 55 46
REMARK SMILES IDX 37 47 40 48 54 49 73 50 38 51 39 52 53 54 74 55 41 56 25 57
REMARK SMILES IDX 26 58 34 59 27 60 33 61 35 62 32 63 28 64 29 65 30 66 31 67
REMARK SMILES IDX 57 68 58 69 66 70 59 71 65 72 67 73 64 74 60 75 61 76 62 77
REMARK SMILES IDX 63 78 42 79 43 80 51 81 44 82 50 83 52 84 49 85 45 86 46 87
REMARK SMILES IDX 47 88 48 89
REMARK H PARENT 84 19 84 20 72 42 40 53
REMARK Flexibility Score: inf
ROOT
ATOM      1  C   UNL     1       3.322   3.945   2.397  1.00  0.00     0.202 C 
ENDROOT
BRANCH   1   2
ATOM      2  O   UNL     1       4.058   3.167   3.339  1.00  0.00    -0.374 OA
BRANCH   2   3
ATOM      3  C   UNL     1       4.416   1.847   2.925  1.00  0.00     0.202 C 
BRANCH   3   4
ATOM      4  C   UNL     1       3.302   0.801   3.062  1.00  0.00     0.261 C 
BRANCH   4   5
ATOM      5  O   UNL     1       2.304   0.964   2.022  1.00  0.00    -0.463 OA
BRANCH   5   6
ATOM      6  C   UNL     1       1.060   1.300   2.427  1.00  0.00     0.309 C 
ATOM      7  O   UNL     1       0.730   1.436   3.601  1.00  0.00    -0.252 OA
BRANCH   6   8
ATOM      8  C   UNL     1       0.085   1.617   1.296  1.00  0.00     0.106 C 
ATOM      9  C   UNL     1       0.771  -0.324  -0.316  1.00  0.00     0.013 C 
ATOM     10  C   UNL     1       0.174   1.085  -0.166  1.00  0.00    -0.008 C 
ATOM     11  C   UNL     1      -1.316   0.897  -0.621  1.00  0.00     0.013 C 
ATOM     12  C   UNL     1       0.852   2.247  -1.005  1.00  0.00     0.052 C 
ATOM     13  C   UNL     1      -0.075   3.133   1.145  1.00  0.00     0.017 C 
ATOM     14  C   UNL     1       0.494   3.534  -0.216  1.00  0.00     0.018 C 
ATOM     15  C   UNL     1       0.286   2.374  -2.447  1.00  0.00     0.022 C 
BRANCH  12  16
ATOM     16  C   UNL     1       2.383   2.247  -1.241  1.00  0.00     0.223 C 
ATOM     17  N   UNL     1       3.187   1.535  -0.432  1.00  0.00    -0.369 N 
ATOM     18  O   UNL     1       2.921   2.937  -2.108  1.00  0.00    -0.275 OA
ATOM     19  H   UNL     1       2.800   0.970   0.275  1.00  0.00     0.159 HD
ATOM     20  H   UNL     1       4.164   1.579  -0.547  1.00  0.00     0.159 HD
ENDBRANCH  12  16
ENDBRANCH   6   8
ENDBRANCH   5   6
ENDBRANCH   4   5
ENDBRANCH   3   4
ENDBRANCH   2   3
ENDBRANCH   1   2
BRANCH   1  21
ATOM     21  C   UNL     1       4.155   4.731   1.376  1.00  0.00     0.261 C 
BRANCH  21  22
ATOM     22  O   UNL     1       4.863   3.854   0.486  1.00  0.00    -0.460 OA
BRANCH  22  23
ATOM     23  C   UNL     1       6.181   3.701   0.753  1.00  0.00     0.338 C 
ATOM     24  O   UNL     1       6.825   4.283   1.611  1.00  0.00    -0.246 OA
BRANCH  23  25
ATOM     25  C   UNL     1       6.699   2.540  -0.005  1.00  0.00     0.060 A 
ATOM     26  C   UNL     1       7.484   1.618   0.697  1.00  0.00     0.016 A 
ATOM     27  C   UNL     1       6.423   2.339  -1.361  1.00  0.00     0.016 A 
ATOM     28  C   UNL     1       8.046   0.529   0.034  1.00  0.00     0.010 A 
ATOM     29  C   UNL     1       6.970   1.230  -2.020  1.00  0.00     0.010 A 
ATOM     30  C   UNL     1       7.827   0.345  -1.339  1.00  0.00    -0.014 A 
BRANCH  30  31
ATOM     31  C   UNL     1       8.651  -0.651  -2.078  1.00  0.00     0.031 A 
ATOM     32  C   UNL     1       9.771  -0.151  -2.956  1.00  0.00     0.074 A 
ATOM     33  C   UNL     1       8.468  -1.976  -1.915  1.00  0.00     0.049 A 
ATOM     34  N   UNL     1      10.625  -0.827  -3.681  1.00  0.00    -0.248 NA
ATOM     35  C   UNL     1       9.947   1.308  -3.025  1.00  0.00     0.031 C 
ATOM     36  C   UNL     1       7.450  -2.591  -1.065  1.00  0.00     0.029 A 
ATOM     37  N   UNL     1       9.140  -3.047  -2.456  1.00  0.00    -0.354 N 
ATOM     38  C   UNL     1      11.442   0.124  -4.287  1.00  0.00     0.074 A 
ATOM     39  C   UNL     1      10.938   1.422  -3.895  1.00  0.00     0.031 C 
ATOM     40  C   UNL     1       7.567  -3.928  -1.139  1.00  0.00     0.029 A 
ATOM     41  C   UNL     1       8.640  -4.270  -2.071  1.00  0.00     0.049 A 
ATOM     42  H   UNL     1       9.909  -2.947  -3.063  1.00  0.00     0.167 HD
ATOM     43  C   UNL     1      12.529  -0.063  -5.075  1.00  0.00     0.034 A 
ATOM     44  C   UNL     1       8.993  -5.519  -2.443  1.00  0.00     0.034 A 
ATOM     45  C   UNL     1      13.022  -1.359  -5.471  1.00  0.00     0.049 A 
ATOM     46  C   UNL     1      10.146  -5.702  -3.406  1.00  0.00     0.074 A 
ATOM     47  C   UNL     1      14.110  -1.659  -6.271  1.00  0.00     0.029 A 
ATOM     48  N   UNL     1      12.455  -2.572  -5.104  1.00  0.00    -0.354 N 
ATOM     49  N   UNL     1      10.913  -4.792  -3.962  1.00  0.00    -0.248 NA
ATOM     50  C   UNL     1      10.489  -7.081  -3.781  1.00  0.00     0.031 C 
ATOM     51  C   UNL     1      14.156  -3.045  -6.450  1.00  0.00     0.029 A 
ATOM     52  C   UNL     1      13.152  -3.619  -5.687  1.00  0.00     0.049 A 
ATOM     53  H   UNL     1      11.672  -2.674  -4.515  1.00  0.00     0.167 HD
ATOM     54  C   UNL     1      11.849  -5.494  -4.721  1.00  0.00     0.074 A 
ATOM     55  C   UNL     1      11.562  -6.900  -4.536  1.00  0.00     0.031 C 
ATOM     56  C   UNL     1      12.857  -5.020  -5.498  1.00  0.00     0.034 A 
BRANCH  43  57
ATOM     57  C   UNL     1      13.233   1.171  -5.587  1.00  0.00     0.023 A 
ATOM     58  C   UNL     1      13.854   2.081  -4.713  1.00  0.00     0.031 A 
ATOM     59  C   UNL     1      13.264   1.456  -6.963  1.00  0.00     0.131 A 
ATOM     60  C   UNL     1      14.413   3.265  -5.216  1.00  0.00     0.055 A 
ATOM     61  C   UNL     1      13.898   2.594  -7.465  1.00  0.00     0.041 A 
ATOM     62  F   UNL     1      12.668   0.637  -7.844  1.00  0.00    -0.206 F 
ATOM     63  C   UNL     1      14.464   3.514  -6.589  1.00  0.00     0.022 A 
BRANCH  60  64
ATOM     64  S   UNL     1      14.940   4.542  -4.040  1.00  0.00     0.124 S 
ATOM     65  O   UNL     1      13.697   4.809  -3.320  1.00  0.00    -0.237 OA
ATOM     66  O   UNL     1      15.983   3.862  -3.282  1.00  0.00    -0.237 OA
ATOM     67  O   UNL     1      15.400   5.630  -4.899  1.00  0.00    -0.744 OA
ENDBRANCH  60  64
ENDBRANCH  43  57
BRANCH  44  68
ATOM     68  C   UNL     1       8.225  -6.706  -1.955  1.00  0.00     0.023 A 
ATOM     69  C   UNL     1       8.844  -7.730  -1.220  1.00  0.00     0.031 A 
ATOM     70  C   UNL     1       6.871  -6.874  -2.299  1.00  0.00     0.131 A 
ATOM     71  C   UNL     1       8.131  -8.900  -0.908  1.00  0.00     0.055 A 
ATOM     72  C   UNL     1       6.147  -8.009  -1.929  1.00  0.00     0.041 A 
ATOM     73  F   UNL     1       6.228  -5.933  -3.008  1.00  0.00    -0.206 F 
ATOM     74  C   UNL     1       6.783  -9.039  -1.244  1.00  0.00     0.022 A 
BRANCH  71  75
ATOM     75  S   UNL     1       9.025 -10.293  -0.165  1.00  0.00     0.124 S 
ATOM     76  O   UNL     1      10.080 -10.524  -1.145  1.00  0.00    -0.237 OA
ATOM     77  O   UNL     1       9.448  -9.732   1.114  1.00  0.00    -0.237 OA
ATOM     78  O   UNL     1       8.010 -11.341  -0.080  1.00  0.00    -0.744 OA
ENDBRANCH  71  75
ENDBRANCH  44  68
BRANCH  56  79
ATOM     79  C   UNL     1      13.761  -6.034  -6.161  1.00  0.00     0.023 A 
ATOM     80  C   UNL     1      13.292  -6.919  -7.147  1.00  0.00     0.031 A 
ATOM     81  C   UNL     1      15.118  -6.115  -5.795  1.00  0.00     0.131 A 
ATOM     82  C   UNL     1      14.156  -7.883  -7.691  1.00  0.00     0.055 A 
ATOM     83  C   UNL     1      15.988  -7.030  -6.389  1.00  0.00     0.041 A 
ATOM     84  F   UNL     1      15.623  -5.298  -4.856  1.00  0.00    -0.206 F 
ATOM     85  C   UNL     1      15.505  -7.931  -7.332  1.00  0.00     0.022 A 
BRANCH  82  86
ATOM     86  S   UNL     1      13.468  -9.143  -8.800  1.00  0.00     0.124 S 
ATOM     87  O   UNL     1      12.443  -9.757  -7.963  1.00  0.00    -0.237 OA
ATOM     88  O   UNL     1      12.982  -8.343  -9.919  1.00  0.00    -0.237 OA
ATOM     89  O   UNL     1      14.615  -9.997  -9.102  1.00  0.00    -0.744 OA
ENDBRANCH  82  86
ENDBRANCH  56  79
ENDBRANCH  30  31
ENDBRANCH  23  25
ENDBRANCH  22  23
ENDBRANCH  21  22
ENDBRANCH   1  21
TORSDOF 18
