REMARK SMILES O=C(OCCOCCOC(=O)[C@@H]1CCCC[C@@H]1NS(=O)(=O)c1ccc2ccccc2c1)c1ccc(-c2c3nc(c(-c4cc(S(=O)(=O)[O-])ccc4F)c4ccc([nH]4)c(-c4cc(S(=O)(=O)[O-])ccc4F)c4nc(c(-c5cc(S(=O)(=O)[O-])ccc5F)c5ccc2[nH]5)C=C4)C=C3)cc1
REMARK SMILES IDX 6 1 5 2 4 3 3 4 2 5 1 6 32 7 33 8 94 9 34 10 93 11 35 12
REMARK SMILES IDX 36 13 37 14 87 15 38 16 92 17 86 18 88 19 39 20 91 21 85 22
REMARK SMILES IDX 84 23 40 25 72 26 52 27 71 28 53 29 56 30 70 31 89 32 54 33
REMARK SMILES IDX 55 34 69 36 90 37 57 38 41 39 42 40 50 41 43 42 49 43 51 44
REMARK SMILES IDX 48 45 44 46 45 47 46 48 47 49 73 50 74 51 82 52 75 53 81 54
REMARK SMILES IDX 83 55 80 56 76 57 77 58 78 59 79 60 58 61 59 62 67 63 60 64
REMARK SMILES IDX 66 65 68 66 65 67 61 68 62 69 63 70 64 71 7 72 8 73 9 74
REMARK SMILES IDX 10 75 11 76 12 77 13 78 17 79 14 80 16 81 15 82 18 83 19 85
REMARK SMILES IDX 20 86 21 87 22 88 23 89 31 90 24 91 30 92 25 93 29 94 26 95
REMARK SMILES IDX 28 96 27 97
REMARK H PARENT 88 24 56 35 18 84
REMARK Flexibility Score: inf
ROOT
ATOM      1  O   UNL     1       4.552  -0.613  -2.822  1.00  0.00    -0.374 OA
ENDROOT
BRANCH   1   2
ATOM      2  C   UNL     1       5.082  -0.987  -1.546  1.00  0.00     0.202 C 
BRANCH   2   3
ATOM      3  C   UNL     1       4.427  -0.547  -0.224  1.00  0.00     0.261 C 
BRANCH   3   4
ATOM      4  O   UNL     1       2.988  -0.494  -0.249  1.00  0.00    -0.460 OA
BRANCH   4   5
ATOM      5  C   UNL     1       2.212   0.628  -0.364  1.00  0.00     0.338 C 
ATOM      6  O   UNL     1       0.990   0.546  -0.277  1.00  0.00    -0.246 OA
BRANCH   5   7
ATOM      7  C   UNL     1       2.837   1.938  -0.663  1.00  0.00     0.060 A 
ATOM      8  C   UNL     1       4.065   2.008  -1.297  1.00  0.00     0.016 A 
ATOM      9  C   UNL     1       2.182   3.133  -0.359  1.00  0.00     0.016 A 
ATOM     10  C   UNL     1       4.776   3.156  -1.400  1.00  0.00     0.010 A 
ATOM     11  C   UNL     1       2.816   4.348  -0.619  1.00  0.00     0.010 A 
ATOM     12  C   UNL     1       4.117   4.334  -1.127  1.00  0.00    -0.014 A 
BRANCH  12  13
ATOM     13  C   UNL     1       4.887   5.506  -1.496  1.00  0.00     0.031 A 
ATOM     14  C   UNL     1       5.641   6.201  -0.428  1.00  0.00     0.074 A 
ATOM     15  C   UNL     1       5.070   5.700  -2.813  1.00  0.00     0.049 A 
ATOM     16  N   UNL     1       6.329   7.297  -0.500  1.00  0.00    -0.248 NA
ATOM     17  C   UNL     1       5.625   5.569   0.902  1.00  0.00     0.031 C 
ATOM     18  C   UNL     1       4.518   4.841  -3.878  1.00  0.00     0.029 A 
ATOM     19  N   UNL     1       5.809   6.619  -3.485  1.00  0.00    -0.354 N 
ATOM     20  C   UNL     1       6.774   7.536   0.791  1.00  0.00     0.074 A 
ATOM     21  C   UNL     1       6.296   6.453   1.622  1.00  0.00     0.031 C 
ATOM     22  C   UNL     1       4.950   5.280  -5.066  1.00  0.00     0.029 A 
ATOM     23  C   UNL     1       5.694   6.507  -4.849  1.00  0.00     0.049 A 
ATOM     24  H   UNL     1       6.370   7.296  -3.041  1.00  0.00     0.167 HD
ATOM     25  C   UNL     1       7.495   8.602   1.205  1.00  0.00     0.034 A 
ATOM     26  C   UNL     1       6.083   7.370  -5.799  1.00  0.00     0.034 A 
ATOM     27  C   UNL     1       7.921   9.619   0.274  1.00  0.00     0.049 A 
ATOM     28  C   UNL     1       6.782   8.604  -5.307  1.00  0.00     0.074 A 
ATOM     29  C   UNL     1       8.583  10.805   0.516  1.00  0.00     0.029 A 
ATOM     30  N   UNL     1       7.716   9.549  -1.107  1.00  0.00    -0.354 N 
ATOM     31  N   UNL     1       7.081   8.936  -4.067  1.00  0.00    -0.248 NA
ATOM     32  C   UNL     1       7.189   9.578  -6.316  1.00  0.00     0.031 C 
ATOM     33  C   UNL     1       8.720  11.476  -0.706  1.00  0.00     0.029 A 
ATOM     34  C   UNL     1       8.224  10.674  -1.728  1.00  0.00     0.049 A 
ATOM     35  H   UNL     1       7.272   8.803  -1.572  1.00  0.00     0.167 HD
ATOM     36  C   UNL     1       7.737  10.153  -4.145  1.00  0.00     0.074 A 
ATOM     37  C   UNL     1       7.798  10.482  -5.562  1.00  0.00     0.031 C 
ATOM     38  C   UNL     1       8.244  10.932  -3.153  1.00  0.00     0.034 A 
BRANCH  25  39
ATOM     39  C   UNL     1       7.709   8.748   2.690  1.00  0.00     0.023 A 
ATOM     40  C   UNL     1       8.395   7.781   3.447  1.00  0.00     0.031 A 
ATOM     41  C   UNL     1       7.098   9.807   3.384  1.00  0.00     0.131 A 
ATOM     42  C   UNL     1       8.362   7.836   4.850  1.00  0.00     0.055 A 
ATOM     43  C   UNL     1       7.154   9.910   4.776  1.00  0.00     0.041 A 
ATOM     44  F   UNL     1       6.391  10.739   2.726  1.00  0.00    -0.206 F 
ATOM     45  C   UNL     1       7.770   8.908   5.520  1.00  0.00     0.022 A 
BRANCH  42  46
ATOM     46  S   UNL     1       8.922   6.382   5.783  1.00  0.00     0.124 S 
ATOM     47  O   UNL     1       8.028   5.344   5.273  1.00  0.00    -0.237 OA
ATOM     48  O   UNL     1      10.320   6.271   5.386  1.00  0.00    -0.237 OA
ATOM     49  O   UNL     1       8.695   6.760   7.176  1.00  0.00    -0.744 OA
ENDBRANCH  42  46
ENDBRANCH  25  39
BRANCH  26  50
ATOM     50  C   UNL     1       5.734   7.128  -7.224  1.00  0.00     0.023 A 
ATOM     51  C   UNL     1       6.727   6.980  -8.199  1.00  0.00     0.031 A 
ATOM     52  C   UNL     1       4.388   7.021  -7.635  1.00  0.00     0.131 A 
ATOM     53  C   UNL     1       6.364   6.763  -9.538  1.00  0.00     0.055 A 
ATOM     54  C   UNL     1       4.034   6.750  -8.957  1.00  0.00     0.041 A 
ATOM     55  F   UNL     1       3.391   7.148  -6.744  1.00  0.00    -0.206 F 
ATOM     56  C   UNL     1       5.027   6.631  -9.921  1.00  0.00     0.022 A 
BRANCH  53  57
ATOM     57  S   UNL     1       7.673   6.732 -10.791  1.00  0.00     0.124 S 
ATOM     58  O   UNL     1       8.323   8.019 -10.573  1.00  0.00    -0.237 OA
ATOM     59  O   UNL     1       8.436   5.552 -10.400  1.00  0.00    -0.237 OA
ATOM     60  O   UNL     1       6.937   6.609 -12.048  1.00  0.00    -0.744 OA
ENDBRANCH  53  57
ENDBRANCH  26  50
BRANCH  38  61
ATOM     61  C   UNL     1       8.956  12.175  -3.604  1.00  0.00     0.023 A 
ATOM     62  C   UNL     1       8.265  13.240  -4.199  1.00  0.00     0.031 A 
ATOM     63  C   UNL     1      10.346  12.282  -3.433  1.00  0.00     0.131 A 
ATOM     64  C   UNL     1       8.981  14.349  -4.664  1.00  0.00     0.055 A 
ATOM     65  C   UNL     1      11.041  13.422  -3.827  1.00  0.00     0.041 A 
ATOM     66  F   UNL     1      11.046  11.282  -2.872  1.00  0.00    -0.206 F 
ATOM     67  C   UNL     1      10.360  14.458  -4.460  1.00  0.00     0.022 A 
BRANCH  64  68
ATOM     68  S   UNL     1       8.098  15.595  -5.637  1.00  0.00     0.124 S 
ATOM     69  O   UNL     1       7.593  14.801  -6.753  1.00  0.00    -0.237 OA
ATOM     70  O   UNL     1       7.096  16.077  -4.692  1.00  0.00    -0.237 OA
ATOM     71  O   UNL     1       9.140  16.559  -5.982  1.00  0.00    -0.744 OA
ENDBRANCH  64  68
ENDBRANCH  38  61
ENDBRANCH  12  13
ENDBRANCH   5   7
ENDBRANCH   4   5
ENDBRANCH   3   4
ENDBRANCH   2   3
ENDBRANCH   1   2
BRANCH   1  72
ATOM     72  C   UNL     1       3.171  -0.730  -3.152  1.00  0.00     0.202 C 
BRANCH  72  73
ATOM     73  C   UNL     1       2.689  -2.086  -3.636  1.00  0.00     0.261 C 
BRANCH  73  74
ATOM     74  O   UNL     1       2.963  -3.083  -2.645  1.00  0.00    -0.463 OA
BRANCH  74  75
ATOM     75  C   UNL     1       4.211  -3.586  -2.772  1.00  0.00     0.310 C 
ATOM     76  O   UNL     1       4.972  -3.364  -3.710  1.00  0.00    -0.252 OA
BRANCH  75  77
ATOM     77  C   UNL     1       4.579  -4.561  -1.691  1.00  0.00     0.117 C 
ATOM     78  C   UNL     1       4.166  -5.905  -2.293  1.00  0.00     0.017 C 
ATOM     79  C   UNL     1       4.307  -4.335  -0.159  1.00  0.00     0.084 C 
ATOM     80  C   UNL     1       4.754  -7.044  -1.500  1.00  0.00     0.001 C 
ATOM     81  C   UNL     1       4.767  -5.620   0.569  1.00  0.00     0.021 C 
ATOM     82  C   UNL     1       4.277  -6.926  -0.064  1.00  0.00     0.002 C 
BRANCH  79  83
ATOM     83  N   UNL     1       2.940  -3.905   0.229  1.00  0.00    -0.207 NA
ATOM     84  H   UNL     1       2.324  -4.619  -0.161  1.00  0.00     0.141 HD
BRANCH  83  85
ATOM     85  S   UNL     1       2.335  -3.622   1.804  1.00  0.00     0.240 S 
ATOM     86  O   UNL     1       0.904  -3.544   1.630  1.00  0.00    -0.207 OA
ATOM     87  O   UNL     1       2.893  -4.603   2.717  1.00  0.00    -0.207 OA
BRANCH  85  88
ATOM     88  C   UNL     1       2.877  -2.020   2.409  1.00  0.00     0.083 A 
ATOM     89  C   UNL     1       4.174  -1.840   2.895  1.00  0.00     0.022 A 
ATOM     90  C   UNL     1       1.968  -0.949   2.488  1.00  0.00     0.030 A 
ATOM     91  C   UNL     1       4.612  -0.553   3.259  1.00  0.00     0.010 A 
ATOM     92  C   UNL     1       2.399   0.353   2.847  1.00  0.00    -0.017 A 
ATOM     93  C   UNL     1       3.756   0.562   3.175  1.00  0.00    -0.018 A 
ATOM     94  C   UNL     1       1.535   1.466   2.803  1.00  0.00     0.009 A 
ATOM     95  C   UNL     1       4.224   1.879   3.369  1.00  0.00     0.009 A 
ATOM     96  C   UNL     1       2.015   2.766   2.996  1.00  0.00     0.001 A 
ATOM     97  C   UNL     1       3.364   2.974   3.256  1.00  0.00     0.001 A 
ENDBRANCH  85  88
ENDBRANCH  83  85
ENDBRANCH  79  83
ENDBRANCH  75  77
ENDBRANCH  74  75
ENDBRANCH  73  74
ENDBRANCH  72  73
ENDBRANCH   1  72
TORSDOF 20
