REMARK SMILES Cc1ccc(C(=O)OCCOCCOC(=O)c2ccc(-c3c4nc(c(-c5cc(S(=O)(=O)[O-])ccc5F)c5ccc([nH]5)c(-c5cc(S(=O)(=O)[O-])ccc5F)c5nc(c(-c6cc(S(=O)(=O)[O-])ccc6F)c6ccc3[nH]6)C=C5)C=C4)cc2)c(Oc2cccc(F)c2C(N)=O)c1
REMARK SMILES IDX 11 1 10 2 9 3 8 4 6 5 7 6 5 7 1 8 2 9 3 10 92 11 4 12 80 13
REMARK SMILES IDX 81 14 82 15 83 16 88 17 84 18 86 19 85 20 87 21 89 22 90 23
REMARK SMILES IDX 91 24 12 27 13 28 14 29 15 30 16 31 17 32 18 33 79 34 19 35
REMARK SMILES IDX 78 36 20 37 21 38 22 39 72 40 23 41 77 42 71 43 73 44 24 45
REMARK SMILES IDX 76 46 70 47 69 48 25 50 57 51 37 52 56 53 38 54 41 55 55 56
REMARK SMILES IDX 74 57 39 58 40 59 54 61 75 62 42 63 26 64 27 65 35 66 28 67
REMARK SMILES IDX 34 68 36 69 33 70 29 71 30 72 31 73 32 74 58 75 59 76 67 77
REMARK SMILES IDX 60 78 66 79 68 80 65 81 61 82 62 83 63 84 64 85 43 86 44 87
REMARK SMILES IDX 52 88 45 89 51 90 53 91 50 92 46 93 47 94 48 95 49 96
REMARK H PARENT 90 25 90 26 73 49 41 60
REMARK Flexibility Score: inf
ROOT
ATOM      1  O   UNL     1      -3.826  -0.465  -2.453  1.00  0.00    -0.374 OA
ENDROOT
BRANCH   1   2
ATOM      2  C   UNL     1      -3.788   0.956  -2.493  1.00  0.00     0.202 C 
BRANCH   2   3
ATOM      3  C   UNL     1      -3.905   1.378  -1.075  1.00  0.00     0.261 C 
BRANCH   3   4
ATOM      4  O   UNL     1      -2.659   1.234  -0.397  1.00  0.00    -0.460 OA
BRANCH   4   5
ATOM      5  C   UNL     1      -2.351   0.051   0.191  1.00  0.00     0.342 C 
ATOM      6  O   UNL     1      -3.088  -0.888   0.407  1.00  0.00    -0.246 OA
BRANCH   5   7
ATOM      7  C   UNL     1      -0.874   0.003   0.337  1.00  0.00     0.102 A 
ATOM      8  C   UNL     1       3.377  -0.380  -0.043  1.00  0.00     0.044 C 
ATOM      9  C   UNL     1       1.900  -0.245   0.164  1.00  0.00    -0.047 A 
ATOM     10  C   UNL     1       1.095  -1.390   0.202  1.00  0.00     0.004 A 
ATOM     11  C   UNL     1       1.317   1.023   0.301  1.00  0.00     0.051 A 
ATOM     12  C   UNL     1      -0.288  -1.269   0.297  1.00  0.00     0.020 A 
ATOM     13  C   UNL     1      -0.069   1.157   0.377  1.00  0.00     0.142 A 
BRANCH  13  14
ATOM     14  O   UNL     1      -0.710   2.356   0.572  1.00  0.00    -0.455 OA
BRANCH  14  15
ATOM     15  C   UNL     1      -0.174   3.568   0.227  1.00  0.00     0.143 A 
ATOM     16  C   UNL     1      -0.375   4.544   1.214  1.00  0.00     0.048 A 
ATOM     17  C   UNL     1       0.389   3.936  -1.004  1.00  0.00     0.117 A 
ATOM     18  C   UNL     1       0.017   5.864   1.004  1.00  0.00     0.007 A 
ATOM     19  C   UNL     1       0.793   5.258  -1.198  1.00  0.00     0.139 A 
ATOM     20  C   UNL     1       0.610   6.218  -0.203  1.00  0.00     0.040 A 
ATOM     21  F   UNL     1       1.345   5.652  -2.357  1.00  0.00    -0.206 F 
BRANCH  17  22
ATOM     22  C   UNL     1       0.537   3.017  -2.144  1.00  0.00     0.255 C 
ATOM     23  N   UNL     1      -0.608   2.410  -2.552  1.00  0.00    -0.365 N 
ATOM     24  O   UNL     1       1.616   2.825  -2.692  1.00  0.00    -0.269 OA
ATOM     25  H   UNL     1      -1.455   2.591  -2.084  1.00  0.00     0.159 HD
ATOM     26  H   UNL     1      -0.591   1.788  -3.315  1.00  0.00     0.159 HD
ENDBRANCH  17  22
ENDBRANCH  14  15
ENDBRANCH  13  14
ENDBRANCH   5   7
ENDBRANCH   4   5
ENDBRANCH   3   4
ENDBRANCH   2   3
ENDBRANCH   1   2
BRANCH   1  27
ATOM     27  C   UNL     1      -3.645  -1.088  -3.702  1.00  0.00     0.202 C 
BRANCH  27  28
ATOM     28  C   UNL     1      -4.668  -0.619  -4.744  1.00  0.00     0.261 C 
BRANCH  28  29
ATOM     29  O   UNL     1      -6.004  -0.947  -4.295  1.00  0.00    -0.460 OA
BRANCH  29  30
ATOM     30  C   UNL     1      -6.782   0.099  -3.887  1.00  0.00     0.338 C 
ATOM     31  O   UNL     1      -7.058   1.069  -4.571  1.00  0.00    -0.246 OA
BRANCH  30  32
ATOM     32  C   UNL     1      -7.104  -0.034  -2.432  1.00  0.00     0.060 A 
ATOM     33  C   UNL     1      -7.609   1.062  -1.701  1.00  0.00     0.016 A 
ATOM     34  C   UNL     1      -6.624  -1.149  -1.754  1.00  0.00     0.016 A 
ATOM     35  C   UNL     1      -7.489   1.097  -0.299  1.00  0.00     0.010 A 
ATOM     36  C   UNL     1      -6.406  -1.057  -0.397  1.00  0.00     0.010 A 
ATOM     37  C   UNL     1      -6.805   0.071   0.345  1.00  0.00    -0.014 A 
BRANCH  37  38
ATOM     38  C   UNL     1      -6.300   0.076   1.728  1.00  0.00     0.031 A 
ATOM     39  C   UNL     1      -6.694  -1.056   2.601  1.00  0.00     0.074 A 
ATOM     40  C   UNL     1      -5.237   0.850   2.077  1.00  0.00     0.049 A 
ATOM     41  N   UNL     1      -6.392  -1.155   3.846  1.00  0.00    -0.248 NA
ATOM     42  C   UNL     1      -7.504  -2.188   2.146  1.00  0.00     0.031 C 
ATOM     43  C   UNL     1      -4.229   0.605   3.112  1.00  0.00     0.029 A 
ATOM     44  N   UNL     1      -4.818   2.076   1.551  1.00  0.00    -0.354 N 
ATOM     45  C   UNL     1      -6.561  -2.471   4.210  1.00  0.00     0.074 A 
ATOM     46  C   UNL     1      -7.403  -3.022   3.184  1.00  0.00     0.031 C 
ATOM     47  C   UNL     1      -3.534   1.733   3.350  1.00  0.00     0.029 A 
ATOM     48  C   UNL     1      -4.148   2.785   2.559  1.00  0.00     0.049 A 
ATOM     49  H   UNL     1      -4.968   2.388   0.629  1.00  0.00     0.167 HD
ATOM     50  C   UNL     1      -5.817  -2.948   5.249  1.00  0.00     0.034 A 
ATOM     51  C   UNL     1      -4.603   4.001   2.958  1.00  0.00     0.034 A 
ATOM     52  C   UNL     1      -5.087  -1.842   5.900  1.00  0.00     0.049 A 
ATOM     53  C   UNL     1      -5.048   3.827   4.388  1.00  0.00     0.074 A 
ATOM     54  C   UNL     1      -3.749  -1.495   5.987  1.00  0.00     0.029 A 
ATOM     55  N   UNL     1      -5.802  -0.724   6.335  1.00  0.00    -0.354 N 
ATOM     56  N   UNL     1      -5.398   2.663   4.874  1.00  0.00    -0.248 NA
ATOM     57  C   UNL     1      -4.955   4.857   5.416  1.00  0.00     0.031 C 
ATOM     58  C   UNL     1      -3.680  -0.121   6.370  1.00  0.00     0.029 A 
ATOM     59  C   UNL     1      -4.971   0.358   6.546  1.00  0.00     0.049 A 
ATOM     60  H   UNL     1      -6.777  -0.709   6.473  1.00  0.00     0.167 HD
ATOM     61  C   UNL     1      -5.405   2.724   6.232  1.00  0.00     0.074 A 
ATOM     62  C   UNL     1      -5.200   4.137   6.527  1.00  0.00     0.031 C 
ATOM     63  C   UNL     1      -5.511   1.623   7.032  1.00  0.00     0.034 A 
BRANCH  50  64
ATOM     64  C   UNL     1      -5.540  -4.414   5.562  1.00  0.00     0.023 A 
ATOM     65  C   UNL     1      -4.585  -4.715   6.559  1.00  0.00     0.031 A 
ATOM     66  C   UNL     1      -6.084  -5.546   4.916  1.00  0.00     0.131 A 
ATOM     67  C   UNL     1      -4.191  -6.040   6.843  1.00  0.00     0.055 A 
ATOM     68  C   UNL     1      -5.705  -6.866   5.209  1.00  0.00     0.041 A 
ATOM     69  F   UNL     1      -7.009  -5.466   3.959  1.00  0.00    -0.206 F 
ATOM     70  C   UNL     1      -4.749  -7.121   6.171  1.00  0.00     0.022 A 
BRANCH  67  71
ATOM     71  S   UNL     1      -2.918  -6.332   8.099  1.00  0.00     0.124 S 
ATOM     72  O   UNL     1      -1.747  -5.702   7.500  1.00  0.00    -0.237 OA
ATOM     73  O   UNL     1      -3.482  -5.673   9.272  1.00  0.00    -0.237 OA
ATOM     74  O   UNL     1      -2.856  -7.791   8.185  1.00  0.00    -0.744 OA
ENDBRANCH  67  71
ENDBRANCH  50  64
BRANCH  51  75
ATOM     75  C   UNL     1      -5.230   4.733   1.802  1.00  0.00     0.023 A 
ATOM     76  C   UNL     1      -4.367   5.077   0.719  1.00  0.00     0.031 A 
ATOM     77  C   UNL     1      -6.597   4.611   1.514  1.00  0.00     0.131 A 
ATOM     78  C   UNL     1      -4.845   5.106  -0.606  1.00  0.00     0.055 A 
ATOM     79  C   UNL     1      -7.074   4.686   0.194  1.00  0.00     0.041 A 
ATOM     80  F   UNL     1      -7.469   4.267   2.473  1.00  0.00    -0.206 F 
ATOM     81  C   UNL     1      -6.195   4.885  -0.875  1.00  0.00     0.022 A 
BRANCH  78  82
ATOM     82  S   UNL     1      -3.656   5.240  -1.992  1.00  0.00     0.124 S 
ATOM     83  O   UNL     1      -3.043   6.540  -1.751  1.00  0.00    -0.237 OA
ATOM     84  O   UNL     1      -2.780   4.085  -1.799  1.00  0.00    -0.237 OA
ATOM     85  O   UNL     1      -4.503   5.151  -3.179  1.00  0.00    -0.744 OA
ENDBRANCH  78  82
ENDBRANCH  51  75
BRANCH  63  86
ATOM     86  C   UNL     1      -6.103   1.690   8.409  1.00  0.00     0.023 A 
ATOM     87  C   UNL     1      -6.842   2.801   8.826  1.00  0.00     0.031 A 
ATOM     88  C   UNL     1      -6.080   0.588   9.292  1.00  0.00     0.131 A 
ATOM     89  C   UNL     1      -7.416   2.850  10.098  1.00  0.00     0.055 A 
ATOM     90  C   UNL     1      -6.755   0.593  10.513  1.00  0.00     0.041 A 
ATOM     91  F   UNL     1      -5.426  -0.545   9.000  1.00  0.00    -0.206 F 
ATOM     92  C   UNL     1      -7.409   1.740  10.936  1.00  0.00     0.022 A 
BRANCH  89  93
ATOM     93  S   UNL     1      -8.057   4.445  10.649  1.00  0.00     0.124 S 
ATOM     94  O   UNL     1      -6.861   5.282  10.585  1.00  0.00    -0.237 OA
ATOM     95  O   UNL     1      -9.084   4.735   9.654  1.00  0.00    -0.237 OA
ATOM     96  O   UNL     1      -8.550   4.168  11.996  1.00  0.00    -0.744 OA
ENDBRANCH  89  93
ENDBRANCH  63  86
ENDBRANCH  37  38
ENDBRANCH  30  32
ENDBRANCH  29  30
ENDBRANCH  28  29
ENDBRANCH  27  28
ENDBRANCH   1  27
TORSDOF 20
