REMARK SMILES CC[C@@H](C)[C@H](NC(=O)CCc1ccc(F)c(F)c1)C(=O)OCCOCCOC(=O)c1ccc(-c2c3nc(c(-c4cc(S(=O)(=O)[O-])ccc4F)c4ccc([nH]4)c(-c4cc(S(=O)(=O)[O-])ccc4F)c4nc(c(-c5cc(S(=O)(=O)[O-])ccc5F)c5ccc2[nH]5)C=C4)C=C3)cc1
REMARK SMILES IDX 23 1 22 2 21 3 19 4 20 5 5 6 3 7 4 8 2 9 1 10 6 11 7 12 8 14
REMARK SMILES IDX 9 15 10 16 11 17 12 18 18 19 13 20 16 21 14 22 17 23 15 24
REMARK SMILES IDX 24 25 25 26 26 27 27 28 28 29 29 30 30 31 31 32 92 33 32 34
REMARK SMILES IDX 91 35 33 36 34 37 35 38 85 39 36 40 90 41 84 42 86 43 37 44
REMARK SMILES IDX 89 45 83 46 82 47 38 49 70 50 50 51 69 52 51 53 54 54 68 55
REMARK SMILES IDX 87 56 52 57 53 58 67 60 88 61 55 62 39 63 40 64 48 65 41 66
REMARK SMILES IDX 47 67 49 68 46 69 42 70 43 71 44 72 45 73 71 74 72 75 80 76
REMARK SMILES IDX 73 77 79 78 81 79 78 80 74 81 75 82 76 83 77 84 56 85 57 86
REMARK SMILES IDX 65 87 58 88 64 89 66 90 63 91 59 92 60 93 61 94 62 95
REMARK H PARENT 6 13 86 48 54 59
REMARK Flexibility Score: inf
ROOT
ATOM      1  C   UNL     1       2.798  -1.873   7.366  1.00  0.00     0.202 C 
ENDROOT
BRANCH   1   2
ATOM      2  C   UNL     1       3.055  -2.718   6.102  1.00  0.00     0.261 C 
BRANCH   2   3
ATOM      3  O   UNL     1       2.539  -2.214   4.842  1.00  0.00    -0.462 OA
BRANCH   3   4
ATOM      4  C   UNL     1       1.758  -3.105   4.169  1.00  0.00     0.328 C 
ATOM      5  O   UNL     1       1.398  -4.183   4.637  1.00  0.00    -0.250 OA
BRANCH   4   6
ATOM      6  C   UNL     1       1.391  -2.732   2.707  1.00  0.00     0.195 C 
BRANCH   6   7
ATOM      7  C   UNL     1       1.954  -3.823   1.720  1.00  0.00     0.019 C 
ATOM      8  C   UNL     1       3.296  -4.428   2.160  1.00  0.00     0.010 C 
BRANCH   7   9
ATOM      9  C   UNL     1       2.010  -3.368   0.246  1.00  0.00     0.002 C 
ATOM     10  C   UNL     1       2.144  -4.525  -0.738  1.00  0.00     0.004 C 
ENDBRANCH   7   9
ENDBRANCH   6   7
BRANCH   6  11
ATOM     11  N   UNL     1       1.485  -1.347   2.218  1.00  0.00    -0.343 N 
ATOM     12  C   UNL     1       0.402  -0.488   2.151  1.00  0.00     0.221 C 
ATOM     13  H   UNL     1       2.364  -1.014   1.925  1.00  0.00     0.164 HD
ATOM     14  O   UNL     1       0.212   0.181   1.137  1.00  0.00    -0.275 OA
BRANCH  12  15
ATOM     15  C   UNL     1      -0.417  -0.270   3.409  1.00  0.00     0.105 C 
BRANCH  15  16
ATOM     16  C   UNL     1      -1.933  -0.498   3.406  1.00  0.00     0.045 C 
BRANCH  16  17
ATOM     17  C   UNL     1      -2.470  -1.898   3.646  1.00  0.00    -0.044 A 
ATOM     18  C   UNL     1      -3.820  -2.173   3.366  1.00  0.00     0.007 A 
ATOM     19  C   UNL     1      -1.705  -2.941   4.172  1.00  0.00     0.046 A 
ATOM     20  C   UNL     1      -4.327  -3.476   3.464  1.00  0.00     0.043 A 
ATOM     21  C   UNL     1      -2.181  -4.251   4.189  1.00  0.00     0.159 A 
ATOM     22  C   UNL     1      -3.484  -4.520   3.822  1.00  0.00     0.158 A 
ATOM     23  F   UNL     1      -1.358  -5.246   4.545  1.00  0.00    -0.204 F 
ATOM     24  F   UNL     1      -3.944  -5.778   3.825  1.00  0.00    -0.204 F 
ENDBRANCH  16  17
ENDBRANCH  15  16
ENDBRANCH  12  15
ENDBRANCH   6  11
ENDBRANCH   4   6
ENDBRANCH   3   4
ENDBRANCH   2   3
ENDBRANCH   1   2
BRANCH   1  25
ATOM     25  O   UNL     1       1.474  -1.464   7.692  1.00  0.00    -0.374 OA
BRANCH  25  26
ATOM     26  C   UNL     1       0.811  -0.643   6.743  1.00  0.00     0.202 C 
BRANCH  26  27
ATOM     27  C   UNL     1       1.377   0.758   6.460  1.00  0.00     0.261 C 
BRANCH  27  28
ATOM     28  O   UNL     1       2.724   0.729   5.964  1.00  0.00    -0.460 OA
BRANCH  28  29
ATOM     29  C   UNL     1       3.617   1.393   6.744  1.00  0.00     0.338 C 
ATOM     30  O   UNL     1       3.370   2.091   7.711  1.00  0.00    -0.246 OA
BRANCH  29  31
ATOM     31  C   UNL     1       4.983   0.955   6.406  1.00  0.00     0.060 A 
ATOM     32  C   UNL     1       5.728   0.352   7.429  1.00  0.00     0.016 A 
ATOM     33  C   UNL     1       5.540   1.173   5.145  1.00  0.00     0.016 A 
ATOM     34  C   UNL     1       7.052   0.001   7.208  1.00  0.00     0.010 A 
ATOM     35  C   UNL     1       6.882   0.842   4.931  1.00  0.00     0.010 A 
ATOM     36  C   UNL     1       7.647   0.292   5.975  1.00  0.00    -0.014 A 
BRANCH  36  37
ATOM     37  C   UNL     1       9.122   0.214   5.885  1.00  0.00     0.031 A 
ATOM     38  C   UNL     1       9.911   1.466   6.153  1.00  0.00     0.074 A 
ATOM     39  C   UNL     1       9.730  -0.966   5.671  1.00  0.00     0.049 A 
ATOM     40  N   UNL     1      11.204   1.640   6.201  1.00  0.00    -0.248 NA
ATOM     41  C   UNL     1       9.128   2.687   6.406  1.00  0.00     0.031 C 
ATOM     42  C   UNL     1       9.042  -2.239   5.459  1.00  0.00     0.029 A 
ATOM     43  N   UNL     1      11.060  -1.288   5.613  1.00  0.00    -0.354 N 
ATOM     44  C   UNL     1      11.392   2.986   6.501  1.00  0.00     0.074 A 
ATOM     45  C   UNL     1      10.080   3.590   6.575  1.00  0.00     0.031 C 
ATOM     46  C   UNL     1       9.959  -3.207   5.292  1.00  0.00     0.029 A 
ATOM     47  C   UNL     1      11.294  -2.618   5.359  1.00  0.00     0.049 A 
ATOM     48  H   UNL     1      11.780  -0.628   5.741  1.00  0.00     0.167 HD
ATOM     49  C   UNL     1      12.555   3.650   6.706  1.00  0.00     0.034 A 
ATOM     50  C   UNL     1      12.459  -3.275   5.187  1.00  0.00     0.034 A 
ATOM     51  C   UNL     1      13.849   3.022   6.597  1.00  0.00     0.049 A 
ATOM     52  C   UNL     1      13.745  -2.497   5.336  1.00  0.00     0.074 A 
ATOM     53  C   UNL     1      15.101   3.584   6.760  1.00  0.00     0.029 A 
ATOM     54  N   UNL     1      14.052   1.683   6.279  1.00  0.00    -0.354 N 
ATOM     55  N   UNL     1      13.911  -1.225   5.622  1.00  0.00    -0.248 NA
ATOM     56  C   UNL     1      14.995  -3.242   5.153  1.00  0.00     0.031 C 
ATOM     57  C   UNL     1      16.059   2.604   6.472  1.00  0.00     0.029 A 
ATOM     58  C   UNL     1      15.408   1.409   6.210  1.00  0.00     0.049 A 
ATOM     59  H   UNL     1      13.335   1.025   6.126  1.00  0.00     0.167 HD
ATOM     60  C   UNL     1      15.288  -1.024   5.680  1.00  0.00     0.074 A 
ATOM     61  C   UNL     1      15.901  -2.312   5.417  1.00  0.00     0.031 C 
ATOM     62  C   UNL     1      15.986   0.114   5.929  1.00  0.00     0.034 A 
BRANCH  49  63
ATOM     63  C   UNL     1      12.464   5.129   7.000  1.00  0.00     0.023 A 
ATOM     64  C   UNL     1      11.827   5.619   8.155  1.00  0.00     0.031 A 
ATOM     65  C   UNL     1      12.971   6.067   6.084  1.00  0.00     0.131 A 
ATOM     66  C   UNL     1      11.646   7.001   8.325  1.00  0.00     0.055 A 
ATOM     67  C   UNL     1      12.858   7.442   6.297  1.00  0.00     0.041 A 
ATOM     68  F   UNL     1      13.564   5.662   4.949  1.00  0.00    -0.206 F 
ATOM     69  C   UNL     1      12.179   7.917   7.415  1.00  0.00     0.022 A 
BRANCH  66  70
ATOM     70  S   UNL     1      10.574   7.580   9.669  1.00  0.00     0.124 S 
ATOM     71  O   UNL     1       9.309   6.927   9.339  1.00  0.00    -0.237 OA
ATOM     72  O   UNL     1      11.259   7.082  10.856  1.00  0.00    -0.237 OA
ATOM     73  O   UNL     1      10.576   9.033   9.509  1.00  0.00    -0.744 OA
ENDBRANCH  66  70
ENDBRANCH  49  63
BRANCH  50  74
ATOM     74  C   UNL     1      12.466  -4.723   4.827  1.00  0.00     0.023 A 
ATOM     75  C   UNL     1      13.036  -5.689   5.671  1.00  0.00     0.031 A 
ATOM     76  C   UNL     1      11.925  -5.159   3.602  1.00  0.00     0.131 A 
ATOM     77  C   UNL     1      13.086  -7.033   5.264  1.00  0.00     0.055 A 
ATOM     78  C   UNL     1      11.931  -6.503   3.225  1.00  0.00     0.041 A 
ATOM     79  F   UNL     1      11.367  -4.279   2.755  1.00  0.00    -0.206 F 
ATOM     80  C   UNL     1      12.526  -7.448   4.054  1.00  0.00     0.022 A 
BRANCH  77  81
ATOM     81  S   UNL     1      13.967  -8.227   6.308  1.00  0.00     0.124 S 
ATOM     82  O   UNL     1      15.295  -7.630   6.389  1.00  0.00    -0.237 OA
ATOM     83  O   UNL     1      13.174  -8.200   7.532  1.00  0.00    -0.237 OA
ATOM     84  O   UNL     1      13.888  -9.471   5.544  1.00  0.00    -0.744 OA
ENDBRANCH  77  81
ENDBRANCH  50  74
BRANCH  62  85
ATOM     85  C   UNL     1      17.490  -0.004   5.958  1.00  0.00     0.023 A 
ATOM     86  C   UNL     1      18.228  -0.300   4.800  1.00  0.00     0.031 A 
ATOM     87  C   UNL     1      18.189   0.174   7.165  1.00  0.00     0.131 A 
ATOM     88  C   UNL     1      19.618  -0.468   4.884  1.00  0.00     0.055 A 
ATOM     89  C   UNL     1      19.579   0.070   7.229  1.00  0.00     0.041 A 
ATOM     90  F   UNL     1      17.532   0.458   8.301  1.00  0.00    -0.206 F 
ATOM     91  C   UNL     1      20.300  -0.267   6.087  1.00  0.00     0.022 A 
BRANCH  88  92
ATOM     92  S   UNL     1      20.512  -1.049   3.418  1.00  0.00     0.124 S 
ATOM     93  O   UNL     1      19.849  -2.321   3.144  1.00  0.00    -0.237 OA
ATOM     94  O   UNL     1      20.262   0.019   2.456  1.00  0.00    -0.237 OA
ATOM     95  O   UNL     1      21.895  -1.157   3.880  1.00  0.00    -0.744 OA
ENDBRANCH  88  92
ENDBRANCH  62  85
ENDBRANCH  36  37
ENDBRANCH  29  31
ENDBRANCH  28  29
ENDBRANCH  27  28
ENDBRANCH  26  27
ENDBRANCH  25  26
ENDBRANCH   1  25
TORSDOF 23
