REMARK SMILES CC1(C)Cc2c(-c3ccccc3)c(-c3ccc(Cl)cc3)c(CC(=O)OCCOCCOC(=O)c3ccc(-c4c5nc(c(-c6cc(S(=O)(=O)[O-])ccc6F)c6ccc([nH]6)c(-c6cc(S(=O)(=O)[O-])ccc6F)c6nc(c(-c7cc(S(=O)(=O)[O-])ccc7F)c7ccc4[nH]7)C=C6)C=C5)cc3)n2C1
REMARK SMILES IDX 29 1 28 2 27 3 26 4 25 5 23 6 24 7 22 8 21 9 1 10 2 11 3 12
REMARK SMILES IDX 4 13 98 14 5 15 97 16 6 17 13 18 7 19 8 20 12 21 9 22 11 23
REMARK SMILES IDX 10 24 14 25 15 26 20 27 16 28 19 29 17 30 18 31 30 32 31 33
REMARK SMILES IDX 32 34 33 35 34 36 35 37 96 38 36 39 95 40 37 41 38 42 39 43
REMARK SMILES IDX 89 44 40 45 94 46 88 47 90 48 41 49 93 50 87 51 86 52 42 54
REMARK SMILES IDX 74 55 54 56 73 57 55 58 58 59 72 60 91 61 56 62 57 63 71 65
REMARK SMILES IDX 92 66 59 67 43 68 44 69 52 70 45 71 51 72 53 73 50 74 46 75
REMARK SMILES IDX 47 76 48 77 49 78 75 79 76 80 84 81 77 82 83 83 85 84 82 85
REMARK SMILES IDX 78 86 79 87 80 88 81 89 60 90 61 91 69 92 62 93 68 94 70 95
REMARK SMILES IDX 67 96 63 97 64 98 65 99 66 100
REMARK H PARENT 90 53 58 64
REMARK Flexibility Score: inf
ROOT
ATOM      1  C   UNL     1      -1.544   7.438   3.501  1.00  0.00     0.202 C 
ENDROOT
BRANCH   1   2
ATOM      2  O   UNL     1      -2.622   7.976   2.747  1.00  0.00    -0.374 OA
BRANCH   2   3
ATOM      3  C   UNL     1      -3.534   7.068   2.161  1.00  0.00     0.202 C 
BRANCH   3   4
ATOM      4  C   UNL     1      -2.998   6.326   0.928  1.00  0.00     0.261 C 
BRANCH   4   5
ATOM      5  O   UNL     1      -1.649   5.815   1.094  1.00  0.00    -0.463 OA
BRANCH   5   6
ATOM      6  C   UNL     1      -0.684   6.334   0.299  1.00  0.00     0.311 C 
ATOM      7  O   UNL     1      -0.932   7.056  -0.667  1.00  0.00    -0.252 OA
BRANCH   6   8
ATOM      8  C   UNL     1       0.765   6.026   0.672  1.00  0.00     0.177 C 
BRANCH   8   9
ATOM      9  C   UNL     1       1.119   4.996   1.721  1.00  0.00     0.037 A 
ATOM     10  C   UNL     1       0.984   0.362  -0.016  1.00  0.00     0.013 C 
ATOM     11  C   UNL     1       0.457   1.374   1.010  1.00  0.00    -0.012 C 
ATOM     12  C   UNL     1      -0.941   0.937   1.475  1.00  0.00     0.013 C 
ATOM     13  C   UNL     1       1.414   1.448   2.236  1.00  0.00     0.063 C 
ATOM     14  C   UNL     1       0.418   2.826   0.428  1.00  0.00     0.129 C 
ATOM     15  C   UNL     1       1.510   2.901   2.493  1.00  0.00     0.027 A 
ATOM     16  N   UNL     1       0.927   3.652   1.519  1.00  0.00    -0.346 N 
ATOM     17  C   UNL     1       2.065   3.738   3.416  1.00  0.00     0.011 A 
ATOM     18  C   UNL     1       1.871   5.081   2.917  1.00  0.00     0.011 A 
BRANCH  17  19
ATOM     19  C   UNL     1       2.733   3.274   4.617  1.00  0.00    -0.016 A 
ATOM     20  C   UNL     1       3.759   2.322   4.575  1.00  0.00     0.009 A 
ATOM     21  C   UNL     1       2.324   3.784   5.850  1.00  0.00     0.009 A 
ATOM     22  C   UNL     1       4.327   1.849   5.760  1.00  0.00     0.001 A 
ATOM     23  C   UNL     1       2.911   3.329   7.025  1.00  0.00     0.001 A 
ATOM     24  C   UNL     1       3.890   2.343   6.986  1.00  0.00     0.000 A 
ENDBRANCH  17  19
BRANCH  18  25
ATOM     25  C   UNL     1       2.517   6.256   3.527  1.00  0.00    -0.016 A 
ATOM     26  C   UNL     1       3.916   6.330   3.573  1.00  0.00     0.010 A 
ATOM     27  C   UNL     1       1.807   7.146   4.336  1.00  0.00     0.010 A 
ATOM     28  C   UNL     1       4.566   7.259   4.405  1.00  0.00     0.021 A 
ATOM     29  C   UNL     1       2.440   8.084   5.158  1.00  0.00     0.021 A 
ATOM     30  C   UNL     1       3.823   8.131   5.196  1.00  0.00     0.041 A 
ATOM     31  Cl  UNL     1       4.607   9.238   6.252  1.00  0.00    -0.084 Cl
ENDBRANCH  18  25
ENDBRANCH   8   9
ENDBRANCH   6   8
ENDBRANCH   5   6
ENDBRANCH   4   5
ENDBRANCH   3   4
ENDBRANCH   2   3
ENDBRANCH   1   2
BRANCH   1  32
ATOM     32  C   UNL     1      -1.526   5.963   3.931  1.00  0.00     0.261 C 
BRANCH  32  33
ATOM     33  O   UNL     1      -2.728   5.504   4.537  1.00  0.00    -0.460 OA
BRANCH  33  34
ATOM     34  C   UNL     1      -2.749   5.782   5.848  1.00  0.00     0.338 C 
ATOM     35  O   UNL     1      -3.124   6.855   6.319  1.00  0.00    -0.246 OA
BRANCH  34  36
ATOM     36  C   UNL     1      -2.276   4.630   6.631  1.00  0.00     0.060 A 
ATOM     37  C   UNL     1      -2.707   4.537   7.953  1.00  0.00     0.016 A 
ATOM     38  C   UNL     1      -1.367   3.696   6.099  1.00  0.00     0.016 A 
ATOM     39  C   UNL     1      -2.216   3.519   8.750  1.00  0.00     0.010 A 
ATOM     40  C   UNL     1      -0.827   2.722   6.914  1.00  0.00     0.010 A 
ATOM     41  C   UNL     1      -1.268   2.632   8.231  1.00  0.00    -0.014 A 
BRANCH  41  42
ATOM     42  C   UNL     1      -0.987   1.419   8.975  1.00  0.00     0.031 A 
ATOM     43  C   UNL     1      -2.007   0.367   8.767  1.00  0.00     0.074 A 
ATOM     44  C   UNL     1       0.122   1.183   9.690  1.00  0.00     0.049 A 
ATOM     45  N   UNL     1      -2.898  -0.016   9.617  1.00  0.00    -0.248 NA
ATOM     46  C   UNL     1      -2.190  -0.185   7.416  1.00  0.00     0.031 C 
ATOM     47  C   UNL     1       1.315   2.008   9.795  1.00  0.00     0.029 A 
ATOM     48  N   UNL     1       0.446   0.071  10.401  1.00  0.00    -0.354 N 
ATOM     49  C   UNL     1      -3.603  -1.032   8.987  1.00  0.00     0.074 A 
ATOM     50  C   UNL     1      -3.292  -0.912   7.591  1.00  0.00     0.031 C 
ATOM     51  C   UNL     1       2.323   1.269  10.311  1.00  0.00     0.029 A 
ATOM     52  C   UNL     1       1.792  -0.020  10.726  1.00  0.00     0.049 A 
ATOM     53  H   UNL     1      -0.216  -0.610  10.663  1.00  0.00     0.167 HD
ATOM     54  C   UNL     1      -4.164  -2.041   9.707  1.00  0.00     0.034 A 
ATOM     55  C   UNL     1       2.422  -1.093  11.265  1.00  0.00     0.034 A 
ATOM     56  C   UNL     1      -4.289  -1.665  11.104  1.00  0.00     0.049 A 
ATOM     57  C   UNL     1       1.387  -1.883  11.981  1.00  0.00     0.074 A 
ATOM     58  C   UNL     1      -4.880  -0.598  11.761  1.00  0.00     0.029 A 
ATOM     59  N   UNL     1      -3.419  -2.218  12.020  1.00  0.00    -0.354 N 
ATOM     60  N   UNL     1       0.753  -1.444  13.034  1.00  0.00    -0.248 NA
ATOM     61  C   UNL     1       0.726  -2.970  11.274  1.00  0.00     0.031 C 
ATOM     62  C   UNL     1      -3.986  -0.273  12.824  1.00  0.00     0.029 A 
ATOM     63  C   UNL     1      -2.943  -1.200  12.811  1.00  0.00     0.049 A 
ATOM     64  H   UNL     1      -3.182  -3.171  12.095  1.00  0.00     0.167 HD
ATOM     65  C   UNL     1      -0.554  -1.874  12.872  1.00  0.00     0.074 A 
ATOM     66  C   UNL     1      -0.483  -2.905  11.839  1.00  0.00     0.031 C 
ATOM     67  C   UNL     1      -1.606  -1.162  13.378  1.00  0.00     0.034 A 
BRANCH  54  68
ATOM     68  C   UNL     1      -4.230  -3.482   9.234  1.00  0.00     0.023 A 
ATOM     69  C   UNL     1      -4.712  -4.424  10.160  1.00  0.00     0.031 A 
ATOM     70  C   UNL     1      -3.613  -4.028   8.083  1.00  0.00     0.131 A 
ATOM     71  C   UNL     1      -4.440  -5.794  10.009  1.00  0.00     0.055 A 
ATOM     72  C   UNL     1      -3.408  -5.400   7.904  1.00  0.00     0.041 A 
ATOM     73  F   UNL     1      -3.105  -3.287   7.095  1.00  0.00    -0.206 F 
ATOM     74  C   UNL     1      -3.783  -6.290   8.890  1.00  0.00     0.022 A 
BRANCH  71  75
ATOM     75  S   UNL     1      -4.790  -6.883  11.410  1.00  0.00     0.124 S 
ATOM     76  O   UNL     1      -4.071  -6.206  12.484  1.00  0.00    -0.237 OA
ATOM     77  O   UNL     1      -6.247  -6.827  11.471  1.00  0.00    -0.237 OA
ATOM     78  O   UNL     1      -4.230  -8.164  10.988  1.00  0.00    -0.744 OA
ENDBRANCH  71  75
ENDBRANCH  54  68
BRANCH  55  79
ATOM     79  C   UNL     1       3.796  -1.583  10.983  1.00  0.00     0.023 A 
ATOM     80  C   UNL     1       4.441  -2.519  11.816  1.00  0.00     0.031 A 
ATOM     81  C   UNL     1       4.407  -1.317   9.737  1.00  0.00     0.131 A 
ATOM     82  C   UNL     1       5.636  -3.144  11.394  1.00  0.00     0.055 A 
ATOM     83  C   UNL     1       5.594  -1.929   9.329  1.00  0.00     0.041 A 
ATOM     84  F   UNL     1       3.824  -0.517   8.831  1.00  0.00    -0.206 F 
ATOM     85  C   UNL     1       6.209  -2.856  10.154  1.00  0.00     0.022 A 
BRANCH  82  86
ATOM     86  S   UNL     1       6.397  -4.447  12.412  1.00  0.00     0.124 S 
ATOM     87  O   UNL     1       7.029  -3.675  13.476  1.00  0.00    -0.237 OA
ATOM     88  O   UNL     1       5.250  -5.262  12.794  1.00  0.00    -0.237 OA
ATOM     89  O   UNL     1       7.327  -5.098  11.487  1.00  0.00    -0.744 OA
ENDBRANCH  82  86
ENDBRANCH  55  79
BRANCH  67  90
ATOM     90  C   UNL     1      -1.338  -0.104  14.431  1.00  0.00     0.023 A 
ATOM     91  C   UNL     1      -0.457   0.991  14.280  1.00  0.00     0.031 A 
ATOM     92  C   UNL     1      -2.115  -0.154  15.604  1.00  0.00     0.131 A 
ATOM     93  C   UNL     1      -0.377   1.976  15.285  1.00  0.00     0.055 A 
ATOM     94  C   UNL     1      -2.047   0.832  16.587  1.00  0.00     0.041 A 
ATOM     95  F   UNL     1      -2.990  -1.155  15.799  1.00  0.00    -0.206 F 
ATOM     96  C   UNL     1      -1.172   1.899  16.434  1.00  0.00     0.022 A 
BRANCH  93  97
ATOM     97  S   UNL     1       0.777   3.377  15.127  1.00  0.00     0.124 S 
ATOM     98  O   UNL     1       2.017   2.755  14.680  1.00  0.00    -0.237 OA
ATOM     99  O   UNL     1       0.102   4.230  14.151  1.00  0.00    -0.237 OA
ATOM    100  O   UNL     1       0.827   3.930  16.482  1.00  0.00    -0.744 OA
ENDBRANCH  93  97
ENDBRANCH  67  90
ENDBRANCH  41  42
ENDBRANCH  34  36
ENDBRANCH  33  34
ENDBRANCH  32  33
ENDBRANCH   1  32
TORSDOF 20
