REMARK SMILES O=C(OCCOCCOC(=O)[C@H](F)[C@H](O)C1CCOCC1)c1ccc(-c2c3nc(c(-c4cc(S(=O)(=O)[O-])ccc4F)c4ccc([nH]4)c(-c4cc(S(=O)(=O)[O-])ccc4F)c4nc(c(-c5cc(S(=O)(=O)[O-])ccc5F)c5ccc2[nH]5)C=C4)C=C3)cc1
REMARK SMILES IDX 5 1 4 2 3 3 2 4 1 5 22 6 23 7 84 8 24 9 83 10 25 11 26 12
REMARK SMILES IDX 27 13 77 14 28 15 82 16 76 17 78 18 29 19 81 20 75 21 74 22
REMARK SMILES IDX 30 24 62 25 42 26 61 27 43 28 46 29 60 30 79 31 44 32 45 33
REMARK SMILES IDX 59 35 80 36 47 37 31 38 32 39 40 40 33 41 39 42 41 43 38 44
REMARK SMILES IDX 34 45 35 46 36 47 37 48 63 49 64 50 72 51 65 52 71 53 73 54
REMARK SMILES IDX 70 55 66 56 67 57 68 58 69 59 48 60 49 61 57 62 50 63 56 64
REMARK SMILES IDX 58 65 55 66 51 67 52 68 53 69 54 70 6 71 7 72 8 73 9 74
REMARK SMILES IDX 10 75 11 76 12 77 13 78 14 79 16 80 17 81 21 82 18 83 20 84
REMARK SMILES IDX 19 85 15 86
REMARK H PARENT 78 23 46 34 15 87
REMARK Flexibility Score: inf
ROOT
ATOM      1  C   UNL     1       3.379   1.785   7.356  1.00  0.00     0.202 C 
ENDROOT
BRANCH   1   2
ATOM      2  C   UNL     1       2.486   3.024   7.567  1.00  0.00     0.261 C 
BRANCH   2   3
ATOM      3  O   UNL     1       3.255   4.205   7.877  1.00  0.00    -0.460 OA
BRANCH   3   4
ATOM      4  C   UNL     1       3.267   4.881   9.059  1.00  0.00     0.338 C 
ATOM      5  O   UNL     1       3.742   6.012   9.103  1.00  0.00    -0.246 OA
BRANCH   4   6
ATOM      6  C   UNL     1       2.754   4.260  10.311  1.00  0.00     0.060 A 
ATOM      7  C   UNL     1       2.710   2.883  10.482  1.00  0.00     0.016 A 
ATOM      8  C   UNL     1       2.365   5.066  11.389  1.00  0.00     0.016 A 
ATOM      9  C   UNL     1       2.201   2.292  11.608  1.00  0.00     0.010 A 
ATOM     10  C   UNL     1       1.928   4.478  12.586  1.00  0.00     0.010 A 
ATOM     11  C   UNL     1       1.847   3.084  12.685  1.00  0.00    -0.014 A 
BRANCH  11  12
ATOM     12  C   UNL     1       1.353   2.342  13.851  1.00  0.00     0.031 A 
ATOM     13  C   UNL     1      -0.120   2.295  14.081  1.00  0.00     0.074 A 
ATOM     14  C   UNL     1       2.215   1.529  14.493  1.00  0.00     0.049 A 
ATOM     15  N   UNL     1      -0.783   1.700  15.029  1.00  0.00    -0.248 NA
ATOM     16  C   UNL     1      -0.964   2.992  13.093  1.00  0.00     0.031 C 
ATOM     17  C   UNL     1       3.640   1.382  14.158  1.00  0.00     0.029 A 
ATOM     18  N   UNL     1       2.023   0.625  15.499  1.00  0.00    -0.354 N 
ATOM     19  C   UNL     1      -2.119   1.988  14.786  1.00  0.00     0.074 A 
ATOM     20  C   UNL     1      -2.177   2.790  13.585  1.00  0.00     0.031 C 
ATOM     21  C   UNL     1       4.175   0.416  14.917  1.00  0.00     0.029 A 
ATOM     22  C   UNL     1       3.171  -0.040  15.867  1.00  0.00     0.049 A 
ATOM     23  H   UNL     1       1.148   0.464  15.920  1.00  0.00     0.167 HD
ATOM     24  C   UNL     1      -3.186   1.630  15.536  1.00  0.00     0.034 A 
ATOM     25  C   UNL     1       3.387  -0.875  16.901  1.00  0.00     0.034 A 
ATOM     26  C   UNL     1      -3.053   0.833  16.729  1.00  0.00     0.049 A 
ATOM     27  C   UNL     1       2.203  -1.158  17.790  1.00  0.00     0.074 A 
ATOM     28  C   UNL     1      -4.017   0.481  17.652  1.00  0.00     0.029 A 
ATOM     29  N   UNL     1      -1.857   0.263  17.160  1.00  0.00    -0.354 N 
ATOM     30  N   UNL     1       0.952  -0.776  17.638  1.00  0.00    -0.248 NA
ATOM     31  C   UNL     1       2.451  -1.954  18.994  1.00  0.00     0.031 C 
ATOM     32  C   UNL     1      -3.393  -0.249  18.671  1.00  0.00     0.029 A 
ATOM     33  C   UNL     1      -2.052  -0.413  18.350  1.00  0.00     0.049 A 
ATOM     34  H   UNL     1      -0.997   0.331  16.686  1.00  0.00     0.167 HD
ATOM     35  C   UNL     1       0.264  -1.286  18.731  1.00  0.00     0.074 A 
ATOM     36  C   UNL     1       1.233  -2.038  19.508  1.00  0.00     0.031 C 
ATOM     37  C   UNL     1      -1.040  -1.139  19.081  1.00  0.00     0.034 A 
BRANCH  24  38
ATOM     38  C   UNL     1      -4.517   2.221  15.156  1.00  0.00     0.023 A 
ATOM     39  C   UNL     1      -5.187   1.873  13.970  1.00  0.00     0.031 A 
ATOM     40  C   UNL     1      -5.079   3.228  15.962  1.00  0.00     0.131 A 
ATOM     41  C   UNL     1      -6.348   2.571  13.596  1.00  0.00     0.055 A 
ATOM     42  C   UNL     1      -6.269   3.869  15.618  1.00  0.00     0.041 A 
ATOM     43  F   UNL     1      -4.460   3.628  17.083  1.00  0.00    -0.206 F 
ATOM     44  C   UNL     1      -6.905   3.550  14.423  1.00  0.00     0.022 A 
BRANCH  41  45
ATOM     45  S   UNL     1      -7.053   2.276  11.950  1.00  0.00     0.124 S 
ATOM     46  O   UNL     1      -5.973   2.736  11.080  1.00  0.00    -0.237 OA
ATOM     47  O   UNL     1      -7.294   0.838  11.960  1.00  0.00    -0.237 OA
ATOM     48  O   UNL     1      -8.254   3.109  11.936  1.00  0.00    -0.744 OA
ENDBRANCH  41  45
ENDBRANCH  24  38
BRANCH  25  49
ATOM     49  C   UNL     1       4.758  -1.376  17.225  1.00  0.00     0.023 A 
ATOM     50  C   UNL     1       5.030  -2.745  17.365  1.00  0.00     0.031 A 
ATOM     51  C   UNL     1       5.815  -0.476  17.477  1.00  0.00     0.131 A 
ATOM     52  C   UNL     1       6.301  -3.171  17.791  1.00  0.00     0.055 A 
ATOM     53  C   UNL     1       7.094  -0.906  17.832  1.00  0.00     0.041 A 
ATOM     54  F   UNL     1       5.621   0.850  17.381  1.00  0.00    -0.206 F 
ATOM     55  C   UNL     1       7.338  -2.261  18.009  1.00  0.00     0.022 A 
BRANCH  52  56
ATOM     56  S   UNL     1       6.547  -4.925  18.186  1.00  0.00     0.124 S 
ATOM     57  O   UNL     1       5.447  -5.180  19.110  1.00  0.00    -0.237 OA
ATOM     58  O   UNL     1       6.439  -5.547  16.871  1.00  0.00    -0.237 OA
ATOM     59  O   UNL     1       7.881  -4.955  18.782  1.00  0.00    -0.744 OA
ENDBRANCH  52  56
ENDBRANCH  25  49
BRANCH  37  60
ATOM     60  C   UNL     1      -1.463  -1.834  20.345  1.00  0.00     0.023 A 
ATOM     61  C   UNL     1      -1.008  -1.398  21.601  1.00  0.00     0.031 A 
ATOM     62  C   UNL     1      -2.315  -2.948  20.288  1.00  0.00     0.131 A 
ATOM     63  C   UNL     1      -1.364  -2.113  22.750  1.00  0.00     0.055 A 
ATOM     64  C   UNL     1      -2.715  -3.618  21.442  1.00  0.00     0.041 A 
ATOM     65  F   UNL     1      -2.772  -3.398  19.108  1.00  0.00    -0.206 F 
ATOM     66  C   UNL     1      -2.228  -3.209  22.681  1.00  0.00     0.022 A 
BRANCH  63  67
ATOM     67  S   UNL     1      -0.608  -1.641  24.328  1.00  0.00     0.124 S 
ATOM     68  O   UNL     1       0.812  -1.836  24.053  1.00  0.00    -0.237 OA
ATOM     69  O   UNL     1      -1.043  -0.257  24.483  1.00  0.00    -0.237 OA
ATOM     70  O   UNL     1      -1.191  -2.584  25.281  1.00  0.00    -0.744 OA
ENDBRANCH  63  67
ENDBRANCH  37  60
ENDBRANCH  11  12
ENDBRANCH   4   6
ENDBRANCH   3   4
ENDBRANCH   2   3
ENDBRANCH   1   2
BRANCH   1  71
ATOM     71  O   UNL     1       4.346   1.458   8.353  1.00  0.00    -0.374 OA
BRANCH  71  72
ATOM     72  C   UNL     1       5.507   2.279   8.479  1.00  0.00     0.202 C 
BRANCH  72  73
ATOM     73  C   UNL     1       6.773   1.486   8.144  1.00  0.00     0.261 C 
BRANCH  73  74
ATOM     74  O   UNL     1       6.918   1.346   6.718  1.00  0.00    -0.461 OA
BRANCH  74  75
ATOM     75  C   UNL     1       6.196   0.358   6.113  1.00  0.00     0.343 C 
ATOM     76  O   UNL     1       5.574  -0.519   6.686  1.00  0.00    -0.249 OA
BRANCH  75  77
ATOM     77  C   UNL     1       6.203   0.546   4.605  1.00  0.00     0.304 C 
ATOM     78  F   UNL     1       7.465   0.781   4.133  1.00  0.00    -0.232 F 
BRANCH  77  79
ATOM     79  C   UNL     1       5.248   1.672   4.131  1.00  0.00     0.163 C 
BRANCH  79  80
ATOM     80  C   UNL     1       5.544   3.087   4.701  1.00  0.00     0.026 C 
ATOM     81  C   UNL     1       4.472   4.141   4.354  1.00  0.00     0.035 C 
ATOM     82  C   UNL     1       6.930   3.633   4.348  1.00  0.00     0.035 C 
ATOM     83  C   UNL     1       4.822   5.488   4.988  1.00  0.00     0.160 C 
ATOM     84  C   UNL     1       7.133   4.996   5.000  1.00  0.00     0.160 C 
ATOM     85  O   UNL     1       6.122   5.905   4.570  1.00  0.00    -0.381 OA
ENDBRANCH  79  80
BRANCH  79  86
ATOM     86  O   UNL     1       5.248   1.690   2.696  1.00  0.00    -0.389 OA
ATOM     87  H   UNL     1       6.138   1.906   2.376  1.00  0.00     0.211 HD
ENDBRANCH  79  86
ENDBRANCH  77  79
ENDBRANCH  75  77
ENDBRANCH  74  75
ENDBRANCH  73  74
ENDBRANCH  72  73
ENDBRANCH  71  72
ENDBRANCH   1  71
TORSDOF 20
