REMARK SMILES O=C(OCCOCCOC(=O)[C@H]1CCCN1C(=O)CN1C(=O)[C@@H]2[C@H](C1=O)[C@H]1C=C[C@@H]2C1)c1ccc(-c2c3nc(c(-c4cc(S(=O)(=O)[O-])ccc4F)c4ccc([nH]4)c(-c4cc(S(=O)(=O)[O-])ccc4F)c4nc(c(-c5cc(S(=O)(=O)[O-])ccc5F)c5ccc2[nH]5)C=C4)C=C3)cc1
REMARK SMILES IDX 6 1 5 2 4 3 3 4 2 5 1 6 32 7 33 8 94 9 34 10 93 11 35 12
REMARK SMILES IDX 36 13 37 14 87 15 38 16 92 17 86 18 88 19 39 20 91 21 85 22
REMARK SMILES IDX 84 23 40 25 72 26 52 27 71 28 53 29 56 30 70 31 89 32 54 33
REMARK SMILES IDX 55 34 69 36 90 37 57 38 41 39 42 40 50 41 43 42 49 43 51 44
REMARK SMILES IDX 48 45 44 46 45 47 46 48 47 49 73 50 74 51 82 52 75 53 81 54
REMARK SMILES IDX 83 55 80 56 76 57 77 58 78 59 79 60 58 61 59 62 67 63 60 64
REMARK SMILES IDX 66 65 68 66 65 67 61 68 62 69 63 70 64 71 7 72 8 73 9 74
REMARK SMILES IDX 10 75 11 76 12 77 13 78 16 79 14 80 15 81 17 82 18 83 19 84
REMARK SMILES IDX 20 85 25 86 21 87 26 88 24 89 23 90 22 91 27 92 30 93 28 94
REMARK SMILES IDX 31 95 29 96
REMARK H PARENT 88 24 56 35
REMARK Flexibility Score: inf
ROOT
ATOM      1  O   UNL     1       3.374  -0.694  -6.658  1.00  0.00    -0.374 OA
ENDROOT
BRANCH   1   2
ATOM      2  C   UNL     1       2.745  -1.327  -5.532  1.00  0.00     0.202 C 
BRANCH   2   3
ATOM      3  C   UNL     1       1.596  -2.304  -5.807  1.00  0.00     0.261 C 
BRANCH   3   4
ATOM      4  O   UNL     1       1.929  -3.206  -6.868  1.00  0.00    -0.460 OA
BRANCH   4   5
ATOM      5  C   UNL     1       1.839  -2.911  -8.191  1.00  0.00     0.338 C 
ATOM      6  O   UNL     1       2.367  -3.662  -9.009  1.00  0.00    -0.246 OA
BRANCH   5   7
ATOM      7  C   UNL     1       1.119  -1.704  -8.687  1.00  0.00     0.060 A 
ATOM      8  C   UNL     1       1.026  -0.495  -7.997  1.00  0.00     0.016 A 
ATOM      9  C   UNL     1       0.522  -1.782  -9.948  1.00  0.00     0.016 A 
ATOM     10  C   UNL     1       0.322   0.573  -8.456  1.00  0.00     0.010 A 
ATOM     11  C   UNL     1      -0.188  -0.690 -10.451  1.00  0.00     0.010 A 
ATOM     12  C   UNL     1      -0.301   0.472  -9.679  1.00  0.00    -0.014 A 
BRANCH  12  13
ATOM     13  C   UNL     1      -1.273   1.532  -9.910  1.00  0.00     0.031 A 
ATOM     14  C   UNL     1      -2.700   1.189  -9.641  1.00  0.00     0.074 A 
ATOM     15  C   UNL     1      -0.825   2.792 -10.042  1.00  0.00     0.049 A 
ATOM     16  N   UNL     1      -3.760   1.926  -9.783  1.00  0.00    -0.248 NA
ATOM     17  C   UNL     1      -2.968  -0.169  -9.129  1.00  0.00     0.031 C 
ATOM     18  C   UNL     1       0.590   3.196 -10.027  1.00  0.00     0.029 A 
ATOM     19  N   UNL     1      -1.503   3.968 -10.143  1.00  0.00    -0.354 N 
ATOM     20  C   UNL     1      -4.825   1.101  -9.448  1.00  0.00     0.074 A 
ATOM     21  C   UNL     1      -4.288  -0.190  -9.092  1.00  0.00     0.031 C 
ATOM     22  C   UNL     1       0.664   4.533 -10.107  1.00  0.00     0.029 A 
ATOM     23  C   UNL     1      -0.680   5.058 -10.283  1.00  0.00     0.049 A 
ATOM     24  H   UNL     1      -2.485   4.030 -10.117  1.00  0.00     0.167 HD
ATOM     25  C   UNL     1      -6.137   1.419  -9.469  1.00  0.00     0.034 A 
ATOM     26  C   UNL     1      -1.005   6.325 -10.588  1.00  0.00     0.034 A 
ATOM     27  C   UNL     1      -6.588   2.734  -9.837  1.00  0.00     0.049 A 
ATOM     28  C   UNL     1      -2.473   6.613 -10.766  1.00  0.00     0.074 A 
ATOM     29  C   UNL     1      -7.878   3.196  -9.989  1.00  0.00     0.029 A 
ATOM     30  N   UNL     1      -5.738   3.802 -10.122  1.00  0.00    -0.354 N 
ATOM     31  N   UNL     1      -3.498   5.806 -10.594  1.00  0.00    -0.248 NA
ATOM     32  C   UNL     1      -2.830   7.968 -11.182  1.00  0.00     0.031 C 
ATOM     33  C   UNL     1      -7.806   4.509 -10.462  1.00  0.00     0.029 A 
ATOM     34  C   UNL     1      -6.476   4.911 -10.486  1.00  0.00     0.049 A 
ATOM     35  H   UNL     1      -4.756   3.770 -10.071  1.00  0.00     0.167 HD
ATOM     36  C   UNL     1      -4.631   6.572 -10.838  1.00  0.00     0.074 A 
ATOM     37  C   UNL     1      -4.152   7.905 -11.159  1.00  0.00     0.031 C 
ATOM     38  C   UNL     1      -5.943   6.220 -10.796  1.00  0.00     0.034 A 
BRANCH  25  39
ATOM     39  C   UNL     1      -7.114   0.298  -9.240  1.00  0.00     0.023 A 
ATOM     40  C   UNL     1      -7.172  -0.420  -8.033  1.00  0.00     0.031 A 
ATOM     41  C   UNL     1      -7.919  -0.140 -10.307  1.00  0.00     0.131 A 
ATOM     42  C   UNL     1      -7.948  -1.587  -7.953  1.00  0.00     0.055 A 
ATOM     43  C   UNL     1      -8.764  -1.242 -10.188  1.00  0.00     0.041 A 
ATOM     44  F   UNL     1      -7.863   0.471 -11.501  1.00  0.00    -0.206 F 
ATOM     45  C   UNL     1      -8.770  -1.984  -9.011  1.00  0.00     0.022 A 
BRANCH  42  46
ATOM     46  S   UNL     1      -7.719  -2.684  -6.526  1.00  0.00     0.124 S 
ATOM     47  O   UNL     1      -6.300  -3.018  -6.637  1.00  0.00    -0.237 OA
ATOM     48  O   UNL     1      -8.085  -1.827  -5.405  1.00  0.00    -0.237 OA
ATOM     49  O   UNL     1      -8.635  -3.791  -6.792  1.00  0.00    -0.744 OA
ENDBRANCH  42  46
ENDBRANCH  25  39
BRANCH  26  50
ATOM     50  C   UNL     1       0.044   7.356 -10.824  1.00  0.00     0.023 A 
ATOM     51  C   UNL     1       0.063   8.548 -10.088  1.00  0.00     0.031 A 
ATOM     52  C   UNL     1       1.008   7.197 -11.839  1.00  0.00     0.131 A 
ATOM     53  C   UNL     1       0.978   9.560 -10.419  1.00  0.00     0.055 A 
ATOM     54  C   UNL     1       1.962   8.176 -12.117  1.00  0.00     0.041 A 
ATOM     55  F   UNL     1       1.037   6.079 -12.584  1.00  0.00    -0.206 F 
ATOM     56  C   UNL     1       1.938   9.376 -11.416  1.00  0.00     0.022 A 
BRANCH  53  57
ATOM     57  S   UNL     1       0.807  11.173  -9.609  1.00  0.00     0.124 S 
ATOM     58  O   UNL     1      -0.569  11.523  -9.942  1.00  0.00    -0.237 OA
ATOM     59  O   UNL     1       1.064  10.839  -8.212  1.00  0.00    -0.237 OA
ATOM     60  O   UNL     1       1.834  11.987 -10.255  1.00  0.00    -0.744 OA
ENDBRANCH  53  57
ENDBRANCH  26  50
BRANCH  38  61
ATOM     61  C   UNL     1      -6.940   7.324 -11.021  1.00  0.00     0.023 A 
ATOM     62  C   UNL     1      -7.030   8.008 -12.243  1.00  0.00     0.031 A 
ATOM     63  C   UNL     1      -7.806   7.701  -9.978  1.00  0.00     0.131 A 
ATOM     64  C   UNL     1      -7.908   9.091 -12.364  1.00  0.00     0.055 A 
ATOM     65  C   UNL     1      -8.746   8.715 -10.139  1.00  0.00     0.041 A 
ATOM     66  F   UNL     1      -7.755   7.082  -8.787  1.00  0.00    -0.206 F 
ATOM     67  C   UNL     1      -8.787   9.430 -11.332  1.00  0.00     0.022 A 
BRANCH  64  68
ATOM     68  S   UNL     1      -7.777  10.143 -13.832  1.00  0.00     0.124 S 
ATOM     69  O   UNL     1      -6.373  10.540 -13.792  1.00  0.00    -0.237 OA
ATOM     70  O   UNL     1      -8.149   9.228 -14.906  1.00  0.00    -0.237 OA
ATOM     71  O   UNL     1      -8.734  11.216 -13.569  1.00  0.00    -0.744 OA
ENDBRANCH  64  68
ENDBRANCH  38  61
ENDBRANCH  12  13
ENDBRANCH   5   7
ENDBRANCH   4   5
ENDBRANCH   3   4
ENDBRANCH   2   3
ENDBRANCH   1   2
BRANCH   1  72
ATOM     72  C   UNL     1       4.317  -1.425  -7.446  1.00  0.00     0.202 C 
BRANCH  72  73
ATOM     73  C   UNL     1       5.766  -1.033  -7.174  1.00  0.00     0.261 C 
BRANCH  73  74
ATOM     74  O   UNL     1       6.082  -1.432  -5.832  1.00  0.00    -0.462 OA
BRANCH  74  75
ATOM     75  C   UNL     1       5.532  -0.571  -4.931  1.00  0.00     0.328 C 
ATOM     76  O   UNL     1       5.069   0.484  -5.283  1.00  0.00    -0.250 OA
BRANCH  75  77
ATOM     77  C   UNL     1       5.603  -1.009  -3.457  1.00  0.00     0.195 C 
ATOM     78  C   UNL     1       5.080  -2.379  -3.053  1.00  0.00     0.039 C 
ATOM     79  N   UNL     1       7.020  -1.114  -3.261  1.00  0.00    -0.327 N 
ATOM     80  C   UNL     1       6.117  -3.316  -3.640  1.00  0.00     0.024 C 
ATOM     81  C   UNL     1       7.429  -2.511  -3.494  1.00  0.00     0.120 C 
BRANCH  79  82
ATOM     82  C   UNL     1       7.852  -0.007  -3.180  1.00  0.00     0.243 C 
ATOM     83  O   UNL     1       9.064  -0.144  -3.367  1.00  0.00    -0.273 OA
BRANCH  82  84
ATOM     84  C   UNL     1       7.254   1.398  -2.743  1.00  0.00     0.228 C 
BRANCH  84  85
ATOM     85  N   UNL     1       6.499   2.300  -3.642  1.00  0.00    -0.273 N 
ATOM     86  C   UNL     1       6.991   3.495  -4.118  1.00  0.00     0.234 C 
ATOM     87  C   UNL     1       5.135   2.275  -3.777  1.00  0.00     0.234 C 
ATOM     88  O   UNL     1       8.142   3.889  -3.987  1.00  0.00    -0.274 OA
ATOM     89  C   UNL     1       5.882   4.333  -4.755  1.00  0.00     0.099 C 
ATOM     90  C   UNL     1       4.738   3.158  -4.973  1.00  0.00     0.099 C 
ATOM     91  O   UNL     1       4.345   1.739  -3.008  1.00  0.00    -0.274 OA
ATOM     92  C   UNL     1       5.034   5.457  -3.745  1.00  0.00     0.025 C 
ATOM     93  C   UNL     1       3.099   3.921  -4.646  1.00  0.00     0.025 C 
ATOM     94  C   UNL     1       3.784   6.468  -4.240  1.00  0.00    -0.027 C 
ATOM     95  C   UNL     1       3.948   4.437  -3.521  1.00  0.00     0.017 C 
ATOM     96  C   UNL     1       2.708   5.706  -4.690  1.00  0.00    -0.027 C 
ENDBRANCH  84  85
ENDBRANCH  82  84
ENDBRANCH  79  82
ENDBRANCH  75  77
ENDBRANCH  74  75
ENDBRANCH  73  74
ENDBRANCH  72  73
ENDBRANCH   1  72
TORSDOF 20
