REMARK SMILES O=C(CCCC[C@@H]1CCSS1)OCCOCCOC(=O)c1ccc(-c2c3nc(c(-c4cc(S(=O)(=O)[O-])ccc4F)c4ccc([nH]4)c(-c4cc(S(=O)(=O)[O-])ccc4F)c4nc(c(-c5cc(S(=O)(=O)[O-])ccc5F)c5ccc2[nH]5)C=C4)C=C3)cc1
REMARK SMILES IDX 14 1 13 2 12 3 2 4 1 5 3 6 4 7 5 8 6 9 7 10 8 11 11 12 9 13
REMARK SMILES IDX 10 14 15 15 16 16 17 17 18 18 19 19 20 20 21 21 22 22 83 23
REMARK SMILES IDX 23 24 82 25 24 26 25 27 26 28 76 29 27 30 81 31 75 32 77 33
REMARK SMILES IDX 28 34 80 35 74 36 73 37 29 39 61 40 41 41 60 42 42 43 45 44
REMARK SMILES IDX 59 45 78 46 43 47 44 48 58 50 79 51 46 52 30 53 31 54 39 55
REMARK SMILES IDX 32 56 38 57 40 58 37 59 33 60 34 61 35 62 36 63 62 64 63 65
REMARK SMILES IDX 71 66 64 67 70 68 72 69 69 70 65 71 66 72 67 73 68 74 47 75
REMARK SMILES IDX 48 76 56 77 49 78 55 79 57 80 54 81 50 82 51 83 52 84 53 85
REMARK H PARENT 77 38 45 49
REMARK Flexibility Score: inf
ROOT
ATOM      1  C   UNL     1       3.797   1.471   0.688  1.00  0.00     0.202 C 
ENDROOT
BRANCH   1   2
ATOM      2  C   UNL     1       3.623   1.191  -0.794  1.00  0.00     0.261 C 
BRANCH   2   3
ATOM      3  O   UNL     1       2.327   0.670  -1.112  1.00  0.00    -0.463 OA
BRANCH   3   4
ATOM      4  C   UNL     1       1.964  -0.625  -1.042  1.00  0.00     0.305 C 
ATOM      5  O   UNL     1       0.782  -0.921  -1.226  1.00  0.00    -0.252 OA
BRANCH   4   6
ATOM      6  C   UNL     1       2.968  -1.714  -0.716  1.00  0.00     0.123 C 
BRANCH   6   7
ATOM      7  C   UNL     1       3.878  -2.205  -1.844  1.00  0.00     0.012 C 
BRANCH   7   8
ATOM      8  C   UNL     1       5.300  -1.620  -1.973  1.00  0.00     0.002 C 
BRANCH   8   9
ATOM      9  C   UNL     1       6.070  -1.315  -0.674  1.00  0.00     0.015 C 
BRANCH   9  10
ATOM     10  C   UNL     1       6.979  -2.411  -0.108  1.00  0.00     0.059 C 
ATOM     11  C   UNL     1       6.516  -3.852  -0.321  1.00  0.00     0.027 C 
ATOM     12  S   UNL     1       7.175  -2.183   1.701  1.00  0.00    -0.091 SA
ATOM     13  C   UNL     1       7.351  -4.793   0.539  1.00  0.00     0.083 C 
ATOM     14  S   UNL     1       7.214  -4.163   2.223  1.00  0.00    -0.094 SA
ENDBRANCH   9  10
ENDBRANCH   8   9
ENDBRANCH   7   8
ENDBRANCH   6   7
ENDBRANCH   4   6
ENDBRANCH   3   4
ENDBRANCH   2   3
ENDBRANCH   1   2
BRANCH   1  15
ATOM     15  O   UNL     1       3.578   0.327   1.511  1.00  0.00    -0.374 OA
BRANCH  15  16
ATOM     16  C   UNL     1       2.427   0.424   2.354  1.00  0.00     0.202 C 
BRANCH  16  17
ATOM     17  C   UNL     1       2.687   1.178   3.665  1.00  0.00     0.261 C 
BRANCH  17  18
ATOM     18  O   UNL     1       3.123   2.523   3.408  1.00  0.00    -0.460 OA
BRANCH  18  19
ATOM     19  C   UNL     1       4.467   2.714   3.456  1.00  0.00     0.338 C 
ATOM     20  O   UNL     1       5.299   1.933   3.888  1.00  0.00    -0.246 OA
BRANCH  19  21
ATOM     21  C   UNL     1       4.811   3.931   2.680  1.00  0.00     0.060 A 
ATOM     22  C   UNL     1       6.019   3.937   1.964  1.00  0.00     0.016 A 
ATOM     23  C   UNL     1       3.945   5.026   2.599  1.00  0.00     0.016 A 
ATOM     24  C   UNL     1       6.384   5.047   1.202  1.00  0.00     0.010 A 
ATOM     25  C   UNL     1       4.315   6.142   1.848  1.00  0.00     0.010 A 
ATOM     26  C   UNL     1       5.553   6.173   1.181  1.00  0.00    -0.014 A 
BRANCH  26  27
ATOM     27  C   UNL     1       6.081   7.478   0.717  1.00  0.00     0.031 A 
ATOM     28  C   UNL     1       6.614   8.413   1.768  1.00  0.00     0.074 A 
ATOM     29  C   UNL     1       6.067   7.838  -0.578  1.00  0.00     0.049 A 
ATOM     30  N   UNL     1       6.984   9.661   1.667  1.00  0.00    -0.248 NA
ATOM     31  C   UNL     1       6.719   7.858   3.127  1.00  0.00     0.031 C 
ATOM     32  C   UNL     1       5.630   6.995  -1.688  1.00  0.00     0.029 A 
ATOM     33  N   UNL     1       6.417   9.025  -1.172  1.00  0.00    -0.354 N 
ATOM     34  C   UNL     1       7.348  10.047   2.953  1.00  0.00     0.074 A 
ATOM     35  C   UNL     1       7.115   8.913   3.819  1.00  0.00     0.031 C 
ATOM     36  C   UNL     1       5.717   7.702  -2.830  1.00  0.00     0.029 A 
ATOM     37  C   UNL     1       6.170   9.058  -2.524  1.00  0.00     0.049 A 
ATOM     38  H   UNL     1       6.809   9.780  -0.677  1.00  0.00     0.167 HD
ATOM     39  C   UNL     1       7.837  11.240   3.372  1.00  0.00     0.034 A 
ATOM     40  C   UNL     1       6.263  10.081  -3.400  1.00  0.00     0.034 A 
ATOM     41  C   UNL     1       8.043  12.363   2.493  1.00  0.00     0.049 A 
ATOM     42  C   UNL     1       6.722  11.432  -2.900  1.00  0.00     0.074 A 
ATOM     43  C   UNL     1       8.533  13.619   2.799  1.00  0.00     0.029 A 
ATOM     44  N   UNL     1       7.758  12.368   1.133  1.00  0.00    -0.354 N 
ATOM     45  N   UNL     1       7.057  11.795  -1.681  1.00  0.00    -0.248 NA
ATOM     46  C   UNL     1       6.819  12.510  -3.893  1.00  0.00     0.031 C 
ATOM     47  C   UNL     1       8.472  14.405   1.644  1.00  0.00     0.029 A 
ATOM     48  C   UNL     1       8.031  13.614   0.594  1.00  0.00     0.049 A 
ATOM     49  H   UNL     1       7.411  11.598   0.626  1.00  0.00     0.167 HD
ATOM     50  C   UNL     1       7.441  13.132  -1.773  1.00  0.00     0.074 A 
ATOM     51  C   UNL     1       7.299  13.508  -3.164  1.00  0.00     0.031 C 
ATOM     52  C   UNL     1       7.882  13.971  -0.799  1.00  0.00     0.034 A 
BRANCH  39  53
ATOM     53  C   UNL     1       8.107  11.392   4.849  1.00  0.00     0.023 A 
ATOM     54  C   UNL     1       9.053  10.593   5.516  1.00  0.00     0.031 A 
ATOM     55  C   UNL     1       7.359  12.302   5.616  1.00  0.00     0.131 A 
ATOM     56  C   UNL     1       9.162  10.655   6.913  1.00  0.00     0.055 A 
ATOM     57  C   UNL     1       7.538  12.425   6.995  1.00  0.00     0.041 A 
ATOM     58  F   UNL     1       6.420  13.071   5.042  1.00  0.00    -0.206 F 
ATOM     59  C   UNL     1       8.431  11.585   7.655  1.00  0.00     0.022 A 
BRANCH  56  60
ATOM     60  S   UNL     1      10.142   9.386   7.762  1.00  0.00     0.124 S 
ATOM     61  O   UNL     1       9.480   8.160   7.323  1.00  0.00    -0.237 OA
ATOM     62  O   UNL     1      11.481   9.615   7.232  1.00  0.00    -0.237 OA
ATOM     63  O   UNL     1       9.967   9.707   9.177  1.00  0.00    -0.744 OA
ENDBRANCH  56  60
ENDBRANCH  39  53
BRANCH  40  64
ATOM     64  C   UNL     1       5.873   9.892  -4.828  1.00  0.00     0.023 A 
ATOM     65  C   UNL     1       6.813  10.027  -5.863  1.00  0.00     0.031 A 
ATOM     66  C   UNL     1       4.539   9.620  -5.183  1.00  0.00     0.131 A 
ATOM     67  C   UNL     1       6.400   9.930  -7.202  1.00  0.00     0.055 A 
ATOM     68  C   UNL     1       4.144   9.472  -6.514  1.00  0.00     0.041 A 
ATOM     69  F   UNL     1       3.598   9.484  -4.235  1.00  0.00    -0.206 F 
ATOM     70  C   UNL     1       5.075   9.639  -7.534  1.00  0.00     0.022 A 
BRANCH  67  71
ATOM     71  S   UNL     1       7.610  10.265  -8.512  1.00  0.00     0.124 S 
ATOM     72  O   UNL     1       8.004  11.636  -8.208  1.00  0.00    -0.237 OA
ATOM     73  O   UNL     1       8.616   9.237  -8.264  1.00  0.00    -0.237 OA
ATOM     74  O   UNL     1       6.837  10.094  -9.740  1.00  0.00    -0.744 OA
ENDBRANCH  67  71
ENDBRANCH  40  64
BRANCH  52  75
ATOM     75  C   UNL     1       8.309  15.358  -1.217  1.00  0.00     0.023 A 
ATOM     76  C   UNL     1       7.395  16.309  -1.702  1.00  0.00     0.031 A 
ATOM     77  C   UNL     1       9.661  15.734  -1.112  1.00  0.00     0.131 A 
ATOM     78  C   UNL     1       7.852  17.573  -2.108  1.00  0.00     0.055 A 
ATOM     79  C   UNL     1      10.099  17.013  -1.457  1.00  0.00     0.041 A 
ATOM     80  F   UNL     1      10.579  14.865  -0.657  1.00  0.00    -0.206 F 
ATOM     81  C   UNL     1       9.195  17.937  -1.970  1.00  0.00     0.022 A 
BRANCH  78  82
ATOM     82  S   UNL     1       6.684  18.710  -2.902  1.00  0.00     0.124 S 
ATOM     83  O   UNL     1       6.227  17.926  -4.045  1.00  0.00    -0.237 OA
ATOM     84  O   UNL     1       5.700  18.934  -1.848  1.00  0.00    -0.237 OA
ATOM     85  O   UNL     1       7.508  19.870  -3.237  1.00  0.00    -0.744 OA
ENDBRANCH  78  82
ENDBRANCH  52  75
ENDBRANCH  26  27
ENDBRANCH  19  21
ENDBRANCH  18  19
ENDBRANCH  17  18
ENDBRANCH  16  17
ENDBRANCH  15  16
ENDBRANCH   1  15
TORSDOF 21
