REMARK SMILES Cc1ccc(CNC(=O)NC[C@@H]2CC[C@@H](C(=O)OCCOCCOC(=O)c3ccc(-c4c5nc(c(-c6cc(S(=O)(=O)[O-])ccc6F)c6ccc([nH]6)c(-c6cc(S(=O)(=O)[O-])ccc6F)c6nc(c(-c7cc(S(=O)(=O)[O-])ccc7F)c7ccc4[nH]7)C=C6)C=C5)cc3)O2)cn1
REMARK SMILES IDX 20 1 19 2 18 3 16 4 17 5 15 6 12 7 13 8 90 9 14 10 11 11
REMARK SMILES IDX 10 12 7 13 8 14 9 16 6 18 5 19 1 20 2 21 3 22 92 23 4 24
REMARK SMILES IDX 91 25 21 26 22 27 23 28 24 29 25 30 26 31 27 32 28 33 89 34
REMARK SMILES IDX 29 35 88 36 30 37 31 38 32 39 82 40 33 41 87 42 81 43 83 44
REMARK SMILES IDX 34 45 86 46 80 47 79 48 35 50 67 51 47 52 66 53 48 54 51 55
REMARK SMILES IDX 65 56 84 57 49 58 50 59 64 61 85 62 52 63 36 64 37 65 45 66
REMARK SMILES IDX 38 67 44 68 46 69 43 70 39 71 40 72 41 73 42 74 68 75 69 76
REMARK SMILES IDX 77 77 70 78 76 79 78 80 75 81 71 82 72 83 73 84 74 85 53 86
REMARK SMILES IDX 54 87 62 88 55 89 61 90 63 91 60 92 56 93 57 94 58 95 59 96
REMARK H PARENT 7 15 10 17 83 49 51 60
REMARK Flexibility Score: inf
ROOT
ATOM      1  C   UNL     1      -8.896   3.868  -6.857  1.00  0.00     0.202 C 
ENDROOT
BRANCH   1   2
ATOM      2  C   UNL     1      -9.348   2.815  -5.841  1.00  0.00     0.261 C 
BRANCH   2   3
ATOM      3  O   UNL     1      -8.259   2.478  -4.969  1.00  0.00    -0.461 OA
BRANCH   3   4
ATOM      4  C   UNL     1      -7.753   1.224  -5.099  1.00  0.00     0.335 C 
ATOM      5  O   UNL     1      -8.266   0.311  -5.736  1.00  0.00    -0.249 OA
BRANCH   4   6
ATOM      6  C   UNL     1      -6.374   1.111  -4.437  1.00  0.00     0.228 C 
ATOM      7  C   UNL     1      -5.604   1.459  -2.250  1.00  0.00     0.138 C 
ATOM      8  C   UNL     1      -5.236   0.046  -2.667  1.00  0.00     0.037 C 
ATOM      9  O   UNL     1      -6.024   2.108  -3.468  1.00  0.00    -0.361 OA
ATOM     10  C   UNL     1      -6.232  -0.237  -3.757  1.00  0.00     0.047 C 
BRANCH   7  11
ATOM     11  C   UNL     1      -4.458   2.250  -1.593  1.00  0.00     0.149 C 
BRANCH  11  12
ATOM     12  N   UNL     1      -4.743   2.600  -0.209  1.00  0.00    -0.336 N 
ATOM     13  N   UNL     1      -3.761   0.968   1.192  1.00  0.00    -0.334 N 
ATOM     14  C   UNL     1      -4.441   2.097   0.990  1.00  0.00     0.315 C 
ATOM     15  H   UNL     1      -3.567   0.810   2.144  1.00  0.00     0.165 HD
ATOM     16  O   UNL     1      -4.808   2.720   1.988  1.00  0.00    -0.249 OA
ATOM     17  H   UNL     1      -5.297   3.411  -0.140  1.00  0.00     0.165 HD
BRANCH  13  18
ATOM     18  C   UNL     1      -3.245  -0.075   0.343  1.00  0.00     0.155 C 
BRANCH  18  19
ATOM     19  C   UNL     1      -1.747  -0.101   0.265  1.00  0.00    -0.010 A 
ATOM     20  C   UNL     1       2.499  -0.065  -0.063  1.00  0.00     0.066 C 
ATOM     21  C   UNL     1       1.005  -0.114   0.030  1.00  0.00     0.037 A 
ATOM     22  C   UNL     1       0.327  -1.326   0.069  1.00  0.00     0.024 A 
ATOM     23  N   UNL     1       0.364   1.076   0.080  1.00  0.00    -0.261 NA
ATOM     24  C   UNL     1      -1.061  -1.316   0.180  1.00  0.00     0.009 A 
ATOM     25  C   UNL     1      -0.985   1.058   0.192  1.00  0.00     0.116 A 
ENDBRANCH  18  19
ENDBRANCH  13  18
ENDBRANCH  11  12
ENDBRANCH   7  11
ENDBRANCH   4   6
ENDBRANCH   3   4
ENDBRANCH   2   3
ENDBRANCH   1   2
BRANCH   1  26
ATOM     26  O   UNL     1      -7.870   3.438  -7.756  1.00  0.00    -0.374 OA
BRANCH  26  27
ATOM     27  C   UNL     1      -6.525   3.548  -7.286  1.00  0.00     0.202 C 
BRANCH  27  28
ATOM     28  C   UNL     1      -5.880   4.934  -7.394  1.00  0.00     0.261 C 
BRANCH  28  29
ATOM     29  O   UNL     1      -6.449   5.856  -6.448  1.00  0.00    -0.460 OA
BRANCH  29  30
ATOM     30  C   UNL     1      -7.247   6.805  -6.990  1.00  0.00     0.338 C 
ATOM     31  O   UNL     1      -7.446   7.000  -8.183  1.00  0.00    -0.246 OA
BRANCH  30  32
ATOM     32  C   UNL     1      -8.028   7.473  -5.932  1.00  0.00     0.060 A 
ATOM     33  C   UNL     1      -9.411   7.585  -6.130  1.00  0.00     0.016 A 
ATOM     34  C   UNL     1      -7.429   8.026  -4.798  1.00  0.00     0.016 A 
ATOM     35  C   UNL     1     -10.191   8.296  -5.223  1.00  0.00     0.010 A 
ATOM     36  C   UNL     1      -8.214   8.747  -3.890  1.00  0.00     0.010 A 
ATOM     37  C   UNL     1      -9.592   8.916  -4.119  1.00  0.00    -0.014 A 
BRANCH  37  38
ATOM     38  C   UNL     1     -10.391   9.862  -3.299  1.00  0.00     0.031 A 
ATOM     39  C   UNL     1     -10.253  11.339  -3.555  1.00  0.00     0.074 A 
ATOM     40  C   UNL     1     -11.262   9.409  -2.380  1.00  0.00     0.049 A 
ATOM     41  N   UNL     1     -10.850  12.344  -2.969  1.00  0.00    -0.248 NA
ATOM     42  C   UNL     1      -9.313  11.733  -4.616  1.00  0.00     0.031 C 
ATOM     43  C   UNL     1     -11.515   8.001  -2.080  1.00  0.00     0.029 A 
ATOM     44  N   UNL     1     -12.099  10.089  -1.531  1.00  0.00    -0.354 N 
ATOM     45  C   UNL     1     -10.356  13.490  -3.583  1.00  0.00     0.074 A 
ATOM     46  C   UNL     1      -9.384  13.055  -4.564  1.00  0.00     0.031 C 
ATOM     47  C   UNL     1     -12.446   7.921  -1.113  1.00  0.00     0.029 A 
ATOM     48  C   UNL     1     -12.828   9.270  -0.701  1.00  0.00     0.049 A 
ATOM     49  H   UNL     1     -12.172  11.071  -1.518  1.00  0.00     0.167 HD
ATOM     50  C   UNL     1     -10.689  14.784  -3.355  1.00  0.00     0.034 A 
ATOM     51  C   UNL     1     -13.689   9.577   0.291  1.00  0.00     0.034 A 
ATOM     52  C   UNL     1     -11.656  15.202  -2.369  1.00  0.00     0.049 A 
ATOM     53  C   UNL     1     -13.977  11.031   0.585  1.00  0.00     0.074 A 
ATOM     54  C   UNL     1     -12.090  16.483  -2.075  1.00  0.00     0.029 A 
ATOM     55  N   UNL     1     -12.330  14.348  -1.504  1.00  0.00    -0.354 N 
ATOM     56  N   UNL     1     -13.519  12.104  -0.018  1.00  0.00    -0.248 NA
ATOM     57  C   UNL     1     -14.904  11.311   1.689  1.00  0.00     0.031 C 
ATOM     58  C   UNL     1     -12.964  16.412  -0.985  1.00  0.00     0.029 A 
ATOM     59  C   UNL     1     -13.143  15.079  -0.650  1.00  0.00     0.049 A 
ATOM     60  H   UNL     1     -12.243  13.368  -1.498  1.00  0.00     0.167 HD
ATOM     61  C   UNL     1     -14.132  13.185   0.613  1.00  0.00     0.074 A 
ATOM     62  C   UNL     1     -15.001  12.631   1.631  1.00  0.00     0.031 C 
ATOM     63  C   UNL     1     -13.996  14.514   0.370  1.00  0.00     0.034 A 
BRANCH  50  64
ATOM     64  C   UNL     1      -9.957  15.841  -4.147  1.00  0.00     0.023 A 
ATOM     65  C   UNL     1     -10.083  15.949  -5.543  1.00  0.00     0.031 A 
ATOM     66  C   UNL     1      -9.099  16.744  -3.493  1.00  0.00     0.131 A 
ATOM     67  C   UNL     1      -9.317  16.893  -6.245  1.00  0.00     0.055 A 
ATOM     68  C   UNL     1      -8.397  17.730  -4.188  1.00  0.00     0.041 A 
ATOM     69  F   UNL     1      -8.919  16.674  -2.164  1.00  0.00    -0.206 F 
ATOM     70  C   UNL     1      -8.494  17.800  -5.574  1.00  0.00     0.022 A 
BRANCH  67  71
ATOM     71  S   UNL     1      -9.308  16.831  -8.058  1.00  0.00     0.124 S 
ATOM     72  O   UNL     1      -8.829  15.474  -8.306  1.00  0.00    -0.237 OA
ATOM     73  O   UNL     1     -10.705  17.087  -8.389  1.00  0.00    -0.237 OA
ATOM     74  O   UNL     1      -8.374  17.892  -8.433  1.00  0.00    -0.744 OA
ENDBRANCH  67  71
ENDBRANCH  50  64
BRANCH  51  75
ATOM     75  C   UNL     1     -14.319   8.502   1.112  1.00  0.00     0.023 A 
ATOM     76  C   UNL     1     -15.712   8.325   1.130  1.00  0.00     0.031 A 
ATOM     77  C   UNL     1     -13.540   7.680   1.946  1.00  0.00     0.131 A 
ATOM     78  C   UNL     1     -16.287   7.387   2.002  1.00  0.00     0.055 A 
ATOM     79  C   UNL     1     -14.112   6.709   2.770  1.00  0.00     0.041 A 
ATOM     80  F   UNL     1     -12.204   7.809   1.970  1.00  0.00    -0.206 F 
ATOM     81  C   UNL     1     -15.496   6.569   2.812  1.00  0.00     0.022 A 
BRANCH  78  82
ATOM     82  S   UNL     1     -18.095   7.317   2.133  1.00  0.00     0.124 S 
ATOM     83  O   UNL     1     -18.417   8.683   2.528  1.00  0.00    -0.237 OA
ATOM     84  O   UNL     1     -18.481   6.931   0.780  1.00  0.00    -0.237 OA
ATOM     85  O   UNL     1     -18.323   6.300   3.158  1.00  0.00    -0.744 OA
ENDBRANCH  78  82
ENDBRANCH  51  75
BRANCH  63  86
ATOM     86  C   UNL     1     -14.846  15.453   1.193  1.00  0.00     0.023 A 
ATOM     87  C   UNL     1     -14.663  15.598   2.580  1.00  0.00     0.031 A 
ATOM     88  C   UNL     1     -15.868  16.201   0.581  1.00  0.00     0.131 A 
ATOM     89  C   UNL     1     -15.528  16.421   3.317  1.00  0.00     0.055 A 
ATOM     90  C   UNL     1     -16.684  17.067   1.309  1.00  0.00     0.041 A 
ATOM     91  F   UNL     1     -16.090  16.101  -0.740  1.00  0.00    -0.206 F 
ATOM     92  C   UNL     1     -16.526  17.170   2.688  1.00  0.00     0.022 A 
BRANCH  89  93
ATOM     93  S   UNL     1     -15.398  16.424   5.127  1.00  0.00     0.124 S 
ATOM     94  O   UNL     1     -15.603  15.015   5.448  1.00  0.00    -0.237 OA
ATOM     95  O   UNL     1     -14.049  16.937   5.342  1.00  0.00    -0.237 OA
ATOM     96  O   UNL     1     -16.475  17.319   5.547  1.00  0.00    -0.744 OA
ENDBRANCH  89  93
ENDBRANCH  63  86
ENDBRANCH  37  38
ENDBRANCH  30  32
ENDBRANCH  29  30
ENDBRANCH  28  29
ENDBRANCH  27  28
ENDBRANCH  26  27
ENDBRANCH   1  26
TORSDOF 21
