REMARK SMILES CS(=O)(=O)c1ccc(/C=C(/C(=O)OCCOCCOC(=O)c2ccc(-c3c4nc(c(-c5cc(S(=O)(=O)[O-])ccc5F)c5ccc([nH]5)c(-c5cc(S(=O)(=O)[O-])ccc5F)c5nc(c(-c6cc(S(=O)(=O)[O-])ccc6F)c6ccc3[nH]6)C=C5)C=C4)cc2)c2cccc(-c3ccc(S(C)(=O)=O)cc3)c2)cc1
REMARK SMILES IDX 16 1 15 2 14 3 13 4 11 5 12 6 10 7 9 8 8 9 5 10 6 11 102 12
REMARK SMILES IDX 7 13 101 14 2 15 1 16 3 17 4 18 85 19 86 20 100 21 87 22
REMARK SMILES IDX 89 23 88 24 90 25 91 26 99 27 92 28 98 29 93 30 94 31 95 32
REMARK SMILES IDX 96 33 97 34 17 35 18 36 19 37 20 38 21 39 22 40 23 41 84 42
REMARK SMILES IDX 24 43 83 44 25 45 26 46 27 47 77 48 28 49 82 50 76 51 78 52
REMARK SMILES IDX 29 53 81 54 75 55 74 56 30 58 62 59 42 60 61 61 43 62 46 63
REMARK SMILES IDX 60 64 79 65 44 66 45 67 59 69 80 70 47 71 31 72 32 73 40 74
REMARK SMILES IDX 33 75 39 76 41 77 38 78 34 79 35 80 36 81 37 82 63 83 64 84
REMARK SMILES IDX 72 85 65 86 71 87 73 88 70 89 66 90 67 91 68 92 69 93 48 94
REMARK SMILES IDX 49 95 57 96 50 97 56 98 58 99 55 100 51 101 52 102 53 103
REMARK SMILES IDX 54 104
REMARK H PARENT 78 57 46 68
REMARK Flexibility Score: inf
ROOT
ATOM      1  O   UNL     1       3.642  -7.778  -8.688  1.00  0.00    -0.374 OA
ENDROOT
BRANCH   1   2
ATOM      2  C   UNL     1       3.563  -6.636  -9.538  1.00  0.00     0.202 C 
BRANCH   2   3
ATOM      3  C   UNL     1       2.394  -5.665  -9.345  1.00  0.00     0.261 C 
BRANCH   3   4
ATOM      4  O   UNL     1       2.367  -5.111  -8.019  1.00  0.00    -0.460 OA
BRANCH   4   5
ATOM      5  C   UNL     1       1.264  -5.444  -7.304  1.00  0.00     0.338 C 
ATOM      6  O   UNL     1       0.271  -6.008  -7.745  1.00  0.00    -0.246 OA
BRANCH   5   7
ATOM      7  C   UNL     1       1.430  -5.169  -5.841  1.00  0.00     0.067 C 
ATOM      8  C   UNL     1       2.025  -4.027  -5.418  1.00  0.00     0.024 C 
BRANCH   8   9
ATOM      9  C   UNL     1       1.949  -3.424  -4.059  1.00  0.00    -0.025 A 
ATOM     10  C   UNL     1       1.172  -2.181  -1.657  1.00  0.00     0.067 A 
ATOM     11  C   UNL     1       1.422  -3.553  -1.684  1.00  0.00     0.021 A 
ATOM     12  C   UNL     1       1.437  -1.401  -2.781  1.00  0.00     0.021 A 
ATOM     13  C   UNL     1       1.849  -4.159  -2.870  1.00  0.00     0.009 A 
ATOM     14  C   UNL     1       1.825  -2.026  -3.975  1.00  0.00     0.009 A 
BRANCH  10  15
ATOM     15  S   UNL     1       0.430  -1.492  -0.198  1.00  0.00     0.175 S 
ATOM     16  C   UNL     1       1.039   0.161  -0.042  1.00  0.00     0.163 C 
ATOM     17  O   UNL     1       0.945  -2.241   0.935  1.00  0.00    -0.224 OA
ATOM     18  O   UNL     1      -0.994  -1.421  -0.457  1.00  0.00    -0.224 OA
ENDBRANCH  10  15
ENDBRANCH   8   9
BRANCH   7  19
ATOM     19  C   UNL     1       0.751  -6.125  -4.947  1.00  0.00    -0.010 A 
ATOM     20  C   UNL     1       1.323  -7.365  -4.638  1.00  0.00     0.009 A 
ATOM     21  C   UNL     1      -0.466  -5.773  -4.367  1.00  0.00     0.017 A 
ATOM     22  C   UNL     1       0.688  -8.235  -3.755  1.00  0.00     0.001 A 
ATOM     23  C   UNL     1      -1.095  -6.611  -3.437  1.00  0.00    -0.018 A 
ATOM     24  C   UNL     1      -0.511  -7.855  -3.153  1.00  0.00     0.009 A 
BRANCH  23  25
ATOM     25  C   UNL     1      -2.289  -6.126  -2.739  1.00  0.00    -0.018 A 
ATOM     26  C   UNL     1      -2.364  -6.174  -1.337  1.00  0.00     0.010 A 
ATOM     27  C   UNL     1      -3.334  -5.508  -3.449  1.00  0.00     0.010 A 
ATOM     28  C   UNL     1      -3.448  -5.617  -0.662  1.00  0.00     0.021 A 
ATOM     29  C   UNL     1      -4.421  -4.947  -2.784  1.00  0.00     0.021 A 
ATOM     30  C   UNL     1      -4.474  -5.016  -1.393  1.00  0.00     0.067 A 
BRANCH  30  31
ATOM     31  S   UNL     1      -5.875  -4.362  -0.530  1.00  0.00     0.175 S 
ATOM     32  C   UNL     1      -6.671  -5.828   0.072  1.00  0.00     0.163 C 
ATOM     33  O   UNL     1      -5.384  -3.614   0.610  1.00  0.00    -0.224 OA
ATOM     34  O   UNL     1      -6.763  -3.755  -1.503  1.00  0.00    -0.224 OA
ENDBRANCH  30  31
ENDBRANCH  23  25
ENDBRANCH   7  19
ENDBRANCH   5   7
ENDBRANCH   4   5
ENDBRANCH   3   4
ENDBRANCH   2   3
ENDBRANCH   1   2
BRANCH   1  35
ATOM     35  C   UNL     1       3.954  -7.575  -7.314  1.00  0.00     0.202 C 
BRANCH  35  36
ATOM     36  C   UNL     1       5.379  -7.179  -6.910  1.00  0.00     0.261 C 
BRANCH  36  37
ATOM     37  O   UNL     1       5.828  -5.961  -7.514  1.00  0.00    -0.460 OA
BRANCH  37  38
ATOM     38  C   UNL     1       6.692  -6.139  -8.543  1.00  0.00     0.338 C 
ATOM     39  O   UNL     1       7.123  -7.204  -8.967  1.00  0.00    -0.246 OA
BRANCH  38  40
ATOM     40  C   UNL     1       6.899  -4.856  -9.232  1.00  0.00     0.060 A 
ATOM     41  C   UNL     1       6.626  -4.792 -10.606  1.00  0.00     0.016 A 
ATOM     42  C   UNL     1       7.404  -3.749  -8.550  1.00  0.00     0.016 A 
ATOM     43  C   UNL     1       6.895  -3.626 -11.316  1.00  0.00     0.010 A 
ATOM     44  C   UNL     1       7.689  -2.587  -9.267  1.00  0.00     0.010 A 
ATOM     45  C   UNL     1       7.468  -2.534 -10.656  1.00  0.00    -0.014 A 
BRANCH  45  46
ATOM     46  C   UNL     1       8.026  -1.402 -11.431  1.00  0.00     0.031 A 
ATOM     47  C   UNL     1       9.511  -1.361 -11.651  1.00  0.00     0.074 A 
ATOM     48  C   UNL     1       7.233  -0.426 -11.904  1.00  0.00     0.049 A 
ATOM     49  N   UNL     1      10.255  -0.402 -12.135  1.00  0.00    -0.248 NA
ATOM     50  C   UNL     1      10.259  -2.565 -11.254  1.00  0.00     0.031 C 
ATOM     51  C   UNL     1       5.774  -0.401 -11.809  1.00  0.00     0.029 A 
ATOM     52  N   UNL     1       7.550   0.747 -12.541  1.00  0.00    -0.354 N 
ATOM     53  C   UNL     1      11.561  -0.876 -12.080  1.00  0.00     0.074 A 
ATOM     54  C   UNL     1      11.508  -2.195 -11.488  1.00  0.00     0.031 C 
ATOM     55  C   UNL     1       5.324   0.745 -12.347  1.00  0.00     0.029 A 
ATOM     56  C   UNL     1       6.463   1.557 -12.772  1.00  0.00     0.049 A 
ATOM     57  H   UNL     1       8.468   0.985 -12.808  1.00  0.00     0.167 HD
ATOM     58  C   UNL     1      12.698  -0.262 -12.489  1.00  0.00     0.034 A 
ATOM     59  C   UNL     1       6.405   2.824 -13.231  1.00  0.00     0.034 A 
ATOM     60  C   UNL     1      12.722   1.058 -13.068  1.00  0.00     0.049 A 
ATOM     61  C   UNL     1       7.693   3.529 -13.591  1.00  0.00     0.074 A 
ATOM     62  C   UNL     1      13.811   1.781 -13.522  1.00  0.00     0.029 A 
ATOM     63  N   UNL     1      11.604   1.860 -13.264  1.00  0.00    -0.354 N 
ATOM     64  N   UNL     1       8.928   3.085 -13.517  1.00  0.00    -0.248 NA
ATOM     65  C   UNL     1       7.580   4.903 -14.099  1.00  0.00     0.031 C 
ATOM     66  C   UNL     1      13.363   3.045 -13.917  1.00  0.00     0.029 A 
ATOM     67  C   UNL     1      11.982   3.079 -13.803  1.00  0.00     0.049 A 
ATOM     68  H   UNL     1      10.679   1.600 -13.052  1.00  0.00     0.167 HD
ATOM     69  C   UNL     1       9.731   4.109 -14.016  1.00  0.00     0.074 A 
ATOM     70  C   UNL     1       8.843   5.192 -14.382  1.00  0.00     0.031 C 
ATOM     71  C   UNL     1      11.080   4.146 -14.171  1.00  0.00     0.034 A 
BRANCH  58  72
ATOM     72  C   UNL     1      14.001  -0.988 -12.262  1.00  0.00     0.023 A 
ATOM     73  C   UNL     1      14.284  -2.218 -12.881  1.00  0.00     0.031 A 
ATOM     74  C   UNL     1      14.962  -0.458 -11.383  1.00  0.00     0.131 A 
ATOM     75  C   UNL     1      15.460  -2.911 -12.556  1.00  0.00     0.055 A 
ATOM     76  C   UNL     1      16.170  -1.111 -11.131  1.00  0.00     0.041 A 
ATOM     77  F   UNL     1      14.737   0.698 -10.740  1.00  0.00    -0.206 F 
ATOM     78  C   UNL     1      16.418  -2.353 -11.706  1.00  0.00     0.022 A 
BRANCH  75  79
ATOM     79  S   UNL     1      15.648  -4.619 -13.136  1.00  0.00     0.124 S 
ATOM     80  O   UNL     1      14.469  -5.258 -12.554  1.00  0.00    -0.237 OA
ATOM     81  O   UNL     1      15.639  -4.463 -14.586  1.00  0.00    -0.237 OA
ATOM     82  O   UNL     1      16.923  -5.039 -12.560  1.00  0.00    -0.744 OA
ENDBRANCH  75  79
ENDBRANCH  58  72
BRANCH  59  83
ATOM     83  C   UNL     1       5.096   3.531 -13.334  1.00  0.00     0.023 A 
ATOM     84  C   UNL     1       4.608   3.971 -14.574  1.00  0.00     0.031 A 
ATOM     85  C   UNL     1       4.338   3.825 -12.186  1.00  0.00     0.131 A 
ATOM     86  C   UNL     1       3.426   4.726 -14.633  1.00  0.00     0.055 A 
ATOM     87  C   UNL     1       3.132   4.524 -12.257  1.00  0.00     0.041 A 
ATOM     88  F   UNL     1       4.758   3.430 -10.973  1.00  0.00    -0.206 F 
ATOM     89  C   UNL     1       2.676   4.992 -13.485  1.00  0.00     0.022 A 
BRANCH  86  90
ATOM     90  S   UNL     1       2.934   5.442 -16.225  1.00  0.00     0.124 S 
ATOM     91  O   UNL     1       4.101   6.251 -16.556  1.00  0.00    -0.237 OA
ATOM     92  O   UNL     1       2.726   4.250 -17.040  1.00  0.00    -0.237 OA
ATOM     93  O   UNL     1       1.724   6.193 -15.899  1.00  0.00    -0.744 OA
ENDBRANCH  86  90
ENDBRANCH  59  83
BRANCH  71  94
ATOM     94  C   UNL     1      11.672   5.362 -14.843  1.00  0.00     0.023 A 
ATOM     95  C   UNL     1      11.669   6.630 -14.239  1.00  0.00     0.031 A 
ATOM     96  C   UNL     1      12.278   5.231 -16.107  1.00  0.00     0.131 A 
ATOM     97  C   UNL     1      12.224   7.726 -14.918  1.00  0.00     0.055 A 
ATOM     98  C   UNL     1      12.882   6.311 -16.749  1.00  0.00     0.041 A 
ATOM     99  F   UNL     1      12.306   4.042 -16.730  1.00  0.00    -0.206 F 
ATOM    100  C   UNL     1      12.848   7.571 -16.160  1.00  0.00     0.022 A 
BRANCH  97 101
ATOM    101  S   UNL     1      12.057   9.380 -14.193  1.00  0.00     0.124 S 
ATOM    102  O   UNL     1      10.608   9.525 -14.098  1.00  0.00    -0.237 OA
ATOM    103  O   UNL     1      12.767   9.239 -12.926  1.00  0.00    -0.237 OA
ATOM    104  O   UNL     1      12.705  10.252 -15.171  1.00  0.00    -0.744 OA
ENDBRANCH  97 101
ENDBRANCH  71  94
ENDBRANCH  45  46
ENDBRANCH  38  40
ENDBRANCH  37  38
ENDBRANCH  36  37
ENDBRANCH  35  36
ENDBRANCH   1  35
TORSDOF 22
