REMARK SMILES Nc1ccc(-c2cc(Cl)cc3c2O[C@H](C(F)(F)F)C(C(=O)OCCOCCOC(=O)c2ccc(-c4c5nc(c(-c6cc(S(=O)(=O)[O-])ccc6F)c6ccc([nH]6)c(-c6cc(S(=O)(=O)[O-])ccc6F)c6nc(c(-c7cc(S(=O)(=O)[O-])ccc7F)c7ccc4[nH]7)C=C6)C=C5)cc2)=C3)cc1
REMARK SMILES IDX 26 1 25 2 24 3 23 4 22 5 20 6 21 7 19 8 6 9 7 10 12 11 8 12
REMARK SMILES IDX 11 13 13 14 9 15 10 16 94 17 14 18 5 19 2 20 3 21 96 22 4 23
REMARK SMILES IDX 95 24 1 25 15 28 16 29 17 30 18 31 27 32 28 33 29 34 30 35
REMARK SMILES IDX 31 36 32 37 93 38 33 39 92 40 34 41 35 42 36 43 86 44 37 45
REMARK SMILES IDX 91 46 85 47 87 48 38 49 90 50 84 51 83 52 39 54 71 55 51 56
REMARK SMILES IDX 70 57 52 58 55 59 69 60 88 61 53 62 54 63 68 65 89 66 56 67
REMARK SMILES IDX 40 68 41 69 49 70 42 71 48 72 50 73 47 74 43 75 44 76 45 77
REMARK SMILES IDX 46 78 72 79 73 80 81 81 74 82 80 83 82 84 79 85 75 86 76 87
REMARK SMILES IDX 77 88 78 89 57 90 58 91 66 92 59 93 65 94 67 95 64 96 60 97
REMARK SMILES IDX 61 98 62 99 63 100
REMARK H PARENT 1 26 1 27 87 53 55 64
REMARK Flexibility Score: inf
ROOT
ATOM      1  C   UNL     1      -7.579  -0.928   5.540  1.00  0.00     0.202 C 
ENDROOT
BRANCH   1   2
ATOM      2  O   UNL     1      -8.263  -2.061   6.070  1.00  0.00    -0.374 OA
BRANCH   2   3
ATOM      3  C   UNL     1      -7.495  -3.123   6.632  1.00  0.00     0.202 C 
BRANCH   3   4
ATOM      4  C   UNL     1      -6.756  -4.061   5.672  1.00  0.00     0.261 C 
BRANCH   4   5
ATOM      5  O   UNL     1      -5.897  -3.349   4.769  1.00  0.00    -0.460 OA
BRANCH   5   6
ATOM      6  C   UNL     1      -6.336  -3.318   3.489  1.00  0.00     0.338 C 
ATOM      7  O   UNL     1      -7.308  -3.896   3.030  1.00  0.00    -0.246 OA
BRANCH   6   8
ATOM      8  C   UNL     1      -5.536  -2.352   2.711  1.00  0.00     0.087 C 
ATOM      9  C   UNL     1      -3.330   0.026   0.071  1.00  0.00     0.026 A 
ATOM     10  C   UNL     1      -4.027   0.701  -0.950  1.00  0.00     0.033 A 
ATOM     11  C   UNL     1      -4.080  -0.685   1.033  1.00  0.00     0.135 A 
ATOM     12  C   UNL     1      -5.419   0.672  -1.006  1.00  0.00     0.042 A 
ATOM     13  C   UNL     1      -5.476  -0.748   0.940  1.00  0.00     0.019 A 
ATOM     14  O   UNL     1      -3.393  -1.274   2.063  1.00  0.00    -0.475 OA
ATOM     15  Cl  UNL     1      -6.243   1.500  -2.269  1.00  0.00    -0.084 Cl
ATOM     16  C   UNL     1      -6.146  -0.051  -0.068  1.00  0.00     0.032 A 
ATOM     17  C   UNL     1      -6.225  -1.603   1.841  1.00  0.00     0.027 C 
ATOM     18  C   UNL     1      -4.048  -2.274   2.890  1.00  0.00     0.316 C 
BRANCH   9  19
ATOM     19  C   UNL     1      -1.855   0.029   0.062  1.00  0.00    -0.014 A 
ATOM     20  C   UNL     1       0.981   0.016   0.011  1.00  0.00     0.031 A 
ATOM     21  C   UNL     1       0.264  -1.179  -0.011  1.00  0.00     0.026 A 
ATOM     22  C   UNL     1       0.273   1.218   0.002  1.00  0.00     0.026 A 
ATOM     23  C   UNL     1      -1.134  -1.175   0.024  1.00  0.00     0.011 A 
ATOM     24  C   UNL     1      -1.127   1.227   0.043  1.00  0.00     0.011 A 
BRANCH  20  25
ATOM     25  N   UNL     1       2.363   0.009  -0.106  1.00  0.00    -0.399 N 
ATOM     26  H   UNL     1       2.853  -0.845  -0.099  1.00  0.00     0.156 HD
ATOM     27  H   UNL     1       2.854   0.857  -0.198  1.00  0.00     0.156 HD
ENDBRANCH  20  25
ENDBRANCH   9  19
BRANCH  18  28
ATOM     28  C   UNL     1      -3.352  -3.623   2.659  1.00  0.00     0.430 C 
ATOM     29  F   UNL     1      -2.007  -3.510   2.768  1.00  0.00    -0.167 F 
ATOM     30  F   UNL     1      -3.743  -4.553   3.559  1.00  0.00    -0.167 F 
ATOM     31  F   UNL     1      -3.616  -4.114   1.426  1.00  0.00    -0.167 F 
ENDBRANCH  18  28
ENDBRANCH   6   8
ENDBRANCH   5   6
ENDBRANCH   4   5
ENDBRANCH   3   4
ENDBRANCH   2   3
ENDBRANCH   1   2
BRANCH   1  32
ATOM     32  C   UNL     1      -6.861   0.028   6.502  1.00  0.00     0.261 C 
BRANCH  32  33
ATOM     33  O   UNL     1      -5.780  -0.594   7.216  1.00  0.00    -0.460 OA
BRANCH  33  34
ATOM     34  C   UNL     1      -6.020  -0.800   8.536  1.00  0.00     0.338 C 
ATOM     35  O   UNL     1      -7.029  -0.493   9.154  1.00  0.00    -0.246 OA
BRANCH  34  36
ATOM     36  C   UNL     1      -4.958  -1.655   9.099  1.00  0.00     0.060 A 
ATOM     37  C   UNL     1      -3.613  -1.302   8.994  1.00  0.00     0.016 A 
ATOM     38  C   UNL     1      -5.339  -2.817   9.783  1.00  0.00     0.016 A 
ATOM     39  C   UNL     1      -2.649  -2.105   9.609  1.00  0.00     0.010 A 
ATOM     40  C   UNL     1      -4.375  -3.615  10.398  1.00  0.00     0.010 A 
ATOM     41  C   UNL     1      -3.023  -3.252  10.337  1.00  0.00    -0.014 A 
BRANCH  41  42
ATOM     42  C   UNL     1      -2.018  -3.963  11.168  1.00  0.00     0.031 A 
ATOM     43  C   UNL     1      -1.504  -5.323  10.807  1.00  0.00     0.074 A 
ATOM     44  C   UNL     1      -1.588  -3.356  12.292  1.00  0.00     0.049 A 
ATOM     45  N   UNL     1      -0.551  -6.013  11.378  1.00  0.00    -0.248 NA
ATOM     46  C   UNL     1      -2.143  -6.003   9.671  1.00  0.00     0.031 C 
ATOM     47  C   UNL     1      -2.075  -2.063  12.774  1.00  0.00     0.029 A 
ATOM     48  N   UNL     1      -0.650  -3.727  13.222  1.00  0.00    -0.354 N 
ATOM     49  C   UNL     1      -0.458  -7.201  10.664  1.00  0.00     0.074 A 
ATOM     50  C   UNL     1      -1.491  -7.160   9.651  1.00  0.00     0.031 C 
ATOM     51  C   UNL     1      -1.402  -1.728  13.883  1.00  0.00     0.029 A 
ATOM     52  C   UNL     1      -0.463  -2.796  14.217  1.00  0.00     0.049 A 
ATOM     53  H   UNL     1      -0.158  -4.579  13.181  1.00  0.00     0.167 HD
ATOM     54  C   UNL     1       0.426  -8.214  10.832  1.00  0.00     0.034 A 
ATOM     55  C   UNL     1       0.373  -2.792  15.276  1.00  0.00     0.034 A 
ATOM     56  C   UNL     1       1.441  -8.235  11.859  1.00  0.00     0.049 A 
ATOM     57  C   UNL     1       1.340  -3.936  15.443  1.00  0.00     0.074 A 
ATOM     58  C   UNL     1       2.425  -9.187  12.064  1.00  0.00     0.029 A 
ATOM     59  N   UNL     1       1.599  -7.283  12.857  1.00  0.00    -0.354 N 
ATOM     60  N   UNL     1       1.512  -4.987  14.677  1.00  0.00    -0.248 NA
ATOM     61  C   UNL     1       2.239  -3.889  16.604  1.00  0.00     0.031 C 
ATOM     62  C   UNL     1       3.117  -8.859  13.230  1.00  0.00     0.029 A 
ATOM     63  C   UNL     1       2.635  -7.649  13.704  1.00  0.00     0.049 A 
ATOM     64  H   UNL     1       1.056  -6.467  12.950  1.00  0.00     0.167 HD
ATOM     65  C   UNL     1       2.552  -5.715  15.250  1.00  0.00     0.074 A 
ATOM     66  C   UNL     1       2.992  -4.963  16.407  1.00  0.00     0.031 C 
ATOM     67  C   UNL     1       3.084  -6.899  14.855  1.00  0.00     0.034 A 
BRANCH  54  68
ATOM     68  C   UNL     1       0.383  -9.388   9.881  1.00  0.00     0.023 A 
ATOM     69  C   UNL     1       0.176 -10.690  10.375  1.00  0.00     0.031 A 
ATOM     70  C   UNL     1       0.722  -9.240   8.524  1.00  0.00     0.131 A 
ATOM     71  C   UNL     1       0.359 -11.794   9.531  1.00  0.00     0.055 A 
ATOM     72  C   UNL     1       0.854 -10.341   7.675  1.00  0.00     0.041 A 
ATOM     73  F   UNL     1       0.940  -8.021   8.004  1.00  0.00    -0.206 F 
ATOM     74  C   UNL     1       0.689 -11.626   8.183  1.00  0.00     0.022 A 
BRANCH  71  75
ATOM     75  S   UNL     1       0.269 -13.489  10.170  1.00  0.00     0.124 S 
ATOM     76  O   UNL     1      -0.790 -14.065   9.343  1.00  0.00    -0.237 OA
ATOM     77  O   UNL     1       1.613 -13.989   9.897  1.00  0.00    -0.237 OA
ATOM     78  O   UNL     1      -0.068 -13.317  11.578  1.00  0.00    -0.744 OA
ENDBRANCH  71  75
ENDBRANCH  54  68
BRANCH  55  79
ATOM     79  C   UNL     1       0.368  -1.617  16.197  1.00  0.00     0.023 A 
ATOM     80  C   UNL     1      -0.794  -1.262  16.906  1.00  0.00     0.031 A 
ATOM     81  C   UNL     1       1.484  -0.768  16.289  1.00  0.00     0.131 A 
ATOM     82  C   UNL     1      -0.839  -0.051  17.608  1.00  0.00     0.055 A 
ATOM     83  C   UNL     1       1.461   0.397  17.058  1.00  0.00     0.041 A 
ATOM     84  F   UNL     1       2.610  -1.054  15.618  1.00  0.00    -0.206 F 
ATOM     85  C   UNL     1       0.288   0.771  17.707  1.00  0.00     0.022 A 
BRANCH  82  86
ATOM     86  S   UNL     1      -2.402   0.569  18.289  1.00  0.00     0.124 S 
ATOM     87  O   UNL     1      -2.086   0.701  19.708  1.00  0.00    -0.237 OA
ATOM     88  O   UNL     1      -2.566   1.823  17.559  1.00  0.00    -0.237 OA
ATOM     89  O   UNL     1      -3.363  -0.476  17.951  1.00  0.00    -0.744 OA
ENDBRANCH  82  86
ENDBRANCH  55  79
BRANCH  67  90
ATOM     90  C   UNL     1       4.213  -7.497  15.668  1.00  0.00     0.023 A 
ATOM     91  C   UNL     1       5.459  -7.753  15.062  1.00  0.00     0.031 A 
ATOM     92  C   UNL     1       4.013  -7.950  16.983  1.00  0.00     0.131 A 
ATOM     93  C   UNL     1       6.436  -8.484  15.752  1.00  0.00     0.055 A 
ATOM     94  C   UNL     1       5.011  -8.625  17.688  1.00  0.00     0.041 A 
ATOM     95  F   UNL     1       2.840  -7.746  17.604  1.00  0.00    -0.206 F 
ATOM     96  C   UNL     1       6.223  -8.910  17.066  1.00  0.00     0.022 A 
BRANCH  93  97
ATOM     97  S   UNL     1       7.973  -8.999  14.936  1.00  0.00     0.124 S 
ATOM     98  O   UNL     1       8.986  -8.355  15.768  1.00  0.00    -0.237 OA
ATOM     99  O   UNL     1       7.907 -10.454  15.049  1.00  0.00    -0.237 OA
ATOM    100  O   UNL     1       7.849  -8.467  13.583  1.00  0.00    -0.744 OA
ENDBRANCH  93  97
ENDBRANCH  67  90
ENDBRANCH  41  42
ENDBRANCH  34  36
ENDBRANCH  33  34
ENDBRANCH  32  33
ENDBRANCH   1  32
TORSDOF 20
