REMARK SMILES COc1cc2c(CC(=O)OCCOCCOC(=O)c3ccc(-c4c5nc(c(-c6cc(S(=O)(=O)[O-])ccc6F)c6ccc([nH]6)c(-c6cc(S(=O)(=O)[O-])ccc6F)c6nc(c(-c7cc(S(=O)(=O)[O-])ccc7F)c7ccc4[nH]7)C=C6)C=C5)cc3)c(C)n(C(=O)c3ccc(Cl)cc3)c2cc1Cl
REMARK SMILES IDX 13 1 12 2 11 3 10 4 8 5 9 6 7 7 6 8 3 9 4 10 96 11 5 12
REMARK SMILES IDX 95 13 97 14 94 15 82 16 84 17 83 18 2 19 1 20 85 21 86 22
REMARK SMILES IDX 87 23 88 24 93 25 89 26 92 27 90 28 91 29 14 30 15 31 16 32
REMARK SMILES IDX 17 33 18 34 19 35 20 36 81 37 21 38 80 39 22 40 23 41 24 42
REMARK SMILES IDX 74 43 25 44 79 45 73 46 75 47 26 48 78 49 72 50 71 51 27 53
REMARK SMILES IDX 59 54 39 55 58 56 40 57 43 58 57 59 76 60 41 61 42 62 56 64
REMARK SMILES IDX 77 65 44 66 28 67 29 68 37 69 30 70 36 71 38 72 35 73 31 74
REMARK SMILES IDX 32 75 33 76 34 77 60 78 61 79 69 80 62 81 68 82 70 83 67 84
REMARK SMILES IDX 63 85 64 86 65 87 66 88 45 89 46 90 54 91 47 92 53 93 55 94
REMARK SMILES IDX 52 95 48 96 49 97 50 98 51 99
REMARK H PARENT 75 52 43 63
REMARK Flexibility Score: inf
ROOT
ATOM      1  O   UNL     1      -2.664   4.032   2.968  1.00  0.00    -0.374 OA
ENDROOT
BRANCH   1   2
ATOM      2  C   UNL     1      -2.567   4.934   4.063  1.00  0.00     0.202 C 
BRANCH   2   3
ATOM      3  C   UNL     1      -2.636   4.410   5.508  1.00  0.00     0.261 C 
BRANCH   3   4
ATOM      4  O   UNL     1      -1.907   3.189   5.749  1.00  0.00    -0.463 OA
BRANCH   4   5
ATOM      5  C   UNL     1      -2.691   2.096   5.932  1.00  0.00     0.310 C 
ATOM      6  O   UNL     1      -3.921   2.124   5.950  1.00  0.00    -0.252 OA
BRANCH   5   7
ATOM      7  C   UNL     1      -1.973   0.777   6.106  1.00  0.00     0.160 C 
BRANCH   7   8
ATOM      8  C   UNL     1      -0.480   0.666   5.905  1.00  0.00    -0.008 A 
ATOM      9  C   UNL     1       0.673   0.088   2.275  1.00  0.00     0.138 A 
ATOM     10  C   UNL     1      -0.234   0.193   3.348  1.00  0.00     0.058 A 
ATOM     11  C   UNL     1       2.025  -0.018   2.568  1.00  0.00     0.085 A 
ATOM     12  C   UNL     1       0.197   0.374   4.685  1.00  0.00     0.008 A 
ATOM     13  C   UNL     1       2.455  -0.013   3.904  1.00  0.00     0.051 A 
ATOM     14  Cl  UNL     1       3.306  -0.076   1.407  1.00  0.00    -0.080 Cl
ATOM     15  C   UNL     1       1.560   0.262   4.963  1.00  0.00     0.058 A 
ATOM     16  C   UNL     1       0.485   0.692   6.909  1.00  0.00     0.028 A 
ATOM     17  N   UNL     1       1.750   0.439   6.348  1.00  0.00    -0.280 N 
ATOM     18  C   UNL     1       0.212   0.937   8.363  1.00  0.00     0.065 C 
BRANCH   9  19
ATOM     19  O   UNL     1       0.052   0.253   1.068  1.00  0.00    -0.495 OA
ATOM     20  C   UNL     1       0.635  -0.283  -0.107  1.00  0.00     0.278 C 
ENDBRANCH   9  19
BRANCH  17  21
ATOM     21  C   UNL     1       2.995   0.332   7.044  1.00  0.00     0.262 C 
ATOM     22  O   UNL     1       3.005   0.310   8.273  1.00  0.00    -0.268 OA
BRANCH  21  23
ATOM     23  C   UNL     1       4.312   0.150   6.408  1.00  0.00     0.040 A 
ATOM     24  C   UNL     1       4.900   1.177   5.660  1.00  0.00     0.015 A 
ATOM     25  C   UNL     1       4.928  -1.104   6.512  1.00  0.00     0.015 A 
ATOM     26  C   UNL     1       6.062   0.909   4.929  1.00  0.00     0.021 A 
ATOM     27  C   UNL     1       6.095  -1.359   5.791  1.00  0.00     0.021 A 
ATOM     28  C   UNL     1       6.643  -0.360   4.984  1.00  0.00     0.041 A 
ATOM     29  Cl  UNL     1       8.027  -0.711   4.024  1.00  0.00    -0.084 Cl
ENDBRANCH  21  23
ENDBRANCH  17  21
ENDBRANCH   7   8
ENDBRANCH   5   7
ENDBRANCH   4   5
ENDBRANCH   3   4
ENDBRANCH   2   3
ENDBRANCH   1   2
BRANCH   1  30
ATOM     30  C   UNL     1      -1.617   3.081   2.807  1.00  0.00     0.202 C 
BRANCH  30  31
ATOM     31  C   UNL     1      -0.169   3.559   2.588  1.00  0.00     0.261 C 
BRANCH  31  32
ATOM     32  O   UNL     1       0.310   4.381   3.650  1.00  0.00    -0.460 OA
BRANCH  32  33
ATOM     33  C   UNL     1       1.089   5.422   3.235  1.00  0.00     0.338 C 
ATOM     34  O   UNL     1       1.753   5.500   2.230  1.00  0.00    -0.246 OA
BRANCH  33  35
ATOM     35  C   UNL     1       0.612   6.550   4.053  1.00  0.00     0.060 A 
ATOM     36  C   UNL     1       0.593   6.434   5.446  1.00  0.00     0.016 A 
ATOM     37  C   UNL     1      -0.159   7.506   3.376  1.00  0.00     0.016 A 
ATOM     38  C   UNL     1      -0.286   7.231   6.161  1.00  0.00     0.010 A 
ATOM     39  C   UNL     1      -1.069   8.268   4.094  1.00  0.00     0.010 A 
ATOM     40  C   UNL     1      -1.154   8.102   5.479  1.00  0.00    -0.014 A 
BRANCH  40  41
ATOM     41  C   UNL     1      -1.938   9.035   6.284  1.00  0.00     0.031 A 
ATOM     42  C   UNL     1      -1.063  10.087   6.873  1.00  0.00     0.074 A 
ATOM     43  C   UNL     1      -3.283   9.077   6.372  1.00  0.00     0.049 A 
ATOM     44  N   UNL     1      -0.775  10.282   8.118  1.00  0.00    -0.248 NA
ATOM     45  C   UNL     1      -0.232  10.865   5.936  1.00  0.00     0.031 C 
ATOM     46  C   UNL     1      -4.266   8.344   5.577  1.00  0.00     0.029 A 
ATOM     47  N   UNL     1      -4.067   9.900   7.125  1.00  0.00    -0.354 N 
ATOM     48  C   UNL     1       0.127  11.346   8.126  1.00  0.00     0.074 A 
ATOM     49  C   UNL     1       0.591  11.489   6.774  1.00  0.00     0.031 C 
ATOM     50  C   UNL     1      -5.475   8.943   5.699  1.00  0.00     0.029 A 
ATOM     51  C   UNL     1      -5.374  10.024   6.666  1.00  0.00     0.049 A 
ATOM     52  H   UNL     1      -3.737  10.366   7.927  1.00  0.00     0.167 HD
ATOM     53  C   UNL     1       0.243  12.188   9.191  1.00  0.00     0.034 A 
ATOM     54  C   UNL     1      -6.247  11.027   6.961  1.00  0.00     0.034 A 
ATOM     55  C   UNL     1      -0.370  11.625  10.362  1.00  0.00     0.049 A 
ATOM     56  C   UNL     1      -5.736  11.749   8.153  1.00  0.00     0.074 A 
ATOM     57  C   UNL     1      -0.156  10.482  11.106  1.00  0.00     0.029 A 
ATOM     58  N   UNL     1      -1.629  12.065  10.694  1.00  0.00    -0.354 N 
ATOM     59  N   UNL     1      -5.712  11.252   9.356  1.00  0.00    -0.248 NA
ATOM     60  C   UNL     1      -4.817  12.853   7.909  1.00  0.00     0.031 C 
ATOM     61  C   UNL     1      -1.457  10.029  11.461  1.00  0.00     0.029 A 
ATOM     62  C   UNL     1      -2.383  10.961  10.990  1.00  0.00     0.049 A 
ATOM     63  H   UNL     1      -1.932  13.002  10.715  1.00  0.00     0.167 HD
ATOM     64  C   UNL     1      -4.479  11.638   9.857  1.00  0.00     0.074 A 
ATOM     65  C   UNL     1      -4.004  12.687   8.954  1.00  0.00     0.031 C 
ATOM     66  C   UNL     1      -3.811  10.877  10.769  1.00  0.00     0.034 A 
BRANCH  53  67
ATOM     67  C   UNL     1       0.584  13.656   9.064  1.00  0.00     0.023 A 
ATOM     68  C   UNL     1       0.657  14.330   7.831  1.00  0.00     0.031 A 
ATOM     69  C   UNL     1       0.628  14.477  10.208  1.00  0.00     0.131 A 
ATOM     70  C   UNL     1       0.777  15.722   7.750  1.00  0.00     0.055 A 
ATOM     71  C   UNL     1       0.674  15.875  10.130  1.00  0.00     0.041 A 
ATOM     72  F   UNL     1       0.563  13.950  11.441  1.00  0.00    -0.206 F 
ATOM     73  C   UNL     1       0.748  16.506   8.895  1.00  0.00     0.022 A 
BRANCH  70  74
ATOM     74  S   UNL     1       0.958  16.529   6.135  1.00  0.00     0.124 S 
ATOM     75  O   UNL     1      -0.205  17.407   6.104  1.00  0.00    -0.237 OA
ATOM     76  O   UNL     1       2.251  17.192   6.282  1.00  0.00    -0.237 OA
ATOM     77  O   UNL     1       0.941  15.415   5.191  1.00  0.00    -0.744 OA
ENDBRANCH  70  74
ENDBRANCH  53  67
BRANCH  54  78
ATOM     78  C   UNL     1      -7.138  11.726   5.994  1.00  0.00     0.023 A 
ATOM     79  C   UNL     1      -6.799  11.740   4.630  1.00  0.00     0.031 A 
ATOM     80  C   UNL     1      -8.092  12.666   6.427  1.00  0.00     0.131 A 
ATOM     81  C   UNL     1      -7.333  12.707   3.769  1.00  0.00     0.055 A 
ATOM     82  C   UNL     1      -8.647  13.617   5.558  1.00  0.00     0.041 A 
ATOM     83  F   UNL     1      -8.440  12.738   7.721  1.00  0.00    -0.206 F 
ATOM     84  C   UNL     1      -8.252  13.653   4.224  1.00  0.00     0.022 A 
BRANCH  81  85
ATOM     85  S   UNL     1      -6.734  12.815   2.061  1.00  0.00     0.124 S 
ATOM     86  O   UNL     1      -7.971  13.004   1.307  1.00  0.00    -0.237 OA
ATOM     87  O   UNL     1      -5.853  13.974   2.131  1.00  0.00    -0.237 OA
ATOM     88  O   UNL     1      -6.075  11.528   1.851  1.00  0.00    -0.744 OA
ENDBRANCH  81  85
ENDBRANCH  54  78
BRANCH  66  89
ATOM     89  C   UNL     1      -4.512   9.715  11.431  1.00  0.00     0.023 A 
ATOM     90  C   UNL     1      -4.339   9.601  12.821  1.00  0.00     0.031 A 
ATOM     91  C   UNL     1      -5.096   8.627  10.755  1.00  0.00     0.131 A 
ATOM     92  C   UNL     1      -4.674   8.418  13.483  1.00  0.00     0.055 A 
ATOM     93  C   UNL     1      -5.507   7.475  11.436  1.00  0.00     0.041 A 
ATOM     94  F   UNL     1      -5.197   8.599   9.420  1.00  0.00    -0.206 F 
ATOM     95  C   UNL     1      -5.274   7.356  12.803  1.00  0.00     0.022 A 
BRANCH  92  96
ATOM     96  S   UNL     1      -4.149   8.170  15.198  1.00  0.00     0.124 S 
ATOM     97  O   UNL     1      -5.423   8.169  15.911  1.00  0.00    -0.237 OA
ATOM     98  O   UNL     1      -3.464   6.880  15.133  1.00  0.00    -0.237 OA
ATOM     99  O   UNL     1      -3.280   9.312  15.471  1.00  0.00    -0.744 OA
ENDBRANCH  92  96
ENDBRANCH  66  89
ENDBRANCH  40  41
ENDBRANCH  33  35
ENDBRANCH  32  33
ENDBRANCH  31  32
ENDBRANCH  30  31
ENDBRANCH   1  30
TORSDOF 21
