REMARK SMILES CCC[NH+]1CCN(c2cc(C(=O)OCCOCCOC(=O)c3ccc(-c4c5nc(c(-c6cc(S(=O)(=O)[O-])ccc6F)c6ccc([nH]6)c(-c6cc(S(=O)(=O)[O-])ccc6F)c6nc(c(-c7cc(S(=O)(=O)[O-])ccc7F)c7ccc4[nH]7)C=C6)C=C5)cc3)c3cc(NC(=O)c4ccc(F)cc4)ccc3n2)CC1
REMARK SMILES IDX 16 1 15 2 14 3 13 4 11 5 12 6 10 7 8 8 9 9 101 10 100 11
REMARK SMILES IDX 85 12 99 13 86 14 98 15 87 16 7 17 4 18 5 19 103 20 6 22
REMARK SMILES IDX 102 23 3 24 2 25 1 26 88 27 89 28 90 30 91 31 92 32 97 33
REMARK SMILES IDX 93 34 96 35 94 36 95 37 17 38 18 39 19 40 20 41 21 42 22 43
REMARK SMILES IDX 23 44 84 45 24 46 83 47 25 48 26 49 27 50 77 51 28 52 82 53
REMARK SMILES IDX 76 54 78 55 29 56 81 57 75 58 74 59 30 61 62 62 42 63 61 64
REMARK SMILES IDX 43 65 46 66 60 67 79 68 44 69 45 70 59 72 80 73 47 74 31 75
REMARK SMILES IDX 32 76 40 77 33 78 39 79 41 80 38 81 34 82 35 83 36 84 37 85
REMARK SMILES IDX 63 86 64 87 72 88 65 89 71 90 73 91 70 92 66 93 67 94 68 95
REMARK SMILES IDX 69 96 48 97 49 98 57 99 50 100 56 101 58 102 55 103 51 104
REMARK SMILES IDX 52 105 53 106 54 107
REMARK H PARENT 4 21 88 29 78 60 46 71
REMARK Flexibility Score: inf
ROOT
ATOM      1  O   UNL     1      -3.921  -1.205   9.240  1.00  0.00    -0.374 OA
ENDROOT
BRANCH   1   2
ATOM      2  C   UNL     1      -3.966  -0.416  10.431  1.00  0.00     0.202 C 
BRANCH   2   3
ATOM      3  C   UNL     1      -2.901   0.675  10.542  1.00  0.00     0.261 C 
BRANCH   3   4
ATOM      4  O   UNL     1      -3.066   1.674   9.520  1.00  0.00    -0.460 OA
BRANCH   4   5
ATOM      5  C   UNL     1      -1.908   2.260   9.137  1.00  0.00     0.339 C 
ATOM      6  O   UNL     1      -0.819   2.148   9.674  1.00  0.00    -0.246 OA
BRANCH   5   7
ATOM      7  C   UNL     1      -2.064   2.932   7.833  1.00  0.00     0.073 A 
ATOM      8  C   UNL     1      -1.222   3.120   5.610  1.00  0.00     0.130 A 
ATOM      9  C   UNL     1      -1.262   2.438   6.808  1.00  0.00     0.063 A 
ATOM     10  N   UNL     1      -1.874   4.285   5.439  1.00  0.00    -0.231 NA
ATOM     11  C   UNL     1      -2.674   4.746   6.413  1.00  0.00     0.074 A 
ATOM     12  C   UNL     1      -2.856   4.077   7.634  1.00  0.00     0.017 A 
ATOM     13  C   UNL     1      -3.360   5.930   6.196  1.00  0.00     0.031 A 
ATOM     14  C   UNL     1      -3.792   4.582   8.565  1.00  0.00     0.037 A 
ATOM     15  C   UNL     1      -4.245   6.451   7.144  1.00  0.00     0.028 A 
ATOM     16  C   UNL     1      -4.473   5.776   8.341  1.00  0.00     0.042 A 
BRANCH   8  17
ATOM     17  N   UNL     1      -0.576   2.595   4.527  1.00  0.00    -0.345 N 
ATOM     18  N   UNL     1       0.395   1.857   1.873  1.00  0.00    -0.332 N 
ATOM     19  C   UNL     1      -0.970   1.524   2.352  1.00  0.00     0.284 C 
ATOM     20  C   UNL     1       0.812   3.117   2.543  1.00  0.00     0.284 C 
ATOM     21  H   UNL     1       0.374   1.978   0.861  1.00  0.00     0.348 HD
ATOM     22  C   UNL     1      -1.112   1.405   3.885  1.00  0.00     0.179 C 
ATOM     23  C   UNL     1       0.699   3.142   4.088  1.00  0.00     0.179 C 
BRANCH  18  24
ATOM     24  C   UNL     1       1.363   0.776   2.111  1.00  0.00     0.262 C 
BRANCH  24  25
ATOM     25  C   UNL     1       1.107  -0.477   1.259  1.00  0.00     0.058 C 
ATOM     26  C   UNL     1       1.205  -0.210  -0.237  1.00  0.00     0.010 C 
ENDBRANCH  24  25
ENDBRANCH  18  24
ENDBRANCH   8  17
BRANCH  16  27
ATOM     27  N   UNL     1      -5.421   6.330   9.213  1.00  0.00    -0.322 N 
ATOM     28  C   UNL     1      -5.834   6.001  10.481  1.00  0.00     0.255 C 
ATOM     29  H   UNL     1      -5.884   7.115   8.841  1.00  0.00     0.170 HD
ATOM     30  O   UNL     1      -6.876   6.487  10.914  1.00  0.00    -0.269 OA
BRANCH  28  31
ATOM     31  C   UNL     1      -5.062   5.100  11.357  1.00  0.00     0.040 A 
ATOM     32  C   UNL     1      -5.723   3.996  11.901  1.00  0.00     0.017 A 
ATOM     33  C   UNL     1      -3.721   5.346  11.675  1.00  0.00     0.017 A 
ATOM     34  C   UNL     1      -5.048   3.125  12.754  1.00  0.00     0.040 A 
ATOM     35  C   UNL     1      -3.042   4.461  12.517  1.00  0.00     0.040 A 
ATOM     36  C   UNL     1      -3.714   3.367  13.056  1.00  0.00     0.123 A 
ATOM     37  F   UNL     1      -3.060   2.518  13.859  1.00  0.00    -0.207 F 
ENDBRANCH  28  31
ENDBRANCH  16  27
ENDBRANCH   5   7
ENDBRANCH   4   5
ENDBRANCH   3   4
ENDBRANCH   2   3
ENDBRANCH   1   2
BRANCH   1  38
ATOM     38  C   UNL     1      -4.236  -0.560   8.010  1.00  0.00     0.202 C 
BRANCH  38  39
ATOM     39  C   UNL     1      -5.710  -0.224   7.736  1.00  0.00     0.261 C 
BRANCH  39  40
ATOM     40  O   UNL     1      -6.355   0.592   8.730  1.00  0.00    -0.460 OA
BRANCH  40  41
ATOM     41  C   UNL     1      -7.212  -0.090   9.539  1.00  0.00     0.338 C 
ATOM     42  O   UNL     1      -7.398  -1.295   9.542  1.00  0.00    -0.246 OA
BRANCH  41  43
ATOM     43  C   UNL     1      -7.847   0.810  10.527  1.00  0.00     0.060 A 
ATOM     44  C   UNL     1      -7.874   0.400  11.866  1.00  0.00     0.016 A 
ATOM     45  C   UNL     1      -8.508   1.978  10.140  1.00  0.00     0.016 A 
ATOM     46  C   UNL     1      -8.584   1.141  12.817  1.00  0.00     0.010 A 
ATOM     47  C   UNL     1      -9.228   2.715  11.094  1.00  0.00     0.010 A 
ATOM     48  C   UNL     1      -9.288   2.291  12.435  1.00  0.00    -0.014 A 
BRANCH  48  49
ATOM     49  C   UNL     1     -10.181   2.974  13.412  1.00  0.00     0.031 A 
ATOM     50  C   UNL     1     -11.652   2.662  13.401  1.00  0.00     0.074 A 
ATOM     51  C   UNL     1      -9.697   3.852  14.312  1.00  0.00     0.049 A 
ATOM     52  N   UNL     1     -12.599   3.111  14.182  1.00  0.00    -0.248 NA
ATOM     53  C   UNL     1     -12.111   1.711  12.378  1.00  0.00     0.031 C 
ATOM     54  C   UNL     1      -8.294   4.219  14.451  1.00  0.00     0.029 A 
ATOM     55  N   UNL     1     -10.328   4.608  15.269  1.00  0.00    -0.354 N 
ATOM     56  C   UNL     1     -13.765   2.482  13.764  1.00  0.00     0.074 A 
ATOM     57  C   UNL     1     -13.412   1.661  12.623  1.00  0.00     0.031 C 
ATOM     58  C   UNL     1      -8.168   5.165  15.395  1.00  0.00     0.029 A 
ATOM     59  C   UNL     1      -9.486   5.467  15.940  1.00  0.00     0.049 A 
ATOM     60  H   UNL     1     -11.292   4.542  15.458  1.00  0.00     0.167 HD
ATOM     61  C   UNL     1     -15.010   2.565  14.294  1.00  0.00     0.034 A 
ATOM     62  C   UNL     1      -9.743   6.395  16.883  1.00  0.00     0.034 A 
ATOM     63  C   UNL     1     -15.358   3.414  15.408  1.00  0.00     0.049 A 
ATOM     64  C   UNL     1     -11.152   6.535  17.398  1.00  0.00     0.074 A 
ATOM     65  C   UNL     1     -16.584   3.552  16.037  1.00  0.00     0.029 A 
ATOM     66  N   UNL     1     -14.488   4.291  16.044  1.00  0.00    -0.354 N 
ATOM     67  N   UNL     1     -12.232   5.880  17.038  1.00  0.00    -0.248 NA
ATOM     68  C   UNL     1     -11.371   7.518  18.467  1.00  0.00     0.031 C 
ATOM     69  C   UNL     1     -16.473   4.561  17.001  1.00  0.00     0.029 A 
ATOM     70  C   UNL     1     -15.160   5.001  17.029  1.00  0.00     0.049 A 
ATOM     71  H   UNL     1     -13.534   4.394  15.827  1.00  0.00     0.167 HD
ATOM     72  C   UNL     1     -13.250   6.347  17.864  1.00  0.00     0.074 A 
ATOM     73  C   UNL     1     -12.651   7.326  18.748  1.00  0.00     0.031 C 
ATOM     74  C   UNL     1     -14.560   5.991  17.894  1.00  0.00     0.034 A 
BRANCH  61  75
ATOM     75  C   UNL     1     -16.090   1.741  13.637  1.00  0.00     0.023 A 
ATOM     76  C   UNL     1     -16.051   0.335  13.648  1.00  0.00     0.031 A 
ATOM     77  C   UNL     1     -17.152   2.367  12.963  1.00  0.00     0.131 A 
ATOM     78  C   UNL     1     -17.015  -0.397  12.938  1.00  0.00     0.055 A 
ATOM     79  C   UNL     1     -18.149   1.631  12.320  1.00  0.00     0.041 A 
ATOM     80  F   UNL     1     -17.228   3.705  12.901  1.00  0.00    -0.206 F 
ATOM     81  C   UNL     1     -18.077   0.241  12.293  1.00  0.00     0.022 A 
BRANCH  78  82
ATOM     82  S   UNL     1     -16.785  -2.187  12.755  1.00  0.00     0.124 S 
ATOM     83  O   UNL     1     -15.491  -2.252  12.081  1.00  0.00    -0.237 OA
ATOM     84  O   UNL     1     -16.810  -2.652  14.137  1.00  0.00    -0.237 OA
ATOM     85  O   UNL     1     -17.926  -2.597  11.939  1.00  0.00    -0.744 OA
ENDBRANCH  78  82
ENDBRANCH  61  75
BRANCH  62  86
ATOM     86  C   UNL     1      -8.656   7.277  17.398  1.00  0.00     0.023 A 
ATOM     87  C   UNL     1      -8.239   7.219  18.737  1.00  0.00     0.031 A 
ATOM     88  C   UNL     1      -8.061   8.240  16.563  1.00  0.00     0.131 A 
ATOM     89  C   UNL     1      -7.295   8.142  19.216  1.00  0.00     0.055 A 
ATOM     90  C   UNL     1      -7.086   9.122  17.031  1.00  0.00     0.041 A 
ATOM     91  F   UNL     1      -8.424   8.338  15.274  1.00  0.00    -0.206 F 
ATOM     92  C   UNL     1      -6.708   9.086  18.370  1.00  0.00     0.022 A 
BRANCH  89  93
ATOM     93  S   UNL     1      -6.909   8.150  20.989  1.00  0.00     0.124 S 
ATOM     94  O   UNL     1      -8.226   8.357  21.580  1.00  0.00    -0.237 OA
ATOM     95  O   UNL     1      -6.322   6.828  21.177  1.00  0.00    -0.237 OA
ATOM     96  O   UNL     1      -5.979   9.268  21.130  1.00  0.00    -0.744 OA
ENDBRANCH  89  93
ENDBRANCH  62  86
BRANCH  74  97
ATOM     97  C   UNL     1     -15.419   6.644  18.950  1.00  0.00     0.023 A 
ATOM     98  C   UNL     1     -15.690   8.024  18.934  1.00  0.00     0.031 A 
ATOM     99  C   UNL     1     -15.946   5.880  20.006  1.00  0.00     0.131 A 
ATOM    100  C   UNL     1     -16.410   8.607  19.987  1.00  0.00     0.055 A 
ATOM    101  C   UNL     1     -16.717   6.455  21.017  1.00  0.00     0.041 A 
ATOM    102  F   UNL     1     -15.717   4.559  20.075  1.00  0.00    -0.206 F 
ATOM    103  C   UNL     1     -16.939   7.829  21.020  1.00  0.00     0.022 A 
BRANCH 100 104
ATOM    104  S   UNL     1     -16.557  10.415  20.046  1.00  0.00     0.124 S 
ATOM    105  O   UNL     1     -15.159  10.834  20.055  1.00  0.00    -0.237 OA
ATOM    106  O   UNL     1     -17.303  10.707  18.826  1.00  0.00    -0.237 OA
ATOM    107  O   UNL     1     -17.285  10.659  21.290  1.00  0.00    -0.744 OA
ENDBRANCH 100 104
ENDBRANCH  74  97
ENDBRANCH  48  49
ENDBRANCH  41  43
ENDBRANCH  40  41
ENDBRANCH  39  40
ENDBRANCH  38  39
ENDBRANCH   1  38
TORSDOF 22
