REMARK SMILES CCC(CC)(C[C@H](O)COC)C(=O)OCCOCCOC(=O)c1ccc(-c2c3nc(c(-c4cc(S(=O)(=O)[O-])ccc4F)c4ccc([nH]4)c(-c4cc(S(=O)(=O)[O-])ccc4F)c4nc(c(-c5cc(S(=O)(=O)[O-])ccc5F)c5ccc2[nH]5)C=C4)C=C3)cc1
REMARK SMILES IDX 16 1 15 2 14 3 12 4 13 5 3 6 2 7 1 8 4 9 5 10 6 11 7 12 9 13
REMARK SMILES IDX 10 14 11 15 8 16 17 18 18 19 19 20 20 21 21 22 22 23 23 24
REMARK SMILES IDX 24 25 85 26 25 27 84 28 26 29 27 30 28 31 78 32 29 33 83 34
REMARK SMILES IDX 77 35 79 36 30 37 82 38 76 39 75 40 31 42 63 43 43 44 62 45
REMARK SMILES IDX 44 46 47 47 61 48 80 49 45 50 46 51 60 53 81 54 48 55 32 56
REMARK SMILES IDX 33 57 41 58 34 59 40 60 42 61 39 62 35 63 36 64 37 65 38 66
REMARK SMILES IDX 64 67 65 68 73 69 66 70 72 71 74 72 71 73 67 74 68 75 69 76
REMARK SMILES IDX 70 77 49 78 50 79 58 80 51 81 57 82 59 83 56 84 52 85 53 86
REMARK SMILES IDX 54 87 55 88
REMARK H PARENT 8 17 79 41 47 52
REMARK Flexibility Score: inf
ROOT
ATOM      1  C   UNL     1       1.442  -0.969   0.557  1.00  0.00     0.202 C 
ENDROOT
BRANCH   1   2
ATOM      2  C   UNL     1       2.843  -0.352   0.672  1.00  0.00     0.261 C 
BRANCH   2   3
ATOM      3  O   UNL     1       2.926   0.873   1.433  1.00  0.00    -0.463 OA
BRANCH   3   4
ATOM      4  C   UNL     1       2.971   2.004   0.674  1.00  0.00     0.312 C 
ATOM      5  O   UNL     1       2.755   2.012  -0.532  1.00  0.00    -0.252 OA
BRANCH   4   6
ATOM      6  C   UNL     1       3.389   3.254   1.470  1.00  0.00     0.070 C 
BRANCH   6   7
ATOM      7  C   UNL     1       3.087   4.526   0.607  1.00  0.00     0.015 C 
ATOM      8  C   UNL     1       3.917   4.742  -0.659  1.00  0.00     0.005 C 
ENDBRANCH   6   7
BRANCH   6   9
ATOM      9  C   UNL     1       4.923   3.098   1.729  1.00  0.00     0.015 C 
ATOM     10  C   UNL     1       5.608   4.291   2.391  1.00  0.00     0.005 C 
ENDBRANCH   6   9
BRANCH   6  11
ATOM     11  C   UNL     1       2.673   3.368   2.863  1.00  0.00     0.053 C 
BRANCH  11  12
ATOM     12  C   UNL     1       1.135   3.436   2.981  1.00  0.00     0.141 C 
BRANCH  12  13
ATOM     13  C   UNL     1       0.719   4.161   4.283  1.00  0.00     0.191 C 
BRANCH  13  14
ATOM     14  O   UNL     1      -0.664   3.987   4.621  1.00  0.00    -0.382 OA
ATOM     15  C   UNL     1      -1.565   4.613   3.715  1.00  0.00     0.195 C 
ENDBRANCH  13  14
ENDBRANCH  12  13
BRANCH  12  16
ATOM     16  O   UNL     1       0.550   4.133   1.889  1.00  0.00    -0.391 OA
ATOM     17  H   UNL     1       0.865   5.050   1.884  1.00  0.00     0.211 HD
ENDBRANCH  12  16
ENDBRANCH  11  12
ENDBRANCH   6  11
ENDBRANCH   4   6
ENDBRANCH   3   4
ENDBRANCH   2   3
ENDBRANCH   1   2
BRANCH   1  18
ATOM     18  O   UNL     1       0.410  -0.188  -0.041  1.00  0.00    -0.374 OA
BRANCH  18  19
ATOM     19  C   UNL     1      -0.155   0.845   0.759  1.00  0.00     0.202 C 
BRANCH  19  20
ATOM     20  C   UNL     1      -1.110   0.421   1.879  1.00  0.00     0.261 C 
BRANCH  20  21
ATOM     21  O   UNL     1      -0.411  -0.301   2.909  1.00  0.00    -0.460 OA
BRANCH  21  22
ATOM     22  C   UNL     1      -0.870  -1.559   3.108  1.00  0.00     0.338 C 
ATOM     23  O   UNL     1      -1.881  -2.054   2.625  1.00  0.00    -0.246 OA
BRANCH  22  24
ATOM     24  C   UNL     1       0.137  -2.365   3.821  1.00  0.00     0.060 A 
ATOM     25  C   UNL     1       0.518  -3.571   3.219  1.00  0.00     0.016 A 
ATOM     26  C   UNL     1       0.636  -2.006   5.075  1.00  0.00     0.016 A 
ATOM     27  C   UNL     1       1.333  -4.465   3.904  1.00  0.00     0.010 A 
ATOM     28  C   UNL     1       1.450  -2.912   5.767  1.00  0.00     0.010 A 
ATOM     29  C   UNL     1       1.753  -4.167   5.205  1.00  0.00    -0.014 A 
BRANCH  29  30
ATOM     30  C   UNL     1       2.299  -5.265   6.041  1.00  0.00     0.031 A 
ATOM     31  C   UNL     1       1.363  -5.971   6.988  1.00  0.00     0.074 A 
ATOM     32  C   UNL     1       3.570  -5.681   5.903  1.00  0.00     0.049 A 
ATOM     33  N   UNL     1       1.601  -6.953   7.818  1.00  0.00    -0.248 NA
ATOM     34  C   UNL     1      -0.031  -5.501   6.995  1.00  0.00     0.031 C 
ATOM     35  C   UNL     1       4.544  -5.119   4.969  1.00  0.00     0.029 A 
ATOM     36  N   UNL     1       4.256  -6.680   6.546  1.00  0.00    -0.354 N 
ATOM     37  C   UNL     1       0.389  -7.216   8.449  1.00  0.00     0.074 A 
ATOM     38  C   UNL     1      -0.569  -6.262   7.934  1.00  0.00     0.031 C 
ATOM     39  C   UNL     1       5.707  -5.779   5.106  1.00  0.00     0.029 A 
ATOM     40  C   UNL     1       5.571  -6.783   6.160  1.00  0.00     0.049 A 
ATOM     41  H   UNL     1       3.845  -7.268   7.221  1.00  0.00     0.167 HD
ATOM     42  C   UNL     1       0.099  -8.173   9.366  1.00  0.00     0.034 A 
ATOM     43  C   UNL     1       6.556  -7.580   6.623  1.00  0.00     0.034 A 
ATOM     44  C   UNL     1       1.071  -9.109   9.875  1.00  0.00     0.049 A 
ATOM     45  C   UNL     1       6.237  -8.575   7.713  1.00  0.00     0.074 A 
ATOM     46  C   UNL     1       0.894 -10.117  10.806  1.00  0.00     0.029 A 
ATOM     47  N   UNL     1       2.410  -9.143   9.503  1.00  0.00    -0.354 N 
ATOM     48  N   UNL     1       5.090  -8.808   8.310  1.00  0.00    -0.248 NA
ATOM     49  C   UNL     1       7.342  -9.420   8.184  1.00  0.00     0.031 C 
ATOM     50  C   UNL     1       2.137 -10.712  11.049  1.00  0.00     0.029 A 
ATOM     51  C   UNL     1       3.076 -10.131  10.211  1.00  0.00     0.049 A 
ATOM     52  H   UNL     1       2.825  -8.552   8.835  1.00  0.00     0.167 HD
ATOM     53  C   UNL     1       5.331  -9.848   9.205  1.00  0.00     0.074 A 
ATOM     54  C   UNL     1       6.729 -10.202   9.061  1.00  0.00     0.031 C 
ATOM     55  C   UNL     1       4.475 -10.463  10.062  1.00  0.00     0.034 A 
BRANCH  42  56
ATOM     56  C   UNL     1      -1.308  -8.199   9.914  1.00  0.00     0.023 A 
ATOM     57  C   UNL     1      -2.421  -8.467   9.097  1.00  0.00     0.031 A 
ATOM     58  C   UNL     1      -1.545  -7.900  11.268  1.00  0.00     0.131 A 
ATOM     59  C   UNL     1      -3.719  -8.352   9.620  1.00  0.00     0.055 A 
ATOM     60  C   UNL     1      -2.835  -7.868  11.801  1.00  0.00     0.041 A 
ATOM     61  F   UNL     1      -0.525  -7.610  12.092  1.00  0.00    -0.206 F 
ATOM     62  C   UNL     1      -3.932  -8.079  10.972  1.00  0.00     0.022 A 
BRANCH  59  63
ATOM     63  S   UNL     1      -5.125  -8.409   8.474  1.00  0.00     0.124 S 
ATOM     64  O   UNL     1      -4.806  -7.314   7.562  1.00  0.00    -0.237 OA
ATOM     65  O   UNL     1      -5.025  -9.754   7.920  1.00  0.00    -0.237 OA
ATOM     66  O   UNL     1      -6.280  -8.174   9.338  1.00  0.00    -0.744 OA
ENDBRANCH  59  63
ENDBRANCH  42  56
BRANCH  43  67
ATOM     67  C   UNL     1       7.945  -7.442   6.097  1.00  0.00     0.023 A 
ATOM     68  C   UNL     1       8.573  -8.487   5.402  1.00  0.00     0.031 A 
ATOM     69  C   UNL     1       8.682  -6.265   6.324  1.00  0.00     0.131 A 
ATOM     70  C   UNL     1       9.908  -8.349   4.991  1.00  0.00     0.055 A 
ATOM     71  C   UNL     1       9.993  -6.114   5.870  1.00  0.00     0.041 A 
ATOM     72  F   UNL     1       8.130  -5.234   6.985  1.00  0.00    -0.206 F 
ATOM     73  C   UNL     1      10.617  -7.165   5.208  1.00  0.00     0.022 A 
BRANCH  70  74
ATOM     74  S   UNL     1      10.736  -9.772   4.227  1.00  0.00     0.124 S 
ATOM     75  O   UNL     1      10.629 -10.777   5.277  1.00  0.00    -0.237 OA
ATOM     76  O   UNL     1       9.918  -9.994   3.039  1.00  0.00    -0.237 OA
ATOM     77  O   UNL     1      12.087  -9.280   3.967  1.00  0.00    -0.744 OA
ENDBRANCH  70  74
ENDBRANCH  43  67
BRANCH  55  78
ATOM     78  C   UNL     1       5.020 -11.614  10.872  1.00  0.00     0.023 A 
ATOM     79  C   UNL     1       5.984 -11.425  11.877  1.00  0.00     0.031 A 
ATOM     80  C   UNL     1       4.562 -12.922  10.631  1.00  0.00     0.131 A 
ATOM     81  C   UNL     1       6.497 -12.533  12.569  1.00  0.00     0.055 A 
ATOM     82  C   UNL     1       5.033 -14.013  11.364  1.00  0.00     0.041 A 
ATOM     83  F   UNL     1       3.643 -13.161   9.682  1.00  0.00    -0.206 F 
ATOM     84  C   UNL     1       6.016 -13.823  12.331  1.00  0.00     0.022 A 
BRANCH  81  85
ATOM     85  S   UNL     1       7.869 -12.278  13.729  1.00  0.00     0.124 S 
ATOM     86  O   UNL     1       8.889 -11.688  12.868  1.00  0.00    -0.237 OA
ATOM     87  O   UNL     1       7.278 -11.385  14.720  1.00  0.00    -0.237 OA
ATOM     88  O   UNL     1       8.167 -13.626  14.210  1.00  0.00    -0.744 OA
ENDBRANCH  81  85
ENDBRANCH  55  78
ENDBRANCH  29  30
ENDBRANCH  22  24
ENDBRANCH  21  22
ENDBRANCH  20  21
ENDBRANCH  19  20
ENDBRANCH  18  19
ENDBRANCH   1  18
TORSDOF 24
