REMARK SMILES O=C(OCCOCCOC(=O)c1cc2c(c(S(=O)(=O)Nc3cc(C(F)(F)F)ccc3-n3cccn3)c1)CCC2)c1ccc(-c2c3nc(c(-c4cc(S(=O)(=O)[O-])ccc4F)c4ccc([nH]4)c(-c4cc(S(=O)(=O)[O-])ccc4F)c4nc(c(-c5cc(S(=O)(=O)[O-])ccc5F)c5ccc2[nH]5)C=C4)C=C3)cc1
REMARK SMILES IDX 7 1 6 2 5 3 4 4 3 5 2 6 1 7 40 8 41 9 102 10 42 11 101 12
REMARK SMILES IDX 43 13 44 14 45 15 95 16 46 17 100 18 94 19 96 20 47 21 99 22
REMARK SMILES IDX 93 23 92 24 48 26 80 27 60 28 79 29 61 30 64 31 78 32 97 33
REMARK SMILES IDX 62 34 63 35 77 37 98 38 65 39 49 40 50 41 58 42 51 43 57 44
REMARK SMILES IDX 59 45 56 46 52 47 53 48 54 49 55 50 81 51 82 52 90 53 83 54
REMARK SMILES IDX 89 55 91 56 88 57 84 58 85 59 86 60 87 61 66 62 67 63 75 64
REMARK SMILES IDX 68 65 74 66 76 67 73 68 69 69 70 70 71 71 72 72 8 73 9 74
REMARK SMILES IDX 10 75 11 76 12 77 13 78 36 79 14 80 16 81 15 82 39 83 37 84
REMARK SMILES IDX 38 85 17 86 18 87 19 88 20 89 21 91 22 92 30 93 23 94 29 95
REMARK SMILES IDX 28 96 31 97 32 98 35 99 33 100 34 101 24 102 25 103 26 104
REMARK SMILES IDX 27 105
REMARK H PARENT 96 25 64 36 20 90
REMARK Flexibility Score: inf
ROOT
ATOM      1  C   UNL     1       3.269   1.752  -1.047  1.00  0.00     0.202 C 
ENDROOT
BRANCH   1   2
ATOM      2  O   UNL     1       4.379   1.195  -0.329  1.00  0.00    -0.374 OA
BRANCH   2   3
ATOM      3  C   UNL     1       4.892  -0.049  -0.794  1.00  0.00     0.202 C 
BRANCH   3   4
ATOM      4  C   UNL     1       4.646  -1.286   0.063  1.00  0.00     0.261 C 
BRANCH   4   5
ATOM      5  O   UNL     1       3.275  -1.733   0.076  1.00  0.00    -0.460 OA
BRANCH   5   6
ATOM      6  C   UNL     1       2.225  -0.915   0.312  1.00  0.00     0.338 C 
ATOM      7  O   UNL     1       1.278  -0.860  -0.468  1.00  0.00    -0.246 OA
BRANCH   6   8
ATOM      8  C   UNL     1       2.114  -0.328   1.671  1.00  0.00     0.060 A 
ATOM      9  C   UNL     1       3.189  -0.182   2.545  1.00  0.00     0.016 A 
ATOM     10  C   UNL     1       0.816  -0.038   2.120  1.00  0.00     0.016 A 
ATOM     11  C   UNL     1       2.960  -0.048   3.894  1.00  0.00     0.010 A 
ATOM     12  C   UNL     1       0.583   0.168   3.468  1.00  0.00     0.010 A 
ATOM     13  C   UNL     1       1.650   0.051   4.352  1.00  0.00    -0.014 A 
BRANCH  13  14
ATOM     14  C   UNL     1       1.471   0.145   5.787  1.00  0.00     0.031 A 
ATOM     15  C   UNL     1       2.121   1.341   6.372  1.00  0.00     0.074 A 
ATOM     16  C   UNL     1       0.743  -0.747   6.482  1.00  0.00     0.049 A 
ATOM     17  N   UNL     1       3.141   1.384   7.163  1.00  0.00    -0.248 NA
ATOM     18  C   UNL     1       1.728   2.654   5.832  1.00  0.00     0.031 C 
ATOM     19  C   UNL     1      -0.100  -1.821   5.954  1.00  0.00     0.029 A 
ATOM     20  N   UNL     1       0.511  -0.807   7.819  1.00  0.00    -0.354 N 
ATOM     21  C   UNL     1       3.348   2.733   7.429  1.00  0.00     0.074 A 
ATOM     22  C   UNL     1       2.626   3.447   6.414  1.00  0.00     0.031 C 
ATOM     23  C   UNL     1      -0.941  -2.239   6.926  1.00  0.00     0.029 A 
ATOM     24  C   UNL     1      -0.611  -1.552   8.165  1.00  0.00     0.049 A 
ATOM     25  H   UNL     1       1.086  -0.364   8.484  1.00  0.00     0.167 HD
ATOM     26  C   UNL     1       3.840   3.135   8.632  1.00  0.00     0.034 A 
ATOM     27  C   UNL     1      -1.275  -1.520   9.352  1.00  0.00     0.034 A 
ATOM     28  C   UNL     1       4.533   2.044   9.292  1.00  0.00     0.049 A 
ATOM     29  C   UNL     1      -0.322  -0.985  10.361  1.00  0.00     0.074 A 
ATOM     30  C   UNL     1       5.594   1.227   8.943  1.00  0.00     0.029 A 
ATOM     31  N   UNL     1       3.906   1.398  10.338  1.00  0.00    -0.354 N 
ATOM     32  N   UNL     1       0.761  -1.618  10.725  1.00  0.00    -0.248 NA
ATOM     33  C   UNL     1      -0.294   0.455  10.584  1.00  0.00     0.031 C 
ATOM     34  C   UNL     1       5.244  -0.065   9.436  1.00  0.00     0.029 A 
ATOM     35  C   UNL     1       4.040   0.048  10.134  1.00  0.00     0.049 A 
ATOM     36  H   UNL     1       3.446   1.829  11.095  1.00  0.00     0.167 HD
ATOM     37  C   UNL     1       1.744  -0.641  10.798  1.00  0.00     0.074 A 
ATOM     38  C   UNL     1       1.015   0.627  10.798  1.00  0.00     0.031 C 
ATOM     39  C   UNL     1       3.057  -0.934  10.554  1.00  0.00     0.034 A 
BRANCH  26  40
ATOM     40  C   UNL     1       3.284   4.327   9.399  1.00  0.00     0.023 A 
ATOM     41  C   UNL     1       3.735   4.467  10.723  1.00  0.00     0.031 A 
ATOM     42  C   UNL     1       2.138   5.085   9.065  1.00  0.00     0.131 A 
ATOM     43  C   UNL     1       2.950   5.122  11.683  1.00  0.00     0.055 A 
ATOM     44  C   UNL     1       1.397   5.797  10.012  1.00  0.00     0.041 A 
ATOM     45  F   UNL     1       1.622   5.140   7.834  1.00  0.00    -0.206 F 
ATOM     46  C   UNL     1       1.771   5.775  11.342  1.00  0.00     0.022 A 
BRANCH  43  47
ATOM     47  S   UNL     1       3.390   4.885  13.421  1.00  0.00     0.124 S 
ATOM     48  O   UNL     1       3.412   3.429  13.505  1.00  0.00    -0.237 OA
ATOM     49  O   UNL     1       4.683   5.556  13.493  1.00  0.00    -0.237 OA
ATOM     50  O   UNL     1       2.300   5.543  14.137  1.00  0.00    -0.744 OA
ENDBRANCH  43  47
ENDBRANCH  26  40
BRANCH  27  51
ATOM     51  C   UNL     1      -2.756  -1.574   9.540  1.00  0.00     0.023 A 
ATOM     52  C   UNL     1      -3.368  -1.861  10.780  1.00  0.00     0.031 A 
ATOM     53  C   UNL     1      -3.613  -1.116   8.511  1.00  0.00     0.131 A 
ATOM     54  C   UNL     1      -4.767  -1.699  10.942  1.00  0.00     0.055 A 
ATOM     55  C   UNL     1      -4.991  -0.967   8.673  1.00  0.00     0.041 A 
ATOM     56  F   UNL     1      -3.129  -0.713   7.325  1.00  0.00    -0.206 F 
ATOM     57  C   UNL     1      -5.575  -1.250   9.894  1.00  0.00     0.022 A 
BRANCH  54  58
ATOM     58  S   UNL     1      -5.561  -1.989  12.559  1.00  0.00     0.124 S 
ATOM     59  O   UNL     1      -5.436  -3.434  12.711  1.00  0.00    -0.237 OA
ATOM     60  O   UNL     1      -4.757  -1.168  13.456  1.00  0.00    -0.237 OA
ATOM     61  O   UNL     1      -6.930  -1.510  12.358  1.00  0.00    -0.744 OA
ENDBRANCH  54  58
ENDBRANCH  27  51
BRANCH  39  62
ATOM     62  C   UNL     1       3.485  -2.386  10.514  1.00  0.00     0.023 A 
ATOM     63  C   UNL     1       2.959  -3.365   9.640  1.00  0.00     0.031 A 
ATOM     64  C   UNL     1       4.572  -2.754  11.327  1.00  0.00     0.131 A 
ATOM     65  C   UNL     1       3.519  -4.659   9.616  1.00  0.00     0.055 A 
ATOM     66  C   UNL     1       5.135  -4.028  11.285  1.00  0.00     0.041 A 
ATOM     67  F   UNL     1       5.136  -1.860  12.156  1.00  0.00    -0.206 F 
ATOM     68  C   UNL     1       4.605  -4.988  10.433  1.00  0.00     0.022 A 
BRANCH  65  69
ATOM     69  S   UNL     1       2.836  -5.952   8.527  1.00  0.00     0.124 S 
ATOM     70  O   UNL     1       1.397  -5.859   8.743  1.00  0.00    -0.237 OA
ATOM     71  O   UNL     1       3.315  -5.540   7.210  1.00  0.00    -0.237 OA
ATOM     72  O   UNL     1       3.449  -7.182   9.036  1.00  0.00    -0.744 OA
ENDBRANCH  65  69
ENDBRANCH  39  62
ENDBRANCH  13  14
ENDBRANCH   6   8
ENDBRANCH   5   6
ENDBRANCH   4   5
ENDBRANCH   3   4
ENDBRANCH   2   3
ENDBRANCH   1   2
BRANCH   1  73
ATOM     73  C   UNL     1       3.448   2.146  -2.524  1.00  0.00     0.261 C 
BRANCH  73  74
ATOM     74  O   UNL     1       3.673   1.019  -3.392  1.00  0.00    -0.460 OA
BRANCH  74  75
ATOM     75  C   UNL     1       4.961   0.809  -3.788  1.00  0.00     0.338 C 
ATOM     76  O   UNL     1       5.917   1.514  -3.584  1.00  0.00    -0.246 OA
BRANCH  75  77
ATOM     77  C   UNL     1       5.056  -0.554  -4.377  1.00  0.00     0.061 A 
ATOM     78  C   UNL     1       4.106  -0.963  -5.308  1.00  0.00     0.019 A 
ATOM     79  C   UNL     1       6.113  -1.415  -3.986  1.00  0.00     0.038 A 
ATOM     80  C   UNL     1       4.252  -2.222  -5.852  1.00  0.00    -0.043 A 
ATOM     81  C   UNL     1       6.233  -2.718  -4.521  1.00  0.00     0.092 A 
ATOM     82  C   UNL     1       5.264  -3.116  -5.434  1.00  0.00    -0.024 A 
ATOM     83  C   UNL     1       3.415  -2.821  -6.944  1.00  0.00     0.036 C 
ATOM     84  C   UNL     1       5.025  -4.420  -6.127  1.00  0.00     0.037 C 
ATOM     85  C   UNL     1       4.377  -3.909  -7.418  1.00  0.00     0.010 C 
BRANCH  81  86
ATOM     86  S   UNL     1       7.455  -3.826  -3.841  1.00  0.00     0.262 S 
ATOM     87  O   UNL     1       8.162  -3.098  -2.805  1.00  0.00    -0.201 OA
ATOM     88  O   UNL     1       6.779  -5.064  -3.514  1.00  0.00    -0.201 OA
BRANCH  86  89
ATOM     89  N   UNL     1       8.685  -4.268  -4.951  1.00  0.00    -0.277 N 
ATOM     90  H   UNL     1       9.596  -4.425  -4.612  1.00  0.00     0.180 HD
BRANCH  89  91
ATOM     91  C   UNL     1       8.437  -4.418  -6.357  1.00  0.00     0.075 A 
ATOM     92  C   UNL     1       8.177  -5.705  -6.864  1.00  0.00     0.042 A 
ATOM     93  C   UNL     1       8.335  -3.311  -7.212  1.00  0.00     0.089 A 
ATOM     94  C   UNL     1       7.728  -5.884  -8.189  1.00  0.00     0.058 A 
ATOM     95  C   UNL     1       7.909  -3.486  -8.538  1.00  0.00     0.031 A 
ATOM     96  C   UNL     1       7.613  -4.763  -9.022  1.00  0.00     0.015 A 
BRANCH  93  97
ATOM     97  N   UNL     1       8.609  -1.999  -6.756  1.00  0.00    -0.239 N 
ATOM     98  C   UNL     1       9.511  -1.606  -5.793  1.00  0.00     0.115 A 
ATOM     99  N   UNL     1       7.874  -0.948  -7.202  1.00  0.00    -0.177 NA
ATOM    100  C   UNL     1       9.195  -0.313  -5.456  1.00  0.00     0.042 A 
ATOM    101  C   UNL     1       8.153   0.028  -6.331  1.00  0.00     0.135 A 
ENDBRANCH  93  97
BRANCH  94 102
ATOM    102  C   UNL     1       7.294  -7.251  -8.673  1.00  0.00     0.416 C 
ATOM    103  F   UNL     1       8.342  -8.092  -8.881  1.00  0.00    -0.166 F 
ATOM    104  F   UNL     1       6.475  -7.879  -7.785  1.00  0.00    -0.166 F 
ATOM    105  F   UNL     1       6.603  -7.214  -9.847  1.00  0.00    -0.166 F 
ENDBRANCH  94 102
ENDBRANCH  89  91
ENDBRANCH  86  89
ENDBRANCH  81  86
ENDBRANCH  75  77
ENDBRANCH  74  75
ENDBRANCH  73  74
ENDBRANCH   1  73
TORSDOF 22
