REMARK SMILES CCn1c(C)cc(/C=C(/C(=O)OCCOCCOC(=O)c2ccc(-c3c4nc(c(-c5cc(S(=O)(=O)[O-])ccc5F)c5ccc([nH]5)c(-c5cc(S(=O)(=O)[O-])ccc5F)c5nc(c(-c6cc(S(=O)(=O)[O-])ccc6F)c6ccc3[nH]6)C=C5)C=C4)cc2)c2ccccc2)c1C
REMARK SMILES IDX 16 1 15 2 14 3 13 4 12 5 10 6 11 7 9 8 8 9 7 10 3 11 4 12
REMARK SMILES IDX 90 13 5 14 6 15 91 16 2 17 1 18 84 19 85 20 89 21 86 22
REMARK SMILES IDX 88 23 87 24 17 25 18 26 19 27 20 28 21 29 22 30 83 31 23 32
REMARK SMILES IDX 82 33 24 34 25 35 26 36 76 37 27 38 81 39 75 40 77 41 28 42
REMARK SMILES IDX 80 43 74 44 73 45 29 47 61 48 41 49 60 50 42 51 45 52 59 53
REMARK SMILES IDX 78 54 43 55 44 56 58 58 79 59 46 60 30 61 31 62 39 63 32 64
REMARK SMILES IDX 38 65 40 66 37 67 33 68 34 69 35 70 36 71 62 72 63 73 71 74
REMARK SMILES IDX 64 75 70 76 72 77 69 78 65 79 66 80 67 81 68 82 47 83 48 84
REMARK SMILES IDX 56 85 49 86 55 87 57 88 54 89 50 90 51 91 52 92 53 93
REMARK H PARENT 77 46 45 57
REMARK Flexibility Score: inf
ROOT
ATOM      1  C   UNL     1       2.911  -7.220  -2.562  1.00  0.00     0.202 C 
ENDROOT
BRANCH   1   2
ATOM      2  O   UNL     1       2.131  -8.393  -2.847  1.00  0.00    -0.374 OA
BRANCH   2   3
ATOM      3  C   UNL     1       1.768  -8.599  -4.208  1.00  0.00     0.202 C 
BRANCH   3   4
ATOM      4  C   UNL     1       0.554  -7.780  -4.685  1.00  0.00     0.261 C 
BRANCH   4   5
ATOM      5  O   UNL     1       0.655  -6.396  -4.301  1.00  0.00    -0.460 OA
BRANCH   5   6
ATOM      6  C   UNL     1      -0.429  -5.904  -3.639  1.00  0.00     0.338 C 
ATOM      7  O   UNL     1      -1.523  -6.436  -3.586  1.00  0.00    -0.246 OA
BRANCH   6   8
ATOM      8  C   UNL     1      -0.106  -4.647  -2.869  1.00  0.00     0.067 C 
ATOM      9  C   UNL     1       0.599  -3.664  -3.478  1.00  0.00     0.026 C 
BRANCH   9  10
ATOM     10  C   UNL     1       0.955  -2.292  -3.150  1.00  0.00    -0.004 A 
ATOM     11  N   UNL     1       1.192  -0.194  -2.349  1.00  0.00    -0.349 N 
ATOM     12  C   UNL     1       1.786  -0.199  -3.587  1.00  0.00     0.015 A 
ATOM     13  C   UNL     1       0.609  -1.433  -2.109  1.00  0.00     0.022 A 
ATOM     14  C   UNL     1       2.323   1.023  -4.246  1.00  0.00     0.064 C 
ATOM     15  C   UNL     1       1.729  -1.497  -4.055  1.00  0.00     0.031 A 
ATOM     16  C   UNL     1      -0.257  -1.602  -0.916  1.00  0.00     0.065 C 
BRANCH  11  17
ATOM     17  C   UNL     1       1.038   0.978  -1.490  1.00  0.00     0.118 C 
ATOM     18  C   UNL     1       1.775   0.877  -0.159  1.00  0.00     0.027 C 
ENDBRANCH  11  17
ENDBRANCH   9  10
BRANCH   8  19
ATOM     19  C   UNL     1      -0.727  -4.581  -1.539  1.00  0.00    -0.011 A 
ATOM     20  C   UNL     1      -0.017  -4.973  -0.395  1.00  0.00     0.009 A 
ATOM     21  C   UNL     1      -2.047  -4.129  -1.408  1.00  0.00     0.009 A 
ATOM     22  C   UNL     1      -0.587  -4.809   0.871  1.00  0.00     0.001 A 
ATOM     23  C   UNL     1      -2.605  -3.945  -0.142  1.00  0.00     0.001 A 
ATOM     24  C   UNL     1      -1.866  -4.264   0.997  1.00  0.00     0.000 A 
ENDBRANCH   8  19
ENDBRANCH   6   8
ENDBRANCH   5   6
ENDBRANCH   4   5
ENDBRANCH   3   4
ENDBRANCH   2   3
ENDBRANCH   1   2
BRANCH   1  25
ATOM     25  C   UNL     1       4.438  -7.248  -2.899  1.00  0.00     0.261 C 
BRANCH  25  26
ATOM     26  O   UNL     1       4.974  -6.477  -4.054  1.00  0.00    -0.460 OA
BRANCH  26  27
ATOM     27  C   UNL     1       5.873  -7.141  -4.874  1.00  0.00     0.338 C 
ATOM     28  O   UNL     1       5.886  -8.365  -4.936  1.00  0.00    -0.246 OA
BRANCH  27  29
ATOM     29  C   UNL     1       6.827  -6.311  -5.789  1.00  0.00     0.060 A 
ATOM     30  C   UNL     1       6.764  -6.508  -7.161  1.00  0.00     0.016 A 
ATOM     31  C   UNL     1       7.972  -5.570  -5.404  1.00  0.00     0.016 A 
ATOM     32  C   UNL     1       7.743  -5.935  -8.076  1.00  0.00     0.010 A 
ATOM     33  C   UNL     1       9.024  -5.044  -6.359  1.00  0.00     0.010 A 
ATOM     34  C   UNL     1       8.965  -5.203  -7.759  1.00  0.00    -0.014 A 
BRANCH  34  35
ATOM     35  C   UNL     1      10.144  -5.016  -9.008  1.00  0.00     0.031 A 
ATOM     36  C   UNL     1       9.891  -6.257  -9.794  1.00  0.00     0.074 A 
ATOM     37  C   UNL     1      11.305  -4.339  -9.505  1.00  0.00     0.049 A 
ATOM     38  N   UNL     1       9.988  -7.394  -9.166  1.00  0.00    -0.248 NA
ATOM     39  C   UNL     1       9.139  -6.323 -11.048  1.00  0.00     0.031 C 
ATOM     40  C   UNL     1      12.122  -3.304  -8.832  1.00  0.00     0.029 A 
ATOM     41  N   UNL     1      12.096  -4.421 -10.752  1.00  0.00    -0.354 N 
ATOM     42  C   UNL     1       9.604  -8.370 -10.045  1.00  0.00     0.074 A 
ATOM     43  C   UNL     1       8.896  -7.641 -11.093  1.00  0.00     0.031 C 
ATOM     44  C   UNL     1      13.101  -2.773  -9.639  1.00  0.00     0.029 A 
ATOM     45  C   UNL     1      13.142  -3.393 -10.972  1.00  0.00     0.049 A 
ATOM     46  H   UNL     1      11.935  -5.133 -11.413  1.00  0.00     0.167 HD
ATOM     47  C   UNL     1      10.498  -9.395 -10.160  1.00  0.00     0.034 A 
ATOM     48  C   UNL     1      14.037  -3.105 -12.048  1.00  0.00     0.034 A 
ATOM     49  C   UNL     1      11.356  -9.195 -11.298  1.00  0.00     0.049 A 
ATOM     50  C   UNL     1      14.317  -4.383 -12.698  1.00  0.00     0.074 A 
ATOM     51  C   UNL     1      11.094  -8.823 -12.602  1.00  0.00     0.029 A 
ATOM     52  N   UNL     1      12.678  -8.893 -11.055  1.00  0.00    -0.354 N 
ATOM     53  N   UNL     1      15.172  -5.214 -12.193  1.00  0.00    -0.248 NA
ATOM     54  C   UNL     1      13.741  -4.774 -13.975  1.00  0.00     0.031 C 
ATOM     55  C   UNL     1      12.102  -7.891 -12.921  1.00  0.00     0.029 A 
ATOM     56  C   UNL     1      13.150  -8.025 -12.017  1.00  0.00     0.049 A 
ATOM     57  H   UNL     1      13.209  -9.246 -10.304  1.00  0.00     0.167 HD
ATOM     58  C   UNL     1      14.754  -6.398 -12.708  1.00  0.00     0.074 A 
ATOM     59  C   UNL     1      14.122  -6.053 -13.971  1.00  0.00     0.031 C 
ATOM     60  C   UNL     1      14.413  -7.348 -11.800  1.00  0.00     0.034 A 
BRANCH  47  61
ATOM     61  C   UNL     1      10.928  -9.911  -8.805  1.00  0.00     0.023 A 
ATOM     62  C   UNL     1      10.312 -11.063  -8.303  1.00  0.00     0.031 A 
ATOM     63  C   UNL     1      11.730  -9.157  -7.916  1.00  0.00     0.131 A 
ATOM     64  C   UNL     1      10.435 -11.385  -6.940  1.00  0.00     0.055 A 
ATOM     65  C   UNL     1      11.802  -9.447  -6.554  1.00  0.00     0.041 A 
ATOM     66  F   UNL     1      12.412  -8.084  -8.351  1.00  0.00    -0.206 F 
ATOM     67  C   UNL     1      11.140 -10.562  -6.056  1.00  0.00     0.022 A 
BRANCH  64  68
ATOM     68  S   UNL     1       9.640 -12.898  -6.340  1.00  0.00     0.124 S 
ATOM     69  O   UNL     1       8.228 -12.627  -6.572  1.00  0.00    -0.237 OA
ATOM     70  O   UNL     1      10.235 -13.920  -7.194  1.00  0.00    -0.237 OA
ATOM     71  O   UNL     1      10.040 -12.966  -4.930  1.00  0.00    -0.744 OA
ENDBRANCH  64  68
ENDBRANCH  47  61
BRANCH  48  72
ATOM     72  C   UNL     1      15.056  -2.041 -12.718  1.00  0.00     0.023 A 
ATOM     73  C   UNL     1      16.170  -2.412 -13.614  1.00  0.00     0.031 A 
ATOM     74  C   UNL     1      14.716  -0.685 -12.814  1.00  0.00     0.131 A 
ATOM     75  C   UNL     1      16.811  -1.491 -14.519  1.00  0.00     0.055 A 
ATOM     76  C   UNL     1      15.357   0.220 -13.710  1.00  0.00     0.041 A 
ATOM     77  F   UNL     1      13.677  -0.204 -12.118  1.00  0.00    -0.206 F 
ATOM     78  C   UNL     1      16.383  -0.174 -14.570  1.00  0.00     0.022 A 
BRANCH  75  79
ATOM     79  S   UNL     1      18.081  -1.988 -15.795  1.00  0.00     0.124 S 
ATOM     80  O   UNL     1      19.301  -2.142 -15.013  1.00  0.00    -0.237 OA
ATOM     81  O   UNL     1      17.515  -3.203 -16.371  1.00  0.00    -0.237 OA
ATOM     82  O   UNL     1      18.104  -0.850 -16.721  1.00  0.00    -0.744 OA
ENDBRANCH  75  79
ENDBRANCH  48  72
BRANCH  60  83
ATOM     83  C   UNL     1      15.299  -7.483 -10.554  1.00  0.00     0.023 A 
ATOM     84  C   UNL     1      15.847  -6.418  -9.785  1.00  0.00     0.031 A 
ATOM     85  C   UNL     1      15.684  -8.776 -10.166  1.00  0.00     0.131 A 
ATOM     86  C   UNL     1      16.760  -6.661  -8.737  1.00  0.00     0.055 A 
ATOM     87  C   UNL     1      16.545  -9.022  -9.094  1.00  0.00     0.041 A 
ATOM     88  F   UNL     1      15.232  -9.847 -10.839  1.00  0.00    -0.206 F 
ATOM     89  C   UNL     1      17.103  -7.964  -8.386  1.00  0.00     0.022 A 
BRANCH  86  90
ATOM     90  S   UNL     1      17.579  -5.271  -7.880  1.00  0.00     0.124 S 
ATOM     91  O   UNL     1      18.082  -4.449  -8.973  1.00  0.00    -0.237 OA
ATOM     92  O   UNL     1      16.491  -4.693  -7.096  1.00  0.00    -0.237 OA
ATOM     93  O   UNL     1      18.621  -5.928  -7.087  1.00  0.00    -0.744 OA
ENDBRANCH  86  90
ENDBRANCH  60  83
ENDBRANCH  34  35
ENDBRANCH  27  29
ENDBRANCH  26  27
ENDBRANCH  25  26
ENDBRANCH   1  25
TORSDOF 20
