REMARK SMILES Cc1ccc(-c2nn(-c3ccccc3)cc2[C@@H]2[NH2+][C@H](C(=O)OCCOCCOC(=O)c3ccc(-c4c5nc(c(-c6cc(S(=O)(=O)[O-])ccc6F)c6ccc([nH]6)c(-c6cc(S(=O)(=O)[O-])ccc6F)c6nc(c(-c7cc(S(=O)(=O)[O-])ccc7F)c7ccc4[nH]7)C=C6)C=C5)cc3)CS2)cc1
REMARK SMILES IDX 26 1 25 2 24 3 23 4 22 5 20 6 21 7 19 8 17 9 18 10 95 11
REMARK SMILES IDX 94 14 16 15 6 16 7 17 8 18 15 19 5 20 1 21 2 22 3 23 97 24
REMARK SMILES IDX 4 25 96 26 9 27 10 28 14 29 11 30 13 31 12 32 27 33 28 34
REMARK SMILES IDX 29 35 30 36 31 37 32 38 93 39 33 40 92 41 34 42 35 43 36 44
REMARK SMILES IDX 86 45 37 46 91 47 85 48 87 49 38 50 90 51 84 52 83 53 39 55
REMARK SMILES IDX 71 56 51 57 70 58 52 59 55 60 69 61 88 62 53 63 54 64 68 66
REMARK SMILES IDX 89 67 56 68 40 69 41 70 49 71 42 72 48 73 50 74 47 75 43 76
REMARK SMILES IDX 44 77 45 78 46 79 72 80 73 81 81 82 74 83 80 84 82 85 79 86
REMARK SMILES IDX 75 87 76 88 77 89 78 90 57 91 58 92 66 93 59 94 65 95 67 96
REMARK SMILES IDX 64 97 60 98 61 99 62 100 63 101
REMARK H PARENT 18 12 18 13 87 54 55 65
REMARK Flexibility Score: inf
ROOT
ATOM      1  C   UNL     1      -4.597  -5.858  -0.141  1.00  0.00     0.202 C 
ENDROOT
BRANCH   1   2
ATOM      2  O   UNL     1      -5.713  -5.082   0.179  1.00  0.00    -0.374 OA
BRANCH   2   3
ATOM      3  C   UNL     1      -5.471  -3.722  -0.104  1.00  0.00     0.202 C 
BRANCH   3   4
ATOM      4  C   UNL     1      -6.609  -3.119   0.593  1.00  0.00     0.261 C 
BRANCH   4   5
ATOM      5  O   UNL     1      -6.201  -2.418   1.721  1.00  0.00    -0.459 OA
BRANCH   5   6
ATOM      6  C   UNL     1      -6.090  -3.206   2.812  1.00  0.00     0.365 C 
ATOM      7  O   UNL     1      -6.825  -4.117   3.150  1.00  0.00    -0.245 OA
BRANCH   6   8
ATOM      8  C   UNL     1      -4.861  -2.707   3.513  1.00  0.00     0.304 C 
ATOM      9  C   UNL     1      -3.664  -1.030   2.199  1.00  0.00     0.278 C 
ATOM     10  N   UNL     1      -3.820  -2.458   2.470  1.00  0.00    -0.319 N 
ATOM     11  S   UNL     1      -4.353  -0.088   3.586  1.00  0.00    -0.087 SA
ATOM     12  H   UNL     1      -2.929  -2.833   2.795  1.00  0.00     0.348 HD
ATOM     13  H   UNL     1      -4.115  -2.917   1.608  1.00  0.00     0.348 HD
ATOM     14  C   UNL     1      -5.300  -1.462   4.263  1.00  0.00     0.153 C 
BRANCH   9  15
ATOM     15  C   UNL     1      -3.972  -0.418   0.795  1.00  0.00     0.067 A 
ATOM     16  C   UNL     1      -2.716   0.869   0.113  1.00  0.00     0.103 A 
ATOM     17  N   UNL     1      -3.355   1.861  -1.113  1.00  0.00    -0.167 NA
ATOM     18  N   UNL     1      -5.124   1.345  -1.494  1.00  0.00    -0.240 N 
ATOM     19  C   UNL     1      -5.454  -0.219  -0.220  1.00  0.00     0.126 A 
BRANCH  16  20
ATOM     20  C   UNL     1      -1.256   0.844   0.468  1.00  0.00     0.003 A 
ATOM     21  C   UNL     1       3.003   0.223  -0.009  1.00  0.00     0.044 C 
ATOM     22  C   UNL     1       1.565   0.492   0.316  1.00  0.00    -0.051 A 
ATOM     23  C   UNL     1       0.751  -0.566   0.696  1.00  0.00     0.004 A 
ATOM     24  C   UNL     1       0.973   1.747   0.107  1.00  0.00     0.004 A 
ATOM     25  C   UNL     1      -0.627  -0.374   0.814  1.00  0.00     0.011 A 
ATOM     26  C   UNL     1      -0.425   1.920   0.170  1.00  0.00     0.011 A 
ENDBRANCH  16  20
BRANCH  18  27
ATOM     27  C   UNL     1      -5.775   2.208  -2.618  1.00  0.00     0.065 A 
ATOM     28  C   UNL     1      -5.934   1.656  -3.909  1.00  0.00     0.028 A 
ATOM     29  C   UNL     1      -6.672   3.221  -2.231  1.00  0.00     0.028 A 
ATOM     30  C   UNL     1      -7.177   1.766  -4.560  1.00  0.00     0.002 A 
ATOM     31  C   UNL     1      -7.910   3.334  -2.891  1.00  0.00     0.002 A 
ATOM     32  C   UNL     1      -8.193   2.537  -4.000  1.00  0.00     0.000 A 
ENDBRANCH  18  27
ENDBRANCH   9  15
ENDBRANCH   6   8
ENDBRANCH   5   6
ENDBRANCH   4   5
ENDBRANCH   3   4
ENDBRANCH   2   3
ENDBRANCH   1   2
BRANCH   1  33
ATOM     33  C   UNL     1      -4.251  -5.691  -1.630  1.00  0.00     0.261 C 
BRANCH  33  34
ATOM     34  O   UNL     1      -5.465  -5.902  -2.433  1.00  0.00    -0.460 OA
BRANCH  34  35
ATOM     35  C   UNL     1      -5.942  -4.903  -3.253  1.00  0.00     0.338 C 
ATOM     36  O   UNL     1      -5.340  -4.430  -4.200  1.00  0.00    -0.246 OA
BRANCH  35  37
ATOM     37  C   UNL     1      -7.312  -4.424  -2.802  1.00  0.00     0.060 A 
ATOM     38  C   UNL     1      -7.866  -3.172  -3.145  1.00  0.00     0.016 A 
ATOM     39  C   UNL     1      -7.913  -5.110  -1.772  1.00  0.00     0.016 A 
ATOM     40  C   UNL     1      -8.791  -2.505  -2.274  1.00  0.00     0.010 A 
ATOM     41  C   UNL     1      -8.680  -4.387  -0.867  1.00  0.00     0.010 A 
ATOM     42  C   UNL     1      -9.025  -3.020  -1.011  1.00  0.00    -0.014 A 
BRANCH  42  43
ATOM     43  C   UNL     1      -9.598  -2.344   0.239  1.00  0.00     0.031 A 
ATOM     44  C   UNL     1     -10.945  -2.892   0.502  1.00  0.00     0.074 A 
ATOM     45  C   UNL     1      -9.008  -1.478   1.164  1.00  0.00     0.049 A 
ATOM     46  N   UNL     1     -11.960  -2.187   0.864  1.00  0.00    -0.248 NA
ATOM     47  C   UNL     1     -11.354  -4.273   0.147  1.00  0.00     0.031 C 
ATOM     48  C   UNL     1      -9.263  -1.206   2.597  1.00  0.00     0.029 A 
ATOM     49  N   UNL     1      -7.870  -0.680   1.044  1.00  0.00    -0.354 N 
ATOM     50  C   UNL     1     -12.832  -3.140   1.338  1.00  0.00     0.074 A 
ATOM     51  C   UNL     1     -12.633  -4.273   0.504  1.00  0.00     0.031 C 
ATOM     52  C   UNL     1      -8.530  -0.149   3.056  1.00  0.00     0.029 A 
ATOM     53  C   UNL     1      -7.733   0.374   1.956  1.00  0.00     0.049 A 
ATOM     54  H   UNL     1      -7.193  -0.851   0.350  1.00  0.00     0.167 HD
ATOM     55  C   UNL     1     -13.213  -3.079   2.642  1.00  0.00     0.034 A 
ATOM     56  C   UNL     1      -7.441   1.648   1.534  1.00  0.00     0.034 A 
ATOM     57  C   UNL     1     -12.755  -1.823   3.270  1.00  0.00     0.049 A 
ATOM     58  C   UNL     1      -8.856   2.280   1.607  1.00  0.00     0.074 A 
ATOM     59  C   UNL     1     -12.017  -1.505   4.397  1.00  0.00     0.029 A 
ATOM     60  N   UNL     1     -12.839  -0.635   2.543  1.00  0.00    -0.354 N 
ATOM     61  N   UNL     1      -9.916   1.558   1.876  1.00  0.00    -0.248 NA
ATOM     62  C   UNL     1      -9.207   3.688   1.484  1.00  0.00     0.031 C 
ATOM     63  C   UNL     1     -11.645  -0.121   4.306  1.00  0.00     0.029 A 
ATOM     64  C   UNL     1     -12.143   0.402   3.120  1.00  0.00     0.049 A 
ATOM     65  H   UNL     1     -13.344  -0.548   1.703  1.00  0.00     0.167 HD
ATOM     66  C   UNL     1     -11.015   2.312   2.091  1.00  0.00     0.074 A 
ATOM     67  C   UNL     1     -10.523   3.656   1.792  1.00  0.00     0.031 C 
ATOM     68  C   UNL     1     -12.194   1.731   2.496  1.00  0.00     0.034 A 
BRANCH  55  69
ATOM     69  C   UNL     1     -13.814  -4.240   3.416  1.00  0.00     0.023 A 
ATOM     70  C   UNL     1     -14.344  -3.928   4.676  1.00  0.00     0.031 A 
ATOM     71  C   UNL     1     -13.912  -5.609   3.054  1.00  0.00     0.131 A 
ATOM     72  C   UNL     1     -14.947  -4.901   5.489  1.00  0.00     0.055 A 
ATOM     73  C   UNL     1     -14.558  -6.572   3.844  1.00  0.00     0.041 A 
ATOM     74  F   UNL     1     -13.365  -6.125   1.948  1.00  0.00    -0.206 F 
ATOM     75  C   UNL     1     -15.084  -6.220   5.072  1.00  0.00     0.022 A 
BRANCH  72  76
ATOM     76  S   UNL     1     -15.547  -4.391   7.112  1.00  0.00     0.124 S 
ATOM     77  O   UNL     1     -14.307  -4.024   7.789  1.00  0.00    -0.237 OA
ATOM     78  O   UNL     1     -16.450  -3.296   6.775  1.00  0.00    -0.237 OA
ATOM     79  O   UNL     1     -16.199  -5.595   7.624  1.00  0.00    -0.744 OA
ENDBRANCH  72  76
ENDBRANCH  55  69
BRANCH  56  80
ATOM     80  C   UNL     1      -6.511   1.635   0.260  1.00  0.00     0.023 A 
ATOM     81  C   UNL     1      -4.717   1.347   0.218  1.00  0.00     0.031 A 
ATOM     82  C   UNL     1      -7.425   0.898  -0.979  1.00  0.00     0.131 A 
ATOM     83  C   UNL     1      -4.008  -0.006  -1.249  1.00  0.00     0.055 A 
ATOM     84  C   UNL     1      -6.843  -0.162  -2.161  1.00  0.00     0.041 A 
ATOM     85  F   UNL     1      -8.752   1.123  -1.006  1.00  0.00    -0.206 F 
ATOM     86  C   UNL     1      -5.251  -0.658  -2.339  1.00  0.00     0.022 A 
BRANCH  83  87
ATOM     87  S   UNL     1      -2.474  -1.198  -1.791  1.00  0.00     0.124 S 
ATOM     88  O   UNL     1      -1.351  -0.320  -2.074  1.00  0.00    -0.237 OA
ATOM     89  O   UNL     1      -2.362  -2.141  -0.679  1.00  0.00    -0.237 OA
ATOM     90  O   UNL     1      -2.970  -1.855  -3.001  1.00  0.00    -0.744 OA
ENDBRANCH  83  87
ENDBRANCH  56  80
BRANCH  68  91
ATOM     91  C   UNL     1     -13.540   2.402   2.417  1.00  0.00     0.023 A 
ATOM     92  C   UNL     1     -13.676   3.662   1.852  1.00  0.00     0.031 A 
ATOM     93  C   UNL     1     -14.748   1.803   2.854  1.00  0.00     0.131 A 
ATOM     94  C   UNL     1     -14.877   4.364   1.911  1.00  0.00     0.055 A 
ATOM     95  C   UNL     1     -15.982   2.451   2.791  1.00  0.00     0.041 A 
ATOM     96  F   UNL     1     -14.809   0.559   3.345  1.00  0.00    -0.206 F 
ATOM     97  C   UNL     1     -16.046   3.766   2.362  1.00  0.00     0.022 A 
BRANCH  94  98
ATOM     98  S   UNL     1     -14.786   6.110   1.478  1.00  0.00     0.124 S 
ATOM     99  O   UNL     1     -13.850   6.616   2.479  1.00  0.00    -0.237 OA
ATOM    100  O   UNL     1     -14.274   6.063   0.111  1.00  0.00    -0.237 OA
ATOM    101  O   UNL     1     -16.164   6.569   1.619  1.00  0.00    -0.744 OA
ENDBRANCH  94  98
ENDBRANCH  68  91
ENDBRANCH  42  43
ENDBRANCH  35  37
ENDBRANCH  34  35
ENDBRANCH  33  34
ENDBRANCH   1  33
TORSDOF 20
