REMARK SMILES O=C(/C=C/C(=O)OCCOCCOC(=O)c1ccc(-c2c3nc(c(-c4cc(S(=O)(=O)[O-])ccc4F)c4ccc([nH]4)c(-c4cc(S(=O)(=O)[O-])ccc4F)c4nc(c(-c5cc(S(=O)(=O)[O-])ccc5F)c5ccc2[nH]5)C=C4)C=C3)cc1)NCc1ccc(-c2cccs2)s1
REMARK SMILES IDX 9 1 8 2 7 3 5 4 6 5 4 6 3 7 2 8 1 9 79 10 80 12 81 13 82 14
REMARK SMILES IDX 90 15 83 16 84 17 85 18 86 19 89 20 87 21 88 22 10 23 11 24
REMARK SMILES IDX 12 25 13 26 14 27 15 28 16 29 17 30 78 31 18 32 77 33 19 34
REMARK SMILES IDX 20 35 21 36 71 37 22 38 76 39 70 40 72 41 23 42 75 43 69 44
REMARK SMILES IDX 68 45 24 47 56 48 36 49 55 50 37 51 40 52 54 53 73 54 38 55
REMARK SMILES IDX 39 56 53 58 74 59 41 60 25 61 26 62 34 63 27 64 33 65 35 66
REMARK SMILES IDX 32 67 28 68 29 69 30 70 31 71 57 72 58 73 66 74 59 75 65 76
REMARK SMILES IDX 67 77 64 78 60 79 61 80 62 81 63 82 42 83 43 84 51 85 44 86
REMARK SMILES IDX 50 87 52 88 49 89 45 90 46 91 47 92 48 93
REMARK H PARENT 79 11 72 46 40 57
REMARK Flexibility Score: inf
ROOT
ATOM      1  C   UNL     1       6.057  -1.042  -4.904  1.00  0.00     0.202 C 
ENDROOT
BRANCH   1   2
ATOM      2  C   UNL     1       5.526  -2.250  -4.129  1.00  0.00     0.261 C 
BRANCH   2   3
ATOM      3  O   UNL     1       4.610  -1.829  -3.103  1.00  0.00    -0.460 OA
BRANCH   3   4
ATOM      4  C   UNL     1       5.003  -2.060  -1.831  1.00  0.00     0.331 C 
ATOM      5  O   UNL     1       5.989  -2.682  -1.466  1.00  0.00    -0.247 OA
BRANCH   4   6
ATOM      6  C   UNL     1       4.135  -1.378  -0.852  1.00  0.00     0.099 C 
ATOM      7  C   UNL     1       3.040  -0.667  -1.155  1.00  0.00     0.078 C 
BRANCH   7   8
ATOM      8  C   UNL     1       2.207  -0.010  -0.120  1.00  0.00     0.244 C 
ATOM      9  O   UNL     1       1.004   0.122  -0.296  1.00  0.00    -0.270 OA
ATOM     10  N   UNL     1       2.882   0.445   0.983  1.00  0.00    -0.348 N 
ATOM     11  H   UNL     1       3.866   0.478   0.965  1.00  0.00     0.164 HD
BRANCH  10  12
ATOM     12  C   UNL     1       2.182   0.877   2.170  1.00  0.00     0.163 C 
BRANCH  12  13
ATOM     13  C   UNL     1       2.435  -0.111   3.272  1.00  0.00     0.024 A 
ATOM     14  C   UNL     1       2.901   0.127   4.551  1.00  0.00     0.018 A 
ATOM     15  S   UNL     1       2.101  -1.779   3.040  1.00  0.00    -0.138 S 
ATOM     16  C   UNL     1       2.983  -1.066   5.333  1.00  0.00     0.022 A 
ATOM     17  C   UNL     1       2.595  -2.186   4.626  1.00  0.00     0.045 A 
BRANCH  17  18
ATOM     18  C   UNL     1       2.551  -3.550   5.076  1.00  0.00     0.044 A 
ATOM     19  C   UNL     1       3.124  -4.650   4.466  1.00  0.00     0.021 A 
ATOM     20  S   UNL     1       1.697  -3.996   6.493  1.00  0.00    -0.143 S 
ATOM     21  C   UNL     1       2.831  -5.867   5.149  1.00  0.00     0.012 A 
ATOM     22  C   UNL     1       2.045  -5.655   6.259  1.00  0.00     0.065 A 
ENDBRANCH  17  18
ENDBRANCH  12  13
ENDBRANCH  10  12
ENDBRANCH   7   8
ENDBRANCH   4   6
ENDBRANCH   3   4
ENDBRANCH   2   3
ENDBRANCH   1   2
BRANCH   1  23
ATOM     23  O   UNL     1       6.851  -0.136  -4.135  1.00  0.00    -0.374 OA
BRANCH  23  24
ATOM     24  C   UNL     1       6.144   0.859  -3.392  1.00  0.00     0.202 C 
BRANCH  24  25
ATOM     25  C   UNL     1       5.684   2.086  -4.188  1.00  0.00     0.261 C 
BRANCH  25  26
ATOM     26  O   UNL     1       4.615   1.764  -5.097  1.00  0.00    -0.460 OA
BRANCH  26  27
ATOM     27  C   UNL     1       4.956   1.782  -6.408  1.00  0.00     0.338 C 
ATOM     28  O   UNL     1       6.036   2.113  -6.878  1.00  0.00    -0.246 OA
BRANCH  27  29
ATOM     29  C   UNL     1       3.889   1.161  -7.219  1.00  0.00     0.060 A 
ATOM     30  C   UNL     1       4.270   0.186  -8.150  1.00  0.00     0.016 A 
ATOM     31  C   UNL     1       2.553   1.553  -7.114  1.00  0.00     0.016 A 
ATOM     32  C   UNL     1       3.323  -0.369  -9.011  1.00  0.00     0.010 A 
ATOM     33  C   UNL     1       1.605   1.001  -7.985  1.00  0.00     0.010 A 
ATOM     34  C   UNL     1       1.991   0.060  -8.958  1.00  0.00    -0.014 A 
BRANCH  34  35
ATOM     35  C   UNL     1       1.033  -0.371 -10.008  1.00  0.00     0.031 A 
ATOM     36  C   UNL     1       0.730   0.569 -11.146  1.00  0.00     0.074 A 
ATOM     37  C   UNL     1       0.451  -1.583  -9.957  1.00  0.00     0.049 A 
ATOM     38  N   UNL     1      -0.111   0.428 -12.137  1.00  0.00    -0.248 NA
ATOM     39  C   UNL     1       1.476   1.837 -11.163  1.00  0.00     0.031 C 
ATOM     40  C   UNL     1       0.701  -2.596  -8.931  1.00  0.00     0.029 A 
ATOM     41  N   UNL     1      -0.477  -2.166 -10.784  1.00  0.00    -0.354 N 
ATOM     42  C   UNL     1      -0.011   1.596 -12.887  1.00  0.00     0.074 A 
ATOM     43  C   UNL     1       0.959   2.441 -12.224  1.00  0.00     0.031 C 
ATOM     44  C   UNL     1      -0.068  -3.670  -9.183  1.00  0.00     0.029 A 
ATOM     45  C   UNL     1      -0.893  -3.408 -10.361  1.00  0.00     0.049 A 
ATOM     46  H   UNL     1      -0.815  -1.736 -11.602  1.00  0.00     0.167 HD
ATOM     47  C   UNL     1      -0.668   1.929 -14.025  1.00  0.00     0.034 A 
ATOM     48  C   UNL     1      -1.850  -4.223 -10.851  1.00  0.00     0.034 A 
ATOM     49  C   UNL     1      -1.627   1.074 -14.679  1.00  0.00     0.049 A 
ATOM     50  C   UNL     1      -2.624  -3.791 -12.076  1.00  0.00     0.074 A 
ATOM     51  C   UNL     1      -2.312   1.296 -15.862  1.00  0.00     0.029 A 
ATOM     52  N   UNL     1      -2.052  -0.158 -14.201  1.00  0.00    -0.354 N 
ATOM     53  N   UNL     1      -2.494  -2.698 -12.794  1.00  0.00    -0.248 NA
ATOM     54  C   UNL     1      -3.670  -4.704 -12.559  1.00  0.00     0.031 C 
ATOM     55  C   UNL     1      -3.204   0.237 -16.058  1.00  0.00     0.029 A 
ATOM     56  C   UNL     1      -3.019  -0.687 -15.042  1.00  0.00     0.049 A 
ATOM     57  H   UNL     1      -1.715  -0.593 -13.384  1.00  0.00     0.167 HD
ATOM     58  C   UNL     1      -3.414  -2.817 -13.835  1.00  0.00     0.074 A 
ATOM     59  C   UNL     1      -4.083  -4.087 -13.656  1.00  0.00     0.031 C 
ATOM     60  C   UNL     1      -3.677  -1.957 -14.852  1.00  0.00     0.034 A 
BRANCH  47  61
ATOM     61  C   UNL     1      -0.419   3.300 -14.602  1.00  0.00     0.023 A 
ATOM     62  C   UNL     1       0.824   3.668 -15.144  1.00  0.00     0.031 A 
ATOM     63  C   UNL     1      -1.453   4.254 -14.613  1.00  0.00     0.131 A 
ATOM     64  C   UNL     1       1.016   4.972 -15.629  1.00  0.00     0.055 A 
ATOM     65  C   UNL     1      -1.276   5.526 -15.158  1.00  0.00     0.041 A 
ATOM     66  F   UNL     1      -2.654   3.964 -14.088  1.00  0.00    -0.206 F 
ATOM     67  C   UNL     1      -0.033   5.895 -15.661  1.00  0.00     0.022 A 
BRANCH  64  68
ATOM     68  S   UNL     1       2.686   5.482 -16.119  1.00  0.00     0.124 S 
ATOM     69  O   UNL     1       3.427   5.302 -14.873  1.00  0.00    -0.237 OA
ATOM     70  O   UNL     1       3.001   4.546 -17.191  1.00  0.00    -0.237 OA
ATOM     71  O   UNL     1       2.511   6.872 -16.536  1.00  0.00    -0.744 OA
ENDBRANCH  64  68
ENDBRANCH  47  61
BRANCH  48  72
ATOM     72  C   UNL     1      -2.182  -5.510 -10.171  1.00  0.00     0.023 A 
ATOM     73  C   UNL     1      -2.044  -6.739 -10.836  1.00  0.00     0.031 A 
ATOM     74  C   UNL     1      -2.731  -5.522  -8.876  1.00  0.00     0.131 A 
ATOM     75  C   UNL     1      -2.507  -7.919 -10.233  1.00  0.00     0.055 A 
ATOM     76  C   UNL     1      -3.134  -6.706  -8.255  1.00  0.00     0.041 A 
ATOM     77  F   UNL     1      -2.891  -4.377  -8.194  1.00  0.00    -0.206 F 
ATOM     78  C   UNL     1      -3.039  -7.912  -8.942  1.00  0.00     0.022 A 
BRANCH  75  79
ATOM     79  S   UNL     1      -2.514  -9.448 -11.210  1.00  0.00     0.124 S 
ATOM     80  O   UNL     1      -3.299  -9.052 -12.373  1.00  0.00    -0.237 OA
ATOM     81  O   UNL     1      -1.090  -9.665 -11.439  1.00  0.00    -0.237 OA
ATOM     82  O   UNL     1      -3.156 -10.415 -10.322  1.00  0.00    -0.744 OA
ENDBRANCH  75  79
ENDBRANCH  48  72
BRANCH  60  83
ATOM     83  C   UNL     1      -4.689  -2.396 -15.883  1.00  0.00     0.023 A 
ATOM     84  C   UNL     1      -6.053  -2.536 -15.574  1.00  0.00     0.031 A 
ATOM     85  C   UNL     1      -4.275  -2.680 -17.197  1.00  0.00     0.131 A 
ATOM     86  C   UNL     1      -6.947  -2.998 -16.553  1.00  0.00     0.055 A 
ATOM     87  C   UNL     1      -5.178  -3.082 -18.182  1.00  0.00     0.041 A 
ATOM     88  F   UNL     1      -2.984  -2.564 -17.547  1.00  0.00    -0.206 F 
ATOM     89  C   UNL     1      -6.520  -3.255 -17.859  1.00  0.00     0.022 A 
BRANCH  86  90
ATOM     90  S   UNL     1      -8.664  -3.336 -16.078  1.00  0.00     0.124 S 
ATOM     91  O   UNL     1      -8.498  -4.343 -15.035  1.00  0.00    -0.237 OA
ATOM     92  O   UNL     1      -9.129  -2.027 -15.632  1.00  0.00    -0.237 OA
ATOM     93  O   UNL     1      -9.274  -3.820 -17.316  1.00  0.00    -0.744 OA
ENDBRANCH  86  90
ENDBRANCH  60  83
ENDBRANCH  34  35
ENDBRANCH  27  29
ENDBRANCH  26  27
ENDBRANCH  25  26
ENDBRANCH  24  25
ENDBRANCH  23  24
ENDBRANCH   1  23
TORSDOF 21
