REMARK SMILES Cc1ccc(N)cc1S(=O)(=O)Nc1cccc(C(=O)OCCOCCOC(=O)c2ccc(-c3c4nc(c(-c5cc(S(=O)(=O)[O-])ccc5F)c5ccc([nH]5)c(-c5cc(S(=O)(=O)[O-])ccc5F)c5nc(c(-c6cc(S(=O)(=O)[O-])ccc6F)c6ccc3[nH]6)C=C5)C=C4)cc2)c1
REMARK SMILES IDX 22 1 21 2 20 3 18 4 19 5 17 6 13 7 14 8 92 9 15 10 16 11
REMARK SMILES IDX 12 12 9 14 10 15 11 16 8 17 1 18 2 19 3 20 4 21 7 22 5 23
REMARK SMILES IDX 6 24 23 27 24 28 25 29 26 30 27 31 28 32 29 33 30 34 91 35
REMARK SMILES IDX 31 36 90 37 32 38 33 39 34 40 84 41 35 42 89 43 83 44 85 45
REMARK SMILES IDX 36 46 88 47 82 48 81 49 37 51 69 52 49 53 68 54 50 55 53 56
REMARK SMILES IDX 67 57 86 58 51 59 52 60 66 62 87 63 54 64 38 65 39 66 47 67
REMARK SMILES IDX 40 68 46 69 48 70 45 71 41 72 42 73 43 74 44 75 70 76 71 77
REMARK SMILES IDX 79 78 72 79 78 80 80 81 77 82 73 83 74 84 75 85 76 86 55 87
REMARK SMILES IDX 56 88 64 89 57 90 63 91 65 92 62 93 58 94 59 95 60 96 61 97
REMARK H PARENT 12 13 6 25 6 26 85 50 53 61
REMARK Flexibility Score: inf
ROOT
ATOM      1  C   UNL     1      -2.666  -3.614   4.388  1.00  0.00     0.202 C 
ENDROOT
BRANCH   1   2
ATOM      2  C   UNL     1      -1.969  -3.176   3.096  1.00  0.00     0.261 C 
BRANCH   2   3
ATOM      3  O   UNL     1      -2.549  -1.984   2.546  1.00  0.00    -0.460 OA
BRANCH   3   4
ATOM      4  C   UNL     1      -3.162  -2.159   1.354  1.00  0.00     0.338 C 
ATOM      5  O   UNL     1      -3.211  -3.176   0.684  1.00  0.00    -0.246 OA
BRANCH   4   6
ATOM      6  C   UNL     1      -3.928  -0.952   0.990  1.00  0.00     0.062 A 
ATOM      7  C   UNL     1      -3.888   1.320   0.260  1.00  0.00     0.050 A 
ATOM      8  C   UNL     1      -5.165   1.157  -0.300  1.00  0.00     0.027 A 
ATOM      9  C   UNL     1      -3.329   0.307   1.033  1.00  0.00     0.042 A 
ATOM     10  C   UNL     1      -5.819  -0.070  -0.228  1.00  0.00     0.003 A 
ATOM     11  C   UNL     1      -5.173  -1.143   0.371  1.00  0.00     0.016 A 
BRANCH   7  12
ATOM     12  N   UNL     1      -3.135   2.404  -0.259  1.00  0.00    -0.280 N 
ATOM     13  H   UNL     1      -3.633   3.061  -0.797  1.00  0.00     0.180 HD
BRANCH  12  14
ATOM     14  S   UNL     1      -1.508   2.697  -0.065  1.00  0.00     0.262 S 
ATOM     15  O   UNL     1      -1.312   2.997   1.342  1.00  0.00    -0.201 OA
ATOM     16  O   UNL     1      -1.182   3.669  -1.084  1.00  0.00    -0.201 OA
BRANCH  14  17
ATOM     17  C   UNL     1      -0.539   1.236  -0.432  1.00  0.00     0.092 A 
ATOM     18  C   UNL     1      -2.151  -0.023  -2.029  1.00  0.00     0.046 C 
ATOM     19  C   UNL     1      -0.961   0.090  -1.124  1.00  0.00    -0.030 A 
ATOM     20  C   UNL     1      -0.176  -1.073  -0.998  1.00  0.00     0.007 A 
ATOM     21  C   UNL     1       1.070  -1.047  -0.367  1.00  0.00     0.026 A 
ATOM     22  C   UNL     1       0.742   1.255   0.159  1.00  0.00     0.048 A 
ATOM     23  C   UNL     1       1.583   0.146   0.125  1.00  0.00     0.033 A 
BRANCH  23  24
ATOM     24  N   UNL     1       2.840   0.196   0.697  1.00  0.00    -0.399 N 
ATOM     25  H   UNL     1       3.426  -0.595   0.667  1.00  0.00     0.156 HD
ATOM     26  H   UNL     1       3.149   1.022   1.135  1.00  0.00     0.156 HD
ENDBRANCH  23  24
ENDBRANCH  14  17
ENDBRANCH  12  14
ENDBRANCH   7  12
ENDBRANCH   4   6
ENDBRANCH   3   4
ENDBRANCH   2   3
ENDBRANCH   1   2
BRANCH   1  27
ATOM     27  O   UNL     1      -4.050  -3.953   4.342  1.00  0.00    -0.374 OA
BRANCH  27  28
ATOM     28  C   UNL     1      -5.000  -2.961   3.973  1.00  0.00     0.202 C 
BRANCH  28  29
ATOM     29  C   UNL     1      -5.211  -1.720   4.856  1.00  0.00     0.261 C 
BRANCH  29  30
ATOM     30  O   UNL     1      -4.015  -1.036   5.249  1.00  0.00    -0.460 OA
BRANCH  30  31
ATOM     31  C   UNL     1      -3.668  -1.250   6.546  1.00  0.00     0.338 C 
ATOM     32  O   UNL     1      -4.259  -1.945   7.354  1.00  0.00    -0.246 OA
BRANCH  31  33
ATOM     33  C   UNL     1      -2.352  -0.652   6.836  1.00  0.00     0.060 A 
ATOM     34  C   UNL     1      -1.349  -1.505   7.313  1.00  0.00     0.016 A 
ATOM     35  C   UNL     1      -2.144   0.726   6.767  1.00  0.00     0.016 A 
ATOM     36  C   UNL     1      -0.147  -0.976   7.774  1.00  0.00     0.010 A 
ATOM     37  C   UNL     1      -0.939   1.257   7.242  1.00  0.00     0.010 A 
ATOM     38  C   UNL     1       0.046   0.411   7.785  1.00  0.00    -0.014 A 
BRANCH  38  39
ATOM     39  C   UNL     1       1.203   0.969   8.530  1.00  0.00     0.031 A 
ATOM     40  C   UNL     1       0.983   1.492   9.924  1.00  0.00     0.074 A 
ATOM     41  C   UNL     1       2.437   0.951   7.996  1.00  0.00     0.049 A 
ATOM     42  N   UNL     1       1.838   2.025  10.758  1.00  0.00    -0.248 NA
ATOM     43  C   UNL     1      -0.390   1.401  10.444  1.00  0.00     0.031 C 
ATOM     44  C   UNL     1       2.776   0.420   6.676  1.00  0.00     0.029 A 
ATOM     45  N   UNL     1       3.634   1.388   8.502  1.00  0.00    -0.354 N 
ATOM     46  C   UNL     1       1.109   2.337  11.901  1.00  0.00     0.074 A 
ATOM     47  C   UNL     1      -0.266   1.971  11.633  1.00  0.00     0.031 C 
ATOM     48  C   UNL     1       4.097   0.567   6.475  1.00  0.00     0.029 A 
ATOM     49  C   UNL     1       4.689   1.235   7.633  1.00  0.00     0.049 A 
ATOM     50  H   UNL     1       3.730   1.776   9.402  1.00  0.00     0.167 HD
ATOM     51  C   UNL     1       1.547   2.871  13.068  1.00  0.00     0.034 A 
ATOM     52  C   UNL     1       5.978   1.611   7.752  1.00  0.00     0.034 A 
ATOM     53  C   UNL     1       2.921   3.244  13.310  1.00  0.00     0.049 A 
ATOM     54  C   UNL     1       6.428   2.283   9.027  1.00  0.00     0.074 A 
ATOM     55  C   UNL     1       3.478   3.791  14.453  1.00  0.00     0.029 A 
ATOM     56  N   UNL     1       3.953   3.122  12.387  1.00  0.00    -0.354 N 
ATOM     57  N   UNL     1       5.731   2.574  10.102  1.00  0.00    -0.248 NA
ATOM     58  C   UNL     1       7.843   2.668   9.107  1.00  0.00     0.031 C 
ATOM     59  C   UNL     1       4.826   4.065  14.197  1.00  0.00     0.029 A 
ATOM     60  C   UNL     1       5.135   3.611  12.924  1.00  0.00     0.049 A 
ATOM     61  H   UNL     1       3.859   2.743  11.484  1.00  0.00     0.167 HD
ATOM     62  C   UNL     1       6.632   3.143  10.998  1.00  0.00     0.074 A 
ATOM     63  C   UNL     1       7.923   3.143  10.341  1.00  0.00     0.031 C 
ATOM     64  C   UNL     1       6.415   3.615  12.254  1.00  0.00     0.034 A 
BRANCH  51  65
ATOM     65  C   UNL     1       0.515   3.134  14.140  1.00  0.00     0.023 A 
ATOM     66  C   UNL     1      -0.215   2.092  14.740  1.00  0.00     0.031 A 
ATOM     67  C   UNL     1       0.228   4.452  14.540  1.00  0.00     0.131 A 
ATOM     68  C   UNL     1      -1.245   2.390  15.647  1.00  0.00     0.055 A 
ATOM     69  C   UNL     1      -0.741   4.736  15.504  1.00  0.00     0.041 A 
ATOM     70  F   UNL     1       0.875   5.490  13.986  1.00  0.00    -0.206 F 
ATOM     71  C   UNL     1      -1.496   3.703  16.051  1.00  0.00     0.022 A 
BRANCH  68  72
ATOM     72  S   UNL     1      -2.352   1.053  16.174  1.00  0.00     0.124 S 
ATOM     73  O   UNL     1      -2.878   0.583  14.894  1.00  0.00    -0.237 OA
ATOM     74  O   UNL     1      -1.444   0.145  16.865  1.00  0.00    -0.237 OA
ATOM     75  O   UNL     1      -3.326   1.730  17.027  1.00  0.00    -0.744 OA
ENDBRANCH  68  72
ENDBRANCH  51  65
BRANCH  52  76
ATOM     76  C   UNL     1       6.932   1.398   6.626  1.00  0.00     0.023 A 
ATOM     77  C   UNL     1       8.045   0.554   6.762  1.00  0.00     0.031 A 
ATOM     78  C   UNL     1       6.768   2.081   5.407  1.00  0.00     0.131 A 
ATOM     79  C   UNL     1       8.975   0.449   5.715  1.00  0.00     0.055 A 
ATOM     80  C   UNL     1       7.667   1.932   4.350  1.00  0.00     0.041 A 
ATOM     81  F   UNL     1       5.721   2.901   5.223  1.00  0.00    -0.206 F 
ATOM     82  C   UNL     1       8.786   1.121   4.506  1.00  0.00     0.022 A 
BRANCH  79  83
ATOM     83  S   UNL     1      10.484  -0.521   5.986  1.00  0.00     0.124 S 
ATOM     84  O   UNL     1      11.075   0.163   7.131  1.00  0.00    -0.237 OA
ATOM     85  O   UNL     1       9.946  -1.853   6.240  1.00  0.00    -0.237 OA
ATOM     86  O   UNL     1      11.212  -0.375   4.727  1.00  0.00    -0.744 OA
ENDBRANCH  79  83
ENDBRANCH  52  76
BRANCH  64  87
ATOM     87  C   UNL     1       7.619   4.119  13.016  1.00  0.00     0.023 A 
ATOM     88  C   UNL     1       8.330   5.263  12.614  1.00  0.00     0.031 A 
ATOM     89  C   UNL     1       8.068   3.430  14.158  1.00  0.00     0.131 A 
ATOM     90  C   UNL     1       9.487   5.648  13.311  1.00  0.00     0.055 A 
ATOM     91  C   UNL     1       9.181   3.855  14.884  1.00  0.00     0.041 A 
ATOM     92  F   UNL     1       7.429   2.329  14.587  1.00  0.00    -0.206 F 
ATOM     93  C   UNL     1       9.906   4.961  14.453  1.00  0.00     0.022 A 
BRANCH  90  94
ATOM     94  S   UNL     1      10.499   6.997  12.643  1.00  0.00     0.124 S 
ATOM     95  O   UNL     1      10.808   6.511  11.303  1.00  0.00    -0.237 OA
ATOM     96  O   UNL     1       9.588   8.135  12.714  1.00  0.00    -0.237 OA
ATOM     97  O   UNL     1      11.637   7.058  13.558  1.00  0.00    -0.744 OA
ENDBRANCH  90  94
ENDBRANCH  64  87
ENDBRANCH  38  39
ENDBRANCH  31  33
ENDBRANCH  30  31
ENDBRANCH  29  30
ENDBRANCH  28  29
ENDBRANCH  27  28
ENDBRANCH   1  27
TORSDOF 21
