REMARK SMILES C[C@H]1CCC[C@](Cc2cn3ccccc3n2)(C(=O)OCCOCCOC(=O)c2ccc(-c3c4nc(c(-c5cc(S(=O)(=O)[O-])ccc5F)c5ccc([nH]5)c(-c5cc(S(=O)(=O)[O-])ccc5F)c5nc(c(-c6cc(S(=O)(=O)[O-])ccc6F)c6ccc3[nH]6)C=C5)C=C4)cc2)C1
REMARK SMILES IDX 23 1 22 2 21 3 20 4 19 5 17 6 18 7 6 8 1 9 2 10 3 11 91 12
REMARK SMILES IDX 4 13 5 14 7 15 8 16 9 17 16 18 10 19 15 20 11 21 14 22 12 23
REMARK SMILES IDX 13 24 24 25 25 26 26 27 27 28 28 29 29 30 90 31 30 32 89 33
REMARK SMILES IDX 31 34 32 35 33 36 83 37 34 38 88 39 82 40 84 41 35 42 87 43
REMARK SMILES IDX 81 44 80 45 36 47 68 48 48 49 67 50 49 51 52 52 66 53 85 54
REMARK SMILES IDX 50 55 51 56 65 58 86 59 53 60 37 61 38 62 46 63 39 64 45 65
REMARK SMILES IDX 47 66 44 67 40 68 41 69 42 70 43 71 69 72 70 73 78 74 71 75
REMARK SMILES IDX 77 76 79 77 76 78 72 79 73 80 74 81 75 82 54 83 55 84 63 85
REMARK SMILES IDX 56 86 62 87 64 88 61 89 57 90 58 91 59 92 60 93
REMARK H PARENT 84 46 52 57
REMARK Flexibility Score: inf
ROOT
ATOM      1  C   UNL     1      -3.709  -1.313   2.795  1.00  0.00     0.202 C 
ENDROOT
BRANCH   1   2
ATOM      2  O   UNL     1      -3.142  -1.652   4.059  1.00  0.00    -0.374 OA
BRANCH   2   3
ATOM      3  C   UNL     1      -2.029  -0.880   4.511  1.00  0.00     0.202 C 
BRANCH   3   4
ATOM      4  C   UNL     1      -0.692  -1.159   3.827  1.00  0.00     0.261 C 
BRANCH   4   5
ATOM      5  O   UNL     1      -0.738  -0.810   2.432  1.00  0.00    -0.463 OA
BRANCH   5   6
ATOM      6  C   UNL     1      -0.465  -1.812   1.561  1.00  0.00     0.312 C 
ATOM      7  O   UNL     1      -0.128  -2.941   1.904  1.00  0.00    -0.252 OA
BRANCH   6   8
ATOM      8  C   UNL     1      -0.554  -1.386   0.080  1.00  0.00     0.074 C 
ATOM      9  C   UNL     1       2.938   0.329  -0.261  1.00  0.00     0.007 C 
ATOM     10  C   UNL     1       1.493   0.159   0.207  1.00  0.00    -0.013 C 
ATOM     11  C   UNL     1       0.640   1.356  -0.225  1.00  0.00     0.003 C 
ATOM     12  C   UNL     1       0.904  -1.142  -0.362  1.00  0.00     0.022 C 
ATOM     13  C   UNL     1      -0.810   1.205   0.219  1.00  0.00     0.001 C 
ATOM     14  C   UNL     1      -1.421  -0.133  -0.207  1.00  0.00     0.019 C 
BRANCH   8  15
ATOM     15  C   UNL     1      -1.197  -2.639  -0.597  1.00  0.00     0.076 C 
BRANCH  15  16
ATOM     16  C   UNL     1      -1.417  -2.647  -2.076  1.00  0.00     0.061 A 
ATOM     17  C   UNL     1      -0.523  -2.464  -3.111  1.00  0.00     0.116 A 
ATOM     18  N   UNL     1      -2.645  -3.035  -2.579  1.00  0.00    -0.234 NA
ATOM     19  N   UNL     1      -1.215  -2.722  -4.264  1.00  0.00    -0.307 N 
ATOM     20  C   UNL     1      -2.495  -3.103  -3.886  1.00  0.00     0.136 A 
ATOM     21  C   UNL     1      -0.778  -2.671  -5.584  1.00  0.00     0.093 A 
ATOM     22  C   UNL     1      -3.379  -3.510  -4.927  1.00  0.00     0.048 A 
ATOM     23  C   UNL     1      -1.622  -3.033  -6.566  1.00  0.00     0.018 A 
ATOM     24  C   UNL     1      -2.961  -3.482  -6.209  1.00  0.00     0.005 A 
ENDBRANCH  15  16
ENDBRANCH   8  15
ENDBRANCH   6   8
ENDBRANCH   5   6
ENDBRANCH   4   5
ENDBRANCH   3   4
ENDBRANCH   2   3
ENDBRANCH   1   2
BRANCH   1  25
ATOM     25  C   UNL     1      -4.559  -0.036   2.731  1.00  0.00     0.261 C 
BRANCH  25  26
ATOM     26  O   UNL     1      -3.801   1.163   2.978  1.00  0.00    -0.460 OA
BRANCH  26  27
ATOM     27  C   UNL     1      -4.095   1.784   4.147  1.00  0.00     0.338 C 
ATOM     28  O   UNL     1      -4.952   1.448   4.958  1.00  0.00    -0.246 OA
BRANCH  27  29
ATOM     29  C   UNL     1      -3.117   2.848   4.439  1.00  0.00     0.060 A 
ATOM     30  C   UNL     1      -2.476   2.810   5.684  1.00  0.00     0.016 A 
ATOM     31  C   UNL     1      -2.905   3.918   3.567  1.00  0.00     0.016 A 
ATOM     32  C   UNL     1      -1.663   3.868   6.087  1.00  0.00     0.010 A 
ATOM     33  C   UNL     1      -2.095   4.986   3.979  1.00  0.00     0.010 A 
ATOM     34  C   UNL     1      -1.501   4.984   5.255  1.00  0.00    -0.014 A 
BRANCH  34  35
ATOM     35  C   UNL     1      -0.849   6.205   5.797  1.00  0.00     0.031 A 
ATOM     36  C   UNL     1      -1.715   7.331   6.297  1.00  0.00     0.074 A 
ATOM     37  C   UNL     1       0.491   6.287   5.896  1.00  0.00     0.049 A 
ATOM     38  N   UNL     1      -1.368   8.493   6.786  1.00  0.00    -0.248 NA
ATOM     39  C   UNL     1      -3.170   7.113   6.240  1.00  0.00     0.031 C 
ATOM     40  C   UNL     1       1.432   5.240   5.502  1.00  0.00     0.029 A 
ATOM     41  N   UNL     1       1.292   7.301   6.361  1.00  0.00    -0.354 N 
ATOM     42  C   UNL     1      -2.557   9.145   7.098  1.00  0.00     0.074 A 
ATOM     43  C   UNL     1      -3.635   8.262   6.707  1.00  0.00     0.031 C 
ATOM     44  C   UNL     1       2.684   5.670   5.734  1.00  0.00     0.029 A 
ATOM     45  C   UNL     1       2.638   7.035   6.255  1.00  0.00     0.049 A 
ATOM     46  H   UNL     1       0.937   8.139   6.734  1.00  0.00     0.167 HD
ATOM     47  C   UNL     1      -2.733  10.363   7.668  1.00  0.00     0.034 A 
ATOM     48  C   UNL     1       3.707   7.813   6.524  1.00  0.00     0.034 A 
ATOM     49  C   UNL     1      -1.652  11.240   8.044  1.00  0.00     0.049 A 
ATOM     50  C   UNL     1       3.482   9.206   7.066  1.00  0.00     0.074 A 
ATOM     51  C   UNL     1      -1.721  12.497   8.621  1.00  0.00     0.029 A 
ATOM     52  N   UNL     1      -0.303  10.957   7.874  1.00  0.00    -0.354 N 
ATOM     53  N   UNL     1       2.351   9.811   7.350  1.00  0.00    -0.248 NA
ATOM     54  C   UNL     1       4.678  10.017   7.332  1.00  0.00     0.031 C 
ATOM     55  C   UNL     1      -0.421  12.999   8.740  1.00  0.00     0.029 A 
ATOM     56  C   UNL     1       0.466  12.026   8.309  1.00  0.00     0.049 A 
ATOM     57  H   UNL     1       0.055  10.120   7.500  1.00  0.00     0.167 HD
ATOM     58  C   UNL     1       2.705  11.058   7.862  1.00  0.00     0.074 A 
ATOM     59  C   UNL     1       4.152  11.112   7.860  1.00  0.00     0.031 C 
ATOM     60  C   UNL     1       1.909  12.067   8.299  1.00  0.00     0.034 A 
BRANCH  47  61
ATOM     61  C   UNL     1      -4.151  10.835   7.874  1.00  0.00     0.023 A 
ATOM     62  C   UNL     1      -5.018  10.200   8.780  1.00  0.00     0.031 A 
ATOM     63  C   UNL     1      -4.645  11.933   7.147  1.00  0.00     0.131 A 
ATOM     64  C   UNL     1      -6.348  10.635   8.897  1.00  0.00     0.055 A 
ATOM     65  C   UNL     1      -5.947  12.405   7.319  1.00  0.00     0.041 A 
ATOM     66  F   UNL     1      -3.869  12.564   6.252  1.00  0.00    -0.206 F 
ATOM     67  C   UNL     1      -6.811  11.748   8.191  1.00  0.00     0.022 A 
BRANCH  64  68
ATOM     68  S   UNL     1      -7.498   9.656   9.902  1.00  0.00     0.124 S 
ATOM     69  O   UNL     1      -7.466   8.367   9.215  1.00  0.00    -0.237 OA
ATOM     70  O   UNL     1      -6.877   9.694  11.220  1.00  0.00    -0.237 OA
ATOM     71  O   UNL     1      -8.760  10.385   9.786  1.00  0.00    -0.744 OA
ENDBRANCH  64  68
ENDBRANCH  47  61
BRANCH  48  72
ATOM     72  C   UNL     1       5.091   7.331   6.241  1.00  0.00     0.023 A 
ATOM     73  C   UNL     1       6.043   7.207   7.266  1.00  0.00     0.031 A 
ATOM     74  C   UNL     1       5.508   7.073   4.922  1.00  0.00     0.131 A 
ATOM     75  C   UNL     1       7.375   6.895   6.950  1.00  0.00     0.055 A 
ATOM     76  C   UNL     1       6.820   6.704   4.620  1.00  0.00     0.041 A 
ATOM     77  F   UNL     1       4.642   7.181   3.902  1.00  0.00    -0.206 F 
ATOM     78  C   UNL     1       7.767   6.631   5.636  1.00  0.00     0.022 A 
BRANCH  75  79
ATOM     79  S   UNL     1       8.618   6.956   8.271  1.00  0.00     0.124 S 
ATOM     80  O   UNL     1       8.450   8.315   8.773  1.00  0.00    -0.237 OA
ATOM     81  O   UNL     1       8.172   5.884   9.154  1.00  0.00    -0.237 OA
ATOM     82  O   UNL     1       9.874   6.701   7.568  1.00  0.00    -0.744 OA
ENDBRANCH  75  79
ENDBRANCH  48  72
BRANCH  60  83
ATOM     83  C   UNL     1       2.592  13.289   8.863  1.00  0.00     0.023 A 
ATOM     84  C   UNL     1       3.353  14.152   8.056  1.00  0.00     0.031 A 
ATOM     85  C   UNL     1       2.485  13.587  10.234  1.00  0.00     0.131 A 
ATOM     86  C   UNL     1       4.024  15.240   8.636  1.00  0.00     0.055 A 
ATOM     87  C   UNL     1       3.107  14.703  10.794  1.00  0.00     0.041 A 
ATOM     88  F   UNL     1       1.771  12.796  11.051  1.00  0.00    -0.206 F 
ATOM     89  C   UNL     1       3.893  15.530   9.997  1.00  0.00     0.022 A 
BRANCH  86  90
ATOM     90  S   UNL     1       5.144  16.226   7.604  1.00  0.00     0.124 S 
ATOM     91  O   UNL     1       6.095  15.220   7.141  1.00  0.00    -0.237 OA
ATOM     92  O   UNL     1       4.242  16.763   6.590  1.00  0.00    -0.237 OA
ATOM     93  O   UNL     1       5.689  17.214   8.533  1.00  0.00    -0.744 OA
ENDBRANCH  86  90
ENDBRANCH  60  83
ENDBRANCH  34  35
ENDBRANCH  27  29
ENDBRANCH  26  27
ENDBRANCH  25  26
ENDBRANCH   1  25
TORSDOF 19
