REMARK SMILES COc1cccc([C@@H]2CN(C(=O)CCSC)C[C@H]2C(=O)OCCOCCOC(=O)c2ccc(-c3c4nc(c(-c5cc(S(=O)(=O)[O-])ccc5F)c5ccc([nH]5)c(-c5cc(S(=O)(=O)[O-])ccc5F)c5nc(c(-c6cc(S(=O)(=O)[O-])ccc6F)c6ccc3[nH]6)C=C5)C=C4)cc2)c1OC
REMARK SMILES IDX 23 1 22 2 21 3 19 4 20 5 18 6 8 7 9 8 10 9 17 10 7 11 3 12
REMARK SMILES IDX 4 13 93 14 5 15 6 16 2 17 1 18 94 19 95 20 11 21 12 22 13 23
REMARK SMILES IDX 14 24 15 25 16 26 24 27 25 28 26 29 27 30 28 31 29 32 30 33
REMARK SMILES IDX 31 34 92 35 32 36 91 37 33 38 34 39 35 40 85 41 36 42 90 43
REMARK SMILES IDX 84 44 86 45 37 46 89 47 83 48 82 49 38 51 70 52 50 53 69 54
REMARK SMILES IDX 51 55 54 56 68 57 87 58 52 59 53 60 67 62 88 63 55 64 39 65
REMARK SMILES IDX 40 66 48 67 41 68 47 69 49 70 46 71 42 72 43 73 44 74 45 75
REMARK SMILES IDX 71 76 72 77 80 78 73 79 79 80 81 81 78 82 74 83 75 84 76 85
REMARK SMILES IDX 77 86 56 87 57 88 65 89 58 90 64 91 66 92 63 93 59 94 60 95
REMARK SMILES IDX 61 96 62 97
REMARK H PARENT 86 50 54 61
REMARK Flexibility Score: inf
ROOT
ATOM      1  C   UNL     1       3.280  -6.150  -4.759  1.00  0.00     0.202 C 
ENDROOT
BRANCH   1   2
ATOM      2  C   UNL     1       4.695  -5.809  -4.287  1.00  0.00     0.261 C 
BRANCH   2   3
ATOM      3  O   UNL     1       4.746  -5.427  -2.901  1.00  0.00    -0.463 OA
BRANCH   3   4
ATOM      4  C   UNL     1       4.959  -4.106  -2.663  1.00  0.00     0.311 C 
ATOM      5  O   UNL     1       5.100  -3.249  -3.529  1.00  0.00    -0.252 OA
BRANCH   4   6
ATOM      6  C   UNL     1       5.089  -3.785  -1.197  1.00  0.00     0.128 C 
ATOM      7  C   UNL     1       4.171  -4.533  -0.201  1.00  0.00     0.059 C 
ATOM      8  C   UNL     1       5.038  -4.687   1.060  1.00  0.00     0.129 C 
ATOM      9  N   UNL     1       6.402  -4.388   0.663  1.00  0.00    -0.341 N 
ATOM     10  C   UNL     1       6.499  -4.144  -0.759  1.00  0.00     0.135 C 
BRANCH   7  11
ATOM     11  C   UNL     1       2.810  -3.951   0.192  1.00  0.00     0.004 A 
ATOM     12  C   UNL     1       1.253  -2.167   0.789  1.00  0.00     0.161 A 
ATOM     13  C   UNL     1       0.259  -3.111   1.065  1.00  0.00     0.050 A 
ATOM     14  C   UNL     1       2.544  -2.575   0.394  1.00  0.00     0.164 A 
ATOM     15  C   UNL     1       0.527  -4.465   0.917  1.00  0.00     0.004 A 
ATOM     16  C   UNL     1       1.785  -4.878   0.479  1.00  0.00     0.008 A 
BRANCH  12  17
ATOM     17  O   UNL     1       0.962  -0.847   1.028  1.00  0.00    -0.493 OA
ATOM     18  C   UNL     1       0.026  -0.342   0.073  1.00  0.00     0.278 C 
ENDBRANCH  12  17
BRANCH  14  19
ATOM     19  O   UNL     1       3.624  -1.743   0.280  1.00  0.00    -0.493 OA
ATOM     20  C   UNL     1       3.410  -0.373  -0.029  1.00  0.00     0.278 C 
ENDBRANCH  14  19
ENDBRANCH   7  11
BRANCH   9  21
ATOM     21  C   UNL     1       7.500  -4.275   1.480  1.00  0.00     0.223 C 
ATOM     22  O   UNL     1       8.608  -3.962   1.041  1.00  0.00    -0.275 OA
BRANCH  21  23
ATOM     23  C   UNL     1       7.312  -4.511   2.963  1.00  0.00     0.111 C 
BRANCH  23  24
ATOM     24  C   UNL     1       7.511  -3.224   3.756  1.00  0.00     0.079 C 
BRANCH  24  25
ATOM     25  S   UNL     1       5.991  -2.221   3.929  1.00  0.00    -0.165 SA
ATOM     26  C   UNL     1       6.112  -1.210   2.431  1.00  0.00     0.085 C 
ENDBRANCH  24  25
ENDBRANCH  23  24
ENDBRANCH  21  23
ENDBRANCH   9  21
ENDBRANCH   4   6
ENDBRANCH   3   4
ENDBRANCH   2   3
ENDBRANCH   1   2
BRANCH   1  27
ATOM     27  O   UNL     1       2.321  -5.100  -4.654  1.00  0.00    -0.374 OA
BRANCH  27  28
ATOM     28  C   UNL     1       1.746  -4.861  -3.366  1.00  0.00     0.202 C 
BRANCH  28  29
ATOM     29  C   UNL     1       0.866  -5.987  -2.819  1.00  0.00     0.261 C 
BRANCH  29  30
ATOM     30  O   UNL     1       1.673  -7.088  -2.348  1.00  0.00    -0.460 OA
BRANCH  30  31
ATOM     31  C   UNL     1       1.182  -8.305  -2.678  1.00  0.00     0.338 C 
ATOM     32  O   UNL     1       0.086  -8.541  -3.173  1.00  0.00    -0.246 OA
BRANCH  31  33
ATOM     33  C   UNL     1       2.216  -9.340  -2.527  1.00  0.00     0.060 A 
ATOM     34  C   UNL     1       2.678  -9.970  -3.689  1.00  0.00     0.016 A 
ATOM     35  C   UNL     1       2.617  -9.791  -1.267  1.00  0.00     0.016 A 
ATOM     36  C   UNL     1       3.496 -11.095  -3.593  1.00  0.00     0.010 A 
ATOM     37  C   UNL     1       3.436 -10.924  -1.175  1.00  0.00     0.010 A 
ATOM     38  C   UNL     1       3.844 -11.608  -2.336  1.00  0.00    -0.014 A 
BRANCH  38  39
ATOM     39  C   UNL     1       4.489 -12.944  -2.252  1.00  0.00     0.031 A 
ATOM     40  C   UNL     1       3.639 -14.152  -1.952  1.00  0.00     0.074 A 
ATOM     41  C   UNL     1       5.804 -13.092  -2.496  1.00  0.00     0.049 A 
ATOM     42  N   UNL     1       3.986 -15.409  -1.843  1.00  0.00    -0.248 NA
ATOM     43  C   UNL     1       2.203 -13.905  -1.747  1.00  0.00     0.031 C 
ATOM     44  C   UNL     1       6.723 -12.009  -2.841  1.00  0.00     0.029 A 
ATOM     45  N   UNL     1       6.593 -14.216  -2.494  1.00  0.00    -0.354 N 
ATOM     46  C   UNL     1       2.815 -16.105  -1.561  1.00  0.00     0.074 A 
ATOM     47  C   UNL     1       1.756 -15.121  -1.475  1.00  0.00     0.031 C 
ATOM     48  C   UNL     1       7.954 -12.521  -3.013  1.00  0.00     0.029 A 
ATOM     49  C   UNL     1       7.918 -13.961  -2.759  1.00  0.00     0.049 A 
ATOM     50  H   UNL     1       6.243 -15.119  -2.320  1.00  0.00     0.167 HD
ATOM     51  C   UNL     1       2.636 -17.440  -1.399  1.00  0.00     0.034 A 
ATOM     52  C   UNL     1       8.983 -14.789  -2.776  1.00  0.00     0.034 A 
ATOM     53  C   UNL     1       3.702 -18.410  -1.475  1.00  0.00     0.049 A 
ATOM     54  C   UNL     1       8.775 -16.260  -2.509  1.00  0.00     0.074 A 
ATOM     55  C   UNL     1       3.627 -19.786  -1.341  1.00  0.00     0.029 A 
ATOM     56  N   UNL     1       5.040 -18.107  -1.692  1.00  0.00    -0.354 N 
ATOM     57  N   UNL     1       7.659 -16.905  -2.254  1.00  0.00    -0.248 NA
ATOM     58  C   UNL     1       9.969 -17.116  -2.542  1.00  0.00     0.031 C 
ATOM     59  C   UNL     1       4.925 -20.306  -1.408  1.00  0.00     0.029 A 
ATOM     60  C   UNL     1       5.803 -19.265  -1.659  1.00  0.00     0.049 A 
ATOM     61  H   UNL     1       5.395 -17.202  -1.846  1.00  0.00     0.167 HD
ATOM     62  C   UNL     1       8.017 -18.246  -2.126  1.00  0.00     0.074 A 
ATOM     63  C   UNL     1       9.447 -18.317  -2.342  1.00  0.00     0.031 C 
ATOM     64  C   UNL     1       7.232 -19.322  -1.861  1.00  0.00     0.034 A 
BRANCH  51  65
ATOM     65  C   UNL     1       1.241 -17.916  -1.071  1.00  0.00     0.023 A 
ATOM     66  C   UNL     1       0.177 -17.779  -1.980  1.00  0.00     0.031 A 
ATOM     67  C   UNL     1       0.966 -18.491   0.183  1.00  0.00     0.131 A 
ATOM     68  C   UNL     1      -1.122 -18.147  -1.598  1.00  0.00     0.055 A 
ATOM     69  C   UNL     1      -0.315 -18.924   0.529  1.00  0.00     0.041 A 
ATOM     70  F   UNL     1       1.937 -18.627   1.100  1.00  0.00    -0.206 F 
ATOM     71  C   UNL     1      -1.371 -18.740  -0.358  1.00  0.00     0.022 A 
BRANCH  68  72
ATOM     72  S   UNL     1      -2.505 -17.711  -2.688  1.00  0.00     0.124 S 
ATOM     73  O   UNL     1      -2.364 -16.260  -2.779  1.00  0.00    -0.237 OA
ATOM     74  O   UNL     1      -2.198 -18.461  -3.901  1.00  0.00    -0.237 OA
ATOM     75  O   UNL     1      -3.680 -18.170  -1.951  1.00  0.00    -0.744 OA
ENDBRANCH  68  72
ENDBRANCH  51  65
BRANCH  52  76
ATOM     76  C   UNL     1      10.352 -14.249  -3.012  1.00  0.00     0.023 A 
ATOM     77  C   UNL     1      11.099 -14.618  -4.141  1.00  0.00     0.031 A 
ATOM     78  C   UNL     1      10.954 -13.390  -2.074  1.00  0.00     0.131 A 
ATOM     79  C   UNL     1      12.419 -14.162  -4.285  1.00  0.00     0.055 A 
ATOM     80  C   UNL     1      12.249 -12.901  -2.246  1.00  0.00     0.041 A 
ATOM     81  F   UNL     1      10.283 -13.008  -0.975  1.00  0.00    -0.206 F 
ATOM     82  C   UNL     1      12.995 -13.297  -3.351  1.00  0.00     0.022 A 
BRANCH  79  83
ATOM     83  S   UNL     1      13.406 -14.781  -5.675  1.00  0.00     0.124 S 
ATOM     84  O   UNL     1      13.376 -16.221  -5.444  1.00  0.00    -0.237 OA
ATOM     85  O   UNL     1      12.646 -14.299  -6.824  1.00  0.00    -0.237 OA
ATOM     86  O   UNL     1      14.707 -14.144  -5.480  1.00  0.00    -0.744 OA
ENDBRANCH  79  83
ENDBRANCH  52  76
BRANCH  64  87
ATOM     87  C   UNL     1       7.904 -20.674  -1.835  1.00  0.00     0.023 A 
ATOM     88  C   UNL     1       8.822 -21.026  -0.831  1.00  0.00     0.031 A 
ATOM     89  C   UNL     1       7.626 -21.619  -2.839  1.00  0.00     0.131 A 
ATOM     90  C   UNL     1       9.468 -22.271  -0.880  1.00  0.00     0.055 A 
ATOM     91  C   UNL     1       8.230 -22.877  -2.852  1.00  0.00     0.041 A 
ATOM     92  F   UNL     1       6.758 -21.335  -3.823  1.00  0.00    -0.206 F 
ATOM     93  C   UNL     1       9.167 -23.204  -1.875  1.00  0.00     0.022 A 
BRANCH  90  94
ATOM     94  S   UNL     1      10.773 -22.627   0.330  1.00  0.00     0.124 S 
ATOM     95  O   UNL     1      11.723 -21.548   0.077  1.00  0.00    -0.237 OA
ATOM     96  O   UNL     1      10.052 -22.557   1.596  1.00  0.00    -0.237 OA
ATOM     97  O   UNL     1      11.236 -23.961  -0.046  1.00  0.00    -0.744 OA
ENDBRANCH  90  94
ENDBRANCH  64  87
ENDBRANCH  38  39
ENDBRANCH  31  33
ENDBRANCH  30  31
ENDBRANCH  29  30
ENDBRANCH  28  29
ENDBRANCH  27  28
ENDBRANCH   1  27
TORSDOF 24
