REMARK SMILES CC[C@@H](C)[C@@H](C(=O)OCCOCCOC(=O)c1ccc(-c2c3nc(c(-c4cc(S(=O)(=O)[O-])ccc4F)c4ccc([nH]4)c(-c4cc(S(=O)(=O)[O-])ccc4F)c4nc(c(-c5cc(S(=O)(=O)[O-])ccc5F)c5ccc2[nH]5)C=C4)C=C3)cc1)S(=O)(=O)c1ccc(OC)cc1
REMARK SMILES IDX 11 1 10 2 9 3 8 4 6 5 7 6 5 7 3 8 4 9 2 10 1 11 80 12 81 13
REMARK SMILES IDX 82 14 83 15 84 16 90 17 85 18 89 19 86 20 87 21 88 22 12 23
REMARK SMILES IDX 13 24 14 25 15 26 16 27 17 28 18 29 79 30 19 31 78 32 20 33
REMARK SMILES IDX 21 34 22 35 72 36 23 37 77 38 71 39 73 40 24 41 76 42 70 43
REMARK SMILES IDX 69 44 25 46 57 47 37 48 56 49 38 50 41 51 55 52 74 53 39 54
REMARK SMILES IDX 40 55 54 57 75 58 42 59 26 60 27 61 35 62 28 63 34 64 36 65
REMARK SMILES IDX 33 66 29 67 30 68 31 69 32 70 58 71 59 72 67 73 60 74 66 75
REMARK SMILES IDX 68 76 65 77 61 78 62 79 63 80 64 81 43 82 44 83 52 84 45 85
REMARK SMILES IDX 51 86 53 87 50 88 46 89 47 90 48 91 49 92
REMARK H PARENT 73 45 41 56
REMARK Flexibility Score: inf
ROOT
ATOM      1  O   UNL     1       2.939   3.297  -4.627  1.00  0.00    -0.374 OA
ENDROOT
BRANCH   1   2
ATOM      2  C   UNL     1       1.617   3.546  -4.131  1.00  0.00     0.202 C 
BRANCH   2   3
ATOM      3  C   UNL     1       0.482   2.723  -4.763  1.00  0.00     0.261 C 
BRANCH   3   4
ATOM      4  O   UNL     1       0.338   1.435  -4.103  1.00  0.00    -0.462 OA
BRANCH   4   5
ATOM      5  C   UNL     1       0.474   0.308  -4.851  1.00  0.00     0.325 C 
ATOM      6  O   UNL     1       0.652   0.370  -6.058  1.00  0.00    -0.251 OA
BRANCH   5   7
ATOM      7  C   UNL     1       0.337  -0.978  -4.030  1.00  0.00     0.225 C 
BRANCH   7   8
ATOM      8  C   UNL     1       0.942  -1.016  -2.565  1.00  0.00     0.015 C 
ATOM      9  C   UNL     1       0.581  -2.333  -1.849  1.00  0.00     0.009 C 
BRANCH   8  10
ATOM     10  C   UNL     1       0.490   0.165  -1.653  1.00  0.00     0.002 C 
ATOM     11  C   UNL     1       0.962   0.114  -0.199  1.00  0.00     0.004 C 
ENDBRANCH   8  10
ENDBRANCH   7   8
BRANCH   7  12
ATOM     12  S   UNL     1       0.932  -2.374  -5.083  1.00  0.00     0.192 S 
ATOM     13  O   UNL     1       0.499  -3.615  -4.459  1.00  0.00    -0.223 OA
ATOM     14  O   UNL     1       0.589  -2.196  -6.480  1.00  0.00    -0.223 OA
BRANCH  12  15
ATOM     15  C   UNL     1       2.724  -2.382  -5.014  1.00  0.00     0.068 A 
ATOM     16  C   UNL     1       3.409  -3.531  -4.613  1.00  0.00     0.024 A 
ATOM     17  C   UNL     1       3.450  -1.264  -5.416  1.00  0.00     0.024 A 
ATOM     18  C   UNL     1       4.810  -3.518  -4.543  1.00  0.00     0.048 A 
ATOM     19  C   UNL     1       4.846  -1.234  -5.287  1.00  0.00     0.048 A 
ATOM     20  C   UNL     1       5.534  -2.358  -4.837  1.00  0.00     0.118 A 
BRANCH  20  21
ATOM     21  O   UNL     1       6.889  -2.458  -4.690  1.00  0.00    -0.497 OA
ATOM     22  C   UNL     1       7.632  -1.241  -4.710  1.00  0.00     0.278 C 
ENDBRANCH  20  21
ENDBRANCH  12  15
ENDBRANCH   7  12
ENDBRANCH   5   7
ENDBRANCH   4   5
ENDBRANCH   3   4
ENDBRANCH   2   3
ENDBRANCH   1   2
BRANCH   1  23
ATOM     23  C   UNL     1       3.454   1.985  -4.465  1.00  0.00     0.202 C 
BRANCH  23  24
ATOM     24  C   UNL     1       4.092   1.605  -3.123  1.00  0.00     0.261 C 
BRANCH  24  25
ATOM     25  O   UNL     1       3.599   2.385  -2.044  1.00  0.00    -0.460 OA
BRANCH  25  26
ATOM     26  C   UNL     1       4.308   3.532  -1.900  1.00  0.00     0.338 C 
ATOM     27  O   UNL     1       5.369   3.812  -2.425  1.00  0.00    -0.246 OA
BRANCH  26  28
ATOM     28  C   UNL     1       3.484   4.495  -1.165  1.00  0.00     0.060 A 
ATOM     29  C   UNL     1       3.332   5.753  -1.751  1.00  0.00     0.016 A 
ATOM     30  C   UNL     1       2.903   4.188   0.070  1.00  0.00     0.016 A 
ATOM     31  C   UNL     1       2.667   6.748  -1.056  1.00  0.00     0.010 A 
ATOM     32  C   UNL     1       2.226   5.190   0.764  1.00  0.00     0.010 A 
ATOM     33  C   UNL     1       2.157   6.484   0.223  1.00  0.00    -0.014 A 
BRANCH  33  34
ATOM     34  C   UNL     1       1.717   7.639   1.032  1.00  0.00     0.031 A 
ATOM     35  C   UNL     1       2.665   8.203   2.053  1.00  0.00     0.074 A 
ATOM     36  C   UNL     1       0.551   8.242   0.747  1.00  0.00     0.049 A 
ATOM     37  N   UNL     1       2.560   9.290   2.768  1.00  0.00    -0.248 NA
ATOM     38  C   UNL     1       3.900   7.440   2.294  1.00  0.00     0.031 C 
ATOM     39  C   UNL     1      -0.406   7.783  -0.261  1.00  0.00     0.029 A 
ATOM     40  N   UNL     1      -0.008   9.386   1.247  1.00  0.00    -0.354 N 
ATOM     41  C   UNL     1       3.719   9.350   3.535  1.00  0.00     0.074 A 
ATOM     42  C   UNL     1       4.485   8.161   3.238  1.00  0.00     0.031 C 
ATOM     43  C   UNL     1      -1.425   8.656  -0.322  1.00  0.00     0.029 A 
ATOM     44  C   UNL     1      -1.206   9.714   0.660  1.00  0.00     0.049 A 
ATOM     45  H   UNL     1       0.408   9.923   1.960  1.00  0.00     0.167 HD
ATOM     46  C   UNL     1       4.110  10.322   4.396  1.00  0.00     0.034 A 
ATOM     47  C   UNL     1      -2.028  10.755   0.894  1.00  0.00     0.034 A 
ATOM     48  C   UNL     1       3.313  11.489   4.683  1.00  0.00     0.049 A 
ATOM     49  C   UNL     1      -1.600  11.788   1.905  1.00  0.00     0.074 A 
ATOM     50  C   UNL     1       3.592  12.538   5.541  1.00  0.00     0.029 A 
ATOM     51  N   UNL     1       2.067  11.757   4.122  1.00  0.00    -0.354 N 
ATOM     52  N   UNL     1      -0.497  11.841   2.619  1.00  0.00    -0.248 NA
ATOM     53  C   UNL     1      -2.516  12.912   2.124  1.00  0.00     0.031 C 
ATOM     54  C   UNL     1       2.486  13.395   5.558  1.00  0.00     0.029 A 
ATOM     55  C   UNL     1       1.553  12.935   4.641  1.00  0.00     0.049 A 
ATOM     56  H   UNL     1       1.617  11.191   3.454  1.00  0.00     0.167 HD
ATOM     57  C   UNL     1      -0.576  13.023   3.352  1.00  0.00     0.074 A 
ATOM     58  C   UNL     1      -1.821  13.659   2.968  1.00  0.00     0.031 C 
ATOM     59  C   UNL     1       0.297  13.539   4.257  1.00  0.00     0.034 A 
BRANCH  46  60
ATOM     60  C   UNL     1       5.421  10.121   5.121  1.00  0.00     0.023 A 
ATOM     61  C   UNL     1       6.649  10.047   4.438  1.00  0.00     0.031 A 
ATOM     62  C   UNL     1       5.438   9.958   6.518  1.00  0.00     0.131 A 
ATOM     63  C   UNL     1       7.827   9.747   5.142  1.00  0.00     0.055 A 
ATOM     64  C   UNL     1       6.624   9.742   7.222  1.00  0.00     0.041 A 
ATOM     65  F   UNL     1       4.296   9.987   7.223  1.00  0.00    -0.206 F 
ATOM     66  C   UNL     1       7.826   9.621   6.532  1.00  0.00     0.022 A 
BRANCH  63  67
ATOM     67  S   UNL     1       9.333   9.375   4.200  1.00  0.00     0.124 S 
ATOM     68  O   UNL     1       8.899   8.243   3.385  1.00  0.00    -0.237 OA
ATOM     69  O   UNL     1       9.575  10.623   3.486  1.00  0.00    -0.237 OA
ATOM     70  O   UNL     1      10.312   9.048   5.236  1.00  0.00    -0.744 OA
ENDBRANCH  63  67
ENDBRANCH  46  60
BRANCH  47  71
ATOM     71  C   UNL     1      -3.332  10.861   0.179  1.00  0.00     0.023 A 
ATOM     72  C   UNL     1      -3.621  11.946  -0.664  1.00  0.00     0.031 A 
ATOM     73  C   UNL     1      -4.333   9.889   0.366  1.00  0.00     0.131 A 
ATOM     74  C   UNL     1      -4.893  12.058  -1.249  1.00  0.00     0.055 A 
ATOM     75  C   UNL     1      -5.575   9.975  -0.264  1.00  0.00     0.041 A 
ATOM     76  F   UNL     1      -4.110   8.829   1.160  1.00  0.00    -0.206 F 
ATOM     77  C   UNL     1      -5.866  11.072  -1.066  1.00  0.00     0.022 A 
BRANCH  74  78
ATOM     78  S   UNL     1      -5.292  13.561  -2.183  1.00  0.00     0.124 S 
ATOM     79  O   UNL     1      -5.050  14.601  -1.190  1.00  0.00    -0.237 OA
ATOM     80  O   UNL     1      -4.340  13.491  -3.286  1.00  0.00    -0.237 OA
ATOM     81  O   UNL     1      -6.691  13.367  -2.557  1.00  0.00    -0.744 OA
ENDBRANCH  74  78
ENDBRANCH  47  71
BRANCH  59  82
ATOM     82  C   UNL     1      -0.064  14.878   4.857  1.00  0.00     0.023 A 
ATOM     83  C   UNL     1      -1.212  15.046   5.652  1.00  0.00     0.031 A 
ATOM     84  C   UNL     1       0.727  16.010   4.592  1.00  0.00     0.131 A 
ATOM     85  C   UNL     1      -1.584  16.329   6.078  1.00  0.00     0.055 A 
ATOM     86  C   UNL     1       0.395  17.271   5.088  1.00  0.00     0.041 A 
ATOM     87  F   UNL     1       1.834  15.910   3.839  1.00  0.00    -0.206 F 
ATOM     88  C   UNL     1      -0.778  17.440   5.817  1.00  0.00     0.022 A 
BRANCH  85  89
ATOM     89  S   UNL     1      -3.210  16.546   6.851  1.00  0.00     0.124 S 
ATOM     90  O   UNL     1      -4.102  15.985   5.841  1.00  0.00    -0.237 OA
ATOM     91  O   UNL     1      -3.075  15.774   8.082  1.00  0.00    -0.237 OA
ATOM     92  O   UNL     1      -3.312  17.992   7.034  1.00  0.00    -0.744 OA
ENDBRANCH  85  89
ENDBRANCH  59  82
ENDBRANCH  33  34
ENDBRANCH  26  28
ENDBRANCH  25  26
ENDBRANCH  24  25
ENDBRANCH  23  24
ENDBRANCH   1  23
TORSDOF 22
