REMARK SMILES CCCc1cc(OC(F)(F)F)cc2c1O[C@@H](C(F)(F)F)C(C(=O)OCCOCCOC(=O)c1ccc(-c3c4nc(c(-c5cc(S(=O)(=O)[O-])ccc5F)c5ccc([nH]5)c(-c5cc(S(=O)(=O)[O-])ccc5F)c5nc(c(-c6cc(S(=O)(=O)[O-])ccc6F)c6ccc3[nH]6)C=C5)C=C4)cc1)=C2
REMARK SMILES IDX 28 1 27 2 26 3 25 4 24 5 22 6 23 7 21 8 4 9 5 10 14 11 6 12
REMARK SMILES IDX 13 13 15 14 12 15 96 16 16 17 3 18 2 19 1 20 7 21 8 22 9 23
REMARK SMILES IDX 10 24 11 25 17 26 18 27 19 28 20 29 29 30 30 31 31 32 32 33
REMARK SMILES IDX 33 34 34 35 95 36 35 37 94 38 36 39 37 40 38 41 88 42 39 43
REMARK SMILES IDX 93 44 87 45 89 46 40 47 92 48 86 49 85 50 41 52 73 53 53 54
REMARK SMILES IDX 72 55 54 56 57 57 71 58 90 59 55 60 56 61 70 63 91 64 58 65
REMARK SMILES IDX 42 66 43 67 51 68 44 69 50 70 52 71 49 72 45 73 46 74 47 75
REMARK SMILES IDX 48 76 74 77 75 78 83 79 76 80 82 81 84 82 81 83 77 84 78 85
REMARK SMILES IDX 79 86 80 87 59 88 60 89 68 90 61 91 67 92 69 93 66 94 62 95
REMARK SMILES IDX 63 96 64 97 65 98
REMARK H PARENT 89 51 57 62
REMARK Flexibility Score: inf
ROOT
ATOM      1  C   UNL     1      -4.642   2.277  -2.667  1.00  0.00     0.202 C 
ENDROOT
BRANCH   1   2
ATOM      2  O   UNL     1      -6.061   2.224  -2.537  1.00  0.00    -0.374 OA
BRANCH   2   3
ATOM      3  C   UNL     1      -6.734   3.358  -2.000  1.00  0.00     0.202 C 
BRANCH   3   4
ATOM      4  C   UNL     1      -6.628   3.601  -0.491  1.00  0.00     0.261 C 
BRANCH   4   5
ATOM      5  O   UNL     1      -5.264   3.646  -0.043  1.00  0.00    -0.460 OA
BRANCH   5   6
ATOM      6  C   UNL     1      -4.904   2.625   0.767  1.00  0.00     0.338 C 
ATOM      7  O   UNL     1      -5.641   1.770   1.237  1.00  0.00    -0.246 OA
BRANCH   6   8
ATOM      8  C   UNL     1      -3.445   2.570   0.927  1.00  0.00     0.087 C 
ATOM      9  C   UNL     1       0.457   1.881   2.224  1.00  0.00    -0.002 A 
ATOM     10  C   UNL     1       1.305   2.980   2.450  1.00  0.00     0.054 A 
ATOM     11  C   UNL     1      -0.858   2.139   1.820  1.00  0.00     0.131 A 
ATOM     12  C   UNL     1       0.860   4.293   2.252  1.00  0.00     0.130 A 
ATOM     13  C   UNL     1      -1.321   3.450   1.603  1.00  0.00     0.021 A 
ATOM     14  O   UNL     1      -1.711   1.069   1.714  1.00  0.00    -0.475 OA
ATOM     15  C   UNL     1      -0.449   4.520   1.805  1.00  0.00     0.058 A 
ATOM     16  C   UNL     1      -2.740   3.656   1.288  1.00  0.00     0.027 C 
ATOM     17  C   UNL     1      -2.738   1.254   0.710  1.00  0.00     0.316 C 
BRANCH   9  18
ATOM     18  C   UNL     1       0.975   0.482   2.486  1.00  0.00     0.039 C 
BRANCH  18  19
ATOM     19  C   UNL     1       0.706  -0.585   1.414  1.00  0.00     0.001 C 
ATOM     20  C   UNL     1       1.160  -0.191   0.017  1.00  0.00     0.004 C 
ENDBRANCH  18  19
ENDBRANCH   9  18
BRANCH  12  21
ATOM     21  O   UNL     1       1.594   5.426   2.464  1.00  0.00    -0.406 OA
BRANCH  21  22
ATOM     22  C   UNL     1       2.796   5.299   3.207  1.00  0.00     0.573 C 
ATOM     23  F   UNL     1       2.581   4.693   4.395  1.00  0.00    -0.132 F 
ATOM     24  F   UNL     1       3.723   4.603   2.513  1.00  0.00    -0.132 F 
ATOM     25  F   UNL     1       3.296   6.531   3.450  1.00  0.00    -0.132 F 
ENDBRANCH  21  22
ENDBRANCH  12  21
BRANCH  17  26
ATOM     26  C   UNL     1      -3.555  -0.044   0.605  1.00  0.00     0.430 C 
ATOM     27  F   UNL     1      -4.440   0.008  -0.416  1.00  0.00    -0.167 F 
ATOM     28  F   UNL     1      -2.724  -1.085   0.316  1.00  0.00    -0.167 F 
ATOM     29  F   UNL     1      -4.203  -0.370   1.740  1.00  0.00    -0.167 F 
ENDBRANCH  17  26
ENDBRANCH   6   8
ENDBRANCH   5   6
ENDBRANCH   4   5
ENDBRANCH   3   4
ENDBRANCH   2   3
ENDBRANCH   1   2
BRANCH   1  30
ATOM     30  C   UNL     1      -4.032   3.217  -3.716  1.00  0.00     0.261 C 
BRANCH  30  31
ATOM     31  O   UNL     1      -4.297   4.605  -3.453  1.00  0.00    -0.460 OA
BRANCH  31  32
ATOM     32  C   UNL     1      -5.133   5.195  -4.344  1.00  0.00     0.338 C 
ATOM     33  O   UNL     1      -5.633   4.679  -5.334  1.00  0.00    -0.246 OA
BRANCH  32  34
ATOM     34  C   UNL     1      -5.536   6.524  -3.853  1.00  0.00     0.060 A 
ATOM     35  C   UNL     1      -6.905   6.770  -3.683  1.00  0.00     0.016 A 
ATOM     36  C   UNL     1      -4.599   7.535  -3.635  1.00  0.00     0.016 A 
ATOM     37  C   UNL     1      -7.346   8.043  -3.330  1.00  0.00     0.010 A 
ATOM     38  C   UNL     1      -5.046   8.815  -3.291  1.00  0.00     0.010 A 
ATOM     39  C   UNL     1      -6.422   9.082  -3.166  1.00  0.00    -0.014 A 
BRANCH  39  40
ATOM     40  C   UNL     1      -6.905  10.475  -3.002  1.00  0.00     0.031 A 
ATOM     41  C   UNL     1      -6.877  11.400  -4.188  1.00  0.00     0.074 A 
ATOM     42  C   UNL     1      -7.384  10.900  -1.818  1.00  0.00     0.049 A 
ATOM     43  N   UNL     1      -7.191  12.667  -4.260  1.00  0.00    -0.248 NA
ATOM     44  C   UNL     1      -6.430  10.816  -5.462  1.00  0.00     0.031 C 
ATOM     45  C   UNL     1      -7.507  10.076  -0.615  1.00  0.00     0.029 A 
ATOM     46  N   UNL     1      -7.851  12.131  -1.431  1.00  0.00    -0.354 N 
ATOM     47  C   UNL     1      -6.973  13.037  -5.584  1.00  0.00     0.074 A 
ATOM     48  C   UNL     1      -6.466  11.866  -6.268  1.00  0.00     0.031 C 
ATOM     49  C   UNL     1      -8.007  10.830   0.379  1.00  0.00     0.029 A 
ATOM     50  C   UNL     1      -8.197  12.197  -0.102  1.00  0.00     0.049 A 
ATOM     51  H   UNL     1      -7.931  12.894  -2.047  1.00  0.00     0.167 HD
ATOM     52  C   UNL     1      -7.184  14.240  -6.172  1.00  0.00     0.034 A 
ATOM     53  C   UNL     1      -8.591  13.248   0.647  1.00  0.00     0.034 A 
ATOM     54  C   UNL     1      -7.685  15.397  -5.471  1.00  0.00     0.049 A 
ATOM     55  C   UNL     1      -8.733  14.600  -0.012  1.00  0.00     0.074 A 
ATOM     56  C   UNL     1      -7.951  16.660  -5.972  1.00  0.00     0.029 A 
ATOM     57  N   UNL     1      -7.983  15.440  -4.114  1.00  0.00    -0.354 N 
ATOM     58  N   UNL     1      -8.530  14.935  -1.266  1.00  0.00    -0.248 NA
ATOM     59  C   UNL     1      -9.165  15.714   0.843  1.00  0.00     0.031 C 
ATOM     60  C   UNL     1      -8.333  17.483  -4.908  1.00  0.00     0.029 A 
ATOM     61  C   UNL     1      -8.395  16.715  -3.757  1.00  0.00     0.049 A 
ATOM     62  H   UNL     1      -7.913  14.676  -3.497  1.00  0.00     0.167 HD
ATOM     63  C   UNL     1      -8.849  16.289  -1.354  1.00  0.00     0.074 A 
ATOM     64  C   UNL     1      -9.268  16.703  -0.032  1.00  0.00     0.031 C 
ATOM     65  C   UNL     1      -8.806  17.115  -2.431  1.00  0.00     0.034 A 
BRANCH  52  66
ATOM     66  C   UNL     1      -6.822  14.378  -7.631  1.00  0.00     0.023 A 
ATOM     67  C   UNL     1      -7.488  13.654  -8.635  1.00  0.00     0.031 A 
ATOM     68  C   UNL     1      -5.785  15.244  -8.023  1.00  0.00     0.131 A 
ATOM     69  C   UNL     1      -7.072  13.764  -9.971  1.00  0.00     0.055 A 
ATOM     70  C   UNL     1      -5.428  15.408  -9.362  1.00  0.00     0.041 A 
ATOM     71  F   UNL     1      -5.096  15.943  -7.107  1.00  0.00    -0.206 F 
ATOM     72  C   UNL     1      -6.064  14.656 -10.345  1.00  0.00     0.022 A 
BRANCH  69  73
ATOM     73  S   UNL     1      -7.776  12.627 -11.196  1.00  0.00     0.124 S 
ATOM     74  O   UNL     1      -7.408  11.328 -10.639  1.00  0.00    -0.237 OA
ATOM     75  O   UNL     1      -9.195  12.960 -11.157  1.00  0.00    -0.237 OA
ATOM     76  O   UNL     1      -7.085  12.985 -12.433  1.00  0.00    -0.744 OA
ENDBRANCH  69  73
ENDBRANCH  52  66
BRANCH  53  77
ATOM     77  C   UNL     1      -8.838  13.088   2.110  1.00  0.00     0.023 A 
ATOM     78  C   UNL     1     -10.101  13.346   2.666  1.00  0.00     0.031 A 
ATOM     79  C   UNL     1      -7.792  12.744   2.986  1.00  0.00     0.131 A 
ATOM     80  C   UNL     1     -10.273  13.312   4.059  1.00  0.00     0.055 A 
ATOM     81  C   UNL     1      -7.983  12.650   4.365  1.00  0.00     0.041 A 
ATOM     82  F   UNL     1      -6.563  12.490   2.509  1.00  0.00    -0.206 F 
ATOM     83  C   UNL     1      -9.226  12.951   4.911  1.00  0.00     0.022 A 
BRANCH  80  84
ATOM     84  S   UNL     1     -11.859  13.856   4.751  1.00  0.00     0.124 S 
ATOM     85  O   UNL     1     -11.968  15.207   4.213  1.00  0.00    -0.237 OA
ATOM     86  O   UNL     1     -12.782  12.869   4.201  1.00  0.00    -0.237 OA
ATOM     87  O   UNL     1     -11.646  13.773   6.194  1.00  0.00    -0.744 OA
ENDBRANCH  80  84
ENDBRANCH  53  77
BRANCH  65  88
ATOM     88  C   UNL     1      -9.281  18.535  -2.233  1.00  0.00     0.023 A 
ATOM     89  C   UNL     1      -8.594  19.443  -1.408  1.00  0.00     0.031 A 
ATOM     90  C   UNL     1     -10.446  18.985  -2.882  1.00  0.00     0.131 A 
ATOM     91  C   UNL     1      -9.107  20.733  -1.208  1.00  0.00     0.055 A 
ATOM     92  C   UNL     1     -10.915  20.291  -2.731  1.00  0.00     0.041 A 
ATOM     93  F   UNL     1     -11.145  18.162  -3.680  1.00  0.00    -0.206 F 
ATOM     94  C   UNL     1     -10.253  21.169  -1.880  1.00  0.00     0.022 A 
BRANCH  91  95
ATOM     95  S   UNL     1      -8.311  21.809   0.017  1.00  0.00     0.124 S 
ATOM     96  O   UNL     1      -8.414  21.010   1.234  1.00  0.00    -0.237 OA
ATOM     97  O   UNL     1      -6.968  21.965  -0.531  1.00  0.00    -0.237 OA
ATOM     98  O   UNL     1      -9.132  23.018  -0.003  1.00  0.00    -0.744 OA
ENDBRANCH  91  95
ENDBRANCH  65  88
ENDBRANCH  39  40
ENDBRANCH  32  34
ENDBRANCH  31  32
ENDBRANCH  30  31
ENDBRANCH   1  30
TORSDOF 22
