REMARK SMILES O=C(OCCOCCOC(=O)[C@@H]1CCCC[C@H]1C(=O)Nc1cccc(-c2nnc(-c3ccccc3)o2)c1)c1ccc(-c2c3nc(c(-c4cc(S(=O)(=O)[O-])ccc4F)c4ccc([nH]4)c(-c4cc(S(=O)(=O)[O-])ccc4F)c4nc(c(-c5cc(S(=O)(=O)[O-])ccc5F)c5ccc2[nH]5)C=C4)C=C3)cc1
REMARK SMILES IDX 7 1 6 2 5 3 4 4 3 5 2 6 1 7 38 8 39 9 100 10 40 11 99 12
REMARK SMILES IDX 41 13 42 14 43 15 93 16 44 17 98 18 92 19 94 20 45 21 97 22
REMARK SMILES IDX 91 23 90 24 46 26 78 27 58 28 77 29 59 30 62 31 76 32 95 33
REMARK SMILES IDX 60 34 61 35 75 37 96 38 63 39 47 40 48 41 56 42 49 43 55 44
REMARK SMILES IDX 57 45 54 46 50 47 51 48 52 49 53 50 79 51 80 52 88 53 81 54
REMARK SMILES IDX 87 55 89 56 86 57 82 58 83 59 84 60 85 61 64 62 65 63 73 64
REMARK SMILES IDX 66 65 72 66 74 67 71 68 67 69 68 70 69 71 70 72 8 73 9 74
REMARK SMILES IDX 10 75 11 76 12 77 13 78 17 79 14 80 16 81 15 82 18 83 19 84
REMARK SMILES IDX 20 85 21 87 22 88 37 89 23 90 25 91 24 92 26 93 27 94 36 95
REMARK SMILES IDX 28 96 29 97 30 98 31 99 35 100 32 101 34 102 33 103
REMARK H PARENT 94 25 62 36 20 86
REMARK Flexibility Score: inf
ROOT
ATOM      1  C   UNL     1       2.282  -1.059   1.961  1.00  0.00     0.202 C 
ENDROOT
BRANCH   1   2
ATOM      2  O   UNL     1       3.594  -0.852   1.451  1.00  0.00    -0.374 OA
BRANCH   2   3
ATOM      3  C   UNL     1       3.925   0.483   1.093  1.00  0.00     0.202 C 
BRANCH   3   4
ATOM      4  C   UNL     1       3.542   0.941  -0.316  1.00  0.00     0.261 C 
BRANCH   4   5
ATOM      5  O   UNL     1       2.147   0.686  -0.572  1.00  0.00    -0.460 OA
BRANCH   5   6
ATOM      6  C   UNL     1       1.657  -0.220  -1.456  1.00  0.00     0.338 C 
ATOM      7  O   UNL     1       0.465  -0.209  -1.749  1.00  0.00    -0.246 OA
BRANCH   6   8
ATOM      8  C   UNL     1       2.546  -1.235  -2.080  1.00  0.00     0.060 A 
ATOM      9  C   UNL     1       3.598  -1.818  -1.383  1.00  0.00     0.016 A 
ATOM     10  C   UNL     1       2.277  -1.693  -3.373  1.00  0.00     0.016 A 
ATOM     11  C   UNL     1       4.444  -2.737  -1.948  1.00  0.00     0.010 A 
ATOM     12  C   UNL     1       3.054  -2.721  -3.921  1.00  0.00     0.010 A 
ATOM     13  C   UNL     1       4.129  -3.251  -3.192  1.00  0.00    -0.014 A 
BRANCH  13  14
ATOM     14  C   UNL     1       4.953  -4.374  -3.652  1.00  0.00     0.031 A 
ATOM     15  C   UNL     1       5.913  -4.142  -4.765  1.00  0.00     0.074 A 
ATOM     16  C   UNL     1       4.909  -5.526  -2.955  1.00  0.00     0.049 A 
ATOM     17  N   UNL     1       6.616  -5.010  -5.430  1.00  0.00    -0.248 NA
ATOM     18  C   UNL     1       6.113  -2.743  -5.181  1.00  0.00     0.031 C 
ATOM     19  C   UNL     1       4.113  -5.748  -1.738  1.00  0.00     0.029 A 
ATOM     20  N   UNL     1       5.562  -6.713  -3.133  1.00  0.00    -0.354 N 
ATOM     21  C   UNL     1       7.293  -4.277  -6.393  1.00  0.00     0.074 A 
ATOM     22  C   UNL     1       6.948  -2.886  -6.200  1.00  0.00     0.031 C 
ATOM     23  C   UNL     1       4.348  -6.983  -1.272  1.00  0.00     0.029 A 
ATOM     24  C   UNL     1       5.197  -7.680  -2.223  1.00  0.00     0.049 A 
ATOM     25  H   UNL     1       6.228  -6.862  -3.843  1.00  0.00     0.167 HD
ATOM     26  C   UNL     1       8.096  -4.758  -7.369  1.00  0.00     0.034 A 
ATOM     27  C   UNL     1       5.453  -9.002  -2.222  1.00  0.00     0.034 A 
ATOM     28  C   UNL     1       8.393  -6.162  -7.495  1.00  0.00     0.049 A 
ATOM     29  C   UNL     1       6.262  -9.525  -3.381  1.00  0.00     0.074 A 
ATOM     30  C   UNL     1       9.131  -6.811  -8.465  1.00  0.00     0.029 A 
ATOM     31  N   UNL     1       7.947  -7.139  -6.607  1.00  0.00    -0.354 N 
ATOM     32  N   UNL     1       6.824  -8.851  -4.361  1.00  0.00    -0.248 NA
ATOM     33  C   UNL     1       6.444 -10.976  -3.460  1.00  0.00     0.031 C 
ATOM     34  C   UNL     1       9.080  -8.185  -8.197  1.00  0.00     0.029 A 
ATOM     35  C   UNL     1       8.364  -8.389  -7.025  1.00  0.00     0.049 A 
ATOM     36  H   UNL     1       7.413  -6.964  -5.799  1.00  0.00     0.167 HD
ATOM     37  C   UNL     1       7.422  -9.798  -5.180  1.00  0.00     0.074 A 
ATOM     38  C   UNL     1       7.187 -11.086  -4.551  1.00  0.00     0.031 C 
ATOM     39  C   UNL     1       8.087  -9.638  -6.353  1.00  0.00     0.034 A 
BRANCH  26  40
ATOM     40  C   UNL     1       8.561  -3.782  -8.414  1.00  0.00     0.023 A 
ATOM     41  C   UNL     1       9.470  -2.748  -8.132  1.00  0.00     0.031 A 
ATOM     42  C   UNL     1       8.008  -3.842  -9.707  1.00  0.00     0.131 A 
ATOM     43  C   UNL     1       9.752  -1.782  -9.112  1.00  0.00     0.055 A 
ATOM     44  C   UNL     1       8.344  -2.918 -10.696  1.00  0.00     0.041 A 
ATOM     45  F   UNL     1       7.106  -4.786 -10.018  1.00  0.00    -0.206 F 
ATOM     46  C   UNL     1       9.212  -1.873 -10.398  1.00  0.00     0.022 A 
BRANCH  43  47
ATOM     47  S   UNL     1      10.744  -0.333  -8.653  1.00  0.00     0.124 S 
ATOM     48  O   UNL     1       9.876   0.320  -7.677  1.00  0.00    -0.237 OA
ATOM     49  O   UNL     1      11.961  -0.936  -8.122  1.00  0.00    -0.237 OA
ATOM     50  O   UNL     1      10.906   0.386  -9.915  1.00  0.00    -0.744 OA
ENDBRANCH  43  47
ENDBRANCH  26  40
BRANCH  27  51
ATOM     51  C   UNL     1       4.835  -9.914  -1.212  1.00  0.00     0.023 A 
ATOM     52  C   UNL     1       5.619 -10.761  -0.415  1.00  0.00     0.031 A 
ATOM     53  C   UNL     1       3.434 -10.006  -1.075  1.00  0.00     0.131 A 
ATOM     54  C   UNL     1       5.003 -11.690   0.442  1.00  0.00     0.055 A 
ATOM     55  C   UNL     1       2.828 -10.882  -0.173  1.00  0.00     0.041 A 
ATOM     56  F   UNL     1       2.623  -9.238  -1.820  1.00  0.00    -0.206 F 
ATOM     57  C   UNL     1       3.614 -11.745   0.580  1.00  0.00     0.022 A 
BRANCH  54  58
ATOM     58  S   UNL     1       6.038 -12.921   1.282  1.00  0.00     0.124 S 
ATOM     59  O   UNL     1       6.801 -13.478   0.170  1.00  0.00    -0.237 OA
ATOM     60  O   UNL     1       6.786 -12.094   2.223  1.00  0.00    -0.237 OA
ATOM     61  O   UNL     1       5.066 -13.828   1.887  1.00  0.00    -0.744 OA
ENDBRANCH  54  58
ENDBRANCH  27  51
BRANCH  39  62
ATOM     62  C   UNL     1       8.604 -10.895  -6.990  1.00  0.00     0.023 A 
ATOM     63  C   UNL     1       7.727 -11.829  -7.565  1.00  0.00     0.031 A 
ATOM     64  C   UNL     1       9.982 -11.161  -7.014  1.00  0.00     0.131 A 
ATOM     65  C   UNL     1       8.237 -13.017  -8.100  1.00  0.00     0.055 A 
ATOM     66  C   UNL     1      10.489 -12.318  -7.601  1.00  0.00     0.041 A 
ATOM     67  F   UNL     1      10.855 -10.295  -6.473  1.00  0.00    -0.206 F 
ATOM     68  C   UNL     1       9.614 -13.259  -8.138  1.00  0.00     0.022 A 
BRANCH  65  69
ATOM     69  S   UNL     1       7.071 -14.275  -8.682  1.00  0.00     0.124 S 
ATOM     70  O   UNL     1       6.354 -14.612  -7.456  1.00  0.00    -0.237 OA
ATOM     71  O   UNL     1       6.303 -13.550  -9.690  1.00  0.00    -0.237 OA
ATOM     72  O   UNL     1       7.938 -15.329  -9.204  1.00  0.00    -0.744 OA
ENDBRANCH  65  69
ENDBRANCH  39  62
ENDBRANCH  13  14
ENDBRANCH   6   8
ENDBRANCH   5   6
ENDBRANCH   4   5
ENDBRANCH   3   4
ENDBRANCH   2   3
ENDBRANCH   1   2
BRANCH   1  73
ATOM     73  C   UNL     1       2.410  -1.524   3.405  1.00  0.00     0.261 C 
BRANCH  73  74
ATOM     74  O   UNL     1       2.896  -0.418   4.189  1.00  0.00    -0.463 OA
BRANCH  74  75
ATOM     75  C   UNL     1       4.245  -0.325   4.331  1.00  0.00     0.309 C 
ATOM     76  O   UNL     1       5.054  -1.154   3.936  1.00  0.00    -0.252 OA
BRANCH  75  77
ATOM     77  C   UNL     1       4.646   0.955   5.048  1.00  0.00     0.111 C 
ATOM     78  C   UNL     1       3.629   1.237   6.174  1.00  0.00     0.016 C 
ATOM     79  C   UNL     1       4.848   2.164   4.114  1.00  0.00     0.093 C 
ATOM     80  C   UNL     1       3.976   2.504   6.937  1.00  0.00     0.001 C 
ATOM     81  C   UNL     1       5.072   3.468   4.901  1.00  0.00     0.014 C 
ATOM     82  C   UNL     1       4.024   3.687   5.984  1.00  0.00     0.001 C 
BRANCH  79  83
ATOM     83  C   UNL     1       5.862   2.195   2.941  1.00  0.00     0.228 C 
ATOM     84  O   UNL     1       5.478   2.707   1.874  1.00  0.00    -0.274 OA
ATOM     85  N   UNL     1       7.200   1.945   2.994  1.00  0.00    -0.326 N 
ATOM     86  H   UNL     1       7.675   2.035   2.136  1.00  0.00     0.169 HD
BRANCH  85  87
ATOM     87  C   UNL     1       7.998   1.582   4.074  1.00  0.00     0.041 A 
ATOM     88  C   UNL     1       9.022   2.438   4.469  1.00  0.00     0.026 A 
ATOM     89  C   UNL     1       7.756   0.422   4.787  1.00  0.00     0.040 A 
ATOM     90  C   UNL     1       9.650   2.229   5.697  1.00  0.00     0.003 A 
ATOM     91  C   UNL     1       8.276   0.268   6.072  1.00  0.00     0.041 A 
ATOM     92  C   UNL     1       9.232   1.181   6.524  1.00  0.00     0.014 A 
BRANCH  91  93
ATOM     93  C   UNL     1       7.584  -0.620   6.992  1.00  0.00     0.248 A 
ATOM     94  N   UNL     1       6.907  -0.274   8.070  1.00  0.00    -0.107 NA
ATOM     95  O   UNL     1       7.340  -1.910   6.599  1.00  0.00    -0.416 OA
ATOM     96  N   UNL     1       6.132  -1.359   8.408  1.00  0.00    -0.107 NA
ATOM     97  C   UNL     1       6.426  -2.310   7.543  1.00  0.00     0.248 A 
BRANCH  97  98
ATOM     98  C   UNL     1       5.928  -3.672   7.479  1.00  0.00     0.039 A 
ATOM     99  C   UNL     1       4.560  -3.931   7.659  1.00  0.00     0.014 A 
ATOM    100  C   UNL     1       6.809  -4.750   7.333  1.00  0.00     0.014 A 
ATOM    101  C   UNL     1       4.087  -5.245   7.705  1.00  0.00     0.001 A 
ATOM    102  C   UNL     1       6.337  -6.064   7.397  1.00  0.00     0.001 A 
ATOM    103  C   UNL     1       4.978  -6.310   7.587  1.00  0.00     0.000 A 
ENDBRANCH  97  98
ENDBRANCH  91  93
ENDBRANCH  85  87
ENDBRANCH  79  83
ENDBRANCH  75  77
ENDBRANCH  74  75
ENDBRANCH  73  74
ENDBRANCH   1  73
TORSDOF 21
