REMARK SMILES O=C(CN(CC(F)(F)F)C(=O)CC[C@H]1CCC[NH2+]C1)OCCOCCOC(=O)c1ccc(-c2c3nc(c(-c4cc(S(=O)(=O)[O-])ccc4F)c4ccc([nH]4)c(-c4cc(S(=O)(=O)[O-])ccc4F)c4nc(c(-c5cc(S(=O)(=O)[O-])ccc5F)c5ccc2[nH]5)C=C4)C=C3)cc1
REMARK SMILES IDX 22 1 21 2 20 3 2 4 1 5 3 6 4 7 5 8 6 9 7 10 8 11 9 12 10 13
REMARK SMILES IDX 11 14 12 15 13 16 14 17 15 18 19 19 16 20 18 21 17 22 23 25
REMARK SMILES IDX 24 26 25 27 26 28 27 29 28 30 29 31 30 32 91 33 31 34 90 35
REMARK SMILES IDX 32 36 33 37 34 38 84 39 35 40 89 41 83 42 85 43 36 44 88 45
REMARK SMILES IDX 82 46 81 47 37 49 69 50 49 51 68 52 50 53 53 54 67 55 86 56
REMARK SMILES IDX 51 57 52 58 66 60 87 61 54 62 38 63 39 64 47 65 40 66 46 67
REMARK SMILES IDX 48 68 45 69 41 70 42 71 43 72 44 73 70 74 71 75 79 76 72 77
REMARK SMILES IDX 78 78 80 79 77 80 73 81 74 82 75 83 76 84 55 85 56 86 64 87
REMARK SMILES IDX 57 88 63 89 65 90 62 91 58 92 59 93 60 94 61 95
REMARK H PARENT 18 23 18 24 85 48 53 59
REMARK Flexibility Score: inf
ROOT
ATOM      1  C   UNL     1       4.531   2.234   1.297  1.00  0.00     0.202 C 
ENDROOT
BRANCH   1   2
ATOM      2  C   UNL     1       6.049   2.361   1.188  1.00  0.00     0.261 C 
BRANCH   2   3
ATOM      3  O   UNL     1       6.572   3.649   1.492  1.00  0.00    -0.462 OA
BRANCH   3   4
ATOM      4  C   UNL     1       6.791   4.617   0.575  1.00  0.00     0.325 C 
ATOM      5  O   UNL     1       7.346   5.651   0.960  1.00  0.00    -0.250 OA
BRANCH   4   6
ATOM      6  C   UNL     1       6.129   4.599  -0.827  1.00  0.00     0.242 C 
BRANCH   6   7
ATOM      7  N   UNL     1       6.142   3.485  -1.800  1.00  0.00    -0.322 N 
BRANCH   7   8
ATOM      8  C   UNL     1       4.861   3.182  -2.492  1.00  0.00     0.235 C 
BRANCH   8   9
ATOM      9  C   UNL     1       4.509   3.945  -3.775  1.00  0.00     0.406 C 
ATOM     10  F   UNL     1       5.504   3.917  -4.686  1.00  0.00    -0.169 F 
ATOM     11  F   UNL     1       3.426   3.375  -4.359  1.00  0.00    -0.169 F 
ATOM     12  F   UNL     1       4.210   5.237  -3.531  1.00  0.00    -0.169 F 
ENDBRANCH   8   9
ENDBRANCH   7   8
BRANCH   7  13
ATOM     13  C   UNL     1       7.397   3.030  -2.202  1.00  0.00     0.223 C 
ATOM     14  O   UNL     1       8.405   3.381  -1.583  1.00  0.00    -0.275 OA
BRANCH  13  15
ATOM     15  C   UNL     1       7.554   2.094  -3.408  1.00  0.00     0.101 C 
BRANCH  15  16
ATOM     16  C   UNL     1       7.682   0.577  -3.150  1.00  0.00     0.019 C 
BRANCH  16  17
ATOM     17  C   UNL     1       6.334  -0.120  -2.875  1.00  0.00     0.045 C 
ATOM     18  C   UNL     1       6.301  -1.626  -3.155  1.00  0.00     0.015 C 
ATOM     19  C   UNL     1       5.939   0.070  -1.417  1.00  0.00     0.264 C 
ATOM     20  C   UNL     1       4.919  -2.190  -2.776  1.00  0.00     0.062 C 
ATOM     21  N   UNL     1       4.592  -0.390  -1.125  1.00  0.00    -0.346 N 
ATOM     22  C   UNL     1       4.508  -1.830  -1.346  1.00  0.00     0.260 C 
ATOM     23  H   UNL     1       4.366  -0.182  -0.153  1.00  0.00     0.346 HD
ATOM     24  H   UNL     1       3.931   0.085  -1.739  1.00  0.00     0.346 HD
ENDBRANCH  16  17
ENDBRANCH  15  16
ENDBRANCH  13  15
ENDBRANCH   7  13
ENDBRANCH   6   7
ENDBRANCH   4   6
ENDBRANCH   3   4
ENDBRANCH   2   3
ENDBRANCH   1   2
BRANCH   1  25
ATOM     25  O   UNL     1       3.760   3.404   1.035  1.00  0.00    -0.374 OA
BRANCH  25  26
ATOM     26  C   UNL     1       3.648   4.313   2.138  1.00  0.00     0.202 C 
BRANCH  26  27
ATOM     27  C   UNL     1       2.653   3.950   3.256  1.00  0.00     0.261 C 
BRANCH  27  28
ATOM     28  O   UNL     1       2.937   2.687   3.879  1.00  0.00    -0.460 OA
BRANCH  28  29
ATOM     29  C   UNL     1       2.169   1.656   3.428  1.00  0.00     0.338 C 
ATOM     30  O   UNL     1       1.234   1.739   2.659  1.00  0.00    -0.246 OA
BRANCH  29  31
ATOM     31  C   UNL     1       2.760   0.359   3.849  1.00  0.00     0.060 A 
ATOM     32  C   UNL     1       2.678  -0.706   2.941  1.00  0.00     0.016 A 
ATOM     33  C   UNL     1       3.347   0.168   5.103  1.00  0.00     0.016 A 
ATOM     34  C   UNL     1       3.076  -1.987   3.322  1.00  0.00     0.010 A 
ATOM     35  C   UNL     1       3.754  -1.117   5.483  1.00  0.00     0.010 A 
ATOM     36  C   UNL     1       3.551  -2.211   4.620  1.00  0.00    -0.014 A 
BRANCH  36  37
ATOM     37  C   UNL     1       3.547  -3.596   5.163  1.00  0.00     0.031 A 
ATOM     38  C   UNL     1       2.382  -4.000   6.034  1.00  0.00     0.074 A 
ATOM     39  C   UNL     1       4.506  -4.488   4.862  1.00  0.00     0.049 A 
ATOM     40  N   UNL     1       2.151  -5.127   6.656  1.00  0.00    -0.248 NA
ATOM     41  C   UNL     1       1.340  -2.981   6.236  1.00  0.00     0.031 C 
ATOM     42  C   UNL     1       5.648  -4.240   3.985  1.00  0.00     0.029 A 
ATOM     43  N   UNL     1       4.667  -5.791   5.263  1.00  0.00    -0.354 N 
ATOM     44  C   UNL     1       0.951  -4.944   7.338  1.00  0.00     0.074 A 
ATOM     45  C   UNL     1       0.530  -3.583   7.089  1.00  0.00     0.031 C 
ATOM     46  C   UNL     1       6.393  -5.358   3.913  1.00  0.00     0.029 A 
ATOM     47  C   UNL     1       5.802  -6.389   4.767  1.00  0.00     0.049 A 
ATOM     48  H   UNL     1       4.029  -6.255   5.852  1.00  0.00     0.167 HD
ATOM     49  C   UNL     1       0.256  -5.830   8.092  1.00  0.00     0.034 A 
ATOM     50  C   UNL     1       6.309  -7.619   4.992  1.00  0.00     0.034 A 
ATOM     51  C   UNL     1       0.690  -7.184   8.332  1.00  0.00     0.049 A 
ATOM     52  C   UNL     1       5.561  -8.566   5.903  1.00  0.00     0.074 A 
ATOM     53  C   UNL     1       0.061  -8.174   9.066  1.00  0.00     0.029 A 
ATOM     54  N   UNL     1       1.871  -7.737   7.851  1.00  0.00    -0.354 N 
ATOM     55  N   UNL     1       4.426  -8.384   6.540  1.00  0.00    -0.248 NA
ATOM     56  C   UNL     1       6.158  -9.891   6.112  1.00  0.00     0.031 C 
ATOM     57  C   UNL     1       0.900  -9.293   9.101  1.00  0.00     0.029 A 
ATOM     58  C   UNL     1       2.005  -9.041   8.302  1.00  0.00     0.049 A 
ATOM     59  H   UNL     1       2.518  -7.271   7.274  1.00  0.00     0.167 HD
ATOM     60  C   UNL     1       4.151  -9.592   7.182  1.00  0.00     0.074 A 
ATOM     61  C   UNL     1       5.236 -10.491   6.849  1.00  0.00     0.031 C 
ATOM     62  C   UNL     1       3.092  -9.931   7.963  1.00  0.00     0.034 A 
BRANCH  49  63
ATOM     63  C   UNL     1      -1.005  -5.331   8.762  1.00  0.00     0.023 A 
ATOM     64  C   UNL     1      -2.107  -4.858   8.027  1.00  0.00     0.031 A 
ATOM     65  C   UNL     1      -1.082  -5.274  10.166  1.00  0.00     0.131 A 
ATOM     66  C   UNL     1      -3.193  -4.269   8.692  1.00  0.00     0.055 A 
ATOM     67  C   UNL     1      -2.207  -4.774  10.824  1.00  0.00     0.041 A 
ATOM     68  F   UNL     1      -0.053  -5.684  10.924  1.00  0.00    -0.206 F 
ATOM     69  C   UNL     1      -3.264  -4.250  10.087  1.00  0.00     0.022 A 
BRANCH  66  70
ATOM     70  S   UNL     1      -4.426  -3.369   7.711  1.00  0.00     0.124 S 
ATOM     71  O   UNL     1      -3.595  -2.384   7.023  1.00  0.00    -0.237 OA
ATOM     72  O   UNL     1      -4.994  -4.421   6.876  1.00  0.00    -0.237 OA
ATOM     73  O   UNL     1      -5.329  -2.816   8.719  1.00  0.00    -0.744 OA
ENDBRANCH  66  70
ENDBRANCH  49  63
BRANCH  50  74
ATOM     74  C   UNL     1       7.598  -8.037   4.364  1.00  0.00     0.023 A 
ATOM     75  C   UNL     1       7.650  -9.116   3.466  1.00  0.00     0.031 A 
ATOM     76  C   UNL     1       8.808  -7.406   4.703  1.00  0.00     0.131 A 
ATOM     77  C   UNL     1       8.889  -9.562   2.977  1.00  0.00     0.055 A 
ATOM     78  C   UNL     1      10.031  -7.817   4.170  1.00  0.00     0.041 A 
ATOM     79  F   UNL     1       8.817  -6.372   5.560  1.00  0.00    -0.206 F 
ATOM     80  C   UNL     1      10.078  -8.911   3.312  1.00  0.00     0.022 A 
BRANCH  77  81
ATOM     81  S   UNL     1       8.933 -11.068   1.965  1.00  0.00     0.124 S 
ATOM     82  O   UNL     1       8.359 -12.053   2.874  1.00  0.00    -0.237 OA
ATOM     83  O   UNL     1       8.107 -10.689   0.824  1.00  0.00    -0.237 OA
ATOM     84  O   UNL     1      10.354 -11.239   1.673  1.00  0.00    -0.744 OA
ENDBRANCH  77  81
ENDBRANCH  50  74
BRANCH  62  85
ATOM     85  C   UNL     1       3.016 -11.363   8.446  1.00  0.00     0.023 A 
ATOM     86  C   UNL     1       3.977 -11.918   9.309  1.00  0.00     0.031 A 
ATOM     87  C   UNL     1       1.966 -12.194   8.011  1.00  0.00     0.131 A 
ATOM     88  C   UNL     1       3.912 -13.279   9.647  1.00  0.00     0.055 A 
ATOM     89  C   UNL     1       1.863 -13.526   8.414  1.00  0.00     0.041 A 
ATOM     90  F   UNL     1       1.019 -11.724   7.184  1.00  0.00    -0.206 F 
ATOM     91  C   UNL     1       2.850 -14.081   9.222  1.00  0.00     0.022 A 
BRANCH  88  92
ATOM     92  S   UNL     1       5.304 -14.021  10.543  1.00  0.00     0.124 S 
ATOM     93  O   UNL     1       6.432 -13.687   9.680  1.00  0.00    -0.237 OA
ATOM     94  O   UNL     1       5.255 -13.327  11.825  1.00  0.00    -0.237 OA
ATOM     95  O   UNL     1       4.961 -15.441  10.594  1.00  0.00    -0.744 OA
ENDBRANCH  88  92
ENDBRANCH  62  85
ENDBRANCH  36  37
ENDBRANCH  29  31
ENDBRANCH  28  29
ENDBRANCH  27  28
ENDBRANCH  26  27
ENDBRANCH  25  26
ENDBRANCH   1  25
TORSDOF 24
