REMARK SMILES Cc1cc(F)c(-c2ccc(F)c(C(=O)OCCOCCOC(=O)c3ccc(-c4c5nc(c(-c6cc(S(=O)(=O)[O-])ccc6F)c6ccc([nH]6)c(-c6cc(S(=O)(=O)[O-])ccc6F)c6nc(c(-c7cc(S(=O)(=O)[O-])ccc7F)c7ccc4[nH]7)C=C6)C=C5)cc3)c2)cc1F
REMARK SMILES IDX 19 1 18 2 17 3 16 4 15 5 13 6 14 7 12 8 7 9 8 10 87 11 9 12
REMARK SMILES IDX 10 13 11 14 6 15 1 16 2 17 3 18 89 19 4 20 88 21 90 22 5 23
REMARK SMILES IDX 20 24 21 25 22 26 23 27 24 28 25 29 86 30 26 31 85 32 27 33
REMARK SMILES IDX 28 34 29 35 79 36 30 37 84 38 78 39 80 40 31 41 83 42 77 43
REMARK SMILES IDX 76 44 32 46 64 47 44 48 63 49 45 50 48 51 62 52 81 53 46 54
REMARK SMILES IDX 47 55 61 57 82 58 49 59 33 60 34 61 42 62 35 63 41 64 43 65
REMARK SMILES IDX 40 66 36 67 37 68 38 69 39 70 65 71 66 72 74 73 67 74 73 75
REMARK SMILES IDX 75 76 72 77 68 78 69 79 70 80 71 81 50 82 51 83 59 84 52 85
REMARK SMILES IDX 58 86 60 87 57 88 53 89 54 90 55 91 56 92
REMARK H PARENT 80 45 48 56
REMARK Flexibility Score: inf
ROOT
ATOM      1  C   UNL     1      -0.304   0.469  10.312  1.00  0.00     0.202 C 
ENDROOT
BRANCH   1   2
ATOM      2  O   UNL     1      -0.064  -0.516  11.316  1.00  0.00    -0.374 OA
BRANCH   2   3
ATOM      3  C   UNL     1       0.802  -1.603  10.992  1.00  0.00     0.202 C 
BRANCH   3   4
ATOM      4  C   UNL     1       0.240  -2.707  10.089  1.00  0.00     0.261 C 
BRANCH   4   5
ATOM      5  O   UNL     1      -0.184  -2.184   8.820  1.00  0.00    -0.460 OA
BRANCH   5   6
ATOM      6  C   UNL     1      -1.512  -2.299   8.566  1.00  0.00     0.341 C 
ATOM      7  O   UNL     1      -2.328  -2.937   9.208  1.00  0.00    -0.246 OA
BRANCH   6   8
ATOM      8  C   UNL     1      -1.873  -1.396   7.456  1.00  0.00     0.096 A 
ATOM      9  C   UNL     1      -1.465  -0.396   5.265  1.00  0.00    -0.014 A 
ATOM     10  C   UNL     1      -2.654   0.345   5.428  1.00  0.00     0.012 A 
ATOM     11  C   UNL     1      -1.078  -1.262   6.306  1.00  0.00     0.027 A 
ATOM     12  C   UNL     1      -3.429   0.232   6.582  1.00  0.00     0.041 A 
ATOM     13  C   UNL     1      -3.036  -0.639   7.587  1.00  0.00     0.137 A 
ATOM     14  F   UNL     1      -3.781  -0.694   8.700  1.00  0.00    -0.206 F 
BRANCH   9  15
ATOM     15  C   UNL     1      -0.700  -0.283   4.008  1.00  0.00     0.020 A 
ATOM     16  C   UNL     1       1.173   0.058   0.107  1.00  0.00     0.047 C 
ATOM     17  C   UNL     1       0.543  -0.062   1.460  1.00  0.00    -0.012 A 
ATOM     18  C   UNL     1       0.339  -1.316   2.045  1.00  0.00     0.046 A 
ATOM     19  C   UNL     1       0.180   1.072   2.185  1.00  0.00     0.126 A 
ATOM     20  C   UNL     1      -0.278  -1.416   3.294  1.00  0.00     0.131 A 
ATOM     21  C   UNL     1      -0.429   0.973   3.437  1.00  0.00     0.051 A 
ATOM     22  F   UNL     1       0.387   2.292   1.668  1.00  0.00    -0.207 F 
ATOM     23  F   UNL     1      -0.506  -2.644   3.784  1.00  0.00    -0.206 F 
ENDBRANCH   9  15
ENDBRANCH   6   8
ENDBRANCH   5   6
ENDBRANCH   4   5
ENDBRANCH   3   4
ENDBRANCH   2   3
ENDBRANCH   1   2
BRANCH   1  24
ATOM     24  C   UNL     1       0.825   1.457   9.988  1.00  0.00     0.261 C 
BRANCH  24  25
ATOM     25  O   UNL     1       1.970   0.823   9.396  1.00  0.00    -0.460 OA
BRANCH  25  26
ATOM     26  C   UNL     1       3.064   0.752  10.197  1.00  0.00     0.338 C 
ATOM     27  O   UNL     1       3.180   1.208  11.324  1.00  0.00    -0.246 OA
BRANCH  26  28
ATOM     28  C   UNL     1       4.053  -0.157   9.584  1.00  0.00     0.060 A 
ATOM     29  C   UNL     1       4.521   0.051   8.286  1.00  0.00     0.016 A 
ATOM     30  C   UNL     1       4.531  -1.228  10.350  1.00  0.00     0.016 A 
ATOM     31  C   UNL     1       5.492  -0.809   7.765  1.00  0.00     0.010 A 
ATOM     32  C   UNL     1       5.498  -2.086   9.826  1.00  0.00     0.010 A 
ATOM     33  C   UNL     1       6.000  -1.872   8.536  1.00  0.00    -0.014 A 
BRANCH  33  34
ATOM     34  C   UNL     1       7.163  -2.657   8.050  1.00  0.00     0.031 A 
ATOM     35  C   UNL     1       7.023  -4.075   7.585  1.00  0.00     0.074 A 
ATOM     36  C   UNL     1       8.376  -2.070   8.067  1.00  0.00     0.049 A 
ATOM     37  N   UNL     1       7.934  -4.860   7.072  1.00  0.00    -0.248 NA
ATOM     38  C   UNL     1       5.697  -4.697   7.716  1.00  0.00     0.031 C 
ATOM     39  C   UNL     1       8.632  -0.714   8.552  1.00  0.00     0.029 A 
ATOM     40  N   UNL     1       9.610  -2.523   7.673  1.00  0.00    -0.354 N 
ATOM     41  C   UNL     1       7.296  -6.064   6.803  1.00  0.00     0.074 A 
ATOM     42  C   UNL     1       5.928  -5.921   7.256  1.00  0.00     0.031 C 
ATOM     43  C   UNL     1       9.934  -0.434   8.401  1.00  0.00     0.029 A 
ATOM     44  C   UNL     1      10.616  -1.602   7.848  1.00  0.00     0.049 A 
ATOM     45  H   UNL     1       9.760  -3.422   7.300  1.00  0.00     0.167 HD
ATOM     46  C   UNL     1       7.807  -7.173   6.215  1.00  0.00     0.034 A 
ATOM     47  C   UNL     1      11.940  -1.682   7.597  1.00  0.00     0.034 A 
ATOM     48  C   UNL     1       9.178  -7.294   5.780  1.00  0.00     0.049 A 
ATOM     49  C   UNL     1      12.486  -2.934   6.962  1.00  0.00     0.074 A 
ATOM     50  C   UNL     1       9.769  -8.353   5.113  1.00  0.00     0.029 A 
ATOM     51  N   UNL     1      10.174  -6.347   5.978  1.00  0.00    -0.354 N 
ATOM     52  N   UNL     1      11.843  -4.016   6.591  1.00  0.00    -0.248 NA
ATOM     53  C   UNL     1      13.930  -2.978   6.694  1.00  0.00     0.031 C 
ATOM     54  C   UNL     1      11.132  -8.087   4.986  1.00  0.00     0.029 A 
ATOM     55  C   UNL     1      11.382  -6.819   5.485  1.00  0.00     0.049 A 
ATOM     56  H   UNL     1      10.042  -5.469   6.404  1.00  0.00     0.167 HD
ATOM     57  C   UNL     1      12.797  -4.859   6.028  1.00  0.00     0.074 A 
ATOM     58  C   UNL     1      14.057  -4.148   6.079  1.00  0.00     0.031 C 
ATOM     59  C   UNL     1      12.640  -6.108   5.523  1.00  0.00     0.034 A 
BRANCH  46  60
ATOM     60  C   UNL     1       6.900  -8.355   5.965  1.00  0.00     0.023 A 
ATOM     61  C   UNL     1       7.203  -9.609   6.532  1.00  0.00     0.031 A 
ATOM     62  C   UNL     1       5.854  -8.286   5.028  1.00  0.00     0.131 A 
ATOM     63  C   UNL     1       6.502 -10.749   6.118  1.00  0.00     0.055 A 
ATOM     64  C   UNL     1       5.126  -9.418   4.656  1.00  0.00     0.041 A 
ATOM     65  F   UNL     1       5.531  -7.118   4.450  1.00  0.00    -0.206 F 
ATOM     66  C   UNL     1       5.460 -10.659   5.189  1.00  0.00     0.022 A 
BRANCH  63  67
ATOM     67  S   UNL     1       6.973 -12.402   6.696  1.00  0.00     0.124 S 
ATOM     68  O   UNL     1       5.735 -12.866   7.319  1.00  0.00    -0.237 OA
ATOM     69  O   UNL     1       7.331 -13.071   5.448  1.00  0.00    -0.237 OA
ATOM     70  O   UNL     1       8.076 -12.151   7.617  1.00  0.00    -0.744 OA
ENDBRANCH  63  67
ENDBRANCH  46  60
BRANCH  47  71
ATOM     71  C   UNL     1      12.803  -0.502   7.897  1.00  0.00     0.023 A 
ATOM     72  C   UNL     1      12.910  -0.005   9.210  1.00  0.00     0.031 A 
ATOM     73  C   UNL     1      13.430   0.217   6.866  1.00  0.00     0.131 A 
ATOM     74  C   UNL     1      13.555   1.216   9.443  1.00  0.00     0.055 A 
ATOM     75  C   UNL     1      14.142   1.391   7.115  1.00  0.00     0.041 A 
ATOM     76  F   UNL     1      13.343  -0.207   5.596  1.00  0.00    -0.206 F 
ATOM     77  C   UNL     1      14.189   1.908   8.407  1.00  0.00     0.022 A 
BRANCH  74  78
ATOM     78  S   UNL     1      13.460   2.020  11.066  1.00  0.00     0.124 S 
ATOM     79  O   UNL     1      14.868   2.140  11.430  1.00  0.00    -0.237 OA
ATOM     80  O   UNL     1      12.783   3.272  10.738  1.00  0.00    -0.237 OA
ATOM     81  O   UNL     1      12.678   1.085  11.869  1.00  0.00    -0.744 OA
ENDBRANCH  74  78
ENDBRANCH  47  71
BRANCH  59  82
ATOM     82  C   UNL     1      13.848  -6.832   4.972  1.00  0.00     0.023 A 
ATOM     83  C   UNL     1      13.867  -7.247   3.625  1.00  0.00     0.031 A 
ATOM     84  C   UNL     1      14.893  -7.260   5.809  1.00  0.00     0.131 A 
ATOM     85  C   UNL     1      14.872  -8.111   3.173  1.00  0.00     0.055 A 
ATOM     86  C   UNL     1      15.926  -8.072   5.338  1.00  0.00     0.041 A 
ATOM     87  F   UNL     1      14.919  -6.902   7.104  1.00  0.00    -0.206 F 
ATOM     88  C   UNL     1      15.908  -8.517   4.020  1.00  0.00     0.022 A 
BRANCH  85  89
ATOM     89  S   UNL     1      14.816  -8.823   1.505  1.00  0.00     0.124 S 
ATOM     90  O   UNL     1      16.079  -8.361   0.935  1.00  0.00    -0.237 OA
ATOM     91  O   UNL     1      14.746 -10.255   1.785  1.00  0.00    -0.237 OA
ATOM     92  O   UNL     1      13.617  -8.239   0.912  1.00  0.00    -0.744 OA
ENDBRANCH  85  89
ENDBRANCH  59  82
ENDBRANCH  33  34
ENDBRANCH  26  28
ENDBRANCH  25  26
ENDBRANCH  24  25
ENDBRANCH   1  24
TORSDOF 18
