REMARK SMILES O=C(OCCOCCOC(=O)c1ccc(CNC(=O)c2ccc(F)cc2Br)o1)c1ccc(-c2c3nc(c(-c4cc(S(=O)(=O)[O-])ccc4F)c4ccc([nH]4)c(-c4cc(S(=O)(=O)[O-])ccc4F)c4nc(c(-c5cc(S(=O)(=O)[O-])ccc5F)c5ccc2[nH]5)C=C4)C=C3)cc1
REMARK SMILES IDX 6 1 5 2 4 3 3 4 2 5 1 6 29 7 30 8 91 9 31 10 90 11 32 12
REMARK SMILES IDX 33 13 34 14 84 15 35 16 89 17 83 18 85 19 36 20 88 21 82 22
REMARK SMILES IDX 81 23 37 25 69 26 49 27 68 28 50 29 53 30 67 31 86 32 51 33
REMARK SMILES IDX 52 34 66 36 87 37 54 38 38 39 39 40 47 41 40 42 46 43 48 44
REMARK SMILES IDX 45 45 41 46 42 47 43 48 44 49 70 50 71 51 79 52 72 53 78 54
REMARK SMILES IDX 80 55 77 56 73 57 74 58 75 59 76 60 55 61 56 62 64 63 57 64
REMARK SMILES IDX 63 65 65 66 62 67 58 68 59 69 60 70 61 71 7 72 8 73 9 74
REMARK SMILES IDX 10 75 11 76 12 77 13 78 28 79 14 80 15 81 16 82 17 83 18 84
REMARK SMILES IDX 19 86 20 87 21 88 26 89 22 90 25 91 27 92 23 93 24 94
REMARK H PARENT 85 24 53 35 17 85
REMARK Flexibility Score: inf
ROOT
ATOM      1  O   UNL     1       3.872   1.962  -0.527  1.00  0.00    -0.374 OA
ENDROOT
BRANCH   1   2
ATOM      2  C   UNL     1       3.646   1.082  -1.629  1.00  0.00     0.202 C 
BRANCH   2   3
ATOM      3  C   UNL     1       3.279  -0.340  -1.203  1.00  0.00     0.261 C 
BRANCH   3   4
ATOM      4  O   UNL     1       1.985  -0.317  -0.567  1.00  0.00    -0.460 OA
BRANCH   4   5
ATOM      5  C   UNL     1       1.660  -0.758   0.670  1.00  0.00     0.338 C 
ATOM      6  O   UNL     1       0.476  -0.814   0.994  1.00  0.00    -0.246 OA
BRANCH   5   7
ATOM      7  C   UNL     1       2.685  -1.192   1.656  1.00  0.00     0.060 A 
ATOM      8  C   UNL     1       3.893  -0.520   1.864  1.00  0.00     0.016 A 
ATOM      9  C   UNL     1       2.349  -2.258   2.505  1.00  0.00     0.016 A 
ATOM     10  C   UNL     1       4.787  -0.957   2.845  1.00  0.00     0.010 A 
ATOM     11  C   UNL     1       3.216  -2.658   3.526  1.00  0.00     0.010 A 
ATOM     12  C   UNL     1       4.450  -2.018   3.696  1.00  0.00    -0.014 A 
BRANCH  12  13
ATOM     13  C   UNL     1       5.373  -2.427   4.785  1.00  0.00     0.031 A 
ATOM     14  C   UNL     1       6.079  -3.752   4.733  1.00  0.00     0.074 A 
ATOM     15  C   UNL     1       5.573  -1.598   5.827  1.00  0.00     0.049 A 
ATOM     16  N   UNL     1       6.868  -4.303   5.619  1.00  0.00    -0.248 NA
ATOM     17  C   UNL     1       5.853  -4.569   3.533  1.00  0.00     0.031 C 
ATOM     18  C   UNL     1       4.937  -0.291   6.007  1.00  0.00     0.029 A 
ATOM     19  N   UNL     1       6.378  -1.731   6.929  1.00  0.00    -0.354 N 
ATOM     20  C   UNL     1       7.219  -5.543   5.098  1.00  0.00     0.074 A 
ATOM     21  C   UNL     1       6.540  -5.665   3.822  1.00  0.00     0.031 C 
ATOM     22  C   UNL     1       5.401   0.271   7.135  1.00  0.00     0.029 A 
ATOM     23  C   UNL     1       6.339  -0.646   7.771  1.00  0.00     0.049 A 
ATOM     24  H   UNL     1       6.931  -2.527   7.101  1.00  0.00     0.167 HD
ATOM     25  C   UNL     1       8.028  -6.492   5.630  1.00  0.00     0.034 A 
ATOM     26  C   UNL     1       6.983  -0.418   8.930  1.00  0.00     0.034 A 
ATOM     27  C   UNL     1       8.706  -6.366   6.896  1.00  0.00     0.049 A 
ATOM     28  C   UNL     1       7.905  -1.463   9.481  1.00  0.00     0.074 A 
ATOM     29  C   UNL     1       9.518  -7.283   7.543  1.00  0.00     0.029 A 
ATOM     30  N   UNL     1       8.661  -5.240   7.706  1.00  0.00    -0.354 N 
ATOM     31  N   UNL     1       8.171  -2.657   9.008  1.00  0.00    -0.248 NA
ATOM     32  C   UNL     1       8.611  -1.130  10.725  1.00  0.00     0.031 C 
ATOM     33  C   UNL     1       9.949  -6.717   8.752  1.00  0.00     0.029 A 
ATOM     34  C   UNL     1       9.431  -5.436   8.842  1.00  0.00     0.049 A 
ATOM     35  H   UNL     1       8.154  -4.420   7.504  1.00  0.00     0.167 HD
ATOM     36  C   UNL     1       9.066  -3.224   9.904  1.00  0.00     0.074 A 
ATOM     37  C   UNL     1       9.306  -2.238  10.940  1.00  0.00     0.031 C 
ATOM     38  C   UNL     1       9.638  -4.453   9.873  1.00  0.00     0.034 A 
BRANCH  25  39
ATOM     39  C   UNL     1       8.171  -7.770   4.849  1.00  0.00     0.023 A 
ATOM     40  C   UNL     1       8.886  -7.813   3.640  1.00  0.00     0.031 A 
ATOM     41  C   UNL     1       7.532  -8.942   5.287  1.00  0.00     0.131 A 
ATOM     42  C   UNL     1       8.895  -8.991   2.877  1.00  0.00     0.055 A 
ATOM     43  C   UNL     1       7.591 -10.127   4.551  1.00  0.00     0.041 A 
ATOM     44  F   UNL     1       6.816  -8.946   6.422  1.00  0.00    -0.206 F 
ATOM     45  C   UNL     1       8.264 -10.152   3.333  1.00  0.00     0.022 A 
BRANCH  42  46
ATOM     46  S   UNL     1       9.626  -8.946   1.218  1.00  0.00     0.124 S 
ATOM     47  O   UNL     1       8.877  -7.860   0.590  1.00  0.00    -0.237 OA
ATOM     48  O   UNL     1      11.030  -8.677   1.501  1.00  0.00    -0.237 OA
ATOM     49  O   UNL     1       9.341 -10.276   0.683  1.00  0.00    -0.744 OA
ENDBRANCH  42  46
ENDBRANCH  25  39
BRANCH  26  50
ATOM     50  C   UNL     1       6.743   0.846   9.666  1.00  0.00     0.023 A 
ATOM     51  C   UNL     1       7.626   1.928   9.550  1.00  0.00     0.031 A 
ATOM     52  C   UNL     1       5.610   0.984  10.483  1.00  0.00     0.131 A 
ATOM     53  C   UNL     1       7.364   3.112  10.255  1.00  0.00     0.055 A 
ATOM     54  C   UNL     1       5.350   2.166  11.176  1.00  0.00     0.041 A 
ATOM     55  F   UNL     1       4.736  -0.027  10.605  1.00  0.00    -0.206 F 
ATOM     56  C   UNL     1       6.233   3.237  11.067  1.00  0.00     0.022 A 
BRANCH  53  57
ATOM     57  S   UNL     1       8.537   4.488  10.114  1.00  0.00     0.124 S 
ATOM     58  O   UNL     1       9.796   3.856  10.492  1.00  0.00    -0.237 OA
ATOM     59  O   UNL     1       8.399   4.855   8.708  1.00  0.00    -0.237 OA
ATOM     60  O   UNL     1       8.023   5.471  11.065  1.00  0.00    -0.744 OA
ENDBRANCH  53  57
ENDBRANCH  26  50
BRANCH  38  61
ATOM     61  C   UNL     1      10.580  -4.777  10.995  1.00  0.00     0.023 A 
ATOM     62  C   UNL     1      10.100  -5.215  12.240  1.00  0.00     0.031 A 
ATOM     63  C   UNL     1      11.964  -4.620  10.823  1.00  0.00     0.131 A 
ATOM     64  C   UNL     1      11.004  -5.458  13.284  1.00  0.00     0.055 A 
ATOM     65  C   UNL     1      12.860  -4.880  11.860  1.00  0.00     0.041 A 
ATOM     66  F   UNL     1      12.461  -4.195   9.651  1.00  0.00    -0.206 F 
ATOM     67  C   UNL     1      12.381  -5.296  13.100  1.00  0.00     0.022 A 
BRANCH  64  68
ATOM     68  S   UNL     1      10.355  -5.951  14.905  1.00  0.00     0.124 S 
ATOM     69  O   UNL     1       9.489  -4.826  15.244  1.00  0.00    -0.237 OA
ATOM     70  O   UNL     1       9.680  -7.208  14.602  1.00  0.00    -0.237 OA
ATOM     71  O   UNL     1      11.555  -6.077  15.731  1.00  0.00    -0.744 OA
ENDBRANCH  64  68
ENDBRANCH  38  61
ENDBRANCH  12  13
ENDBRANCH   5   7
ENDBRANCH   4   5
ENDBRANCH   3   4
ENDBRANCH   2   3
ENDBRANCH   1   2
BRANCH   1  72
ATOM     72  C   UNL     1       2.704   2.617  -0.017  1.00  0.00     0.202 C 
BRANCH  72  73
ATOM     73  C   UNL     1       3.119   3.929   0.666  1.00  0.00     0.261 C 
BRANCH  73  74
ATOM     74  O   UNL     1       3.601   4.832  -0.345  1.00  0.00    -0.457 OA
BRANCH  74  75
ATOM     75  C   UNL     1       4.917   4.639  -0.664  1.00  0.00     0.374 C 
ATOM     76  O   UNL     1       5.780   4.267   0.118  1.00  0.00    -0.242 OA
BRANCH  75  77
ATOM     77  C   UNL     1       5.062   4.782  -2.091  1.00  0.00     0.211 A 
ATOM     78  C   UNL     1       4.405   5.552  -3.034  1.00  0.00     0.058 A 
ATOM     79  O   UNL     1       5.915   3.925  -2.727  1.00  0.00    -0.452 OA
ATOM     80  C   UNL     1       4.864   5.122  -4.305  1.00  0.00     0.048 A 
ATOM     81  C   UNL     1       5.751   4.095  -4.066  1.00  0.00     0.124 A 
BRANCH  81  82
ATOM     82  C   UNL     1       6.461   3.126  -4.929  1.00  0.00     0.191 C 
BRANCH  82  83
ATOM     83  N   UNL     1       7.888   3.333  -4.849  1.00  0.00    -0.345 N 
ATOM     84  C   UNL     1       8.866   2.421  -5.153  1.00  0.00     0.252 C 
ATOM     85  H   UNL     1       8.190   4.220  -4.546  1.00  0.00     0.164 HD
ATOM     86  O   UNL     1      10.053   2.718  -5.145  1.00  0.00    -0.269 OA
BRANCH  84  87
ATOM     87  C   UNL     1       8.454   1.063  -5.550  1.00  0.00     0.054 A 
ATOM     88  C   UNL     1       8.092   0.857  -6.889  1.00  0.00     0.018 A 
ATOM     89  C   UNL     1       8.411   0.008  -4.630  1.00  0.00     0.033 A 
ATOM     90  C   UNL     1       7.671  -0.406  -7.300  1.00  0.00     0.040 A 
ATOM     91  C   UNL     1       7.994  -1.257  -5.051  1.00  0.00     0.055 A 
ATOM     92  Br  UNL     1       8.857   0.234  -2.802  1.00  0.00    -0.050 Br
ATOM     93  C   UNL     1       7.626  -1.449  -6.379  1.00  0.00     0.124 A 
ATOM     94  F   UNL     1       7.211  -2.657  -6.782  1.00  0.00    -0.207 F 
ENDBRANCH  84  87
ENDBRANCH  82  83
ENDBRANCH  81  82
ENDBRANCH  75  77
ENDBRANCH  74  75
ENDBRANCH  73  74
ENDBRANCH  72  73
ENDBRANCH   1  72
TORSDOF 20
