REMARK SMILES O=C(OCCOCCOC(=O)[C@H]1CC2(CC[NH+](C(=O)c3cc4ccccc4[nH]3)CC2)CN1C(=O)C1CC1)c1ccc(-c2c3nc(c(-c4cc(S(=O)(=O)[O-])ccc4F)c4ccc([nH]4)c(-c4cc(S(=O)(=O)[O-])ccc4F)c4nc(c(-c5cc(S(=O)(=O)[O-])ccc5F)c5ccc2[nH]5)C=C4)C=C3)cc1
REMARK SMILES IDX 5 1 4 2 3 3 2 4 1 5 38 6 39 7 100 8 40 9 99 10 41 11 42 12
REMARK SMILES IDX 43 13 93 14 44 15 98 16 92 17 94 18 45 19 97 20 91 21 90 22
REMARK SMILES IDX 46 24 78 25 58 26 77 27 59 28 62 29 76 30 95 31 60 32 61 33
REMARK SMILES IDX 75 35 96 36 63 37 47 38 48 39 56 40 49 41 55 42 57 43 54 44
REMARK SMILES IDX 50 45 51 46 52 47 53 48 79 49 80 50 88 51 81 52 87 53 89 54
REMARK SMILES IDX 86 55 82 56 83 57 84 58 85 59 64 60 65 61 73 62 66 63 72 64
REMARK SMILES IDX 74 65 71 66 67 67 68 68 69 69 70 70 6 71 7 72 8 73 9 74
REMARK SMILES IDX 10 75 11 76 12 77 13 78 32 79 14 80 31 81 15 82 30 83 16 84
REMARK SMILES IDX 29 85 17 86 33 88 34 89 35 90 36 91 37 92 18 93 19 94 20 95
REMARK SMILES IDX 21 96 28 97 22 98 27 99 23 101 26 102 24 103 25 104
REMARK H PARENT 94 23 62 34 17 87 28 100
REMARK Flexibility Score: inf
ROOT
ATOM      1  C   UNL     1       3.727   1.195   0.343  1.00  0.00     0.202 C 
ENDROOT
BRANCH   1   2
ATOM      2  C   UNL     1       2.352   1.314  -0.332  1.00  0.00     0.261 C 
BRANCH   2   3
ATOM      3  O   UNL     1       2.329   1.818  -1.666  1.00  0.00    -0.460 OA
BRANCH   3   4
ATOM      4  C   UNL     1       3.207   1.338  -2.575  1.00  0.00     0.338 C 
ATOM      5  O   UNL     1       3.744   0.252  -2.608  1.00  0.00    -0.246 OA
BRANCH   4   6
ATOM      6  C   UNL     1       3.531   2.524  -3.394  1.00  0.00     0.060 A 
ATOM      7  C   UNL     1       4.032   3.629  -2.703  1.00  0.00     0.016 A 
ATOM      8  C   UNL     1       3.271   2.614  -4.756  1.00  0.00     0.016 A 
ATOM      9  C   UNL     1       4.225   4.840  -3.324  1.00  0.00     0.010 A 
ATOM     10  C   UNL     1       3.504   3.837  -5.404  1.00  0.00     0.010 A 
ATOM     11  C   UNL     1       3.975   4.955  -4.685  1.00  0.00    -0.014 A 
BRANCH  11  12
ATOM     12  C   UNL     1       4.116   6.301  -5.279  1.00  0.00     0.031 A 
ATOM     13  C   UNL     1       2.881   7.032  -5.706  1.00  0.00     0.074 A 
ATOM     14  C   UNL     1       5.319   6.908  -5.287  1.00  0.00     0.049 A 
ATOM     15  N   UNL     1       2.772   8.150  -6.368  1.00  0.00    -0.248 NA
ATOM     16  C   UNL     1       1.596   6.421  -5.330  1.00  0.00     0.031 C 
ATOM     17  C   UNL     1       6.554   6.345  -4.729  1.00  0.00     0.029 A 
ATOM     18  N   UNL     1       5.701   8.139  -5.750  1.00  0.00    -0.354 N 
ATOM     19  C   UNL     1       1.407   8.351  -6.540  1.00  0.00     0.074 A 
ATOM     20  C   UNL     1       0.730   7.239  -5.907  1.00  0.00     0.031 C 
ATOM     21  C   UNL     1       7.545   7.240  -4.860  1.00  0.00     0.029 A 
ATOM     22  C   UNL     1       7.048   8.387  -5.609  1.00  0.00     0.049 A 
ATOM     23  H   UNL     1       5.073   8.786  -6.145  1.00  0.00     0.167 HD
ATOM     24  C   UNL     1       0.792   9.371  -7.185  1.00  0.00     0.034 A 
ATOM     25  C   UNL     1       7.802   9.395  -6.090  1.00  0.00     0.034 A 
ATOM     26  C   UNL     1       1.512  10.468  -7.783  1.00  0.00     0.049 A 
ATOM     27  C   UNL     1       7.108  10.454  -6.911  1.00  0.00     0.074 A 
ATOM     28  C   UNL     1       1.016  11.530  -8.515  1.00  0.00     0.029 A 
ATOM     29  N   UNL     1       2.890  10.644  -7.708  1.00  0.00    -0.354 N 
ATOM     30  N   UNL     1       5.827  10.580  -7.183  1.00  0.00    -0.248 NA
ATOM     31  C   UNL     1       7.955  11.494  -7.504  1.00  0.00     0.031 C 
ATOM     32  C   UNL     1       2.099  12.305  -8.944  1.00  0.00     0.029 A 
ATOM     33  C   UNL     1       3.264  11.780  -8.405  1.00  0.00     0.049 A 
ATOM     34  H   UNL     1       3.509  10.046  -7.229  1.00  0.00     0.167 HD
ATOM     35  C   UNL     1       5.715  11.730  -7.958  1.00  0.00     0.074 A 
ATOM     36  C   UNL     1       7.054  12.269  -8.089  1.00  0.00     0.031 C 
ATOM     37  C   UNL     1       4.611  12.292  -8.514  1.00  0.00     0.034 A 
BRANCH  24  38
ATOM     38  C   UNL     1      -0.703   9.274  -7.363  1.00  0.00     0.023 A 
ATOM     39  C   UNL     1      -1.595   9.301  -6.277  1.00  0.00     0.031 A 
ATOM     40  C   UNL     1      -1.238   9.084  -8.650  1.00  0.00     0.131 A 
ATOM     41  C   UNL     1      -2.963   9.069  -6.492  1.00  0.00     0.055 A 
ATOM     42  C   UNL     1      -2.609   8.938  -8.866  1.00  0.00     0.041 A 
ATOM     43  F   UNL     1      -0.432   9.015  -9.722  1.00  0.00    -0.206 F 
ATOM     44  C   UNL     1      -3.479   8.915  -7.781  1.00  0.00     0.022 A 
BRANCH  41  45
ATOM     45  S   UNL     1      -4.039   8.816  -5.053  1.00  0.00     0.124 S 
ATOM     46  O   UNL     1      -3.422   7.648  -4.428  1.00  0.00    -0.237 OA
ATOM     47  O   UNL     1      -3.902  10.075  -4.331  1.00  0.00    -0.237 OA
ATOM     48  O   UNL     1      -5.353   8.575  -5.646  1.00  0.00    -0.744 OA
ENDBRANCH  41  45
ENDBRANCH  24  38
BRANCH  25  49
ATOM     49  C   UNL     1       9.286   9.403  -5.910  1.00  0.00     0.023 A 
ATOM     50  C   UNL     1       9.943  10.484  -5.301  1.00  0.00     0.031 A 
ATOM     51  C   UNL     1      10.083   8.358  -6.419  1.00  0.00     0.131 A 
ATOM     52  C   UNL     1      11.348  10.521  -5.264  1.00  0.00     0.055 A 
ATOM     53  C   UNL     1      11.475   8.366  -6.315  1.00  0.00     0.041 A 
ATOM     54  F   UNL     1       9.517   7.304  -7.028  1.00  0.00    -0.206 F 
ATOM     55  C   UNL     1      12.116   9.461  -5.750  1.00  0.00     0.022 A 
BRANCH  52  56
ATOM     56  S   UNL     1      12.163  12.034  -4.684  1.00  0.00     0.124 S 
ATOM     57  O   UNL     1      11.588  13.039  -5.571  1.00  0.00    -0.237 OA
ATOM     58  O   UNL     1      11.740  12.091  -3.289  1.00  0.00    -0.237 OA
ATOM     59  O   UNL     1      13.583  11.757  -4.892  1.00  0.00    -0.744 OA
ENDBRANCH  52  56
ENDBRANCH  25  49
BRANCH  37  60
ATOM     60  C   UNL     1       4.811  13.586  -9.261  1.00  0.00     0.023 A 
ATOM     61  C   UNL     1       5.545  13.646 -10.457  1.00  0.00     0.031 A 
ATOM     62  C   UNL     1       4.256  14.777  -8.761  1.00  0.00     0.131 A 
ATOM     63  C   UNL     1       5.754  14.883 -11.083  1.00  0.00     0.055 A 
ATOM     64  C   UNL     1       4.408  15.993  -9.425  1.00  0.00     0.041 A 
ATOM     65  F   UNL     1       3.549  14.776  -7.619  1.00  0.00    -0.206 F 
ATOM     66  C   UNL     1       5.173  16.053 -10.587  1.00  0.00     0.022 A 
BRANCH  63  67
ATOM     67  S   UNL     1       6.880  14.960 -12.502  1.00  0.00     0.124 S 
ATOM     68  O   UNL     1       8.122  14.448 -11.930  1.00  0.00    -0.237 OA
ATOM     69  O   UNL     1       6.221  14.093 -13.472  1.00  0.00    -0.237 OA
ATOM     70  O   UNL     1       6.897  16.379 -12.850  1.00  0.00    -0.744 OA
ENDBRANCH  63  67
ENDBRANCH  37  60
ENDBRANCH  11  12
ENDBRANCH   4   6
ENDBRANCH   3   4
ENDBRANCH   2   3
ENDBRANCH   1   2
BRANCH   1  71
ATOM     71  O   UNL     1       4.758   1.973  -0.257  1.00  0.00    -0.374 OA
BRANCH  71  72
ATOM     72  C   UNL     1       5.962   1.257  -0.574  1.00  0.00     0.202 C 
BRANCH  72  73
ATOM     73  C   UNL     1       7.138   1.856   0.201  1.00  0.00     0.261 C 
BRANCH  73  74
ATOM     74  O   UNL     1       6.701   2.048   1.551  1.00  0.00    -0.462 OA
BRANCH  74  75
ATOM     75  C   UNL     1       6.421   3.347   1.895  1.00  0.00     0.328 C 
ATOM     76  O   UNL     1       7.027   4.327   1.494  1.00  0.00    -0.250 OA
BRANCH  75  77
ATOM     77  C   UNL     1       5.335   3.312   2.967  1.00  0.00     0.195 C 
ATOM     78  C   UNL     1       6.085   3.017   4.257  1.00  0.00     0.046 C 
ATOM     79  N   UNL     1       4.429   4.398   3.332  1.00  0.00    -0.328 N 
ATOM     80  C   UNL     1       5.131   3.407   5.396  1.00  0.00     0.001 C 
ATOM     81  C   UNL     1       3.999   4.170   4.700  1.00  0.00     0.128 C 
ATOM     82  C   UNL     1       5.865   4.316   6.393  1.00  0.00     0.071 C 
ATOM     83  C   UNL     1       4.593   2.157   6.128  1.00  0.00     0.071 C 
ATOM     84  C   UNL     1       6.976   3.537   7.082  1.00  0.00     0.271 C 
ATOM     85  C   UNL     1       5.667   1.446   6.955  1.00  0.00     0.271 C 
ATOM     86  N   UNL     1       6.400   2.393   7.790  1.00  0.00    -0.266 N 
ATOM     87  H   UNL     1       5.905   1.857   8.451  1.00  0.00     0.357 HD
BRANCH  79  88
ATOM     88  C   UNL     1       3.420   4.851   2.485  1.00  0.00     0.226 C 
ATOM     89  O   UNL     1       2.230   4.664   2.729  1.00  0.00    -0.275 OA
BRANCH  88  90
ATOM     90  C   UNL     1       3.773   5.798   1.401  1.00  0.00     0.079 C 
ATOM     91  C   UNL     1       4.625   5.526   0.201  1.00  0.00     0.014 C 
ATOM     92  C   UNL     1       3.137   5.540   0.046  1.00  0.00     0.014 C 
ENDBRANCH  88  90
ENDBRANCH  79  88
BRANCH  86  93
ATOM     93  C   UNL     1       6.684   2.052   9.111  1.00  0.00     0.360 C 
ATOM     94  O   UNL     1       6.416   0.944   9.569  1.00  0.00    -0.224 OA
BRANCH  93  95
ATOM     95  C   UNL     1       7.320   3.067   9.917  1.00  0.00     0.145 A 
ATOM     96  C   UNL     1       8.444   2.950  10.712  1.00  0.00     0.046 A 
ATOM     97  N   UNL     1       6.871   4.361  10.055  1.00  0.00    -0.347 N 
ATOM     98  C   UNL     1       8.755   4.236  11.227  1.00  0.00     0.000 A 
ATOM     99  C   UNL     1       7.766   5.109  10.781  1.00  0.00     0.046 A 
ATOM    100  H   UNL     1       6.025   4.703   9.685  1.00  0.00     0.167 HD
ATOM    101  C   UNL     1       9.800   4.744  12.020  1.00  0.00     0.010 A 
ATOM    102  C   UNL     1       7.773   6.478  11.072  1.00  0.00     0.026 A 
ATOM    103  C   UNL     1       9.823   6.109  12.326  1.00  0.00     0.001 A 
ATOM    104  C   UNL     1       8.826   6.961  11.854  1.00  0.00     0.002 A 
ENDBRANCH  93  95
ENDBRANCH  86  93
ENDBRANCH  75  77
ENDBRANCH  74  75
ENDBRANCH  73  74
ENDBRANCH  72  73
ENDBRANCH  71  72
ENDBRANCH   1  71
TORSDOF 21
