REMARK SMILES CC(C)(C)c1ccc(C(=O)N/C(=C/c2ccc(O)cc2)C(=O)OCCOCCOC(=O)c2ccc(-c3c4nc(c(-c5cc(S(=O)(=O)[O-])ccc5F)c5ccc([nH]5)c(-c5cc(S(=O)(=O)[O-])ccc5F)c5nc(c(-c6cc(S(=O)(=O)[O-])ccc6F)c6ccc3[nH]6)C=C5)C=C4)cc2)cc1
REMARK SMILES IDX 26 1 25 2 24 3 23 4 21 5 22 6 12 7 13 8 11 9 9 10 10 11 8 13
REMARK SMILES IDX 5 14 6 15 96 16 7 17 95 18 2 19 1 20 3 21 4 22 14 23 15 24
REMARK SMILES IDX 20 25 16 26 19 27 17 28 18 29 27 31 28 32 29 33 30 34 31 35
REMARK SMILES IDX 32 36 33 37 94 38 34 39 93 40 35 41 36 42 37 43 87 44 38 45
REMARK SMILES IDX 92 46 86 47 88 48 39 49 91 50 85 51 84 52 40 54 72 55 52 56
REMARK SMILES IDX 71 57 53 58 56 59 70 60 89 61 54 62 55 63 69 65 90 66 57 67
REMARK SMILES IDX 41 68 42 69 50 70 43 71 49 72 51 73 48 74 44 75 45 76 46 77
REMARK SMILES IDX 47 78 73 79 74 80 82 81 75 82 81 83 83 84 80 85 76 86 77 87
REMARK SMILES IDX 78 88 79 89 58 90 59 91 67 92 60 93 66 94 68 95 65 96 61 97
REMARK SMILES IDX 62 98 63 99 64 100
REMARK H PARENT 11 12 18 30 88 53 56 64
REMARK Flexibility Score: inf
ROOT
ATOM      1  O   UNL     1      -0.572   0.725  -3.082  1.00  0.00    -0.374 OA
ENDROOT
BRANCH   1   2
ATOM      2  C   UNL     1      -0.268   1.940  -2.397  1.00  0.00     0.202 C 
BRANCH   2   3
ATOM      3  C   UNL     1       1.138   2.505  -2.533  1.00  0.00     0.261 C 
BRANCH   3   4
ATOM      4  O   UNL     1       1.420   2.611  -3.920  1.00  0.00    -0.459 OA
BRANCH   4   5
ATOM      5  C   UNL     1       2.708   2.461  -4.273  1.00  0.00     0.354 C 
ATOM      6  O   UNL     1       3.689   2.509  -3.549  1.00  0.00    -0.244 OA
BRANCH   5   7
ATOM      7  C   UNL     1       2.756   2.295  -5.746  1.00  0.00     0.128 C 
ATOM      8  C   UNL     1       2.557   3.421  -6.476  1.00  0.00     0.042 C 
BRANCH   7   9
ATOM      9  N   UNL     1       2.956   1.065  -6.361  1.00  0.00    -0.316 N 
ATOM     10  C   UNL     1       2.957  -0.271  -5.974  1.00  0.00     0.255 C 
ATOM     11  O   UNL     1       3.125  -1.113  -6.863  1.00  0.00    -0.269 OA
ATOM     12  H   UNL     1       3.148   1.166  -7.321  1.00  0.00     0.170 HD
BRANCH  10  13
ATOM     13  C   UNL     1       2.630  -0.779  -4.616  1.00  0.00     0.040 A 
ATOM     14  C   UNL     1       1.627  -1.502  -2.052  1.00  0.00    -0.043 A 
ATOM     15  C   UNL     1       1.189  -2.159  -3.213  1.00  0.00     0.005 A 
ATOM     16  C   UNL     1       2.742  -0.661  -2.201  1.00  0.00     0.005 A 
ATOM     17  C   UNL     1       1.678  -1.797  -4.481  1.00  0.00     0.014 A 
ATOM     18  C   UNL     1       3.263  -0.340  -3.466  1.00  0.00     0.014 A 
BRANCH  14  19
ATOM     19  C   UNL     1       0.902  -1.685  -0.701  1.00  0.00    -0.013 C 
ATOM     20  C   UNL     1       1.241  -0.573   0.323  1.00  0.00     0.016 C 
ATOM     21  C   UNL     1       1.296  -3.036  -0.083  1.00  0.00     0.016 C 
ATOM     22  C   UNL     1      -0.642  -1.664  -0.854  1.00  0.00     0.016 C 
ENDBRANCH  14  19
ENDBRANCH  10  13
ENDBRANCH   7   9
BRANCH   8  23
ATOM     23  C   UNL     1       2.199   4.764  -5.941  1.00  0.00    -0.023 A 
ATOM     24  C   UNL     1       1.134   5.468  -6.523  1.00  0.00     0.012 A 
ATOM     25  C   UNL     1       2.837   5.338  -4.828  1.00  0.00     0.012 A 
ATOM     26  C   UNL     1       0.664   6.655  -5.947  1.00  0.00     0.047 A 
ATOM     27  C   UNL     1       2.337   6.496  -4.221  1.00  0.00     0.047 A 
ATOM     28  C   UNL     1       1.242   7.136  -4.779  1.00  0.00     0.115 A 
BRANCH  28  29
ATOM     29  O   UNL     1       0.695   8.245  -4.210  1.00  0.00    -0.508 OA
ATOM     30  H   UNL     1      -0.046   8.659  -4.607  1.00  0.00     0.293 HD
ENDBRANCH  28  29
ENDBRANCH   8  23
ENDBRANCH   5   7
ENDBRANCH   4   5
ENDBRANCH   3   4
ENDBRANCH   2   3
ENDBRANCH   1   2
BRANCH   1  31
ATOM     31  C   UNL     1      -0.655   0.718  -4.504  1.00  0.00     0.202 C 
BRANCH  31  32
ATOM     32  C   UNL     1      -1.873   1.358  -5.181  1.00  0.00     0.261 C 
BRANCH  32  33
ATOM     33  O   UNL     1      -2.198   2.659  -4.692  1.00  0.00    -0.460 OA
BRANCH  33  34
ATOM     34  C   UNL     1      -3.150   2.648  -3.721  1.00  0.00     0.338 C 
ATOM     35  O   UNL     1      -3.778   1.687  -3.319  1.00  0.00    -0.246 OA
BRANCH  34  36
ATOM     36  C   UNL     1      -3.159   3.961  -3.048  1.00  0.00     0.060 A 
ATOM     37  C   UNL     1      -3.036   3.968  -1.652  1.00  0.00     0.016 A 
ATOM     38  C   UNL     1      -3.279   5.153  -3.763  1.00  0.00     0.016 A 
ATOM     39  C   UNL     1      -3.082   5.170  -0.959  1.00  0.00     0.010 A 
ATOM     40  C   UNL     1      -3.346   6.359  -3.063  1.00  0.00     0.010 A 
ATOM     41  C   UNL     1      -3.287   6.365  -1.659  1.00  0.00    -0.014 A 
BRANCH  41  42
ATOM     42  C   UNL     1      -3.622   7.586  -0.892  1.00  0.00     0.031 A 
ATOM     43  C   UNL     1      -5.069   7.967  -0.754  1.00  0.00     0.074 A 
ATOM     44  C   UNL     1      -2.658   8.291  -0.276  1.00  0.00     0.049 A 
ATOM     45  N   UNL     1      -5.607   8.972  -0.115  1.00  0.00    -0.248 NA
ATOM     46  C   UNL     1      -6.041   7.093  -1.431  1.00  0.00     0.031 C 
ATOM     47  C   UNL     1      -1.230   7.971  -0.306  1.00  0.00     0.029 A 
ATOM     48  N   UNL     1      -2.736   9.415   0.503  1.00  0.00    -0.354 N 
ATOM     49  C   UNL     1      -6.979   8.852  -0.311  1.00  0.00     0.074 A 
ATOM     50  C   UNL     1      -7.185   7.703  -1.165  1.00  0.00     0.031 C 
ATOM     51  C   UNL     1      -0.567   8.881   0.428  1.00  0.00     0.029 A 
ATOM     52  C   UNL     1      -1.515   9.865   0.945  1.00  0.00     0.049 A 
ATOM     53  H   UNL     1      -3.587   9.858   0.726  1.00  0.00     0.167 HD
ATOM     54  C   UNL     1      -7.974   9.627   0.186  1.00  0.00     0.034 A 
ATOM     55  C   UNL     1      -1.204  10.958   1.669  1.00  0.00     0.034 A 
ATOM     56  C   UNL     1      -7.740  10.781   1.021  1.00  0.00     0.049 A 
ATOM     57  C   UNL     1      -2.325  11.852   2.144  1.00  0.00     0.074 A 
ATOM     58  C   UNL     1      -8.666  11.642   1.583  1.00  0.00     0.029 A 
ATOM     59  N   UNL     1      -6.486  11.245   1.403  1.00  0.00    -0.354 N 
ATOM     60  N   UNL     1      -3.621  11.727   1.960  1.00  0.00    -0.248 NA
ATOM     61  C   UNL     1      -1.940  13.022   2.940  1.00  0.00     0.031 C 
ATOM     62  C   UNL     1      -7.971  12.669   2.232  1.00  0.00     0.029 A 
ATOM     63  C   UNL     1      -6.614  12.399   2.162  1.00  0.00     0.049 A 
ATOM     64  H   UNL     1      -5.631  10.817   1.169  1.00  0.00     0.167 HD
ATOM     65  C   UNL     1      -4.206  12.789   2.647  1.00  0.00     0.074 A 
ATOM     66  C   UNL     1      -3.121  13.521   3.270  1.00  0.00     0.031 C 
ATOM     67  C   UNL     1      -5.518  13.131   2.757  1.00  0.00     0.034 A 
BRANCH  54  68
ATOM     68  C   UNL     1      -9.390   9.283  -0.214  1.00  0.00     0.023 A 
ATOM     69  C   UNL     1      -9.988   8.058   0.135  1.00  0.00     0.031 A 
ATOM     70  C   UNL     1     -10.144  10.183  -0.989  1.00  0.00     0.131 A 
ATOM     71  C   UNL     1     -11.267   7.740  -0.347  1.00  0.00     0.055 A 
ATOM     72  C   UNL     1     -11.449   9.895  -1.394  1.00  0.00     0.041 A 
ATOM     73  F   UNL     1      -9.619  11.355  -1.380  1.00  0.00    -0.206 F 
ATOM     74  C   UNL     1     -12.013   8.661  -1.085  1.00  0.00     0.022 A 
BRANCH  71  75
ATOM     75  S   UNL     1     -11.885   6.049  -0.122  1.00  0.00     0.124 S 
ATOM     76  O   UNL     1     -10.850   5.265  -0.791  1.00  0.00    -0.237 OA
ATOM     77  O   UNL     1     -11.943   5.925   1.330  1.00  0.00    -0.237 OA
ATOM     78  O   UNL     1     -13.180   6.064  -0.800  1.00  0.00    -0.744 OA
ENDBRANCH  71  75
ENDBRANCH  54  68
BRANCH  55  79
ATOM     79  C   UNL     1       0.220  11.290   1.967  1.00  0.00     0.023 A 
ATOM     80  C   UNL     1       0.693  11.359   3.287  1.00  0.00     0.031 A 
ATOM     81  C   UNL     1       1.118  11.601   0.930  1.00  0.00     0.131 A 
ATOM     82  C   UNL     1       2.008  11.780   3.538  1.00  0.00     0.055 A 
ATOM     83  C   UNL     1       2.443  11.963   1.182  1.00  0.00     0.041 A 
ATOM     84  F   UNL     1       0.722  11.548  -0.352  1.00  0.00    -0.206 F 
ATOM     85  C   UNL     1       2.890  12.068   2.495  1.00  0.00     0.022 A 
BRANCH  82  86
ATOM     86  S   UNL     1       2.524  12.037   5.258  1.00  0.00     0.124 S 
ATOM     87  O   UNL     1       1.549  13.019   5.717  1.00  0.00    -0.237 OA
ATOM     88  O   UNL     1       2.395  10.694   5.815  1.00  0.00    -0.237 OA
ATOM     89  O   UNL     1       3.895  12.527   5.131  1.00  0.00    -0.744 OA
ENDBRANCH  82  86
ENDBRANCH  55  79
BRANCH  67  90
ATOM     90  C   UNL     1      -5.838  14.330   3.622  1.00  0.00     0.023 A 
ATOM     91  C   UNL     1      -5.363  15.616   3.308  1.00  0.00     0.031 A 
ATOM     92  C   UNL     1      -6.583  14.175   4.805  1.00  0.00     0.131 A 
ATOM     93  C   UNL     1      -5.551  16.671   4.213  1.00  0.00     0.055 A 
ATOM     94  C   UNL     1      -6.843  15.249   5.658  1.00  0.00     0.041 A 
ATOM     95  F   UNL     1      -7.063  12.973   5.160  1.00  0.00    -0.206 F 
ATOM     96  C   UNL     1      -6.305  16.501   5.376  1.00  0.00     0.022 A 
BRANCH  93  97
ATOM     97  S   UNL     1      -4.658  18.225   3.927  1.00  0.00     0.124 S 
ATOM     98  O   UNL     1      -3.277  17.765   3.830  1.00  0.00    -0.237 OA
ATOM     99  O   UNL     1      -5.259  18.706   2.688  1.00  0.00    -0.237 OA
ATOM    100  O   UNL     1      -4.965  19.019   5.115  1.00  0.00    -0.744 OA
ENDBRANCH  93  97
ENDBRANCH  67  90
ENDBRANCH  41  42
ENDBRANCH  34  36
ENDBRANCH  33  34
ENDBRANCH  32  33
ENDBRANCH  31  32
ENDBRANCH   1  31
TORSDOF 22
