REMARK SMILES Cc1ccc(C)c(-n2nc(C)c(/C=C(/C#N)C(=O)OCCOCCOC(=O)c3ccc(-c4c5nc(c(-c6cc(S(=O)(=O)[O-])ccc6F)c6ccc([nH]6)c(-c6cc(S(=O)(=O)[O-])ccc6F)c6nc(c(-c7cc(S(=O)(=O)[O-])ccc7F)c7ccc4[nH]7)C=C6)C=C5)cc3)c2Cl)c1
REMARK SMILES IDX 23 1 22 2 21 3 20 4 19 5 17 6 18 7 14 8 13 9 12 10 8 11 9 12
REMARK SMILES IDX 91 13 10 14 92 15 11 16 7 17 1 18 2 19 3 20 93 21 4 22 5 23
REMARK SMILES IDX 6 24 15 25 16 26 24 27 25 28 26 29 27 30 28 31 29 32 90 33
REMARK SMILES IDX 30 34 89 35 31 36 32 37 33 38 83 39 34 40 88 41 82 42 84 43
REMARK SMILES IDX 35 44 87 45 81 46 80 47 36 49 68 50 48 51 67 52 49 53 52 54
REMARK SMILES IDX 66 55 85 56 50 57 51 58 65 60 86 61 53 62 37 63 38 64 46 65
REMARK SMILES IDX 39 66 45 67 47 68 44 69 40 70 41 71 42 72 43 73 69 74 70 75
REMARK SMILES IDX 78 76 71 77 77 78 79 79 76 80 72 81 73 82 74 83 75 84 54 85
REMARK SMILES IDX 55 86 63 87 56 88 62 89 64 90 61 91 57 92 58 93 59 94 60 95
REMARK H PARENT 84 48 52 59
REMARK Flexibility Score: inf
ROOT
ATOM      1  C   UNL     1      -6.705   5.831  -1.118  1.00  0.00     0.202 C 
ENDROOT
BRANCH   1   2
ATOM      2  O   UNL     1      -6.456   7.034  -0.438  1.00  0.00    -0.374 OA
BRANCH   2   3
ATOM      3  C   UNL     1      -6.539   8.276  -1.069  1.00  0.00     0.202 C 
BRANCH   3   4
ATOM      4  C   UNL     1      -5.490   9.138  -0.381  1.00  0.00     0.261 C 
BRANCH   4   5
ATOM      5  O   UNL     1      -4.175   8.547  -0.401  1.00  0.00    -0.459 OA
BRANCH   5   6
ATOM      6  C   UNL     1      -3.909   7.205  -0.336  1.00  0.00     0.348 C 
ATOM      7  O   UNL     1      -4.403   6.373   0.365  1.00  0.00    -0.245 OA
BRANCH   6   8
ATOM      8  C   UNL     1      -3.024   6.816  -1.421  1.00  0.00     0.138 C 
ATOM      9  C   UNL     1      -2.487   5.606  -1.756  1.00  0.00     0.040 C 
BRANCH   9  10
ATOM     10  C   UNL     1      -2.232   4.316  -1.093  1.00  0.00     0.037 A 
ATOM     11  N   UNL     1      -1.273   2.315  -0.625  1.00  0.00    -0.221 N 
ATOM     12  N   UNL     1      -1.980   2.617   0.459  1.00  0.00    -0.171 NA
ATOM     13  C   UNL     1      -1.501   3.247  -1.620  1.00  0.00     0.140 A 
ATOM     14  C   UNL     1      -2.653   3.711   0.119  1.00  0.00     0.069 A 
ATOM     15  Cl  UNL     1      -1.135   2.816  -3.232  1.00  0.00    -0.061 Cl
ATOM     16  C   UNL     1      -3.695   4.022   1.068  1.00  0.00     0.069 C 
BRANCH  11  17
ATOM     17  C   UNL     1      -0.592   1.077  -0.592  1.00  0.00     0.069 A 
ATOM     18  C   UNL     1       3.014  -0.065  -0.088  1.00  0.00     0.044 C 
ATOM     19  C   UNL     1       1.519  -0.073  -0.237  1.00  0.00    -0.049 A 
ATOM     20  C   UNL     1       0.817  -1.266  -0.027  1.00  0.00     0.004 A 
ATOM     21  C   UNL     1       0.812   1.098  -0.553  1.00  0.00     0.032 A 
ATOM     22  C   UNL     1      -0.577  -1.283  -0.052  1.00  0.00     0.006 A 
ATOM     23  C   UNL     1      -1.304  -0.108  -0.290  1.00  0.00    -0.025 A 
ATOM     24  C   UNL     1      -2.806  -0.202  -0.202  1.00  0.00     0.047 C 
ENDBRANCH  11  17
ENDBRANCH   9  10
BRANCH   8  25
ATOM     25  C   UNL     1      -3.058   7.979  -2.401  1.00  0.00     0.107 C 
ATOM     26  N   UNL     1      -3.086   8.943  -3.213  1.00  0.00    -0.192 NA
ENDBRANCH   8  25
ENDBRANCH   6   8
ENDBRANCH   5   6
ENDBRANCH   4   5
ENDBRANCH   3   4
ENDBRANCH   2   3
ENDBRANCH   1   2
BRANCH   1  27
ATOM     27  C   UNL     1      -8.104   5.451  -0.695  1.00  0.00     0.261 C 
BRANCH  27  28
ATOM     28  O   UNL     1      -8.118   5.361   0.773  1.00  0.00    -0.460 OA
BRANCH  28  29
ATOM     29  C   UNL     1      -8.197   6.554   1.468  1.00  0.00     0.338 C 
ATOM     30  O   UNL     1      -9.082   7.378   1.288  1.00  0.00    -0.246 OA
BRANCH  29  31
ATOM     31  C   UNL     1      -6.959   6.806   2.320  1.00  0.00     0.060 A 
ATOM     32  C   UNL     1      -6.442   8.098   2.555  1.00  0.00     0.016 A 
ATOM     33  C   UNL     1      -6.148   5.769   2.700  1.00  0.00     0.016 A 
ATOM     34  C   UNL     1      -5.018   8.340   2.739  1.00  0.00     0.010 A 
ATOM     35  C   UNL     1      -4.800   6.043   3.020  1.00  0.00     0.010 A 
ATOM     36  C   UNL     1      -4.118   7.284   2.758  1.00  0.00    -0.014 A 
BRANCH  36  37
ATOM     37  C   UNL     1      -2.520   7.189   2.479  1.00  0.00     0.031 A 
ATOM     38  C   UNL     1      -1.997   6.487   3.671  1.00  0.00     0.074 A 
ATOM     39  C   UNL     1      -1.544   7.481   1.502  1.00  0.00     0.049 A 
ATOM     40  N   UNL     1      -1.902   7.110   4.811  1.00  0.00    -0.248 NA
ATOM     41  C   UNL     1      -1.963   5.021   3.804  1.00  0.00     0.031 C 
ATOM     42  C   UNL     1      -1.496   8.436   0.381  1.00  0.00     0.029 A 
ATOM     43  N   UNL     1      -0.298   6.811   1.232  1.00  0.00    -0.354 N 
ATOM     44  C   UNL     1      -1.447   6.121   5.646  1.00  0.00     0.074 A 
ATOM     45  C   UNL     1      -2.037   4.923   5.138  1.00  0.00     0.031 C 
ATOM     46  C   UNL     1      -0.529   8.135  -0.539  1.00  0.00     0.029 A 
ATOM     47  C   UNL     1       0.280   6.983  -0.111  1.00  0.00     0.049 A 
ATOM     48  H   UNL     1       0.148   6.262   1.917  1.00  0.00     0.167 HD
ATOM     49  C   UNL     1      -0.202   6.211   6.189  1.00  0.00     0.034 A 
ATOM     50  C   UNL     1       1.583   6.826  -0.628  1.00  0.00     0.034 A 
ATOM     51  C   UNL     1       0.356   7.543   5.998  1.00  0.00     0.049 A 
ATOM     52  C   UNL     1       2.487   7.078   0.503  1.00  0.00     0.074 A 
ATOM     53  C   UNL     1      -0.135   8.822   6.193  1.00  0.00     0.029 A 
ATOM     54  N   UNL     1       1.425   7.683   5.137  1.00  0.00    -0.354 N 
ATOM     55  N   UNL     1       2.666   8.269   0.989  1.00  0.00    -0.248 NA
ATOM     56  C   UNL     1       2.717   5.968   1.408  1.00  0.00     0.031 C 
ATOM     57  C   UNL     1       0.348   9.587   5.097  1.00  0.00     0.029 A 
ATOM     58  C   UNL     1       1.257   8.818   4.375  1.00  0.00     0.049 A 
ATOM     59  H   UNL     1       2.191   7.067   5.077  1.00  0.00     0.167 HD
ATOM     60  C   UNL     1       2.477   8.085   2.343  1.00  0.00     0.074 A 
ATOM     61  C   UNL     1       2.610   6.639   2.557  1.00  0.00     0.031 C 
ATOM     62  C   UNL     1       1.904   9.066   3.097  1.00  0.00     0.034 A 
BRANCH  49  63
ATOM     63  C   UNL     1       0.642   5.006   6.525  1.00  0.00     0.023 A 
ATOM     64  C   UNL     1       1.705   5.246   7.396  1.00  0.00     0.031 A 
ATOM     65  C   UNL     1       0.599   3.709   5.947  1.00  0.00     0.131 A 
ATOM     66  C   UNL     1       2.681   4.266   7.618  1.00  0.00     0.055 A 
ATOM     67  C   UNL     1       1.528   2.711   6.233  1.00  0.00     0.041 A 
ATOM     68  F   UNL     1      -0.278   3.334   5.011  1.00  0.00    -0.206 F 
ATOM     69  C   UNL     1       2.595   2.994   7.057  1.00  0.00     0.022 A 
BRANCH  66  70
ATOM     70  S   UNL     1       4.145   4.752   8.547  1.00  0.00     0.124 S 
ATOM     71  O   UNL     1       4.637   5.867   7.745  1.00  0.00    -0.237 OA
ATOM     72  O   UNL     1       3.573   5.093   9.845  1.00  0.00    -0.237 OA
ATOM     73  O   UNL     1       4.971   3.548   8.523  1.00  0.00    -0.744 OA
ENDBRANCH  66  70
ENDBRANCH  49  63
BRANCH  50  74
ATOM     74  C   UNL     1       2.184   6.090  -1.867  1.00  0.00     0.023 A 
ATOM     75  C   UNL     1       3.583   5.944  -2.190  1.00  0.00     0.031 A 
ATOM     76  C   UNL     1       1.346   5.367  -2.717  1.00  0.00     0.131 A 
ATOM     77  C   UNL     1       4.037   5.051  -3.228  1.00  0.00     0.055 A 
ATOM     78  C   UNL     1       1.792   4.458  -3.698  1.00  0.00     0.041 A 
ATOM     79  F   UNL     1       0.032   5.531  -2.618  1.00  0.00    -0.206 F 
ATOM     80  C   UNL     1       3.136   4.265  -3.933  1.00  0.00     0.022 A 
BRANCH  77  81
ATOM     81  S   UNL     1       5.804   4.841  -3.713  1.00  0.00     0.124 S 
ATOM     82  O   UNL     1       6.048   6.027  -4.526  1.00  0.00    -0.237 OA
ATOM     83  O   UNL     1       6.491   4.776  -2.429  1.00  0.00    -0.237 OA
ATOM     84  O   UNL     1       5.810   3.583  -4.465  1.00  0.00    -0.744 OA
ENDBRANCH  77  81
ENDBRANCH  50  74
BRANCH  62  85
ATOM     85  C   UNL     1       1.784  10.476   2.512  1.00  0.00     0.023 A 
ATOM     86  C   UNL     1       1.122  10.833   1.313  1.00  0.00     0.031 A 
ATOM     87  C   UNL     1       2.261  11.532   3.304  1.00  0.00     0.131 A 
ATOM     88  C   UNL     1       0.922  12.190   0.972  1.00  0.00     0.055 A 
ATOM     89  C   UNL     1       2.054  12.873   2.975  1.00  0.00     0.041 A 
ATOM     90  F   UNL     1       2.910  11.276   4.452  1.00  0.00    -0.206 F 
ATOM     91  C   UNL     1       1.379  13.209   1.808  1.00  0.00     0.022 A 
BRANCH  88  92
ATOM     92  S   UNL     1       0.064  12.656  -0.570  1.00  0.00     0.124 S 
ATOM     93  O   UNL     1       0.692  11.805  -1.573  1.00  0.00    -0.237 OA
ATOM     94  O   UNL     1      -1.329  12.348  -0.255  1.00  0.00    -0.237 OA
ATOM     95  O   UNL     1       0.358  14.084  -0.705  1.00  0.00    -0.744 OA
ENDBRANCH  88  92
ENDBRANCH  62  85
ENDBRANCH  36  37
ENDBRANCH  29  31
ENDBRANCH  28  29
ENDBRANCH  27  28
ENDBRANCH   1  27
TORSDOF 20
