REMARK SMILES C[NH+]1CCN(C(=O)[C@H]2[C@H](C(=O)OCCOCCOC(=O)c3ccc(-c4c5nc(c(-c6cc(S(=O)(=O)[O-])ccc6F)c6ccc([nH]6)c(-c6cc(S(=O)(=O)[O-])ccc6F)c6nc(c(-c7cc(S(=O)(=O)[O-])ccc7F)c7ccc4[nH]7)C=C6)C=C5)cc3)[C@@H]3C=C[C@H]2C3)CC1
REMARK SMILES IDX 16 1 15 2 14 3 13 4 12 5 10 6 11 7 9 8 8 9 87 10 84 11 86 12
REMARK SMILES IDX 88 13 85 14 6 15 1 16 2 17 3 18 90 19 4 21 89 22 5 23 7 24
REMARK SMILES IDX 17 25 18 26 19 27 20 28 21 29 22 30 83 31 23 32 82 33 24 34
REMARK SMILES IDX 25 35 26 36 76 37 27 38 81 39 75 40 77 41 28 42 80 43 74 44
REMARK SMILES IDX 73 45 29 47 61 48 41 49 60 50 42 51 45 52 59 53 78 54 43 55
REMARK SMILES IDX 44 56 58 58 79 59 46 60 30 61 31 62 39 63 32 64 38 65 40 66
REMARK SMILES IDX 37 67 33 68 34 69 35 70 36 71 62 72 63 73 71 74 64 75 70 76
REMARK SMILES IDX 72 77 69 78 65 79 66 80 67 81 68 82 47 83 48 84 56 85 49 86
REMARK SMILES IDX 55 87 57 88 54 89 50 90 51 91 52 92 53 93
REMARK H PARENT 2 20 77 46 45 57
REMARK Flexibility Score: inf
ROOT
ATOM      1  C   UNL     1      -2.985   0.970   4.580  1.00  0.00     0.202 C 
ENDROOT
BRANCH   1   2
ATOM      2  O   UNL     1      -1.709   1.455   4.968  1.00  0.00    -0.374 OA
BRANCH   2   3
ATOM      3  C   UNL     1      -0.714   1.478   3.937  1.00  0.00     0.202 C 
BRANCH   3   4
ATOM      4  C   UNL     1      -0.198   0.108   3.465  1.00  0.00     0.261 C 
BRANCH   4   5
ATOM      5  O   UNL     1      -1.153  -0.572   2.611  1.00  0.00    -0.463 OA
BRANCH   5   6
ATOM      6  C   UNL     1      -1.601  -1.788   3.017  1.00  0.00     0.310 C 
ATOM      7  O   UNL     1      -1.291  -2.319   4.079  1.00  0.00    -0.252 OA
BRANCH   6   8
ATOM      8  C   UNL     1      -2.560  -2.466   2.043  1.00  0.00     0.119 C 
ATOM      9  C   UNL     1      -3.740  -1.630   1.431  1.00  0.00     0.100 C 
ATOM     10  C   UNL     1      -3.487  -1.840  -0.100  1.00  0.00     0.025 C 
ATOM     11  C   UNL     1      -1.802  -3.002   0.803  1.00  0.00     0.027 C 
ATOM     12  C   UNL     1      -2.202  -1.147  -0.493  1.00  0.00    -0.027 C 
ATOM     13  C   UNL     1      -2.977  -3.292  -0.130  1.00  0.00     0.017 C 
ATOM     14  C   UNL     1      -1.192  -1.858   0.027  1.00  0.00    -0.027 C 
BRANCH   9  15
ATOM     15  C   UNL     1      -5.180  -2.134   1.774  1.00  0.00     0.227 C 
ATOM     16  C   UNL     1      -7.111  -1.645   7.135  1.00  0.00     0.332 C 
ATOM     17  N   UNL     1      -6.731  -1.464   5.740  1.00  0.00    -0.334 N 
ATOM     18  C   UNL     1      -7.529  -2.280   4.801  1.00  0.00     0.283 C 
ATOM     19  C   UNL     1      -5.318  -1.810   5.555  1.00  0.00     0.283 C 
ATOM     20  H   UNL     1      -6.908  -0.482   5.529  1.00  0.00     0.347 HD
ATOM     21  C   UNL     1      -7.115  -2.063   3.315  1.00  0.00     0.181 C 
ATOM     22  C   UNL     1      -4.904  -1.427   4.142  1.00  0.00     0.181 C 
ATOM     23  N   UNL     1      -5.658  -2.036   3.078  1.00  0.00    -0.331 N 
ATOM     24  O   UNL     1      -5.924  -2.554   0.882  1.00  0.00    -0.275 OA
ENDBRANCH   9  15
ENDBRANCH   6   8
ENDBRANCH   5   6
ENDBRANCH   4   5
ENDBRANCH   3   4
ENDBRANCH   2   3
ENDBRANCH   1   2
BRANCH   1  25
ATOM     25  C   UNL     1      -4.046   1.991   4.165  1.00  0.00     0.261 C 
BRANCH  25  26
ATOM     26  O   UNL     1      -3.551   2.828   3.143  1.00  0.00    -0.460 OA
BRANCH  26  27
ATOM     27  C   UNL     1      -3.054   3.986   3.624  1.00  0.00     0.338 C 
ATOM     28  O   UNL     1      -3.098   4.415   4.756  1.00  0.00    -0.246 OA
BRANCH  27  29
ATOM     29  C   UNL     1      -2.258   4.538   2.534  1.00  0.00     0.060 A 
ATOM     30  C   UNL     1      -0.974   4.981   2.852  1.00  0.00     0.016 A 
ATOM     31  C   UNL     1      -2.765   4.569   1.229  1.00  0.00     0.016 A 
ATOM     32  C   UNL     1      -0.204   5.553   1.860  1.00  0.00     0.010 A 
ATOM     33  C   UNL     1      -1.990   5.130   0.234  1.00  0.00     0.010 A 
ATOM     34  C   UNL     1      -0.743   5.676   0.573  1.00  0.00    -0.014 A 
BRANCH  34  35
ATOM     35  C   UNL     1      -0.127   6.621  -0.362  1.00  0.00     0.031 A 
ATOM     36  C   UNL     1      -0.769   7.969  -0.485  1.00  0.00     0.074 A 
ATOM     37  C   UNL     1       0.958   6.255  -1.056  1.00  0.00     0.049 A 
ATOM     38  N   UNL     1      -0.506   8.936  -1.317  1.00  0.00    -0.248 NA
ATOM     39  C   UNL     1      -1.877   8.255   0.445  1.00  0.00     0.031 C 
ATOM     40  C   UNL     1       1.645   4.970  -0.928  1.00  0.00     0.029 A 
ATOM     41  N   UNL     1       1.660   6.928  -2.011  1.00  0.00    -0.354 N 
ATOM     42  C   UNL     1      -1.424   9.937  -1.022  1.00  0.00     0.074 A 
ATOM     43  C   UNL     1      -2.284   9.441   0.026  1.00  0.00     0.031 C 
ATOM     44  C   UNL     1       2.676   4.946  -1.789  1.00  0.00     0.029 A 
ATOM     45  C   UNL     1       2.678   6.188  -2.557  1.00  0.00     0.049 A 
ATOM     46  H   UNL     1       1.457   7.852  -2.282  1.00  0.00     0.167 HD
ATOM     47  C   UNL     1      -1.520  11.166  -1.579  1.00  0.00     0.034 A 
ATOM     48  C   UNL     1       3.487   6.487  -3.589  1.00  0.00     0.034 A 
ATOM     49  C   UNL     1      -0.642  11.600  -2.634  1.00  0.00     0.049 A 
ATOM     50  C   UNL     1       3.305   7.827  -4.258  1.00  0.00     0.074 A 
ATOM     51  C   UNL     1      -0.620  12.810  -3.297  1.00  0.00     0.029 A 
ATOM     52  N   UNL     1       0.370  10.819  -3.185  1.00  0.00    -0.354 N 
ATOM     53  N   UNL     1       2.432   8.773  -3.987  1.00  0.00    -0.248 NA
ATOM     54  C   UNL     1       4.216   8.147  -5.361  1.00  0.00     0.031 C 
ATOM     55  C   UNL     1       0.350  12.732  -4.301  1.00  0.00     0.029 A 
ATOM     56  C   UNL     1       1.003  11.511  -4.200  1.00  0.00     0.049 A 
ATOM     57  H   UNL     1       0.600   9.907  -2.895  1.00  0.00     0.167 HD
ATOM     58  C   UNL     1       2.721   9.820  -4.855  1.00  0.00     0.074 A 
ATOM     59  C   UNL     1       3.844   9.383  -5.663  1.00  0.00     0.031 C 
ATOM     60  C   UNL     1       2.130  11.036  -4.971  1.00  0.00     0.034 A 
BRANCH  47  61
ATOM     61  C   UNL     1      -2.631  12.065  -1.098  1.00  0.00     0.023 A 
ATOM     62  C   UNL     1      -2.720  12.483   0.243  1.00  0.00     0.031 A 
ATOM     63  C   UNL     1      -3.651  12.466  -1.978  1.00  0.00     0.131 A 
ATOM     64  C   UNL     1      -3.842  13.203   0.680  1.00  0.00     0.055 A 
ATOM     65  C   UNL     1      -4.719  13.260  -1.556  1.00  0.00     0.041 A 
ATOM     66  F   UNL     1      -3.642  12.070  -3.261  1.00  0.00    -0.206 F 
ATOM     67  C   UNL     1      -4.828  13.619  -0.216  1.00  0.00     0.022 A 
BRANCH  64  68
ATOM     68  S   UNL     1      -4.076  13.442   2.463  1.00  0.00     0.124 S 
ATOM     69  O   UNL     1      -4.114  12.063   2.943  1.00  0.00    -0.237 OA
ATOM     70  O   UNL     1      -2.897  14.216   2.836  1.00  0.00    -0.237 OA
ATOM     71  O   UNL     1      -5.347  14.159   2.549  1.00  0.00    -0.744 OA
ENDBRANCH  64  68
ENDBRANCH  47  61
BRANCH  48  72
ATOM     72  C   UNL     1       4.508   5.509  -4.048  1.00  0.00     0.023 A 
ATOM     73  C   UNL     1       5.874   5.813  -3.977  1.00  0.00     0.031 A 
ATOM     74  C   UNL     1       4.136   4.260  -4.579  1.00  0.00     0.131 A 
ATOM     75  C   UNL     1       6.819   4.904  -4.475  1.00  0.00     0.055 A 
ATOM     76  C   UNL     1       5.083   3.333  -5.018  1.00  0.00     0.041 A 
ATOM     77  F   UNL     1       2.841   3.913  -4.663  1.00  0.00    -0.206 F 
ATOM     78  C   UNL     1       6.435   3.660  -4.981  1.00  0.00     0.022 A 
BRANCH  75  79
ATOM     79  S   UNL     1       8.555   5.418  -4.541  1.00  0.00     0.124 S 
ATOM     80  O   UNL     1       8.472   6.637  -5.338  1.00  0.00    -0.237 OA
ATOM     81  O   UNL     1       8.872   5.593  -3.128  1.00  0.00    -0.237 OA
ATOM     82  O   UNL     1       9.218   4.290  -5.192  1.00  0.00    -0.744 OA
ENDBRANCH  75  79
ENDBRANCH  48  72
BRANCH  60  83
ATOM     83  C   UNL     1       2.739  12.009  -5.945  1.00  0.00     0.023 A 
ATOM     84  C   UNL     1       2.660  11.822  -7.334  1.00  0.00     0.031 A 
ATOM     85  C   UNL     1       3.361  13.174  -5.460  1.00  0.00     0.131 A 
ATOM     86  C   UNL     1       3.223  12.777  -8.193  1.00  0.00     0.055 A 
ATOM     87  C   UNL     1       3.861  14.149  -6.320  1.00  0.00     0.041 A 
ATOM     88  F   UNL     1       3.462  13.395  -4.139  1.00  0.00    -0.206 F 
ATOM     89  C   UNL     1       3.800  13.949  -7.696  1.00  0.00     0.022 A 
BRANCH  86  90
ATOM     90  S   UNL     1       3.245  12.439  -9.973  1.00  0.00     0.124 S 
ATOM     91  O   UNL     1       4.035  11.213 -10.038  1.00  0.00    -0.237 OA
ATOM     92  O   UNL     1       1.826  12.300 -10.284  1.00  0.00    -0.237 OA
ATOM     93  O   UNL     1       3.889  13.623 -10.538  1.00  0.00    -0.744 OA
ENDBRANCH  86  90
ENDBRANCH  60  83
ENDBRANCH  34  35
ENDBRANCH  27  29
ENDBRANCH  26  27
ENDBRANCH  25  26
ENDBRANCH   1  25
TORSDOF 18
