REMARK SMILES Cc1ccc(Cl)c(Nc2ccccc2C(=O)N[C@@H](C)C(=O)OCCOCCOC(=O)c2ccc(-c3c4nc(c(-c5cc(S(=O)(=O)[O-])ccc5F)c5ccc([nH]5)c(-c5cc(S(=O)(=O)[O-])ccc5F)c5nc(c(-c6cc(S(=O)(=O)[O-])ccc6F)c6ccc3[nH]6)C=C5)C=C4)cc2)c1Cl
REMARK SMILES IDX 24 1 23 2 22 3 20 4 21 5 18 6 19 7 17 8 15 9 16 10 14 12
REMARK SMILES IDX 9 13 10 14 11 15 13 16 12 17 8 18 7 20 1 21 2 22 3 23 94 24
REMARK SMILES IDX 4 25 95 26 5 27 6 28 25 29 26 30 27 31 28 32 29 33 30 34
REMARK SMILES IDX 31 35 32 36 93 37 33 38 92 39 34 40 35 41 36 42 86 43 37 44
REMARK SMILES IDX 91 45 85 46 87 47 38 48 90 49 84 50 83 51 39 53 71 54 51 55
REMARK SMILES IDX 70 56 52 57 55 58 69 59 88 60 53 61 54 62 68 64 89 65 56 66
REMARK SMILES IDX 40 67 41 68 49 69 42 70 48 71 50 72 47 73 43 74 44 75 45 76
REMARK SMILES IDX 46 77 72 78 73 79 81 80 74 81 80 82 82 83 79 84 75 85 76 86
REMARK SMILES IDX 77 87 78 88 57 89 58 90 66 91 59 92 65 93 67 94 64 95 60 96
REMARK SMILES IDX 61 97 62 98 63 99
REMARK H PARENT 17 11 8 19 87 52 55 63
REMARK Flexibility Score: inf
ROOT
ATOM      1  C   UNL     1       0.538   3.664  -1.003  1.00  0.00     0.202 C 
ENDROOT
BRANCH   1   2
ATOM      2  C   UNL     1      -0.589   3.242   0.069  1.00  0.00     0.261 C 
BRANCH   2   3
ATOM      3  O   UNL     1      -0.450   2.017   0.886  1.00  0.00    -0.462 OA
BRANCH   3   4
ATOM      4  C   UNL     1      -1.589   1.278   1.151  1.00  0.00     0.328 C 
ATOM      5  O   UNL     1      -2.716   1.701   0.889  1.00  0.00    -0.250 OA
BRANCH   4   6
ATOM      6  C   UNL     1      -1.368  -0.253   1.595  1.00  0.00     0.189 C 
ATOM      7  C   UNL     1      -2.556  -0.746   2.429  1.00  0.00     0.043 C 
BRANCH   6   8
ATOM      8  N   UNL     1      -0.141  -0.699   2.260  1.00  0.00    -0.339 N 
ATOM      9  C   UNL     1       0.664  -1.823   2.281  1.00  0.00     0.254 C 
ATOM     10  O   UNL     1       1.494  -1.739   3.205  1.00  0.00    -0.269 OA
ATOM     11  H   UNL     1       0.209  -0.003   2.862  1.00  0.00     0.164 HD
BRANCH   9  12
ATOM     12  C   UNL     1       0.770  -3.080   1.393  1.00  0.00     0.063 A 
ATOM     13  C   UNL     1      -0.020  -3.655   0.360  1.00  0.00     0.051 A 
ATOM     14  C   UNL     1       0.420  -4.850  -0.302  1.00  0.00     0.027 A 
ATOM     15  C   UNL     1       1.633  -5.462  -0.024  1.00  0.00     0.002 A 
ATOM     16  C   UNL     1       1.982  -3.794   1.673  1.00  0.00     0.016 A 
ATOM     17  C   UNL     1       2.417  -4.934   0.977  1.00  0.00     0.001 A 
BRANCH  13  18
ATOM     18  N   UNL     1      -1.102  -3.059  -0.328  1.00  0.00    -0.352 N 
ATOM     19  H   UNL     1      -2.016  -3.288  -0.045  1.00  0.00     0.167 HD
BRANCH  18  20
ATOM     20  C   UNL     1      -0.938  -2.135  -1.419  1.00  0.00     0.077 A 
ATOM     21  C   UNL     1       1.324   0.331  -0.479  1.00  0.00     0.046 C 
ATOM     22  C   UNL     1       0.282  -0.146  -1.442  1.00  0.00    -0.030 A 
ATOM     23  C   UNL     1      -0.841   0.557  -1.897  1.00  0.00     0.006 A 
ATOM     24  C   UNL     1       0.284  -1.507  -1.596  1.00  0.00     0.069 A 
ATOM     25  C   UNL     1      -2.004  -0.131  -2.242  1.00  0.00     0.023 A 
ATOM     26  Cl  UNL     1       1.797  -2.326  -1.776  1.00  0.00    -0.082 Cl
ATOM     27  C   UNL     1      -2.076  -1.478  -1.915  1.00  0.00     0.066 A 
ATOM     28  Cl  UNL     1      -3.594  -2.289  -1.980  1.00  0.00    -0.082 Cl
ENDBRANCH  18  20
ENDBRANCH  13  18
ENDBRANCH   9  12
ENDBRANCH   6   8
ENDBRANCH   4   6
ENDBRANCH   3   4
ENDBRANCH   2   3
ENDBRANCH   1   2
BRANCH   1  29
ATOM     29  O   UNL     1       1.322   2.683  -1.693  1.00  0.00    -0.374 OA
BRANCH  29  30
ATOM     30  C   UNL     1       2.757   2.861  -1.766  1.00  0.00     0.202 C 
BRANCH  30  31
ATOM     31  C   UNL     1       3.603   2.447  -0.533  1.00  0.00     0.261 C 
BRANCH  31  32
ATOM     32  O   UNL     1       2.916   2.858   0.646  1.00  0.00    -0.460 OA
BRANCH  32  33
ATOM     33  C   UNL     1       3.640   3.436   1.612  1.00  0.00     0.338 C 
ATOM     34  O   UNL     1       4.860   3.418   1.762  1.00  0.00    -0.246 OA
BRANCH  33  35
ATOM     35  C   UNL     1       2.705   4.303   2.329  1.00  0.00     0.060 A 
ATOM     36  C   UNL     1       2.134   5.343   1.586  1.00  0.00     0.016 A 
ATOM     37  C   UNL     1       2.473   4.193   3.697  1.00  0.00     0.016 A 
ATOM     38  C   UNL     1       1.343   6.299   2.196  1.00  0.00     0.010 A 
ATOM     39  C   UNL     1       1.719   5.191   4.328  1.00  0.00     0.010 A 
ATOM     40  C   UNL     1       1.209   6.278   3.585  1.00  0.00    -0.014 A 
BRANCH  40  41
ATOM     41  C   UNL     1       0.880   7.569   4.240  1.00  0.00     0.031 A 
ATOM     42  C   UNL     1       2.030   8.416   4.727  1.00  0.00     0.074 A 
ATOM     43  C   UNL     1      -0.370   8.060   4.273  1.00  0.00     0.049 A 
ATOM     44  N   UNL     1       2.012   9.570   5.343  1.00  0.00    -0.248 NA
ATOM     45  C   UNL     1       3.382   7.892   4.473  1.00  0.00     0.031 C 
ATOM     46  C   UNL     1      -1.556   7.407   3.724  1.00  0.00     0.029 A 
ATOM     47  N   UNL     1      -0.841   9.242   4.789  1.00  0.00    -0.354 N 
ATOM     48  C   UNL     1       3.344   9.898   5.568  1.00  0.00     0.074 A 
ATOM     49  C   UNL     1       4.142   8.810   5.046  1.00  0.00     0.031 C 
ATOM     50  C   UNL     1      -2.624   8.193   3.949  1.00  0.00     0.029 A 
ATOM     51  C   UNL     1      -2.204   9.381   4.695  1.00  0.00     0.049 A 
ATOM     52  H   UNL     1      -0.256   9.925   5.189  1.00  0.00     0.167 HD
ATOM     53  C   UNL     1       3.861  11.006   6.154  1.00  0.00     0.034 A 
ATOM     54  C   UNL     1      -3.021  10.336   5.185  1.00  0.00     0.034 A 
ATOM     55  C   UNL     1       3.065  12.091   6.673  1.00  0.00     0.049 A 
ATOM     56  C   UNL     1      -2.433  11.506   5.944  1.00  0.00     0.074 A 
ATOM     57  C   UNL     1       3.497  13.247   7.301  1.00  0.00     0.029 A 
ATOM     58  N   UNL     1       1.679  12.156   6.636  1.00  0.00    -0.354 N 
ATOM     59  N   UNL     1      -1.175  11.786   6.198  1.00  0.00    -0.248 NA
ATOM     60  C   UNL     1      -3.383  12.494   6.475  1.00  0.00     0.031 C 
ATOM     61  C   UNL     1       2.373  13.972   7.711  1.00  0.00     0.029 A 
ATOM     62  C   UNL     1       1.240  13.317   7.257  1.00  0.00     0.049 A 
ATOM     63  H   UNL     1       1.093  11.478   6.228  1.00  0.00     0.167 HD
ATOM     64  C   UNL     1      -1.186  13.002   6.882  1.00  0.00     0.074 A 
ATOM     65  C   UNL     1      -2.571  13.405   6.989  1.00  0.00     0.031 C 
ATOM     66  C   UNL     1      -0.142  13.723   7.370  1.00  0.00     0.034 A 
BRANCH  53  67
ATOM     67  C   UNL     1       5.359  11.058   6.329  1.00  0.00     0.023 A 
ATOM     68  C   UNL     1       6.239  11.105   5.234  1.00  0.00     0.031 A 
ATOM     69  C   UNL     1       5.913  11.031   7.621  1.00  0.00     0.131 A 
ATOM     70  C   UNL     1       7.625  11.060   5.451  1.00  0.00     0.055 A 
ATOM     71  C   UNL     1       7.292  11.071   7.832  1.00  0.00     0.041 A 
ATOM     72  F   UNL     1       5.122  10.957   8.703  1.00  0.00    -0.206 F 
ATOM     73  C   UNL     1       8.157  11.071   6.742  1.00  0.00     0.022 A 
BRANCH  70  74
ATOM     74  S   UNL     1       8.721  10.842   4.022  1.00  0.00     0.124 S 
ATOM     75  O   UNL     1       8.213   9.600   3.445  1.00  0.00    -0.237 OA
ATOM     76  O   UNL     1       8.474  12.053   3.248  1.00  0.00    -0.237 OA
ATOM     77  O   UNL     1      10.051  10.744   4.621  1.00  0.00    -0.744 OA
ENDBRANCH  70  74
ENDBRANCH  53  67
BRANCH  54  78
ATOM     78  C   UNL     1      -4.501  10.209   5.043  1.00  0.00     0.023 A 
ATOM     79  C   UNL     1      -5.255  11.168   4.349  1.00  0.00     0.031 A 
ATOM     80  C   UNL     1      -5.191   9.161   5.679  1.00  0.00     0.131 A 
ATOM     81  C   UNL     1      -6.657  11.090   4.353  1.00  0.00     0.055 A 
ATOM     82  C   UNL     1      -6.582   9.055   5.629  1.00  0.00     0.041 A 
ATOM     83  F   UNL     1      -4.520   8.222   6.364  1.00  0.00    -0.206 F 
ATOM     84  C   UNL     1      -7.324  10.032   4.975  1.00  0.00     0.022 A 
BRANCH  81  85
ATOM     85  S   UNL     1      -7.606  12.450   3.616  1.00  0.00     0.124 S 
ATOM     86  O   UNL     1      -7.160  13.588   4.411  1.00  0.00    -0.237 OA
ATOM     87  O   UNL     1      -7.153  12.418   2.229  1.00  0.00    -0.237 OA
ATOM     88  O   UNL     1      -8.995  12.046   3.825  1.00  0.00    -0.744 OA
ENDBRANCH  81  85
ENDBRANCH  54  78
BRANCH  66  89
ATOM     89  C   UNL     1      -0.453  15.062   8.003  1.00  0.00     0.023 A 
ATOM     90  C   UNL     1      -1.216  15.179   9.179  1.00  0.00     0.031 A 
ATOM     91  C   UNL     1       0.008  16.249   7.402  1.00  0.00     0.131 A 
ATOM     92  C   UNL     1      -1.553  16.450   9.675  1.00  0.00     0.055 A 
ATOM     93  C   UNL     1      -0.273  17.507   7.937  1.00  0.00     0.041 A 
ATOM     94  F   UNL     1       0.740  16.206   6.277  1.00  0.00    -0.206 F 
ATOM     95  C   UNL     1      -1.072  17.614   9.071  1.00  0.00     0.022 A 
BRANCH  92  96
ATOM     96  S   UNL     1      -2.727  16.568  11.054  1.00  0.00     0.124 S 
ATOM     97  O   UNL     1      -3.876  15.829  10.540  1.00  0.00    -0.237 OA
ATOM     98  O   UNL     1      -1.994  15.931  12.143  1.00  0.00    -0.237 OA
ATOM     99  O   UNL     1      -2.935  18.007  11.206  1.00  0.00    -0.744 OA
ENDBRANCH  92  96
ENDBRANCH  66  89
ENDBRANCH  40  41
ENDBRANCH  33  35
ENDBRANCH  32  33
ENDBRANCH  31  32
ENDBRANCH  30  31
ENDBRANCH  29  30
ENDBRANCH   1  29
TORSDOF 21
