REMARK SMILES CCCC[NH2+][C@H]1CS(=O)(=O)C[C@@H]1[NH2+]CC(=O)OCCOCCOC(=O)c1ccc(-c2c3nc(c(-c4cc(S(=O)(=O)[O-])ccc4F)c4ccc([nH]4)c(-c4cc(S(=O)(=O)[O-])ccc4F)c4nc(c(-c5cc(S(=O)(=O)[O-])ccc5F)c5ccc2[nH]5)C=C4)C=C3)cc1
REMARK SMILES IDX 18 1 17 2 15 3 16 4 14 5 13 6 12 9 6 10 7 11 8 12 11 13 9 14
REMARK SMILES IDX 10 15 5 16 4 19 3 20 2 21 1 22 19 23 20 24 21 25 22 26 23 27
REMARK SMILES IDX 24 28 25 29 26 30 27 31 88 32 28 33 87 34 29 35 30 36 31 37
REMARK SMILES IDX 81 38 32 39 86 40 80 41 82 42 33 43 85 44 79 45 78 46 34 48
REMARK SMILES IDX 66 49 46 50 65 51 47 52 50 53 64 54 83 55 48 56 49 57 63 59
REMARK SMILES IDX 84 60 51 61 35 62 36 63 44 64 37 65 43 66 45 67 42 68 38 69
REMARK SMILES IDX 39 70 40 71 41 72 67 73 68 74 76 75 69 76 75 77 77 78 74 79
REMARK SMILES IDX 70 80 71 81 72 82 73 83 52 84 53 85 61 86 54 87 60 88 62 89
REMARK SMILES IDX 59 90 55 91 56 92 57 93 58 94
REMARK H PARENT 13 7 13 8 5 17 5 18 82 47 50 58
REMARK Flexibility Score: inf
ROOT
ATOM      1  C   UNL     1       1.226   3.826   7.823  1.00  0.00     0.261 C 
ENDROOT
BRANCH   1   2
ATOM      2  O   UNL     1       0.348   3.623   6.701  1.00  0.00    -0.459 OA
BRANCH   2   3
ATOM      3  C   UNL     1      -0.973   3.828   6.946  1.00  0.00     0.361 C 
ATOM      4  O   UNL     1      -1.451   4.095   8.045  1.00  0.00    -0.245 OA
BRANCH   3   5
ATOM      5  C   UNL     1      -1.861   3.713   5.708  1.00  0.00     0.385 C 
BRANCH   5   6
ATOM      6  N   UNL     1      -1.147   3.677   4.409  1.00  0.00    -0.329 N 
ATOM      7  H   UNL     1      -0.524   4.482   4.350  1.00  0.00     0.347 HD
ATOM      8  H   UNL     1      -0.620   2.805   4.356  1.00  0.00     0.347 HD
BRANCH   6   9
ATOM      9  C   UNL     1      -2.093   3.718   3.271  1.00  0.00     0.258 C 
ATOM     10  C   UNL     1      -1.408   3.292   1.933  1.00  0.00     0.257 C 
ATOM     11  C   UNL     1      -0.588   4.497   1.461  1.00  0.00     0.208 C 
ATOM     12  S   UNL     1      -1.530   5.931   1.931  1.00  0.00     0.162 S 
ATOM     13  C   UNL     1      -2.688   5.108   3.003  1.00  0.00     0.208 C 
ATOM     14  O   UNL     1      -0.688   6.783   2.744  1.00  0.00    -0.228 OA
ATOM     15  O   UNL     1      -2.238   6.439   0.770  1.00  0.00    -0.228 OA
BRANCH  10  16
ATOM     16  N   UNL     1      -2.423   2.930   0.920  1.00  0.00    -0.338 N 
ATOM     17  H   UNL     1      -3.325   3.313   1.202  1.00  0.00     0.346 HD
ATOM     18  H   UNL     1      -2.129   3.314   0.022  1.00  0.00     0.346 HD
BRANCH  16  19
ATOM     19  C   UNL     1      -2.547   1.474   0.777  1.00  0.00     0.260 C 
BRANCH  19  20
ATOM     20  C   UNL     1      -3.487   1.091  -0.374  1.00  0.00     0.061 C 
BRANCH  20  21
ATOM     21  C   UNL     1      -3.105   1.632  -1.759  1.00  0.00     0.002 C 
ATOM     22  C   UNL     1      -1.696   1.266  -2.199  1.00  0.00     0.004 C 
ENDBRANCH  20  21
ENDBRANCH  19  20
ENDBRANCH  16  19
ENDBRANCH  10  16
ENDBRANCH   6   9
ENDBRANCH   5   6
ENDBRANCH   3   5
ENDBRANCH   2   3
ENDBRANCH   1   2
BRANCH   1  23
ATOM     23  C   UNL     1       2.295   4.880   7.526  1.00  0.00     0.202 C 
BRANCH  23  24
ATOM     24  O   UNL     1       1.821   6.187   7.205  1.00  0.00    -0.374 OA
BRANCH  24  25
ATOM     25  C   UNL     1       1.304   6.398   5.890  1.00  0.00     0.202 C 
BRANCH  25  26
ATOM     26  C   UNL     1       2.319   6.437   4.739  1.00  0.00     0.261 C 
BRANCH  26  27
ATOM     27  O   UNL     1       2.944   5.161   4.500  1.00  0.00    -0.460 OA
BRANCH  27  28
ATOM     28  C   UNL     1       4.272   5.125   4.775  1.00  0.00     0.338 C 
ATOM     29  O   UNL     1       4.968   6.060   5.148  1.00  0.00    -0.246 OA
BRANCH  28  30
ATOM     30  C   UNL     1       4.772   3.736   4.750  1.00  0.00     0.060 A 
ATOM     31  C   UNL     1       5.497   3.288   5.863  1.00  0.00     0.016 A 
ATOM     32  C   UNL     1       4.620   2.918   3.629  1.00  0.00     0.016 A 
ATOM     33  C   UNL     1       6.119   2.040   5.839  1.00  0.00     0.010 A 
ATOM     34  C   UNL     1       5.253   1.669   3.604  1.00  0.00     0.010 A 
ATOM     35  C   UNL     1       6.035   1.240   4.694  1.00  0.00    -0.014 A 
BRANCH  35  36
ATOM     36  C   UNL     1       6.901   0.040   4.564  1.00  0.00     0.031 A 
ATOM     37  C   UNL     1       8.165   0.147   3.752  1.00  0.00     0.074 A 
ATOM     38  C   UNL     1       6.582  -1.117   5.171  1.00  0.00     0.049 A 
ATOM     39  N   UNL     1       9.023  -0.783   3.421  1.00  0.00    -0.248 NA
ATOM     40  C   UNL     1       8.498   1.485   3.240  1.00  0.00     0.031 C 
ATOM     41  C   UNL     1       5.419  -1.325   6.033  1.00  0.00     0.029 A 
ATOM     42  N   UNL     1       7.204  -2.341   5.144  1.00  0.00    -0.354 N 
ATOM     43  C   UNL     1       9.992  -0.147   2.653  1.00  0.00     0.074 A 
ATOM     44  C   UNL     1       9.596   1.241   2.542  1.00  0.00     0.031 C 
ATOM     45  C   UNL     1       5.402  -2.607   6.439  1.00  0.00     0.029 A 
ATOM     46  C   UNL     1       6.525  -3.320   5.832  1.00  0.00     0.049 A 
ATOM     47  H   UNL     1       8.056  -2.502   4.678  1.00  0.00     0.167 HD
ATOM     48  C   UNL     1      11.112  -0.672   2.096  1.00  0.00     0.034 A 
ATOM     49  C   UNL     1       6.763  -4.645   5.929  1.00  0.00     0.034 A 
ATOM     50  C   UNL     1      11.490  -2.059   2.213  1.00  0.00     0.049 A 
ATOM     51  C   UNL     1       7.967  -5.227   5.225  1.00  0.00     0.074 A 
ATOM     52  C   UNL     1      12.605  -2.696   1.696  1.00  0.00     0.029 A 
ATOM     53  N   UNL     1      10.757  -3.028   2.886  1.00  0.00    -0.354 N 
ATOM     54  N   UNL     1       8.871  -4.618   4.492  1.00  0.00    -0.248 NA
ATOM     55  C   UNL     1       8.184  -6.674   5.363  1.00  0.00     0.031 C 
ATOM     56  C   UNL     1      12.511  -4.059   1.996  1.00  0.00     0.029 A 
ATOM     57  C   UNL     1      11.380  -4.261   2.771  1.00  0.00     0.049 A 
ATOM     58  H   UNL     1       9.919  -2.863   3.375  1.00  0.00     0.167 HD
ATOM     59  C   UNL     1       9.784  -5.602   4.119  1.00  0.00     0.074 A 
ATOM     60  C   UNL     1       9.323  -6.842   4.707  1.00  0.00     0.031 C 
ATOM     61  C   UNL     1      10.908  -5.489   3.366  1.00  0.00     0.034 A 
BRANCH  48  62
ATOM     62  C   UNL     1      11.972   0.249   1.265  1.00  0.00     0.023 A 
ATOM     63  C   UNL     1      12.641   1.349   1.827  1.00  0.00     0.031 A 
ATOM     64  C   UNL     1      12.102   0.035  -0.119  1.00  0.00     0.131 A 
ATOM     65  C   UNL     1      13.353   2.232   1.000  1.00  0.00     0.055 A 
ATOM     66  C   UNL     1      12.877   0.873  -0.924  1.00  0.00     0.041 A 
ATOM     67  F   UNL     1      11.467  -0.985  -0.716  1.00  0.00    -0.206 F 
ATOM     68  C   UNL     1      13.496   1.987  -0.368  1.00  0.00     0.022 A 
BRANCH  65  69
ATOM     69  S   UNL     1      13.974   3.780   1.714  1.00  0.00     0.124 S 
ATOM     70  O   UNL     1      12.740   4.396   2.198  1.00  0.00    -0.237 OA
ATOM     71  O   UNL     1      14.897   3.307   2.738  1.00  0.00    -0.237 OA
ATOM     72  O   UNL     1      14.595   4.457   0.577  1.00  0.00    -0.744 OA
ENDBRANCH  65  69
ENDBRANCH  48  62
BRANCH  49  73
ATOM     73  C   UNL     1       5.823  -5.530   6.677  1.00  0.00     0.023 A 
ATOM     74  C   UNL     1       6.241  -6.243   7.812  1.00  0.00     0.031 A 
ATOM     75  C   UNL     1       4.504  -5.723   6.227  1.00  0.00     0.131 A 
ATOM     76  C   UNL     1       5.366  -7.151   8.428  1.00  0.00     0.055 A 
ATOM     77  C   UNL     1       3.620  -6.585   6.877  1.00  0.00     0.041 A 
ATOM     78  F   UNL     1       4.053  -5.069   5.145  1.00  0.00    -0.206 F 
ATOM     79  C   UNL     1       4.054  -7.317   7.977  1.00  0.00     0.022 A 
BRANCH  76  80
ATOM     80  S   UNL     1       5.998  -8.188   9.777  1.00  0.00     0.124 S 
ATOM     81  O   UNL     1       7.111  -8.871   9.127  1.00  0.00    -0.237 OA
ATOM     82  O   UNL     1       6.354  -7.191  10.781  1.00  0.00    -0.237 OA
ATOM     83  O   UNL     1       4.857  -9.035  10.117  1.00  0.00    -0.744 OA
ENDBRANCH  76  80
ENDBRANCH  49  73
BRANCH  61  84
ATOM     84  C   UNL     1      11.755  -6.727   3.193  1.00  0.00     0.023 A 
ATOM     85  C   UNL     1      11.320  -7.829   2.436  1.00  0.00     0.031 A 
ATOM     86  C   UNL     1      13.028  -6.793   3.787  1.00  0.00     0.131 A 
ATOM     87  C   UNL     1      12.136  -8.966   2.328  1.00  0.00     0.055 A 
ATOM     88  C   UNL     1      13.857  -7.904   3.631  1.00  0.00     0.041 A 
ATOM     89  F   UNL     1      13.492  -5.769   4.521  1.00  0.00    -0.206 F 
ATOM     90  C   UNL     1      13.408  -9.004   2.906  1.00  0.00     0.022 A 
BRANCH  87  91
ATOM     91  S   UNL     1      11.486 -10.430   1.476  1.00  0.00     0.124 S 
ATOM     92  O   UNL     1      10.306 -10.748   2.275  1.00  0.00    -0.237 OA
ATOM     93  O   UNL     1      11.227  -9.922   0.133  1.00  0.00    -0.237 OA
ATOM     94  O   UNL     1      12.578 -11.397   1.572  1.00  0.00    -0.744 OA
ENDBRANCH  87  91
ENDBRANCH  61  84
ENDBRANCH  35  36
ENDBRANCH  28  30
ENDBRANCH  27  28
ENDBRANCH  26  27
ENDBRANCH  25  26
ENDBRANCH  24  25
ENDBRANCH  23  24
ENDBRANCH   1  23
TORSDOF 23
