REMARK SMILES COc1ccc(NCc2ccc(C(=O)OCCOCCOC(=O)c3ccc(-c4c5nc(c(-c6cc(S(=O)(=O)[O-])ccc6F)c6ccc([nH]6)c(-c6cc(S(=O)(=O)[O-])ccc6F)c6nc(c(-c7cc(S(=O)(=O)[O-])ccc7F)c7ccc4[nH]7)C=C6)C=C5)cc3)cn2)cc1Br
REMARK SMILES IDX 17 1 16 2 15 3 13 4 14 5 12 6 9 7 10 8 88 9 11 10 87 11 8 12
REMARK SMILES IDX 7 13 6 15 3 16 4 17 90 18 5 19 89 20 91 21 2 22 1 23 18 24
REMARK SMILES IDX 19 25 20 26 21 27 22 28 23 29 24 30 25 31 86 32 26 33 85 34
REMARK SMILES IDX 27 35 28 36 29 37 79 38 30 39 84 40 78 41 80 42 31 43 83 44
REMARK SMILES IDX 77 45 76 46 32 48 64 49 44 50 63 51 45 52 48 53 62 54 81 55
REMARK SMILES IDX 46 56 47 57 61 59 82 60 49 61 33 62 34 63 42 64 35 65 41 66
REMARK SMILES IDX 43 67 40 68 36 69 37 70 38 71 39 72 65 73 66 74 74 75 67 76
REMARK SMILES IDX 73 77 75 78 72 79 68 80 69 81 70 82 71 83 50 84 51 85 59 86
REMARK SMILES IDX 52 87 58 88 60 89 57 90 53 91 54 92 55 93 56 94
REMARK H PARENT 7 14 80 47 48 58
REMARK Flexibility Score: inf
ROOT
ATOM      1  C   UNL     1       1.295  12.238   5.641  1.00  0.00     0.202 C 
ENDROOT
BRANCH   1   2
ATOM      2  C   UNL     1      -0.094  11.734   5.233  1.00  0.00     0.261 C 
BRANCH   2   3
ATOM      3  O   UNL     1      -0.013  10.671   4.268  1.00  0.00    -0.460 OA
BRANCH   3   4
ATOM      4  C   UNL     1      -0.408  11.006   3.019  1.00  0.00     0.339 C 
ATOM      5  O   UNL     1      -0.937  12.053   2.669  1.00  0.00    -0.246 OA
BRANCH   4   6
ATOM      6  C   UNL     1       0.030   9.991   2.048  1.00  0.00     0.078 A 
ATOM      7  C   UNL     1       0.813   8.286   0.028  1.00  0.00     0.059 A 
ATOM      8  C   UNL     1       0.519   7.763   1.291  1.00  0.00     0.026 A 
ATOM      9  N   UNL     1       0.758   9.619  -0.230  1.00  0.00    -0.259 NA
ATOM     10  C   UNL     1       0.136   8.629   2.320  1.00  0.00     0.019 A 
ATOM     11  C   UNL     1       0.366  10.434   0.777  1.00  0.00     0.127 A 
BRANCH   7  12
ATOM     12  C   UNL     1       1.097   7.389  -1.161  1.00  0.00     0.169 C 
BRANCH  12  13
ATOM     13  N   UNL     1       1.983   6.283  -0.839  1.00  0.00    -0.379 N 
ATOM     14  H   UNL     1       2.890   6.515  -0.535  1.00  0.00     0.160 HD
BRANCH  13  15
ATOM     15  C   UNL     1       1.677   4.940  -0.916  1.00  0.00     0.036 A 
ATOM     16  C   UNL     1       1.194   2.154  -1.080  1.00  0.00     0.133 A 
ATOM     17  C   UNL     1       0.148   3.063  -1.224  1.00  0.00     0.050 A 
ATOM     18  C   UNL     1       2.489   2.630  -0.879  1.00  0.00     0.062 A 
ATOM     19  C   UNL     1       0.389   4.440  -1.137  1.00  0.00     0.029 A 
ATOM     20  C   UNL     1       2.717   4.009  -0.782  1.00  0.00     0.045 A 
ATOM     21  Br  UNL     1       3.995   1.480  -0.793  1.00  0.00    -0.047 Br
BRANCH  16  22
ATOM     22  O   UNL     1       0.890   0.830  -1.245  1.00  0.00    -0.496 OA
ATOM     23  C   UNL     1       0.852   0.141   0.006  1.00  0.00     0.278 C 
ENDBRANCH  16  22
ENDBRANCH  13  15
ENDBRANCH  12  13
ENDBRANCH   7  12
ENDBRANCH   4   6
ENDBRANCH   3   4
ENDBRANCH   2   3
ENDBRANCH   1   2
BRANCH   1  24
ATOM     24  O   UNL     1       2.111  12.784   4.605  1.00  0.00    -0.374 OA
BRANCH  24  25
ATOM     25  C   UNL     1       2.798  11.869   3.752  1.00  0.00     0.202 C 
BRANCH  25  26
ATOM     26  C   UNL     1       4.043  11.167   4.309  1.00  0.00     0.261 C 
BRANCH  26  27
ATOM     27  O   UNL     1       3.748  10.314   5.428  1.00  0.00    -0.460 OA
BRANCH  27  28
ATOM     28  C   UNL     1       4.170  10.800   6.620  1.00  0.00     0.338 C 
ATOM     29  O   UNL     1       4.810  11.825   6.806  1.00  0.00    -0.246 OA
BRANCH  28  30
ATOM     30  C   UNL     1       3.588  10.022   7.730  1.00  0.00     0.060 A 
ATOM     31  C   UNL     1       2.952  10.743   8.748  1.00  0.00     0.016 A 
ATOM     32  C   UNL     1       3.731   8.636   7.825  1.00  0.00     0.016 A 
ATOM     33  C   UNL     1       2.519  10.091   9.898  1.00  0.00     0.010 A 
ATOM     34  C   UNL     1       3.296   7.982   8.985  1.00  0.00     0.010 A 
ATOM     35  C   UNL     1       2.730   8.714  10.046  1.00  0.00    -0.014 A 
BRANCH  35  36
ATOM     36  C   UNL     1       2.509   8.094  11.377  1.00  0.00     0.031 A 
ATOM     37  C   UNL     1       3.698   7.814  12.258  1.00  0.00     0.074 A 
ATOM     38  C   UNL     1       1.263   7.856  11.825  1.00  0.00     0.049 A 
ATOM     39  N   UNL     1       3.740   7.306  13.462  1.00  0.00    -0.248 NA
ATOM     40  C   UNL     1       5.017   8.152  11.701  1.00  0.00     0.031 C 
ATOM     41  C   UNL     1       0.034   8.128  11.080  1.00  0.00     0.029 A 
ATOM     42  N   UNL     1       0.825   7.339  13.018  1.00  0.00    -0.354 N 
ATOM     43  C   UNL     1       5.088   7.261  13.809  1.00  0.00     0.074 A 
ATOM     44  C   UNL     1       5.830   7.750  12.666  1.00  0.00     0.031 C 
ATOM     45  C   UNL     1      -1.020   7.779  11.837  1.00  0.00     0.029 A 
ATOM     46  C   UNL     1      -0.543   7.226  13.103  1.00  0.00     0.049 A 
ATOM     47  H   UNL     1       1.433   7.074  13.745  1.00  0.00     0.167 HD
ATOM     48  C   UNL     1       5.652   6.864  14.977  1.00  0.00     0.034 A 
ATOM     49  C   UNL     1      -1.319   6.720  14.083  1.00  0.00     0.034 A 
ATOM     50  C   UNL     1       4.897   6.372  16.105  1.00  0.00     0.049 A 
ATOM     51  C   UNL     1      -0.662   6.210  15.343  1.00  0.00     0.074 A 
ATOM     52  C   UNL     1       5.365   5.955  17.339  1.00  0.00     0.029 A 
ATOM     53  N   UNL     1       3.517   6.219  16.134  1.00  0.00    -0.354 N 
ATOM     54  N   UNL     1       0.612   6.185  15.663  1.00  0.00    -0.248 NA
ATOM     55  C   UNL     1      -1.552   5.672  16.380  1.00  0.00     0.031 C 
ATOM     56  C   UNL     1       4.280   5.478  18.082  1.00  0.00     0.029 A 
ATOM     57  C   UNL     1       3.121   5.679  17.349  1.00  0.00     0.049 A 
ATOM     58  H   UNL     1       2.907   6.458  15.399  1.00  0.00     0.167 HD
ATOM     59  C   UNL     1       0.670   5.657  16.951  1.00  0.00     0.074 A 
ATOM     60  C   UNL     1      -0.697   5.401  17.354  1.00  0.00     0.031 C 
ATOM     61  C   UNL     1       1.754   5.409  17.733  1.00  0.00     0.034 A 
BRANCH  48  62
ATOM     62  C   UNL     1       7.160   6.898  15.066  1.00  0.00     0.023 A 
ATOM     63  C   UNL     1       7.885   8.100  14.976  1.00  0.00     0.031 A 
ATOM     64  C   UNL     1       7.888   5.703  15.213  1.00  0.00     0.131 A 
ATOM     65  C   UNL     1       9.288   8.074  14.960  1.00  0.00     0.055 A 
ATOM     66  C   UNL     1       9.283   5.692  15.281  1.00  0.00     0.041 A 
ATOM     67  F   UNL     1       7.255   4.521  15.279  1.00  0.00    -0.206 F 
ATOM     68  C   UNL     1       9.992   6.881  15.139  1.00  0.00     0.022 A 
BRANCH  65  69
ATOM     69  S   UNL     1      10.181   9.600  14.554  1.00  0.00     0.124 S 
ATOM     70  O   UNL     1       9.634   9.919  13.237  1.00  0.00    -0.237 OA
ATOM     71  O   UNL     1       9.793  10.492  15.640  1.00  0.00    -0.237 OA
ATOM     72  O   UNL     1      11.583   9.187  14.554  1.00  0.00    -0.744 OA
ENDBRANCH  65  69
ENDBRANCH  48  62
BRANCH  49  73
ATOM     73  C   UNL     1      -2.798   6.635  13.909  1.00  0.00     0.023 A 
ATOM     74  C   UNL     1      -3.674   7.328  14.759  1.00  0.00     0.031 A 
ATOM     75  C   UNL     1      -3.359   5.804  12.922  1.00  0.00     0.131 A 
ATOM     76  C   UNL     1      -5.061   7.139  14.639  1.00  0.00     0.055 A 
ATOM     77  C   UNL     1      -4.739   5.665  12.769  1.00  0.00     0.041 A 
ATOM     78  F   UNL     1      -2.567   5.116  12.083  1.00  0.00    -0.206 F 
ATOM     79  C   UNL     1      -5.599   6.324  13.641  1.00  0.00     0.022 A 
BRANCH  76  80
ATOM     80  S   UNL     1      -6.152   7.904  15.871  1.00  0.00     0.124 S 
ATOM     81  O   UNL     1      -5.645   7.332  17.112  1.00  0.00    -0.237 OA
ATOM     82  O   UNL     1      -5.890   9.325  15.664  1.00  0.00    -0.237 OA
ATOM     83  O   UNL     1      -7.483   7.453  15.471  1.00  0.00    -0.744 OA
ENDBRANCH  76  80
ENDBRANCH  49  73
BRANCH  61  84
ATOM     84  C   UNL     1       1.489   4.867  19.120  1.00  0.00     0.023 A 
ATOM     85  C   UNL     1       0.898   3.607  19.323  1.00  0.00     0.031 A 
ATOM     86  C   UNL     1       1.802   5.638  20.254  1.00  0.00     0.131 A 
ATOM     87  C   UNL     1       0.569   3.189  20.621  1.00  0.00     0.055 A 
ATOM     88  C   UNL     1       1.540   5.184  21.548  1.00  0.00     0.041 A 
ATOM     89  F   UNL     1       2.365   6.849  20.125  1.00  0.00    -0.206 F 
ATOM     90  C   UNL     1       0.903   3.961  21.736  1.00  0.00     0.022 A 
BRANCH  87  91
ATOM     91  S   UNL     1      -0.416   1.679  20.825  1.00  0.00     0.124 S 
ATOM     92  O   UNL     1      -1.592   1.973  20.012  1.00  0.00    -0.237 OA
ATOM     93  O   UNL     1       0.478   0.651  20.302  1.00  0.00    -0.237 OA
ATOM     94  O   UNL     1      -0.656   1.618  22.265  1.00  0.00    -0.744 OA
ENDBRANCH  87  91
ENDBRANCH  61  84
ENDBRANCH  35  36
ENDBRANCH  28  30
ENDBRANCH  27  28
ENDBRANCH  26  27
ENDBRANCH  25  26
ENDBRANCH  24  25
ENDBRANCH   1  24
TORSDOF 21
