REMARK SMILES CCCc1nsc(N2CCO[C@H](CC(=O)OCCOCCOC(=O)c3ccc(-c4c5nc(c(-c6cc(S(=O)(=O)[O-])ccc6F)c6ccc([nH]6)c(-c6cc(S(=O)(=O)[O-])ccc6F)c6nc(c(-c7cc(S(=O)(=O)[O-])ccc7F)c7ccc4[nH]7)C=C6)C=C5)cc3)C2)n1
REMARK SMILES IDX 18 1 17 2 16 3 14 4 15 5 13 6 12 7 8 8 9 9 88 10 10 11 11 12
REMARK SMILES IDX 7 13 4 14 5 15 89 16 6 17 3 18 2 19 1 20 19 21 20 22 21 23
REMARK SMILES IDX 22 24 23 25 24 26 25 27 26 28 87 29 27 30 86 31 28 32 29 33
REMARK SMILES IDX 30 34 80 35 31 36 85 37 79 38 81 39 32 40 84 41 78 42 77 43
REMARK SMILES IDX 33 45 65 46 45 47 64 48 46 49 49 50 63 51 82 52 47 53 48 54
REMARK SMILES IDX 62 56 83 57 50 58 34 59 35 60 43 61 36 62 42 63 44 64 41 65
REMARK SMILES IDX 37 66 38 67 39 68 40 69 66 70 67 71 75 72 68 73 74 74 76 75
REMARK SMILES IDX 73 76 69 77 70 78 71 79 72 80 51 81 52 82 60 83 53 84 59 85
REMARK SMILES IDX 61 86 58 87 54 88 55 89 56 90 57 91
REMARK H PARENT 81 44 49 55
REMARK Flexibility Score: inf
ROOT
ATOM      1  C   UNL     1       5.289   0.459  -6.164  1.00  0.00     0.202 C 
ENDROOT
BRANCH   1   2
ATOM      2  C   UNL     1       5.697  -0.790  -5.377  1.00  0.00     0.261 C 
BRANCH   2   3
ATOM      3  O   UNL     1       4.591  -1.660  -5.051  1.00  0.00    -0.463 OA
BRANCH   3   4
ATOM      4  C   UNL     1       4.355  -1.805  -3.723  1.00  0.00     0.308 C 
ATOM      5  O   UNL     1       4.979  -1.229  -2.835  1.00  0.00    -0.252 OA
BRANCH   4   6
ATOM      6  C   UNL     1       3.274  -2.793  -3.376  1.00  0.00     0.156 C 
BRANCH   6   7
ATOM      7  C   UNL     1       2.408  -3.408  -4.476  1.00  0.00     0.148 C 
ATOM      8  N   UNL     1       0.293  -2.113  -4.256  1.00  0.00    -0.342 N 
ATOM      9  C   UNL     1      -0.346  -3.220  -3.548  1.00  0.00     0.147 C 
ATOM     10  C   UNL     1       1.385  -2.477  -5.155  1.00  0.00     0.151 C 
ATOM     11  C   UNL     1       0.697  -4.194  -2.977  1.00  0.00     0.182 C 
ATOM     12  O   UNL     1       1.702  -4.563  -3.940  1.00  0.00    -0.374 OA
BRANCH   8  13
ATOM     13  C   UNL     1       0.183  -0.858  -3.767  1.00  0.00     0.205 A 
ATOM     14  C   UNL     1       0.481   0.951  -2.548  1.00  0.00     0.144 A 
ATOM     15  N   UNL     1      -0.585   1.430  -3.193  1.00  0.00    -0.174 NA
ATOM     16  N   UNL     1       0.971  -0.312  -2.870  1.00  0.00    -0.203 NA
ATOM     17  S   UNL     1      -1.078   0.230  -4.242  1.00  0.00     0.004 S 
BRANCH  14  18
ATOM     18  C   UNL     1       1.128   1.751  -1.466  1.00  0.00     0.078 C 
BRANCH  18  19
ATOM     19  C   UNL     1       0.646   1.362  -0.065  1.00  0.00     0.005 C 
ATOM     20  C   UNL     1       1.124  -0.017   0.372  1.00  0.00     0.004 C 
ENDBRANCH  18  19
ENDBRANCH  14  18
ENDBRANCH   8  13
ENDBRANCH   6   7
ENDBRANCH   4   6
ENDBRANCH   3   4
ENDBRANCH   2   3
ENDBRANCH   1   2
BRANCH   1  21
ATOM     21  O   UNL     1       4.392   1.361  -5.520  1.00  0.00    -0.374 OA
BRANCH  21  22
ATOM     22  C   UNL     1       3.018   0.978  -5.466  1.00  0.00     0.202 C 
BRANCH  22  23
ATOM     23  C   UNL     1       2.247   1.047  -6.793  1.00  0.00     0.261 C 
BRANCH  23  24
ATOM     24  O   UNL     1       2.764   0.120  -7.767  1.00  0.00    -0.460 OA
BRANCH  24  25
ATOM     25  C   UNL     1       3.021   0.675  -8.977  1.00  0.00     0.338 C 
ATOM     26  O   UNL     1       2.672   1.785  -9.363  1.00  0.00    -0.246 OA
BRANCH  25  27
ATOM     27  C   UNL     1       3.972  -0.158  -9.732  1.00  0.00     0.060 A 
ATOM     28  C   UNL     1       5.222   0.402 -10.027  1.00  0.00     0.016 A 
ATOM     29  C   UNL     1       3.628  -1.420 -10.222  1.00  0.00     0.016 A 
ATOM     30  C   UNL     1       6.112  -0.275 -10.857  1.00  0.00     0.010 A 
ATOM     31  C   UNL     1       4.524  -2.097 -11.061  1.00  0.00     0.010 A 
ATOM     32  C   UNL     1       5.754  -1.509 -11.414  1.00  0.00    -0.014 A 
BRANCH  32  33
ATOM     33  C   UNL     1       6.607  -2.087 -12.485  1.00  0.00     0.031 A 
ATOM     34  C   UNL     1       6.215  -1.880 -13.924  1.00  0.00     0.074 A 
ATOM     35  C   UNL     1       7.749  -2.731 -12.185  1.00  0.00     0.049 A 
ATOM     36  N   UNL     1       6.831  -2.253 -15.017  1.00  0.00    -0.248 NA
ATOM     37  C   UNL     1       4.957  -1.157 -14.155  1.00  0.00     0.031 C 
ATOM     38  C   UNL     1       8.249  -2.969 -10.832  1.00  0.00     0.029 A 
ATOM     39  N   UNL     1       8.694  -3.301 -13.000  1.00  0.00    -0.354 N 
ATOM     40  C   UNL     1       6.041  -1.800 -16.069  1.00  0.00     0.074 A 
ATOM     41  C   UNL     1       4.875  -1.177 -15.476  1.00  0.00     0.031 C 
ATOM     42  C   UNL     1       9.407  -3.647 -10.910  1.00  0.00     0.029 A 
ATOM     43  C   UNL     1       9.716  -3.912 -12.314  1.00  0.00     0.049 A 
ATOM     44  H   UNL     1       8.645  -3.274 -13.983  1.00  0.00     0.167 HD
ATOM     45  C   UNL     1       6.273  -1.881 -17.404  1.00  0.00     0.034 A 
ATOM     46  C   UNL     1      10.770  -4.623 -12.765  1.00  0.00     0.034 A 
ATOM     47  C   UNL     1       7.428  -2.529 -17.980  1.00  0.00     0.049 A 
ATOM     48  C   UNL     1      10.968  -4.783 -14.251  1.00  0.00     0.074 A 
ATOM     49  C   UNL     1       7.778  -2.648 -19.313  1.00  0.00     0.029 A 
ATOM     50  N   UNL     1       8.411  -3.193 -17.254  1.00  0.00    -0.354 N 
ATOM     51  N   UNL     1      10.232  -4.321 -15.236  1.00  0.00    -0.248 NA
ATOM     52  C   UNL     1      12.143  -5.549 -14.684  1.00  0.00     0.031 C 
ATOM     53  C   UNL     1       8.926  -3.446 -19.398  1.00  0.00     0.029 A 
ATOM     54  C   UNL     1       9.340  -3.761 -18.113  1.00  0.00     0.049 A 
ATOM     55  H   UNL     1       8.443  -3.250 -16.272  1.00  0.00     0.167 HD
ATOM     56  C   UNL     1      10.863  -4.733 -16.408  1.00  0.00     0.074 A 
ATOM     57  C   UNL     1      12.049  -5.462 -16.003  1.00  0.00     0.031 C 
ATOM     58  C   UNL     1      10.499  -4.521 -17.699  1.00  0.00     0.034 A 
BRANCH  45  59
ATOM     59  C   UNL     1       5.220  -1.299 -18.319  1.00  0.00     0.023 A 
ATOM     60  C   UNL     1       4.895   0.070 -18.296  1.00  0.00     0.031 A 
ATOM     61  C   UNL     1       4.481  -2.133 -19.177  1.00  0.00     0.131 A 
ATOM     62  C   UNL     1       3.802   0.544 -19.038  1.00  0.00     0.055 A 
ATOM     63  C   UNL     1       3.451  -1.638 -19.980  1.00  0.00     0.041 A 
ATOM     64  F   UNL     1       4.729  -3.451 -19.229  1.00  0.00    -0.206 F 
ATOM     65  C   UNL     1       3.092  -0.296 -19.898  1.00  0.00     0.022 A 
BRANCH  62  66
ATOM     66  S   UNL     1       3.209   2.231 -18.724  1.00  0.00     0.124 S 
ATOM     67  O   UNL     1       2.982   2.201 -17.281  1.00  0.00    -0.237 OA
ATOM     68  O   UNL     1       4.328   3.047 -19.180  1.00  0.00    -0.237 OA
ATOM     69  O   UNL     1       1.996   2.323 -19.535  1.00  0.00    -0.744 OA
ENDBRANCH  62  66
ENDBRANCH  45  59
BRANCH  46  70
ATOM     70  C   UNL     1      11.687  -5.282 -11.793  1.00  0.00     0.023 A 
ATOM     71  C   UNL     1      13.020  -4.874 -11.643  1.00  0.00     0.031 A 
ATOM     72  C   UNL     1      11.226  -6.348 -10.998  1.00  0.00     0.131 A 
ATOM     73  C   UNL     1      13.855  -5.542 -10.732  1.00  0.00     0.055 A 
ATOM     74  C   UNL     1      12.048  -6.983 -10.066  1.00  0.00     0.041 A 
ATOM     75  F   UNL     1       9.957  -6.774 -11.103  1.00  0.00    -0.206 F 
ATOM     76  C   UNL     1      13.374  -6.584  -9.934  1.00  0.00     0.022 A 
BRANCH  73  77
ATOM     77  S   UNL     1      15.599  -5.055 -10.625  1.00  0.00     0.124 S 
ATOM     78  O   UNL     1      16.075  -5.353 -11.971  1.00  0.00    -0.237 OA
ATOM     79  O   UNL     1      15.498  -3.641 -10.277  1.00  0.00    -0.237 OA
ATOM     80  O   UNL     1      16.129  -5.916  -9.570  1.00  0.00    -0.744 OA
ENDBRANCH  73  77
ENDBRANCH  46  70
BRANCH  58  81
ATOM     81  C   UNL     1      11.407  -5.083 -18.767  1.00  0.00     0.023 A 
ATOM     82  C   UNL     1      11.550  -6.468 -18.960  1.00  0.00     0.031 A 
ATOM     83  C   UNL     1      12.148  -4.221 -19.596  1.00  0.00     0.131 A 
ATOM     84  C   UNL     1      12.451  -6.952 -19.922  1.00  0.00     0.055 A 
ATOM     85  C   UNL     1      12.999  -4.707 -20.590  1.00  0.00     0.041 A 
ATOM     86  F   UNL     1      12.053  -2.889 -19.455  1.00  0.00    -0.206 F 
ATOM     87  C   UNL     1      13.163  -6.080 -20.749  1.00  0.00     0.022 A 
BRANCH  84  88
ATOM     88  S   UNL     1      12.746  -8.740 -20.021  1.00  0.00     0.124 S 
ATOM     89  O   UNL     1      13.229  -9.041 -18.677  1.00  0.00    -0.237 OA
ATOM     90  O   UNL     1      11.423  -9.257 -20.355  1.00  0.00    -0.237 OA
ATOM     91  O   UNL     1      13.745  -8.864 -21.081  1.00  0.00    -0.744 OA
ENDBRANCH  84  88
ENDBRANCH  58  81
ENDBRANCH  32  33
ENDBRANCH  25  27
ENDBRANCH  24  25
ENDBRANCH  23  24
ENDBRANCH  22  23
ENDBRANCH  21  22
ENDBRANCH   1  21
TORSDOF 21
