REMARK SMILES C=CCN(CC(=O)OCCOCCOC(=O)c1ccc(-c2c3nc(c(-c4cc(S(=O)(=O)[O-])ccc4F)c4ccc([nH]4)c(-c4cc(S(=O)(=O)[O-])ccc4F)c4nc(c(-c5cc(S(=O)(=O)[O-])ccc5F)c5ccc2[nH]5)C=C4)C=C3)cc1)c1nc2ccccc2s1
REMARK SMILES IDX 11 1 10 2 9 3 8 4 6 5 7 6 5 7 4 8 3 9 2 10 1 11 80 12 81 13
REMARK SMILES IDX 88 14 82 15 87 16 83 17 86 18 84 19 85 20 12 21 13 22 14 23
REMARK SMILES IDX 15 24 16 25 17 26 18 27 79 28 19 29 78 30 20 31 21 32 22 33
REMARK SMILES IDX 72 34 23 35 77 36 71 37 73 38 24 39 76 40 70 41 69 42 25 44
REMARK SMILES IDX 57 45 37 46 56 47 38 48 41 49 55 50 74 51 39 52 40 53 54 55
REMARK SMILES IDX 75 56 42 57 26 58 27 59 35 60 28 61 34 62 36 63 33 64 29 65
REMARK SMILES IDX 30 66 31 67 32 68 58 69 59 70 67 71 60 72 66 73 68 74 65 75
REMARK SMILES IDX 61 76 62 77 63 78 64 79 43 80 44 81 52 82 45 83 51 84 53 85
REMARK SMILES IDX 50 86 46 87 47 88 48 89 49 90
REMARK H PARENT 73 43 41 54
REMARK Flexibility Score: inf
ROOT
ATOM      1  O   UNL     1      -5.829  -3.907  -2.230  1.00  0.00    -0.374 OA
ENDROOT
BRANCH   1   2
ATOM      2  C   UNL     1      -6.306  -2.834  -1.430  1.00  0.00     0.202 C 
BRANCH   2   3
ATOM      3  C   UNL     1      -5.657  -2.561  -0.064  1.00  0.00     0.261 C 
BRANCH   3   4
ATOM      4  O   UNL     1      -4.210  -2.514  -0.058  1.00  0.00    -0.462 OA
BRANCH   4   5
ATOM      5  C   UNL     1      -3.609  -3.434   0.750  1.00  0.00     0.325 C 
ATOM      6  O   UNL     1      -4.232  -4.216   1.471  1.00  0.00    -0.250 OA
BRANCH   5   7
ATOM      7  C   UNL     1      -2.080  -3.436   0.774  1.00  0.00     0.241 C 
BRANCH   7   8
ATOM      8  N   UNL     1      -1.336  -2.607  -0.187  1.00  0.00    -0.333 N 
BRANCH   8   9
ATOM      9  C   UNL     1      -1.176  -1.192   0.130  1.00  0.00     0.146 C 
BRANCH   9  10
ATOM     10  C   UNL     1       0.244  -0.920   0.550  1.00  0.00    -0.014 C 
ATOM     11  C   UNL     1       0.988   0.095   0.084  1.00  0.00     0.006 C 
ENDBRANCH   9  10
ENDBRANCH   8   9
BRANCH   8  12
ATOM     12  C   UNL     1      -0.870  -3.163  -1.350  1.00  0.00     0.187 A 
ATOM     13  N   UNL     1      -1.321  -4.294  -1.859  1.00  0.00    -0.220 NA
ATOM     14  S   UNL     1       0.357  -2.433  -2.343  1.00  0.00    -0.097 S 
ATOM     15  C   UNL     1      -0.962  -4.405  -3.202  1.00  0.00     0.084 A 
ATOM     16  C   UNL     1      -0.048  -3.457  -3.650  1.00  0.00     0.056 A 
ATOM     17  C   UNL     1      -1.521  -5.293  -4.147  1.00  0.00     0.030 A 
ATOM     18  C   UNL     1       0.372  -3.386  -4.988  1.00  0.00     0.021 A 
ATOM     19  C   UNL     1      -1.191  -5.165  -5.503  1.00  0.00     0.002 A 
ATOM     20  C   UNL     1      -0.244  -4.232  -5.913  1.00  0.00     0.002 A 
ENDBRANCH   8  12
ENDBRANCH   7   8
ENDBRANCH   5   7
ENDBRANCH   4   5
ENDBRANCH   3   4
ENDBRANCH   2   3
ENDBRANCH   1   2
BRANCH   1  21
ATOM     21  C   UNL     1      -4.446  -3.946  -2.542  1.00  0.00     0.202 C 
BRANCH  21  22
ATOM     22  C   UNL     1      -3.792  -2.772  -3.285  1.00  0.00     0.261 C 
BRANCH  22  23
ATOM     23  O   UNL     1      -4.427  -1.514  -3.171  1.00  0.00    -0.460 OA
BRANCH  23  24
ATOM     24  C   UNL     1      -5.157  -1.175  -4.250  1.00  0.00     0.338 C 
ATOM     25  O   UNL     1      -5.376  -1.822  -5.259  1.00  0.00    -0.246 OA
BRANCH  24  26
ATOM     26  C   UNL     1      -5.745   0.120  -3.930  1.00  0.00     0.060 A 
ATOM     27  C   UNL     1      -7.131   0.189  -3.797  1.00  0.00     0.016 A 
ATOM     28  C   UNL     1      -4.921   1.234  -3.742  1.00  0.00     0.016 A 
ATOM     29  C   UNL     1      -7.715   1.414  -3.527  1.00  0.00     0.010 A 
ATOM     30  C   UNL     1      -5.509   2.460  -3.463  1.00  0.00     0.010 A 
ATOM     31  C   UNL     1      -6.909   2.554  -3.397  1.00  0.00    -0.014 A 
BRANCH  31  32
ATOM     32  C   UNL     1      -7.554   3.876  -3.351  1.00  0.00     0.031 A 
ATOM     33  C   UNL     1      -7.563   4.704  -4.601  1.00  0.00     0.074 A 
ATOM     34  C   UNL     1      -8.154   4.280  -2.220  1.00  0.00     0.049 A 
ATOM     35  N   UNL     1      -8.066   5.891  -4.802  1.00  0.00    -0.248 NA
ATOM     36  C   UNL     1      -6.910   4.117  -5.784  1.00  0.00     0.031 C 
ATOM     37  C   UNL     1      -8.212   3.507  -0.978  1.00  0.00     0.029 A 
ATOM     38  N   UNL     1      -8.833   5.431  -1.934  1.00  0.00    -0.354 N 
ATOM     39  C   UNL     1      -7.789   6.196  -6.130  1.00  0.00     0.074 A 
ATOM     40  C   UNL     1      -7.031   5.091  -6.672  1.00  0.00     0.031 C 
ATOM     41  C   UNL     1      -8.902   4.208  -0.063  1.00  0.00     0.029 A 
ATOM     42  C   UNL     1      -9.289   5.491  -0.640  1.00  0.00     0.049 A 
ATOM     43  H   UNL     1      -8.980   6.149  -2.592  1.00  0.00     0.167 HD
ATOM     44  C   UNL     1      -8.153   7.297  -6.828  1.00  0.00     0.034 A 
ATOM     45  C   UNL     1      -9.928   6.487   0.002  1.00  0.00     0.034 A 
ATOM     46  C   UNL     1      -8.902   8.381  -6.244  1.00  0.00     0.049 A 
ATOM     47  C   UNL     1     -10.255   7.736  -0.779  1.00  0.00     0.074 A 
ATOM     48  C   UNL     1      -9.340   9.547  -6.842  1.00  0.00     0.029 A 
ATOM     49  N   UNL     1      -9.313   8.433  -4.916  1.00  0.00    -0.354 N 
ATOM     50  N   UNL     1     -10.002   8.013  -2.040  1.00  0.00    -0.248 NA
ATOM     51  C   UNL     1     -10.963   8.800  -0.059  1.00  0.00     0.031 C 
ATOM     52  C   UNL     1      -9.942  10.339  -5.859  1.00  0.00     0.029 A 
ATOM     53  C   UNL     1      -9.968   9.628  -4.668  1.00  0.00     0.049 A 
ATOM     54  H   UNL     1      -9.162   7.724  -4.250  1.00  0.00     0.167 HD
ATOM     55  C   UNL     1     -10.553   9.270  -2.271  1.00  0.00     0.074 A 
ATOM     56  C   UNL     1     -11.164   9.685  -1.024  1.00  0.00     0.031 C 
ATOM     57  C   UNL     1     -10.560  10.014  -3.408  1.00  0.00     0.034 A 
BRANCH  44  58
ATOM     58  C   UNL     1      -7.696   7.398  -8.263  1.00  0.00     0.023 A 
ATOM     59  C   UNL     1      -8.110   6.480  -9.244  1.00  0.00     0.031 A 
ATOM     60  C   UNL     1      -6.806   8.416  -8.651  1.00  0.00     0.131 A 
ATOM     61  C   UNL     1      -7.586   6.558 -10.544  1.00  0.00     0.055 A 
ATOM     62  C   UNL     1      -6.353   8.538  -9.966  1.00  0.00     0.041 A 
ATOM     63  F   UNL     1      -6.349   9.302  -7.753  1.00  0.00    -0.206 F 
ATOM     64  C   UNL     1      -6.733   7.598 -10.919  1.00  0.00     0.022 A 
BRANCH  61  65
ATOM     65  S   UNL     1      -7.924   5.203 -11.702  1.00  0.00     0.124 S 
ATOM     66  O   UNL     1      -7.364   4.058 -10.987  1.00  0.00    -0.237 OA
ATOM     67  O   UNL     1      -9.377   5.238 -11.814  1.00  0.00    -0.237 OA
ATOM     68  O   UNL     1      -7.195   5.592 -12.907  1.00  0.00    -0.744 OA
ENDBRANCH  61  65
ENDBRANCH  44  58
BRANCH  45  69
ATOM     69  C   UNL     1     -10.271   6.361   1.447  1.00  0.00     0.023 A 
ATOM     70  C   UNL     1     -11.602   6.410   1.885  1.00  0.00     0.031 A 
ATOM     71  C   UNL     1      -9.262   6.235   2.420  1.00  0.00     0.131 A 
ATOM     72  C   UNL     1     -11.887   6.390   3.259  1.00  0.00     0.055 A 
ATOM     73  C   UNL     1      -9.555   6.150   3.782  1.00  0.00     0.041 A 
ATOM     74  F   UNL     1      -7.970   6.182   2.058  1.00  0.00    -0.206 F 
ATOM     75  C   UNL     1     -10.874   6.244   4.210  1.00  0.00     0.022 A 
BRANCH  72  76
ATOM     76  S   UNL     1     -13.598   6.669   3.792  1.00  0.00     0.124 S 
ATOM     77  O   UNL     1     -13.897   7.952   3.165  1.00  0.00    -0.237 OA
ATOM     78  O   UNL     1     -14.281   5.507   3.234  1.00  0.00    -0.237 OA
ATOM     79  O   UNL     1     -13.500   6.694   5.250  1.00  0.00    -0.744 OA
ENDBRANCH  72  76
ENDBRANCH  45  69
BRANCH  57  80
ATOM     80  C   UNL     1     -11.300  11.328  -3.356  1.00  0.00     0.023 A 
ATOM     81  C   UNL     1     -10.868  12.390  -2.545  1.00  0.00     0.031 A 
ATOM     82  C   UNL     1     -12.459  11.514  -4.131  1.00  0.00     0.131 A 
ATOM     83  C   UNL     1     -11.626  13.568  -2.478  1.00  0.00     0.055 A 
ATOM     84  C   UNL     1     -13.166  12.715  -4.118  1.00  0.00     0.041 A 
ATOM     85  F   UNL     1     -12.918  10.530  -4.922  1.00  0.00    -0.206 F 
ATOM     86  C   UNL     1     -12.759  13.746  -3.276  1.00  0.00     0.022 A 
BRANCH  83  87
ATOM     87  S   UNL     1     -11.171  14.823  -1.251  1.00  0.00     0.124 S 
ATOM     88  O   UNL     1     -11.250  14.068  -0.004  1.00  0.00    -0.237 OA
ATOM     89  O   UNL     1      -9.831  15.208  -1.680  1.00  0.00    -0.237 OA
ATOM     90  O   UNL     1     -12.195  15.852  -1.419  1.00  0.00    -0.744 OA
ENDBRANCH  83  87
ENDBRANCH  57  80
ENDBRANCH  31  32
ENDBRANCH  24  26
ENDBRANCH  23  24
ENDBRANCH  22  23
ENDBRANCH  21  22
ENDBRANCH   1  21
TORSDOF 21
