REMARK SMILES CN(Cc1ccc(C(=O)OCCOCCOC(=O)c2ccc(-c3c4nc(c(-c5cc(S(=O)(=O)[O-])ccc5F)c5ccc([nH]5)c(-c5cc(S(=O)(=O)[O-])ccc5F)c5nc(c(-c6cc(S(=O)(=O)[O-])ccc6F)c6ccc3[nH]6)C=C5)C=C4)cc2)cc1)c1ccccc1N
REMARK SMILES IDX 12 1 11 2 10 3 8 4 9 5 7 6 4 7 5 8 83 9 6 10 82 11 3 12 2 13
REMARK SMILES IDX 1 14 84 15 85 16 89 17 86 18 88 19 87 20 90 21 13 24 14 25
REMARK SMILES IDX 15 26 16 27 17 28 18 29 19 30 20 31 81 32 21 33 80 34 22 35
REMARK SMILES IDX 23 36 24 37 74 38 25 39 79 40 73 41 75 42 26 43 78 44 72 45
REMARK SMILES IDX 71 46 27 48 59 49 39 50 58 51 40 52 43 53 57 54 76 55 41 56
REMARK SMILES IDX 42 57 56 59 77 60 44 61 28 62 29 63 37 64 30 65 36 66 38 67
REMARK SMILES IDX 35 68 31 69 32 70 33 71 34 72 60 73 61 74 69 75 62 76 68 77
REMARK SMILES IDX 70 78 67 79 63 80 64 81 65 82 66 83 45 84 46 85 54 86 47 87
REMARK SMILES IDX 53 88 55 89 52 90 48 91 49 92 50 93 51 94
REMARK H PARENT 90 22 90 23 75 47 43 58
REMARK Flexibility Score: inf
ROOT
ATOM      1  C   UNL     1      -8.011  -3.530  -2.956  1.00  0.00     0.202 C 
ENDROOT
BRANCH   1   2
ATOM      2  C   UNL     1      -6.789  -3.682  -3.866  1.00  0.00     0.261 C 
BRANCH   2   3
ATOM      3  O   UNL     1      -5.577  -3.728  -3.099  1.00  0.00    -0.460 OA
BRANCH   3   4
ATOM      4  C   UNL     1      -4.814  -2.615  -3.190  1.00  0.00     0.338 C 
ATOM      5  O   UNL     1      -4.970  -1.676  -3.958  1.00  0.00    -0.246 OA
BRANCH   4   6
ATOM      6  C   UNL     1      -3.804  -2.591  -2.111  1.00  0.00     0.060 A 
ATOM      7  C   UNL     1      -1.597  -2.336  -0.424  1.00  0.00    -0.029 A 
ATOM      8  C   UNL     1      -2.373  -1.209  -0.737  1.00  0.00     0.006 A 
ATOM      9  C   UNL     1      -2.051  -3.612  -0.808  1.00  0.00     0.006 A 
ATOM     10  C   UNL     1      -3.456  -1.335  -1.600  1.00  0.00     0.016 A 
ATOM     11  C   UNL     1      -3.156  -3.742  -1.654  1.00  0.00     0.016 A 
BRANCH   7  12
ATOM     12  C   UNL     1      -0.195  -2.165   0.128  1.00  0.00     0.151 C 
BRANCH  12  13
ATOM     13  N   UNL     1       0.643  -1.274  -0.696  1.00  0.00    -0.369 N 
ATOM     14  C   UNL     1       0.800   0.119  -0.294  1.00  0.00     0.144 C 
BRANCH  13  15
ATOM     15  C   UNL     1       1.085  -1.622  -1.979  1.00  0.00     0.060 A 
ATOM     16  C   UNL     1       0.191  -2.055  -2.975  1.00  0.00     0.028 A 
ATOM     17  C   UNL     1       2.447  -1.518  -2.359  1.00  0.00     0.055 A 
ATOM     18  C   UNL     1       0.592  -2.368  -4.276  1.00  0.00     0.002 A 
ATOM     19  C   UNL     1       2.835  -1.771  -3.688  1.00  0.00     0.027 A 
ATOM     20  C   UNL     1       1.918  -2.218  -4.636  1.00  0.00     0.002 A 
BRANCH  17  21
ATOM     21  N   UNL     1       3.416  -1.060  -1.458  1.00  0.00    -0.397 N 
ATOM     22  H   UNL     1       3.171  -0.875  -0.523  1.00  0.00     0.156 HD
ATOM     23  H   UNL     1       4.343  -0.923  -1.760  1.00  0.00     0.156 HD
ENDBRANCH  17  21
ENDBRANCH  13  15
ENDBRANCH  12  13
ENDBRANCH   7  12
ENDBRANCH   4   6
ENDBRANCH   3   4
ENDBRANCH   2   3
ENDBRANCH   1   2
BRANCH   1  24
ATOM     24  O   UNL     1      -8.083  -2.335  -2.178  1.00  0.00    -0.374 OA
BRANCH  24  25
ATOM     25  C   UNL     1      -7.311  -2.284  -0.977  1.00  0.00     0.202 C 
BRANCH  25  26
ATOM     26  C   UNL     1      -7.854  -3.041   0.240  1.00  0.00     0.261 C 
BRANCH  26  27
ATOM     27  O   UNL     1      -7.835  -4.466   0.048  1.00  0.00    -0.460 OA
BRANCH  27  28
ATOM     28  C   UNL     1      -9.055  -5.026  -0.131  1.00  0.00     0.338 C 
ATOM     29  O   UNL     1     -10.137  -4.457  -0.077  1.00  0.00    -0.246 OA
BRANCH  28  30
ATOM     30  C   UNL     1      -8.911  -6.417  -0.601  1.00  0.00     0.060 A 
ATOM     31  C   UNL     1      -9.635  -6.793  -1.740  1.00  0.00     0.016 A 
ATOM     32  C   UNL     1      -8.141  -7.354   0.092  1.00  0.00     0.016 A 
ATOM     33  C   UNL     1      -9.638  -8.121  -2.159  1.00  0.00     0.010 A 
ATOM     34  C   UNL     1      -8.154  -8.689  -0.325  1.00  0.00     0.010 A 
ATOM     35  C   UNL     1      -8.932  -9.085  -1.429  1.00  0.00    -0.014 A 
BRANCH  35  36
ATOM     36  C   UNL     1      -9.147 -10.525  -1.715  1.00  0.00     0.031 A 
ATOM     37  C   UNL     1     -10.092 -11.300  -0.837  1.00  0.00     0.074 A 
ATOM     38  C   UNL     1      -8.532 -11.125  -2.749  1.00  0.00     0.049 A 
ATOM     39  N   UNL     1     -10.382 -12.575  -0.848  1.00  0.00    -0.248 NA
ATOM     40  C   UNL     1     -10.800 -10.529   0.196  1.00  0.00     0.031 C 
ATOM     41  C   UNL     1      -7.640 -10.463  -3.700  1.00  0.00     0.029 A 
ATOM     42  N   UNL     1      -8.560 -12.432  -3.167  1.00  0.00    -0.354 N 
ATOM     43  C   UNL     1     -11.300 -12.763   0.180  1.00  0.00     0.074 A 
ATOM     44  C   UNL     1     -11.488 -11.475   0.816  1.00  0.00     0.031 C 
ATOM     45  C   UNL     1      -7.193 -11.373  -4.583  1.00  0.00     0.029 A 
ATOM     46  C   UNL     1      -7.733 -12.686  -4.236  1.00  0.00     0.049 A 
ATOM     47  H   UNL     1      -9.120 -13.121  -2.742  1.00  0.00     0.167 HD
ATOM     48  C   UNL     1     -11.932 -13.902   0.555  1.00  0.00     0.034 A 
ATOM     49  C   UNL     1      -7.425 -13.851  -4.842  1.00  0.00     0.034 A 
ATOM     50  C   UNL     1     -11.724 -15.180  -0.084  1.00  0.00     0.049 A 
ATOM     51  C   UNL     1      -8.070 -15.125  -4.349  1.00  0.00     0.074 A 
ATOM     52  C   UNL     1     -12.317 -16.396   0.206  1.00  0.00     0.029 A 
ATOM     53  N   UNL     1     -10.844 -15.409  -1.135  1.00  0.00    -0.354 N 
ATOM     54  N   UNL     1      -8.935 -15.292  -3.374  1.00  0.00    -0.248 NA
ATOM     55  C   UNL     1      -7.700 -16.366  -5.042  1.00  0.00     0.031 C 
ATOM     56  C   UNL     1     -11.744 -17.371  -0.618  1.00  0.00     0.029 A 
ATOM     57  C   UNL     1     -10.853 -16.752  -1.480  1.00  0.00     0.049 A 
ATOM     58  H   UNL     1     -10.295 -14.718  -1.571  1.00  0.00     0.167 HD
ATOM     59  C   UNL     1      -9.235 -16.653  -3.361  1.00  0.00     0.074 A 
ATOM     60  C   UNL     1      -8.469 -17.256  -4.432  1.00  0.00     0.031 C 
ATOM     61  C   UNL     1     -10.074 -17.341  -2.544  1.00  0.00     0.034 A 
BRANCH  48  62
ATOM     62  C   UNL     1     -12.860 -13.821   1.743  1.00  0.00     0.023 A 
ATOM     63  C   UNL     1     -14.029 -13.040   1.721  1.00  0.00     0.031 A 
ATOM     64  C   UNL     1     -12.550 -14.508   2.931  1.00  0.00     0.131 A 
ATOM     65  C   UNL     1     -14.804 -12.908   2.883  1.00  0.00     0.055 A 
ATOM     66  C   UNL     1     -13.369 -14.436   4.059  1.00  0.00     0.041 A 
ATOM     67  F   UNL     1     -11.434 -15.249   3.021  1.00  0.00    -0.206 F 
ATOM     68  C   UNL     1     -14.496 -13.620   4.045  1.00  0.00     0.022 A 
BRANCH  65  69
ATOM     69  S   UNL     1     -16.138 -11.679   2.901  1.00  0.00     0.124 S 
ATOM     70  O   UNL     1     -15.409 -10.448   2.605  1.00  0.00    -0.237 OA
ATOM     71  O   UNL     1     -17.027 -12.163   1.851  1.00  0.00    -0.237 OA
ATOM     72  O   UNL     1     -16.669 -11.768   4.260  1.00  0.00    -0.744 OA
ENDBRANCH  65  69
ENDBRANCH  48  62
BRANCH  49  73
ATOM     73  C   UNL     1      -6.425 -13.886  -5.947  1.00  0.00     0.023 A 
ATOM     74  C   UNL     1      -6.786 -14.290  -7.242  1.00  0.00     0.031 A 
ATOM     75  C   UNL     1      -5.075 -13.572  -5.708  1.00  0.00     0.131 A 
ATOM     76  C   UNL     1      -5.802 -14.413  -8.236  1.00  0.00     0.055 A 
ATOM     77  C   UNL     1      -4.110 -13.644  -6.713  1.00  0.00     0.041 A 
ATOM     78  F   UNL     1      -4.675 -13.183  -4.487  1.00  0.00    -0.206 F 
ATOM     79  C   UNL     1      -4.470 -14.081  -7.984  1.00  0.00     0.022 A 
BRANCH  76  80
ATOM     80  S   UNL     1      -6.276 -15.102  -9.847  1.00  0.00     0.124 S 
ATOM     81  O   UNL     1      -6.802 -16.408  -9.468  1.00  0.00    -0.237 OA
ATOM     82  O   UNL     1      -7.254 -14.126 -10.316  1.00  0.00    -0.237 OA
ATOM     83  O   UNL     1      -5.017 -15.126 -10.589  1.00  0.00    -0.744 OA
ENDBRANCH  76  80
ENDBRANCH  49  73
BRANCH  61  84
ATOM     84  C   UNL     1     -10.240 -18.818  -2.815  1.00  0.00     0.023 A 
ATOM     85  C   UNL     1      -9.189 -19.731  -2.621  1.00  0.00     0.031 A 
ATOM     86  C   UNL     1     -11.470 -19.315  -3.281  1.00  0.00     0.131 A 
ATOM     87  C   UNL     1      -9.371 -21.085  -2.945  1.00  0.00     0.055 A 
ATOM     88  C   UNL     1     -11.664 -20.672  -3.543  1.00  0.00     0.041 A 
ATOM     89  F   UNL     1     -12.508 -18.488  -3.486  1.00  0.00    -0.206 F 
ATOM     90  C   UNL     1     -10.607 -21.563  -3.388  1.00  0.00     0.022 A 
BRANCH  87  91
ATOM     91  S   UNL     1      -7.943 -22.201  -2.864  1.00  0.00     0.124 S 
ATOM     92  O   UNL     1      -7.010 -21.567  -3.789  1.00  0.00    -0.237 OA
ATOM     93  O   UNL     1      -7.580 -22.142  -1.452  1.00  0.00    -0.237 OA
ATOM     94  O   UNL     1      -8.484 -23.483  -3.311  1.00  0.00    -0.744 OA
ENDBRANCH  87  91
ENDBRANCH  61  84
ENDBRANCH  35  36
ENDBRANCH  28  30
ENDBRANCH  27  28
ENDBRANCH  26  27
ENDBRANCH  25  26
ENDBRANCH  24  25
ENDBRANCH   1  24
TORSDOF 21
