REMARK SMILES Cc1c(CCC(=O)N2CCC[C@H]2C(=O)OCCOCCOC(=O)c2ccc(-c3c4nc(c(-c5cc(S(=O)(=O)[O-])ccc5F)c5ccc([nH]5)c(-c5cc(S(=O)(=O)[O-])ccc5F)c5nc(c(-c6cc(S(=O)(=O)[O-])ccc6F)c6ccc3[nH]6)C=C5)C=C4)cc2)c(=O)oc2cc3oc4c(c3cc12)CCCC4
REMARK SMILES IDX 17 1 16 2 15 3 13 4 14 5 12 6 8 7 9 8 10 9 11 10 6 11 7 12
REMARK SMILES IDX 5 13 4 14 3 15 1 16 2 17 98 18 87 19 90 20 97 21 88 22 89 23
REMARK SMILES IDX 91 24 96 25 92 26 95 27 93 28 94 29 99 30 102 31 100 32
REMARK SMILES IDX 101 33 18 34 19 35 20 36 21 37 22 38 23 39 24 40 25 41 86 42
REMARK SMILES IDX 26 43 85 44 27 45 28 46 29 47 79 48 30 49 84 50 78 51 80 52
REMARK SMILES IDX 31 53 83 54 77 55 76 56 32 58 64 59 44 60 63 61 45 62 48 63
REMARK SMILES IDX 62 64 81 65 46 66 47 67 61 69 82 70 49 71 33 72 34 73 42 74
REMARK SMILES IDX 35 75 41 76 43 77 40 78 36 79 37 80 38 81 39 82 65 83 66 84
REMARK SMILES IDX 74 85 67 86 73 87 75 88 72 89 68 90 69 91 70 92 71 93 50 94
REMARK SMILES IDX 51 95 59 96 52 97 58 98 60 99 57 100 53 101 54 102 55 103
REMARK SMILES IDX 56 104
REMARK H PARENT 80 57 48 68
REMARK Flexibility Score: inf
ROOT
ATOM      1  C   UNL     1       2.637   1.083  -4.276  1.00  0.00     0.202 C 
ENDROOT
BRANCH   1   2
ATOM      2  C   UNL     1       2.292  -0.143  -3.406  1.00  0.00     0.261 C 
BRANCH   2   3
ATOM      3  O   UNL     1       2.355   0.060  -1.978  1.00  0.00    -0.462 OA
BRANCH   3   4
ATOM      4  C   UNL     1       3.555  -0.262  -1.436  1.00  0.00     0.328 C 
ATOM      5  O   UNL     1       4.510  -0.673  -2.098  1.00  0.00    -0.250 OA
BRANCH   4   6
ATOM      6  C   UNL     1       3.713  -0.028   0.088  1.00  0.00     0.195 C 
ATOM      7  N   UNL     1       2.708   0.317   1.129  1.00  0.00    -0.329 N 
ATOM      8  C   UNL     1       2.884  -0.521   2.309  1.00  0.00     0.120 C 
ATOM      9  C   UNL     1       4.125  -1.354   2.085  1.00  0.00     0.024 C 
ATOM     10  C   UNL     1       4.316  -1.355   0.589  1.00  0.00     0.039 C 
BRANCH   7  11
ATOM     11  C   UNL     1       2.034   1.530   1.146  1.00  0.00     0.223 C 
ATOM     12  O   UNL     1       2.136   2.329   0.214  1.00  0.00    -0.275 OA
BRANCH  11  13
ATOM     13  C   UNL     1       1.185   1.926   2.380  1.00  0.00     0.105 C 
BRANCH  13  14
ATOM     14  C   UNL     1      -0.317   1.579   2.373  1.00  0.00     0.053 C 
BRANCH  14  15
ATOM     15  C   UNL     1      -0.540   0.095   2.330  1.00  0.00     0.042 A 
ATOM     16  C   UNL     1      -0.687   0.053  -0.190  1.00  0.00     0.046 C 
ATOM     17  C   UNL     1      -0.530  -0.563   1.163  1.00  0.00    -0.030 A 
ATOM     18  C   UNL     1      -0.061  -1.933   1.242  1.00  0.00     0.022 A 
ATOM     19  C   UNL     1      -0.631  -0.657   3.616  1.00  0.00     0.339 A 
ATOM     20  C   UNL     1      -0.252  -2.685   2.397  1.00  0.00     0.142 A 
ATOM     21  C   UNL     1       0.768  -2.415   0.237  1.00  0.00     0.024 A 
ATOM     22  O   UNL     1      -0.632  -0.075   4.697  1.00  0.00    -0.246 OA
ATOM     23  O   UNL     1      -0.764  -2.045   3.540  1.00  0.00    -0.422 OA
ATOM     24  C   UNL     1       0.126  -4.030   2.495  1.00  0.00     0.095 A 
ATOM     25  C   UNL     1       1.249  -3.715   0.337  1.00  0.00     0.025 A 
ATOM     26  C   UNL     1       0.792  -4.517   1.374  1.00  0.00     0.138 A 
ATOM     27  C   UNL     1       1.894  -4.546  -0.609  1.00  0.00     0.001 A 
ATOM     28  O   UNL     1       0.944  -5.827   1.012  1.00  0.00    -0.461 OA
ATOM     29  C   UNL     1       1.327  -5.770  -0.300  1.00  0.00     0.108 A 
ATOM     30  C   UNL     1       2.145  -4.183  -2.036  1.00  0.00     0.040 C 
ATOM     31  C   UNL     1       0.453  -6.420  -1.336  1.00  0.00     0.076 C 
ATOM     32  C   UNL     1       0.778  -4.212  -2.745  1.00  0.00     0.005 C 
ATOM     33  C   UNL     1      -0.216  -5.243  -2.124  1.00  0.00     0.008 C 
ENDBRANCH  14  15
ENDBRANCH  13  14
ENDBRANCH  11  13
ENDBRANCH   7  11
ENDBRANCH   4   6
ENDBRANCH   3   4
ENDBRANCH   2   3
ENDBRANCH   1   2
BRANCH   1  34
ATOM     34  O   UNL     1       3.710   1.924  -3.864  1.00  0.00    -0.374 OA
BRANCH  34  35
ATOM     35  C   UNL     1       3.493   2.756  -2.721  1.00  0.00     0.202 C 
BRANCH  35  36
ATOM     36  C   UNL     1       2.247   3.648  -2.722  1.00  0.00     0.261 C 
BRANCH  36  37
ATOM     37  O   UNL     1       1.048   2.862  -2.595  1.00  0.00    -0.460 OA
BRANCH  37  38
ATOM     38  C   UNL     1      -0.002   3.269  -3.337  1.00  0.00     0.338 C 
ATOM     39  O   UNL     1      -0.095   4.289  -4.012  1.00  0.00    -0.246 OA
BRANCH  38  40
ATOM     40  C   UNL     1      -1.034   2.230  -3.275  1.00  0.00     0.060 A 
ATOM     41  C   UNL     1      -2.014   2.291  -2.286  1.00  0.00     0.016 A 
ATOM     42  C   UNL     1      -1.042   1.206  -4.226  1.00  0.00     0.016 A 
ATOM     43  C   UNL     1      -3.011   1.313  -2.251  1.00  0.00     0.010 A 
ATOM     44  C   UNL     1      -2.020   0.216  -4.171  1.00  0.00     0.010 A 
ATOM     45  C   UNL     1      -3.028   0.279  -3.202  1.00  0.00    -0.014 A 
BRANCH  45  46
ATOM     46  C   UNL     1      -4.240  -0.562  -3.280  1.00  0.00     0.031 A 
ATOM     47  C   UNL     1      -4.827  -0.622  -4.663  1.00  0.00     0.074 A 
ATOM     48  C   UNL     1      -4.456  -1.602  -2.447  1.00  0.00     0.049 A 
ATOM     49  N   UNL     1      -4.408  -1.431  -5.593  1.00  0.00    -0.248 NA
ATOM     50  C   UNL     1      -5.691   0.449  -5.161  1.00  0.00     0.031 C 
ATOM     51  C   UNL     1      -3.422  -2.572  -2.070  1.00  0.00     0.029 A 
ATOM     52  N   UNL     1      -5.636  -2.173  -2.019  1.00  0.00    -0.354 N 
ATOM     53  C   UNL     1      -4.909  -0.964  -6.802  1.00  0.00     0.074 A 
ATOM     54  C   UNL     1      -5.698   0.203  -6.480  1.00  0.00     0.031 C 
ATOM     55  C   UNL     1      -4.027  -3.689  -1.616  1.00  0.00     0.029 A 
ATOM     56  C   UNL     1      -5.473  -3.476  -1.548  1.00  0.00     0.049 A 
ATOM     57  H   UNL     1      -6.504  -1.708  -2.042  1.00  0.00     0.167 HD
ATOM     58  C   UNL     1      -4.649  -1.555  -8.000  1.00  0.00     0.034 A 
ATOM     59  C   UNL     1      -6.415  -4.455  -1.664  1.00  0.00     0.034 A 
ATOM     60  C   UNL     1      -3.857  -2.747  -7.929  1.00  0.00     0.049 A 
ATOM     61  C   UNL     1      -6.234  -4.856  -3.110  1.00  0.00     0.074 A 
ATOM     62  C   UNL     1      -2.563  -3.132  -8.185  1.00  0.00     0.029 A 
ATOM     63  N   UNL     1      -4.483  -3.902  -7.523  1.00  0.00    -0.354 N 
ATOM     64  N   UNL     1      -5.279  -5.614  -3.592  1.00  0.00    -0.248 NA
ATOM     65  C   UNL     1      -6.930  -4.047  -4.109  1.00  0.00     0.031 C 
ATOM     66  C   UNL     1      -2.396  -4.381  -7.510  1.00  0.00     0.029 A 
ATOM     67  C   UNL     1      -3.578  -4.651  -6.816  1.00  0.00     0.049 A 
ATOM     68  H   UNL     1      -5.419  -4.148  -7.707  1.00  0.00     0.167 HD
ATOM     69  C   UNL     1      -5.064  -5.164  -4.902  1.00  0.00     0.074 A 
ATOM     70  C   UNL     1      -6.116  -4.196  -5.144  1.00  0.00     0.031 C 
ATOM     71  C   UNL     1      -3.960  -5.457  -5.661  1.00  0.00     0.034 A 
BRANCH  58  72
ATOM     72  C   UNL     1      -5.261  -1.178  -9.301  1.00  0.00     0.023 A 
ATOM     73  C   UNL     1      -4.840  -0.091 -10.082  1.00  0.00     0.031 A 
ATOM     74  C   UNL     1      -6.193  -2.080  -9.854  1.00  0.00     0.131 A 
ATOM     75  C   UNL     1      -5.340   0.042 -11.392  1.00  0.00     0.055 A 
ATOM     76  C   UNL     1      -6.664  -1.956 -11.157  1.00  0.00     0.041 A 
ATOM     77  F   UNL     1      -6.633  -3.125  -9.132  1.00  0.00    -0.206 F 
ATOM     78  C   UNL     1      -6.231  -0.893 -11.936  1.00  0.00     0.022 A 
BRANCH  75  79
ATOM     79  S   UNL     1      -4.843   1.414 -12.473  1.00  0.00     0.124 S 
ATOM     80  O   UNL     1      -4.255   0.715 -13.613  1.00  0.00    -0.237 OA
ATOM     81  O   UNL     1      -6.123   2.068 -12.736  1.00  0.00    -0.237 OA
ATOM     82  O   UNL     1      -3.908   2.180 -11.656  1.00  0.00    -0.744 OA
ENDBRANCH  75  79
ENDBRANCH  58  72
BRANCH  59  83
ATOM     83  C   UNL     1      -7.726  -4.143  -1.002  1.00  0.00     0.023 A 
ATOM     84  C   UNL     1      -8.957  -3.932  -1.642  1.00  0.00     0.031 A 
ATOM     85  C   UNL     1      -7.710  -3.970   0.402  1.00  0.00     0.131 A 
ATOM     86  C   UNL     1     -10.049  -3.407  -0.925  1.00  0.00     0.055 A 
ATOM     87  C   UNL     1      -8.816  -3.509   1.123  1.00  0.00     0.041 A 
ATOM     88  F   UNL     1      -6.594  -4.236   1.102  1.00  0.00    -0.206 F 
ATOM     89  C   UNL     1      -9.988  -3.192   0.452  1.00  0.00     0.022 A 
BRANCH  86  90
ATOM     90  S   UNL     1     -11.566  -2.906  -1.792  1.00  0.00     0.124 S 
ATOM     91  O   UNL     1     -12.615  -3.423  -0.919  1.00  0.00    -0.237 OA
ATOM     92  O   UNL     1     -11.416  -1.453  -1.809  1.00  0.00    -0.237 OA
ATOM     93  O   UNL     1     -11.445  -3.566  -3.087  1.00  0.00    -0.744 OA
ENDBRANCH  86  90
ENDBRANCH  59  83
BRANCH  71  94
ATOM     94  C   UNL     1      -3.032  -6.543  -5.176  1.00  0.00     0.023 A 
ATOM     95  C   UNL     1      -1.635  -6.362  -5.187  1.00  0.00     0.031 A 
ATOM     96  C   UNL     1      -3.506  -7.827  -4.863  1.00  0.00     0.131 A 
ATOM     97  C   UNL     1      -0.767  -7.446  -4.997  1.00  0.00     0.055 A 
ATOM     98  C   UNL     1      -2.638  -8.879  -4.552  1.00  0.00     0.041 A 
ATOM     99  F   UNL     1      -4.818  -8.112  -4.923  1.00  0.00    -0.206 F 
ATOM    100  C   UNL     1      -1.261  -8.697  -4.636  1.00  0.00     0.022 A 
BRANCH  97 101
ATOM    101  S   UNL     1       1.007  -7.300  -5.363  1.00  0.00     0.124 S 
ATOM    102  O   UNL     1       1.629  -7.829  -4.153  1.00  0.00    -0.237 OA
ATOM    103  O   UNL     1       1.141  -8.141  -6.548  1.00  0.00    -0.237 OA
ATOM    104  O   UNL     1       1.209  -5.874  -5.591  1.00  0.00    -0.744 OA
ENDBRANCH  97 101
ENDBRANCH  71  94
ENDBRANCH  45  46
ENDBRANCH  38  40
ENDBRANCH  37  38
ENDBRANCH  36  37
ENDBRANCH  35  36
ENDBRANCH  34  35
ENDBRANCH   1  34
TORSDOF 21
