REMARK SMILES Nc1ccc([C@H]([NH3+])C(=O)OCCOCCOC(=O)c2ccc(-c3c4nc(c(-c5cc(S(=O)(=O)[O-])ccc5F)c5ccc([nH]5)c(-c5cc(S(=O)(=O)[O-])ccc5F)c5nc(c(-c6cc(S(=O)(=O)[O-])ccc6F)c6ccc3[nH]6)C=C5)C=C4)cc2)cc1C(F)(F)F
REMARK SMILES IDX 14 1 13 2 12 3 11 4 10 5 8 6 9 7 6 8 5 9 2 10 3 11 83 12
REMARK SMILES IDX 4 13 82 14 1 15 84 18 85 19 86 20 87 21 7 22 15 26 16 27
REMARK SMILES IDX 17 28 18 29 19 30 20 31 81 32 21 33 80 34 22 35 23 36 24 37
REMARK SMILES IDX 74 38 25 39 79 40 73 41 75 42 26 43 78 44 72 45 71 46 27 48
REMARK SMILES IDX 59 49 39 50 58 51 40 52 43 53 57 54 76 55 41 56 42 57 56 59
REMARK SMILES IDX 77 60 44 61 28 62 29 63 37 64 30 65 36 66 38 67 35 68 31 69
REMARK SMILES IDX 32 70 33 71 34 72 60 73 61 74 69 75 62 76 68 77 70 78 67 79
REMARK SMILES IDX 63 80 64 81 65 82 66 83 45 84 46 85 54 86 47 87 53 88 55 89
REMARK SMILES IDX 52 90 48 91 49 92 50 93 51 94
REMARK H PARENT 1 16 1 17 7 23 7 24 7 25 75 47 43 58
REMARK Flexibility Score: inf
ROOT
ATOM      1  C   UNL     1      -3.023   0.229   3.541  1.00  0.00     0.202 C 
ENDROOT
BRANCH   1   2
ATOM      2  O   UNL     1      -4.003  -0.558   4.215  1.00  0.00    -0.374 OA
BRANCH   2   3
ATOM      3  C   UNL     1      -4.168  -1.913   3.795  1.00  0.00     0.202 C 
BRANCH   3   4
ATOM      4  C   UNL     1      -4.893  -2.131   2.465  1.00  0.00     0.261 C 
BRANCH   4   5
ATOM      5  O   UNL     1      -4.123  -1.620   1.364  1.00  0.00    -0.459 OA
BRANCH   5   6
ATOM      6  C   UNL     1      -4.690  -0.592   0.665  1.00  0.00     0.369 C 
ATOM      7  O   UNL     1      -5.828  -0.167   0.834  1.00  0.00    -0.245 OA
BRANCH   6   8
ATOM      8  C   UNL     1      -3.740  -0.043  -0.420  1.00  0.00     0.323 C 
BRANCH   8   9
ATOM      9  C   UNL     1      -3.938  -0.787  -1.720  1.00  0.00     0.021 A 
ATOM     10  C   UNL     1      -4.536  -2.218  -4.090  1.00  0.00     0.044 A 
ATOM     11  C   UNL     1      -4.788  -0.843  -3.985  1.00  0.00     0.026 A 
ATOM     12  C   UNL     1      -3.952  -2.882  -3.003  1.00  0.00     0.079 A 
ATOM     13  C   UNL     1      -4.496  -0.134  -2.819  1.00  0.00     0.013 A 
ATOM     14  C   UNL     1      -3.650  -2.155  -1.832  1.00  0.00     0.025 A 
BRANCH  10  15
ATOM     15  N   UNL     1      -4.893  -2.864  -5.260  1.00  0.00    -0.398 N 
ATOM     16  H   UNL     1      -5.301  -2.356  -5.998  1.00  0.00     0.156 HD
ATOM     17  H   UNL     1      -4.739  -3.832  -5.354  1.00  0.00     0.156 HD
ENDBRANCH  10  15
BRANCH  12  18
ATOM     18  C   UNL     1      -3.655  -4.362  -2.990  1.00  0.00     0.418 C 
ATOM     19  F   UNL     1      -2.341  -4.619  -2.731  1.00  0.00    -0.166 F 
ATOM     20  F   UNL     1      -4.357  -5.017  -2.022  1.00  0.00    -0.166 F 
ATOM     21  F   UNL     1      -3.934  -5.013  -4.156  1.00  0.00    -0.166 F 
ENDBRANCH  12  18
ENDBRANCH   8   9
BRANCH   8  22
ATOM     22  N   UNL     1      -2.319  -0.021  -0.002  1.00  0.00    -0.342 N 
ATOM     23  H   UNL     1      -1.999  -0.975   0.165  1.00  0.00     0.345 HD
ATOM     24  H   UNL     1      -2.226   0.524   0.856  1.00  0.00     0.345 HD
ATOM     25  H   UNL     1      -1.755   0.404  -0.737  1.00  0.00     0.345 HD
ENDBRANCH   8  22
ENDBRANCH   6   8
ENDBRANCH   5   6
ENDBRANCH   4   5
ENDBRANCH   3   4
ENDBRANCH   2   3
ENDBRANCH   1   2
BRANCH   1  26
ATOM     26  C   UNL     1      -1.549  -0.023   3.885  1.00  0.00     0.261 C 
BRANCH  26  27
ATOM     27  O   UNL     1      -1.109  -1.359   3.587  1.00  0.00    -0.460 OA
BRANCH  27  28
ATOM     28  C   UNL     1      -0.917  -2.139   4.679  1.00  0.00     0.338 C 
ATOM     29  O   UNL     1      -1.051  -1.808   5.851  1.00  0.00    -0.246 OA
BRANCH  28  30
ATOM     30  C   UNL     1      -0.680  -3.538   4.278  1.00  0.00     0.060 A 
ATOM     31  C   UNL     1      -1.484  -4.524   4.864  1.00  0.00     0.016 A 
ATOM     32  C   UNL     1       0.363  -3.891   3.419  1.00  0.00     0.016 A 
ATOM     33  C   UNL     1      -1.216  -5.871   4.634  1.00  0.00     0.010 A 
ATOM     34  C   UNL     1       0.636  -5.246   3.196  1.00  0.00     0.010 A 
ATOM     35  C   UNL     1      -0.130  -6.242   3.831  1.00  0.00    -0.014 A 
BRANCH  35  36
ATOM     36  C   UNL     1       0.294  -7.665   3.789  1.00  0.00     0.031 A 
ATOM     37  C   UNL     1       1.449  -8.105   4.648  1.00  0.00     0.074 A 
ATOM     38  C   UNL     1      -0.363  -8.557   3.027  1.00  0.00     0.049 A 
ATOM     39  N   UNL     1       2.008  -9.283   4.750  1.00  0.00    -0.248 NA
ATOM     40  C   UNL     1       2.055  -7.074   5.503  1.00  0.00     0.031 C 
ATOM     41  C   UNL     1      -1.524  -8.257   2.190  1.00  0.00     0.029 A 
ATOM     42  N   UNL     1      -0.144  -9.898   2.831  1.00  0.00    -0.354 N 
ATOM     43  C   UNL     1       3.035  -9.136   5.677  1.00  0.00     0.074 A 
ATOM     44  C   UNL     1       3.043  -7.744   6.075  1.00  0.00     0.031 C 
ATOM     45  C   UNL     1      -1.910  -9.381   1.562  1.00  0.00     0.029 A 
ATOM     46  C   UNL     1      -1.003 -10.469   1.922  1.00  0.00     0.049 A 
ATOM     47  H   UNL     1       0.561 -10.402   3.297  1.00  0.00     0.167 HD
ATOM     48  C   UNL     1       3.885 -10.078   6.158  1.00  0.00     0.034 A 
ATOM     49  C   UNL     1      -1.036 -11.720   1.419  1.00  0.00     0.034 A 
ATOM     50  C   UNL     1       3.871 -11.459   5.741  1.00  0.00     0.049 A 
ATOM     51  C   UNL     1      -0.025 -12.732   1.904  1.00  0.00     0.074 A 
ATOM     52  C   UNL     1       4.676 -12.500   6.172  1.00  0.00     0.029 A 
ATOM     53  N   UNL     1       3.017 -11.992   4.783  1.00  0.00    -0.354 N 
ATOM     54  N   UNL     1       0.936 -12.584   2.787  1.00  0.00    -0.248 NA
ATOM     55  C   UNL     1      -0.111 -14.082   1.331  1.00  0.00     0.031 C 
ATOM     56  C   UNL     1       4.358 -13.640   5.426  1.00  0.00     0.029 A 
ATOM     57  C   UNL     1       3.299 -13.336   4.585  1.00  0.00     0.049 A 
ATOM     58  H   UNL     1       2.313 -11.490   4.313  1.00  0.00     0.167 HD
ATOM     59  C   UNL     1       1.548 -13.831   2.896  1.00  0.00     0.074 A 
ATOM     60  C   UNL     1       0.841 -14.719   1.997  1.00  0.00     0.031 C 
ATOM     61  C   UNL     1       2.594 -14.209   3.675  1.00  0.00     0.034 A 
BRANCH  48  62
ATOM     62  C   UNL     1       4.936  -9.623   7.144  1.00  0.00     0.023 A 
ATOM     63  C   UNL     1       4.595  -9.109   8.408  1.00  0.00     0.031 A 
ATOM     64  C   UNL     1       6.298  -9.670   6.799  1.00  0.00     0.131 A 
ATOM     65  C   UNL     1       5.595  -8.595   9.248  1.00  0.00     0.055 A 
ATOM     66  C   UNL     1       7.295  -9.231   7.672  1.00  0.00     0.041 A 
ATOM     67  F   UNL     1       6.684 -10.128   5.598  1.00  0.00    -0.206 F 
ATOM     68  C   UNL     1       6.945  -8.675   8.899  1.00  0.00     0.022 A 
BRANCH  65  69
ATOM     69  S   UNL     1       5.096  -7.685  10.736  1.00  0.00     0.124 S 
ATOM     70  O   UNL     1       4.265  -6.626  10.169  1.00  0.00    -0.237 OA
ATOM     71  O   UNL     1       4.396  -8.704  11.508  1.00  0.00    -0.237 OA
ATOM     72  O   UNL     1       6.365  -7.233  11.303  1.00  0.00    -0.744 OA
ENDBRANCH  65  69
ENDBRANCH  48  62
BRANCH  49  73
ATOM     73  C   UNL     1      -2.030 -12.083   0.369  1.00  0.00     0.023 A 
ATOM     74  C   UNL     1      -3.023 -13.047   0.604  1.00  0.00     0.031 A 
ATOM     75  C   UNL     1      -1.970 -11.496  -0.908  1.00  0.00     0.131 A 
ATOM     76  C   UNL     1      -3.889 -13.426  -0.434  1.00  0.00     0.055 A 
ATOM     77  C   UNL     1      -2.866 -11.839  -1.922  1.00  0.00     0.041 A 
ATOM     78  F   UNL     1      -1.038 -10.570  -1.187  1.00  0.00    -0.206 F 
ATOM     79  C   UNL     1      -3.826 -12.819  -1.690  1.00  0.00     0.022 A 
BRANCH  76  80
ATOM     80  S   UNL     1      -5.054 -14.785  -0.142  1.00  0.00     0.124 S 
ATOM     81  O   UNL     1      -4.154 -15.880   0.199  1.00  0.00    -0.237 OA
ATOM     82  O   UNL     1      -5.867 -14.258   0.950  1.00  0.00    -0.237 OA
ATOM     83  O   UNL     1      -5.747 -14.920  -1.422  1.00  0.00    -0.744 OA
ENDBRANCH  76  80
ENDBRANCH  49  73
BRANCH  61  84
ATOM     84  C   UNL     1       3.001 -15.663   3.624  1.00  0.00     0.023 A 
ATOM     85  C   UNL     1       3.569 -16.236   2.473  1.00  0.00     0.031 A 
ATOM     86  C   UNL     1       2.811 -16.487   4.748  1.00  0.00     0.131 A 
ATOM     87  C   UNL     1       3.879 -17.605   2.454  1.00  0.00     0.055 A 
ATOM     88  C   UNL     1       3.175 -17.834   4.743  1.00  0.00     0.041 A 
ATOM     89  F   UNL     1       2.271 -15.993   5.874  1.00  0.00    -0.206 F 
ATOM     90  C   UNL     1       3.701 -18.403   3.587  1.00  0.00     0.022 A 
BRANCH  87  91
ATOM     91  S   UNL     1       4.438 -18.353   0.898  1.00  0.00     0.124 S 
ATOM     92  O   UNL     1       3.322 -18.064   0.004  1.00  0.00    -0.237 OA
ATOM     93  O   UNL     1       5.675 -17.627   0.629  1.00  0.00    -0.237 OA
ATOM     94  O   UNL     1       4.611 -19.764   1.238  1.00  0.00    -0.744 OA
ENDBRANCH  87  91
ENDBRANCH  61  84
ENDBRANCH  35  36
ENDBRANCH  28  30
ENDBRANCH  27  28
ENDBRANCH  26  27
ENDBRANCH   1  26
TORSDOF 21
