REMARK SMILES CCc1cccc(CC)c1N1/C(=[NH+]/C(=O)CCCC(=O)OCCOCCOC(=O)c2ccc(-c3c4nc(c(-c5cc(S(=O)(=O)[O-])ccc5F)c5ccc([nH]5)c(-c5cc(S(=O)(=O)[O-])ccc5F)c5nc(c(-c6cc(S(=O)(=O)[O-])ccc6F)c6ccc3[nH]6)C=C5)C=C4)cc2)S[C@@H]2CS(=O)(=O)C[C@@H]21
REMARK SMILES IDX 23 1 22 2 21 3 19 4 20 5 18 6 17 7 16 8 14 9 11 10 12 11
REMARK SMILES IDX 100 12 13 13 93 14 94 15 99 16 95 18 96 19 15 20 97 21 98 22
REMARK SMILES IDX 10 23 3 24 4 25 5 26 7 27 6 28 2 29 1 30 8 31 9 32 24 33
REMARK SMILES IDX 25 34 26 35 27 36 28 37 29 38 30 39 31 40 92 41 32 42 91 43
REMARK SMILES IDX 33 44 34 45 35 46 85 47 36 48 90 49 84 50 86 51 37 52 89 53
REMARK SMILES IDX 83 54 82 55 38 57 70 58 50 59 69 60 51 61 54 62 68 63 87 64
REMARK SMILES IDX 52 65 53 66 67 68 88 69 55 70 39 71 40 72 48 73 41 74 47 75
REMARK SMILES IDX 49 76 46 77 42 78 43 79 44 80 45 81 71 82 72 83 80 84 73 85
REMARK SMILES IDX 79 86 81 87 78 88 74 89 75 90 76 91 77 92 56 93 57 94 65 95
REMARK SMILES IDX 58 96 64 97 66 98 63 99 59 100 60 101 61 102 62 103
REMARK H PARENT 13 17 86 56 54 67
REMARK Flexibility Score: inf
ROOT
ATOM      1  C   UNL     1       3.243  -3.051   3.332  1.00  0.00     0.202 C 
ENDROOT
BRANCH   1   2
ATOM      2  C   UNL     1       3.068  -2.662   1.862  1.00  0.00     0.261 C 
BRANCH   2   3
ATOM      3  O   UNL     1       2.987  -1.240   1.717  1.00  0.00    -0.463 OA
BRANCH   3   4
ATOM      4  C   UNL     1       1.755  -0.743   1.463  1.00  0.00     0.305 C 
ATOM      5  O   UNL     1       0.749  -1.426   1.301  1.00  0.00    -0.252 OA
BRANCH   4   6
ATOM      6  C   UNL     1       1.703   0.775   1.562  1.00  0.00     0.123 C 
BRANCH   6   7
ATOM      7  C   UNL     1       2.951   1.512   2.039  1.00  0.00     0.024 C 
BRANCH   7   8
ATOM      8  C   UNL     1       4.195   1.337   1.164  1.00  0.00     0.128 C 
BRANCH   8   9
ATOM      9  C   UNL     1       3.889   1.664  -0.282  1.00  0.00     0.307 C 
ATOM     10  N   UNL     1       2.788  -0.178  -3.235  1.00  0.00    -0.216 N 
ATOM     11  C   UNL     1       3.491   0.591  -2.300  1.00  0.00     0.319 C 
ATOM     12  C   UNL     1       3.002   0.184  -4.654  1.00  0.00     0.212 C 
ATOM     13  N   UNL     1       3.341   0.628  -1.016  1.00  0.00    -0.204 N 
ATOM     14  S   UNL     1       4.634   1.633  -3.192  1.00  0.00    -0.029 SA
ATOM     15  C   UNL     1       3.569   1.613  -4.643  1.00  0.00     0.120 C 
ATOM     16  C   UNL     1       1.753   0.207  -5.532  1.00  0.00     0.188 C 
ATOM     17  H   UNL     1       2.836  -0.084  -0.560  1.00  0.00     0.316 HD
ATOM     18  C   UNL     1       2.398   2.571  -4.472  1.00  0.00     0.156 C 
ATOM     19  S   UNL     1       1.184   1.896  -5.573  1.00  0.00     0.155 S 
ATOM     20  O   UNL     1       3.918   2.841  -0.641  1.00  0.00    -0.247 OA
ATOM     21  O   UNL     1      -0.126   1.986  -4.959  1.00  0.00    -0.229 OA
ATOM     22  O   UNL     1       1.441   2.425  -6.895  1.00  0.00    -0.229 OA
BRANCH  10  23
ATOM     23  C   UNL     1       2.110  -1.385  -2.947  1.00  0.00     0.134 A 
ATOM     24  C   UNL     1       0.744  -1.362  -2.544  1.00  0.00    -0.001 A 
ATOM     25  C   UNL     1       0.064  -2.569  -2.285  1.00  0.00     0.008 A 
ATOM     26  C   UNL     1       0.689  -3.794  -2.455  1.00  0.00     0.001 A 
ATOM     27  C   UNL     1       2.735  -2.650  -3.144  1.00  0.00    -0.001 A 
ATOM     28  C   UNL     1       2.000  -3.832  -2.906  1.00  0.00     0.008 A 
BRANCH  24  29
ATOM     29  C   UNL     1      -0.077  -0.089  -2.462  1.00  0.00     0.036 C 
ATOM     30  C   UNL     1      -0.643   0.167  -1.083  1.00  0.00     0.009 C 
ENDBRANCH  24  29
BRANCH  27  31
ATOM     31  C   UNL     1       4.139  -2.805  -3.704  1.00  0.00     0.036 C 
ATOM     32  C   UNL     1       5.024  -3.819  -2.989  1.00  0.00     0.009 C 
ENDBRANCH  27  31
ENDBRANCH  10  23
ENDBRANCH   8   9
ENDBRANCH   7   8
ENDBRANCH   6   7
ENDBRANCH   4   6
ENDBRANCH   3   4
ENDBRANCH   2   3
ENDBRANCH   1   2
BRANCH   1  33
ATOM     33  O   UNL     1       2.187  -2.760   4.245  1.00  0.00    -0.374 OA
BRANCH  33  34
ATOM     34  C   UNL     1       1.908  -1.407   4.594  1.00  0.00     0.202 C 
BRANCH  34  35
ATOM     35  C   UNL     1       2.940  -0.597   5.390  1.00  0.00     0.261 C 
BRANCH  35  36
ATOM     36  O   UNL     1       4.223  -0.495   4.753  1.00  0.00    -0.460 OA
BRANCH  36  37
ATOM     37  C   UNL     1       5.198  -1.207   5.373  1.00  0.00     0.338 C 
ATOM     38  O   UNL     1       5.082  -1.869   6.391  1.00  0.00    -0.246 OA
BRANCH  37  39
ATOM     39  C   UNL     1       6.414  -1.253   4.543  1.00  0.00     0.060 A 
ATOM     40  C   UNL     1       6.900  -2.522   4.200  1.00  0.00     0.016 A 
ATOM     41  C   UNL     1       7.133  -0.103   4.215  1.00  0.00     0.016 A 
ATOM     42  C   UNL     1       8.139  -2.651   3.584  1.00  0.00     0.010 A 
ATOM     43  C   UNL     1       8.384  -0.236   3.601  1.00  0.00     0.010 A 
ATOM     44  C   UNL     1       8.911  -1.512   3.325  1.00  0.00    -0.014 A 
BRANCH  44  45
ATOM     45  C   UNL     1      10.330  -1.684   2.924  1.00  0.00     0.031 A 
ATOM     46  C   UNL     1      11.408  -1.488   3.956  1.00  0.00     0.074 A 
ATOM     47  C   UNL     1      10.648  -2.071   1.677  1.00  0.00     0.049 A 
ATOM     48  N   UNL     1      12.707  -1.563   3.826  1.00  0.00    -0.248 NA
ATOM     49  C   UNL     1      10.955  -1.162   5.316  1.00  0.00     0.031 C 
ATOM     50  C   UNL     1       9.686  -2.351   0.612  1.00  0.00     0.029 A 
ATOM     51  N   UNL     1      11.870  -2.297   1.096  1.00  0.00    -0.354 N 
ATOM     52  C   UNL     1      13.230  -1.282   5.085  1.00  0.00     0.074 A 
ATOM     53  C   UNL     1      12.106  -0.995   5.950  1.00  0.00     0.031 C 
ATOM     54  C   UNL     1      10.356  -2.706  -0.496  1.00  0.00     0.029 A 
ATOM     55  C   UNL     1      11.793  -2.633  -0.234  1.00  0.00     0.049 A 
ATOM     56  H   UNL     1      12.721  -2.225   1.585  1.00  0.00     0.167 HD
ATOM     57  C   UNL     1      14.528  -1.273   5.481  1.00  0.00     0.034 A 
ATOM     58  C   UNL     1      12.768  -2.828  -1.144  1.00  0.00     0.034 A 
ATOM     59  C   UNL     1      15.635  -1.552   4.597  1.00  0.00     0.049 A 
ATOM     60  C   UNL     1      14.209  -2.715  -0.708  1.00  0.00     0.074 A 
ATOM     61  C   UNL     1      16.987  -1.587   4.894  1.00  0.00     0.029 A 
ATOM     62  N   UNL     1      15.523  -1.826   3.239  1.00  0.00    -0.354 N 
ATOM     63  N   UNL     1      14.694  -2.450   0.484  1.00  0.00    -0.248 NA
ATOM     64  C   UNL     1      15.231  -2.936  -1.737  1.00  0.00     0.031 C 
ATOM     65  C   UNL     1      17.692  -1.792   3.703  1.00  0.00     0.029 A 
ATOM     66  C   UNL     1      16.781  -1.986   2.677  1.00  0.00     0.049 A 
ATOM     67  H   UNL     1      14.673  -1.897   2.747  1.00  0.00     0.167 HD
ATOM     68  C   UNL     1      16.080  -2.503   0.352  1.00  0.00     0.074 A 
ATOM     69  C   UNL     1      16.349  -2.838  -1.032  1.00  0.00     0.031 C 
ATOM     70  C   UNL     1      17.041  -2.302   1.290  1.00  0.00     0.034 A 
BRANCH  57  71
ATOM     71  C   UNL     1      14.814  -0.886   6.915  1.00  0.00     0.023 A 
ATOM     72  C   UNL     1      14.331  -1.637   8.001  1.00  0.00     0.031 A 
ATOM     73  C   UNL     1      15.546   0.281   7.200  1.00  0.00     0.131 A 
ATOM     74  C   UNL     1      14.511  -1.169   9.312  1.00  0.00     0.055 A 
ATOM     75  C   UNL     1      15.801   0.691   8.510  1.00  0.00     0.041 A 
ATOM     76  F   UNL     1      16.013   1.055   6.208  1.00  0.00    -0.206 F 
ATOM     77  C   UNL     1      15.266  -0.025   9.576  1.00  0.00     0.022 A 
BRANCH  74  78
ATOM     78  S   UNL     1      13.597  -1.981  10.654  1.00  0.00     0.124 S 
ATOM     79  O   UNL     1      12.218  -1.858  10.187  1.00  0.00    -0.237 OA
ATOM     80  O   UNL     1      14.157  -3.327  10.647  1.00  0.00    -0.237 OA
ATOM     81  O   UNL     1      13.924  -1.173  11.827  1.00  0.00    -0.744 OA
ENDBRANCH  74  78
ENDBRANCH  57  71
BRANCH  58  82
ATOM     82  C   UNL     1      12.418  -3.101  -2.567  1.00  0.00     0.023 A 
ATOM     83  C   UNL     1      12.760  -4.314  -3.185  1.00  0.00     0.031 A 
ATOM     84  C   UNL     1      11.758  -2.130  -3.343  1.00  0.00     0.131 A 
ATOM     85  C   UNL     1      12.472  -4.511  -4.545  1.00  0.00     0.055 A 
ATOM     86  C   UNL     1      11.425  -2.351  -4.679  1.00  0.00     0.041 A 
ATOM     87  F   UNL     1      11.409  -0.951  -2.802  1.00  0.00    -0.206 F 
ATOM     88  C   UNL     1      11.793  -3.545  -5.291  1.00  0.00     0.022 A 
BRANCH  85  89
ATOM     89  S   UNL     1      13.063  -6.024  -5.350  1.00  0.00     0.124 S 
ATOM     90  O   UNL     1      14.504  -5.921  -5.154  1.00  0.00    -0.237 OA
ATOM     91  O   UNL     1      12.382  -7.061  -4.582  1.00  0.00    -0.237 OA
ATOM     92  O   UNL     1      12.607  -5.875  -6.730  1.00  0.00    -0.744 OA
ENDBRANCH  85  89
ENDBRANCH  58  82
BRANCH  70  93
ATOM     93  C   UNL     1      18.479  -2.485   0.859  1.00  0.00     0.023 A 
ATOM     94  C   UNL     1      19.087  -1.641  -0.088  1.00  0.00     0.031 A 
ATOM     95  C   UNL     1      19.251  -3.529   1.401  1.00  0.00     0.131 A 
ATOM     96  C   UNL     1      20.403  -1.892  -0.506  1.00  0.00     0.055 A 
ATOM     97  C   UNL     1      20.582  -3.730   1.034  1.00  0.00     0.041 A 
ATOM     98  F   UNL     1      18.724  -4.372   2.304  1.00  0.00    -0.206 F 
ATOM     99  C   UNL     1      21.162  -2.917   0.065  1.00  0.00     0.022 A 
BRANCH  96 100
ATOM    100  S   UNL     1      21.078  -0.927  -1.885  1.00  0.00     0.124 S 
ATOM    101  O   UNL     1      20.117  -1.204  -2.947  1.00  0.00    -0.237 OA
ATOM    102  O   UNL     1      21.066   0.432  -1.352  1.00  0.00    -0.237 OA
ATOM    103  O   UNL     1      22.408  -1.500  -2.087  1.00  0.00    -0.744 OA
ENDBRANCH  96 100
ENDBRANCH  70  93
ENDBRANCH  44  45
ENDBRANCH  37  39
ENDBRANCH  36  37
ENDBRANCH  35  36
ENDBRANCH  34  35
ENDBRANCH  33  34
ENDBRANCH   1  33
TORSDOF 23
