REMARK SMILES NC(=O)[C@@H]1CCCCN1c1cncc(C(=O)OCCOCCOC(=O)c2ccc(-c3c4nc(c(-c5cc(S(=O)(=O)[O-])ccc5F)c5ccc([nH]5)c(-c5cc(S(=O)(=O)[O-])ccc5F)c5nc(c(-c6cc(S(=O)(=O)[O-])ccc6F)c6ccc3[nH]6)C=C5)C=C4)cc2)n1
REMARK SMILES IDX 21 1 20 2 19 3 18 4 17 5 15 6 16 7 14 8 10 9 11 10 89 11
REMARK SMILES IDX 12 12 13 13 9 14 4 15 5 16 6 17 8 18 7 19 2 20 1 21 3 24
REMARK SMILES IDX 22 25 23 26 24 27 25 28 26 29 27 30 88 31 28 32 87 33 29 34
REMARK SMILES IDX 30 35 31 36 81 37 32 38 86 39 80 40 82 41 33 42 85 43 79 44
REMARK SMILES IDX 78 45 34 47 66 48 46 49 65 50 47 51 50 52 64 53 83 54 48 55
REMARK SMILES IDX 49 56 63 58 84 59 51 60 35 61 36 62 44 63 37 64 43 65 45 66
REMARK SMILES IDX 42 67 38 68 39 69 40 70 41 71 67 72 68 73 76 74 69 75 75 76
REMARK SMILES IDX 77 77 74 78 70 79 71 80 72 81 73 82 52 83 53 84 61 85 54 86
REMARK SMILES IDX 60 87 62 88 59 89 55 90 56 91 57 92 58 93
REMARK H PARENT 1 22 1 23 82 46 50 57
REMARK Flexibility Score: inf
ROOT
ATOM      1  C   UNL     1      -1.039   4.224   5.236  1.00  0.00     0.202 C 
ENDROOT
BRANCH   1   2
ATOM      2  O   UNL     1      -1.218   3.144   6.154  1.00  0.00    -0.374 OA
BRANCH   2   3
ATOM      3  C   UNL     1      -0.295   2.058   6.055  1.00  0.00     0.202 C 
BRANCH   3   4
ATOM      4  C   UNL     1      -0.628   0.992   5.003  1.00  0.00     0.261 C 
BRANCH   4   5
ATOM      5  O   UNL     1      -0.599   1.539   3.674  1.00  0.00    -0.458 OA
BRANCH   5   6
ATOM      6  C   UNL     1      -1.811   1.690   3.082  1.00  0.00     0.358 C 
ATOM      7  O   UNL     1      -2.884   1.284   3.507  1.00  0.00    -0.244 OA
BRANCH   6   8
ATOM      8  C   UNL     1      -1.715   2.617   1.933  1.00  0.00     0.169 A 
ATOM      9  C   UNL     1      -0.597   3.502   0.117  1.00  0.00     0.148 A 
ATOM     10  C   UNL     1      -1.658   4.417  -0.005  1.00  0.00     0.157 A 
ATOM     11  N   UNL     1      -0.610   2.612   1.136  1.00  0.00    -0.220 NA
ATOM     12  N   UNL     1      -2.744   4.465   0.809  1.00  0.00    -0.258 NA
ATOM     13  C   UNL     1      -2.755   3.519   1.771  1.00  0.00     0.147 A 
BRANCH   9  14
ATOM     14  N   UNL     1       0.435   3.469  -0.793  1.00  0.00    -0.343 N 
ATOM     15  C   UNL     1       1.033   2.199  -1.266  1.00  0.00     0.172 C 
ATOM     16  C   UNL     1       2.526   2.204  -0.923  1.00  0.00     0.035 C 
ATOM     17  C   UNL     1       3.206   3.435  -1.526  1.00  0.00     0.004 C 
ATOM     18  C   UNL     1       1.007   4.691  -1.349  1.00  0.00     0.119 C 
ATOM     19  C   UNL     1       2.514   4.722  -1.077  1.00  0.00     0.022 C 
BRANCH  15  20
ATOM     20  C   UNL     1       0.262   0.907  -0.901  1.00  0.00     0.240 C 
ATOM     21  N   UNL     1       0.845   0.029  -0.033  1.00  0.00    -0.368 N 
ATOM     22  H   UNL     1       0.378  -0.801   0.216  1.00  0.00     0.159 HD
ATOM     23  H   UNL     1       1.734   0.226   0.343  1.00  0.00     0.159 HD
ATOM     24  O   UNL     1      -0.844   0.640  -1.377  1.00  0.00    -0.273 OA
ENDBRANCH  15  20
ENDBRANCH   9  14
ENDBRANCH   6   8
ENDBRANCH   5   6
ENDBRANCH   4   5
ENDBRANCH   3   4
ENDBRANCH   2   3
ENDBRANCH   1   2
BRANCH   1  25
ATOM     25  C   UNL     1       0.055   5.244   5.574  1.00  0.00     0.261 C 
BRANCH  25  26
ATOM     26  O   UNL     1       1.371   4.675   5.469  1.00  0.00    -0.460 OA
BRANCH  26  27
ATOM     27  C   UNL     1       1.992   4.463   6.653  1.00  0.00     0.338 C 
ATOM     28  O   UNL     1       1.584   4.782   7.763  1.00  0.00    -0.246 OA
BRANCH  27  29
ATOM     29  C   UNL     1       3.175   3.605   6.455  1.00  0.00     0.060 A 
ATOM     30  C   UNL     1       3.312   2.494   7.297  1.00  0.00     0.016 A 
ATOM     31  C   UNL     1       4.156   3.899   5.505  1.00  0.00     0.016 A 
ATOM     32  C   UNL     1       4.456   1.703   7.230  1.00  0.00     0.010 A 
ATOM     33  C   UNL     1       5.307   3.106   5.442  1.00  0.00     0.010 A 
ATOM     34  C   UNL     1       5.478   2.026   6.328  1.00  0.00    -0.014 A 
BRANCH  34  35
ATOM     35  C   UNL     1       6.780   1.320   6.416  1.00  0.00     0.031 A 
ATOM     36  C   UNL     1       7.935   2.003   7.096  1.00  0.00     0.074 A 
ATOM     37  C   UNL     1       6.926   0.082   5.913  1.00  0.00     0.049 A 
ATOM     38  N   UNL     1       9.168   1.596   7.254  1.00  0.00    -0.248 NA
ATOM     39  C   UNL     1       7.660   3.332   7.661  1.00  0.00     0.031 C 
ATOM     40  C   UNL     1       5.872  -0.689   5.256  1.00  0.00     0.029 A 
ATOM     41  N   UNL     1       8.025  -0.738   5.865  1.00  0.00    -0.354 N 
ATOM     42  C   UNL     1       9.821   2.622   7.928  1.00  0.00     0.074 A 
ATOM     43  C   UNL     1       8.855   3.686   8.107  1.00  0.00     0.031 C 
ATOM     44  C   UNL     1       6.382  -1.863   4.850  1.00  0.00     0.029 A 
ATOM     45  C   UNL     1       7.804  -1.912   5.186  1.00  0.00     0.049 A 
ATOM     46  H   UNL     1       8.889  -0.508   6.277  1.00  0.00     0.167 HD
ATOM     47  C   UNL     1      11.105   2.667   8.365  1.00  0.00     0.034 A 
ATOM     48  C   UNL     1       8.658  -2.898   4.844  1.00  0.00     0.034 A 
ATOM     49  C   UNL     1      12.056   1.599   8.165  1.00  0.00     0.049 A 
ATOM     50  C   UNL     1      10.098  -2.805   5.280  1.00  0.00     0.074 A 
ATOM     51  C   UNL     1      13.367   1.517   8.601  1.00  0.00     0.029 A 
ATOM     52  N   UNL     1      11.805   0.433   7.450  1.00  0.00    -0.354 N 
ATOM     53  N   UNL     1      10.699  -1.848   5.950  1.00  0.00    -0.248 NA
ATOM     54  C   UNL     1      10.972  -3.931   4.926  1.00  0.00     0.031 C 
ATOM     55  C   UNL     1      13.931   0.347   8.079  1.00  0.00     0.029 A 
ATOM     56  C   UNL     1      12.949  -0.350   7.393  1.00  0.00     0.049 A 
ATOM     57  H   UNL     1      10.940   0.197   7.043  1.00  0.00     0.167 HD
ATOM     58  C   UNL     1      12.017  -2.268   6.117  1.00  0.00     0.074 A 
ATOM     59  C   UNL     1      12.117  -3.570   5.488  1.00  0.00     0.031 C 
ATOM     60  C   UNL     1      13.047  -1.637   6.740  1.00  0.00     0.034 A 
BRANCH  47  61
ATOM     61  C   UNL     1      11.561   3.942   9.038  1.00  0.00     0.023 A 
ATOM     62  C   UNL     1      10.968   4.411  10.225  1.00  0.00     0.031 A 
ATOM     63  C   UNL     1      12.563   4.735   8.451  1.00  0.00     0.131 A 
ATOM     64  C   UNL     1      11.311   5.676  10.728  1.00  0.00     0.055 A 
ATOM     65  C   UNL     1      12.966   5.950   9.009  1.00  0.00     0.041 A 
ATOM     66  F   UNL     1      13.152   4.354   7.306  1.00  0.00    -0.206 F 
ATOM     67  C   UNL     1      12.324   6.437  10.143  1.00  0.00     0.022 A 
BRANCH  64  68
ATOM     68  S   UNL     1      10.286   6.390  12.044  1.00  0.00     0.124 S 
ATOM     69  O   UNL     1       8.953   6.328  11.447  1.00  0.00    -0.237 OA
ATOM     70  O   UNL     1      10.530   5.484  13.160  1.00  0.00    -0.237 OA
ATOM     71  O   UNL     1      10.825   7.739  12.204  1.00  0.00    -0.744 OA
ENDBRANCH  64  68
ENDBRANCH  47  61
BRANCH  48  72
ATOM     72  C   UNL     1       8.180  -4.029   3.999  1.00  0.00     0.023 A 
ATOM     73  C   UNL     1       8.115  -5.341   4.493  1.00  0.00     0.031 A 
ATOM     74  C   UNL     1       7.788  -3.804   2.666  1.00  0.00     0.131 A 
ATOM     75  C   UNL     1       7.691  -6.382   3.651  1.00  0.00     0.055 A 
ATOM     76  C   UNL     1       7.324  -4.835   1.848  1.00  0.00     0.041 A 
ATOM     77  F   UNL     1       7.827  -2.566   2.147  1.00  0.00    -0.206 F 
ATOM     78  C   UNL     1       7.282  -6.135   2.338  1.00  0.00     0.022 A 
BRANCH  75  79
ATOM     79  S   UNL     1       7.727  -8.082   4.282  1.00  0.00     0.124 S 
ATOM     80  O   UNL     1       9.144  -8.259   4.577  1.00  0.00    -0.237 OA
ATOM     81  O   UNL     1       6.836  -7.996   5.434  1.00  0.00    -0.237 OA
ATOM     82  O   UNL     1       7.218  -8.871   3.162  1.00  0.00    -0.744 OA
ENDBRANCH  75  79
ENDBRANCH  48  72
BRANCH  60  83
ATOM     83  C   UNL     1      14.368  -2.369   6.800  1.00  0.00     0.023 A 
ATOM     84  C   UNL     1      15.122  -2.637   5.644  1.00  0.00     0.031 A 
ATOM     85  C   UNL     1      14.877  -2.809   8.035  1.00  0.00     0.131 A 
ATOM     86  C   UNL     1      16.316  -3.370   5.741  1.00  0.00     0.055 A 
ATOM     87  C   UNL     1      16.096  -3.482   8.133  1.00  0.00     0.041 A 
ATOM     88  F   UNL     1      14.198  -2.586   9.172  1.00  0.00    -0.206 F 
ATOM     89  C   UNL     1      16.816  -3.778   6.980  1.00  0.00     0.022 A 
BRANCH  86  90
ATOM     90  S   UNL     1      17.160  -3.870   4.215  1.00  0.00     0.124 S 
ATOM     91  O   UNL     1      16.124  -4.638   3.533  1.00  0.00    -0.237 OA
ATOM     92  O   UNL     1      17.504  -2.586   3.613  1.00  0.00    -0.237 OA
ATOM     93  O   UNL     1      18.298  -4.654   4.693  1.00  0.00    -0.744 OA
ENDBRANCH  86  90
ENDBRANCH  60  83
ENDBRANCH  34  35
ENDBRANCH  27  29
ENDBRANCH  26  27
ENDBRANCH  25  26
ENDBRANCH   1  25
TORSDOF 19
