REMARK SMILES C[C@@H](C(=O)OCCOCCOC(=O)c1ccc(-c2c3nc(c(-c4cc(S(=O)(=O)[O-])ccc4F)c4ccc([nH]4)c(-c4cc(S(=O)(=O)[O-])ccc4F)c4nc(c(-c5cc(S(=O)(=O)[O-])ccc5F)c5ccc2[nH]5)C=C4)C=C3)cc1)c1ccc(C[C@@H]2CCC[C@@H]2O)cc1F
REMARK SMILES IDX 7 1 6 2 5 3 3 4 4 5 2 6 1 7 77 8 78 9 89 10 79 11 88 12
REMARK SMILES IDX 90 13 80 14 81 15 82 16 83 17 86 18 84 19 85 20 87 21 8 23
REMARK SMILES IDX 9 24 10 25 11 26 12 27 13 28 14 29 15 30 76 31 16 32 75 33
REMARK SMILES IDX 17 34 18 35 19 36 69 37 20 38 74 39 68 40 70 41 21 42 73 43
REMARK SMILES IDX 67 44 66 45 22 47 54 48 34 49 53 50 35 51 38 52 52 53 71 54
REMARK SMILES IDX 36 55 37 56 51 58 72 59 39 60 23 61 24 62 32 63 25 64 31 65
REMARK SMILES IDX 33 66 30 67 26 68 27 69 28 70 29 71 55 72 56 73 64 74 57 75
REMARK SMILES IDX 63 76 65 77 62 78 58 79 59 80 60 81 61 82 40 83 41 84 49 85
REMARK SMILES IDX 42 86 48 87 50 88 47 89 43 90 44 91 45 92 46 93
REMARK H PARENT 87 22 70 46 38 57
REMARK Flexibility Score: inf
ROOT
ATOM      1  C   UNL     1      -8.956   1.458  11.051  1.00  0.00     0.202 C 
ENDROOT
BRANCH   1   2
ATOM      2  C   UNL     1      -8.418   2.821  10.602  1.00  0.00     0.261 C 
BRANCH   2   3
ATOM      3  O   UNL     1      -9.264   3.371   9.578  1.00  0.00    -0.463 OA
BRANCH   3   4
ATOM      4  C   UNL     1      -8.629   3.931   8.516  1.00  0.00     0.313 C 
ATOM      5  O   UNL     1      -7.429   4.185   8.482  1.00  0.00    -0.252 OA
BRANCH   4   6
ATOM      6  C   UNL     1      -9.552   4.104   7.306  1.00  0.00     0.129 C 
ATOM      7  C   UNL     1     -11.046   3.909   7.583  1.00  0.00     0.025 C 
BRANCH   6   8
ATOM      8  C   UNL     1      -9.106   3.253   6.124  1.00  0.00     0.002 A 
ATOM      9  C   UNL     1      -8.445   2.026   6.286  1.00  0.00     0.008 A 
ATOM     10  C   UNL     1      -9.334   3.698   4.820  1.00  0.00     0.127 A 
ATOM     11  C   UNL     1      -7.981   1.306   5.184  1.00  0.00     0.004 A 
ATOM     12  C   UNL     1      -8.844   3.002   3.717  1.00  0.00     0.043 A 
ATOM     13  F   UNL     1      -9.996   4.845   4.614  1.00  0.00    -0.207 F 
ATOM     14  C   UNL     1      -8.111   1.821   3.893  1.00  0.00    -0.045 A 
BRANCH  14  15
ATOM     15  C   UNL     1      -7.410   1.167   2.728  1.00  0.00     0.041 C 
BRANCH  15  16
ATOM     16  C   UNL     1      -5.878   1.375   2.621  1.00  0.00     0.022 C 
ATOM     17  C   UNL     1      -5.045   0.709   3.725  1.00  0.00     0.007 C 
ATOM     18  C   UNL     1      -5.363   2.819   2.641  1.00  0.00     0.117 C 
ATOM     19  C   UNL     1      -4.668   1.806   4.726  1.00  0.00     0.003 C 
ATOM     20  C   UNL     1      -5.109   3.131   4.112  1.00  0.00     0.032 C 
BRANCH  18  21
ATOM     21  O   UNL     1      -6.238   3.728   2.004  1.00  0.00    -0.393 OA
ATOM     22  H   UNL     1      -7.100   3.713   2.449  1.00  0.00     0.210 HD
ENDBRANCH  18  21
ENDBRANCH  15  16
ENDBRANCH  14  15
ENDBRANCH   6   8
ENDBRANCH   4   6
ENDBRANCH   3   4
ENDBRANCH   2   3
ENDBRANCH   1   2
BRANCH   1  23
ATOM     23  O   UNL     1      -8.944   0.429  10.056  1.00  0.00    -0.374 OA
BRANCH  23  24
ATOM     24  C   UNL     1      -9.973   0.471   9.068  1.00  0.00     0.202 C 
BRANCH  24  25
ATOM     25  C   UNL     1     -11.357  -0.048   9.465  1.00  0.00     0.261 C 
BRANCH  25  26
ATOM     26  O   UNL     1     -11.973   0.775  10.467  1.00  0.00    -0.460 OA
BRANCH  26  27
ATOM     27  C   UNL     1     -12.040   0.203  11.692  1.00  0.00     0.338 C 
ATOM     28  O   UNL     1     -11.710  -0.941  11.985  1.00  0.00    -0.246 OA
BRANCH  27  29
ATOM     29  C   UNL     1     -12.386   1.213  12.707  1.00  0.00     0.060 A 
ATOM     30  C   UNL     1     -11.591   1.257  13.859  1.00  0.00     0.016 A 
ATOM     31  C   UNL     1     -13.488   2.061  12.571  1.00  0.00     0.016 A 
ATOM     32  C   UNL     1     -11.930   2.105  14.909  1.00  0.00     0.010 A 
ATOM     33  C   UNL     1     -13.833   2.907  13.631  1.00  0.00     0.010 A 
ATOM     34  C   UNL     1     -13.078   2.902  14.819  1.00  0.00    -0.014 A 
BRANCH  34  35
ATOM     35  C   UNL     1     -13.574   3.591  16.035  1.00  0.00     0.031 A 
ATOM     36  C   UNL     1     -14.681   2.948  16.826  1.00  0.00     0.074 A 
ATOM     37  C   UNL     1     -13.011   4.738  16.454  1.00  0.00     0.049 A 
ATOM     38  N   UNL     1     -15.280   3.368  17.909  1.00  0.00    -0.248 NA
ATOM     39  C   UNL     1     -15.178   1.657  16.324  1.00  0.00     0.031 C 
ATOM     40  C   UNL     1     -11.897   5.419  15.796  1.00  0.00     0.029 A 
ATOM     41  N   UNL     1     -13.299   5.530  17.536  1.00  0.00    -0.354 N 
ATOM     42  C   UNL     1     -16.228   2.398  18.218  1.00  0.00     0.074 A 
ATOM     43  C   UNL     1     -16.147   1.387  17.185  1.00  0.00     0.031 C 
ATOM     44  C   UNL     1     -11.599   6.533  16.487  1.00  0.00     0.029 A 
ATOM     45  C   UNL     1     -12.523   6.663  17.612  1.00  0.00     0.049 A 
ATOM     46  H   UNL     1     -13.995   5.309  18.195  1.00  0.00     0.167 HD
ATOM     47  C   UNL     1     -17.081   2.352  19.271  1.00  0.00     0.034 A 
ATOM     48  C   UNL     1     -12.572   7.696  18.478  1.00  0.00     0.034 A 
ATOM     49  C   UNL     1     -17.153   3.373  20.286  1.00  0.00     0.049 A 
ATOM     50  C   UNL     1     -13.592   7.665  19.591  1.00  0.00     0.074 A 
ATOM     51  C   UNL     1     -17.967   3.422  21.404  1.00  0.00     0.029 A 
ATOM     52  N   UNL     1     -16.391   4.535  20.301  1.00  0.00    -0.354 N 
ATOM     53  N   UNL     1     -14.478   6.738  19.878  1.00  0.00    -0.248 NA
ATOM     54  C   UNL     1     -13.613   8.817  20.502  1.00  0.00     0.031 C 
ATOM     55  C   UNL     1     -17.750   4.644  22.052  1.00  0.00     0.029 A 
ATOM     56  C   UNL     1     -16.742   5.323  21.386  1.00  0.00     0.049 A 
ATOM     57  H   UNL     1     -15.701   4.765  19.637  1.00  0.00     0.167 HD
ATOM     58  C   UNL     1     -15.137   7.182  21.022  1.00  0.00     0.074 A 
ATOM     59  C   UNL     1     -14.538   8.452  21.377  1.00  0.00     0.031 C 
ATOM     60  C   UNL     1     -16.141   6.593  21.720  1.00  0.00     0.034 A 
BRANCH  47  61
ATOM     61  C   UNL     1     -18.040   1.187  19.337  1.00  0.00     0.023 A 
ATOM     62  C   UNL     1     -17.594  -0.136  19.505  1.00  0.00     0.031 A 
ATOM     63  C   UNL     1     -19.423   1.403  19.200  1.00  0.00     0.131 A 
ATOM     64  C   UNL     1     -18.514  -1.195  19.465  1.00  0.00     0.055 A 
ATOM     65  C   UNL     1     -20.340   0.352  19.238  1.00  0.00     0.041 A 
ATOM     66  F   UNL     1     -19.906   2.641  19.011  1.00  0.00    -0.206 F 
ATOM     67  C   UNL     1     -19.887  -0.958  19.358  1.00  0.00     0.022 A 
BRANCH  64  68
ATOM     68  S   UNL     1     -17.881  -2.894  19.418  1.00  0.00     0.124 S 
ATOM     69  O   UNL     1     -17.058  -2.869  18.212  1.00  0.00    -0.237 OA
ATOM     70  O   UNL     1     -17.161  -2.998  20.682  1.00  0.00    -0.237 OA
ATOM     71  O   UNL     1     -19.092  -3.708  19.321  1.00  0.00    -0.744 OA
ENDBRANCH  64  68
ENDBRANCH  47  61
BRANCH  48  72
ATOM     72  C   UNL     1     -11.663   8.867  18.313  1.00  0.00     0.023 A 
ATOM     73  C   UNL     1     -10.721   9.201  19.299  1.00  0.00     0.031 A 
ATOM     74  C   UNL     1     -11.767   9.707  17.190  1.00  0.00     0.131 A 
ATOM     75  C   UNL     1      -9.954  10.370  19.166  1.00  0.00     0.055 A 
ATOM     76  C   UNL     1     -10.964  10.838  17.036  1.00  0.00     0.041 A 
ATOM     77  F   UNL     1     -12.652   9.435  16.218  1.00  0.00    -0.206 F 
ATOM     78  C   UNL     1     -10.060  11.183  18.036  1.00  0.00     0.022 A 
BRANCH  75  79
ATOM     79  S   UNL     1      -8.877  10.863  20.540  1.00  0.00     0.124 S 
ATOM     80  O   UNL     1      -9.829  10.969  21.640  1.00  0.00    -0.237 OA
ATOM     81  O   UNL     1      -7.942   9.745  20.606  1.00  0.00    -0.237 OA
ATOM     82  O   UNL     1      -8.303  12.127  20.085  1.00  0.00    -0.744 OA
ENDBRANCH  75  79
ENDBRANCH  48  72
BRANCH  60  83
ATOM     83  C   UNL     1     -16.616   7.299  22.967  1.00  0.00     0.023 A 
ATOM     84  C   UNL     1     -17.284   8.534  22.912  1.00  0.00     0.031 A 
ATOM     85  C   UNL     1     -16.387   6.727  24.232  1.00  0.00     0.131 A 
ATOM     86  C   UNL     1     -17.650   9.185  24.100  1.00  0.00     0.055 A 
ATOM     87  C   UNL     1     -16.809   7.349  25.408  1.00  0.00     0.041 A 
ATOM     88  F   UNL     1     -15.753   5.549  24.345  1.00  0.00    -0.206 F 
ATOM     89  C   UNL     1     -17.432   8.592  25.346  1.00  0.00     0.022 A 
BRANCH  86  90
ATOM     90  S   UNL     1     -18.335  10.861  24.001  1.00  0.00     0.124 S 
ATOM     91  O   UNL     1     -17.266  11.586  23.320  1.00  0.00    -0.237 OA
ATOM     92  O   UNL     1     -19.556  10.655  23.229  1.00  0.00    -0.237 OA
ATOM     93  O   UNL     1     -18.542  11.231  25.400  1.00  0.00    -0.744 OA
ENDBRANCH  86  90
ENDBRANCH  60  83
ENDBRANCH  34  35
ENDBRANCH  27  29
ENDBRANCH  26  27
ENDBRANCH  25  26
ENDBRANCH  24  25
ENDBRANCH  23  24
ENDBRANCH   1  23
TORSDOF 21
