REMARK SMILES C[C@H]1[C@@H](C(=O)OCCOCCOC(=O)c2ccc(-c3c4nc(c(-c5cc(S(=O)(=O)[O-])ccc5F)c5ccc([nH]5)c(-c5cc(S(=O)(=O)[O-])ccc5F)c5nc(c(-c6cc(S(=O)(=O)[O-])ccc6F)c6ccc3[nH]6)C=C5)C=C4)cc2)CC[N@@H+]1Cc1cc(F)c(F)c(F)c1
REMARK SMILES IDX 10 1 9 2 8 3 7 4 6 5 4 6 5 7 3 8 1 9 2 10 80 11 78 12 79 13
REMARK SMILES IDX 81 15 82 16 83 17 90 18 84 19 88 20 85 21 86 22 89 23 87 24
REMARK SMILES IDX 11 25 12 26 13 27 14 28 15 29 16 30 77 31 17 32 76 33 18 34
REMARK SMILES IDX 19 35 20 36 70 37 21 38 75 39 69 40 71 41 22 42 74 43 68 44
REMARK SMILES IDX 67 45 23 47 55 48 35 49 54 50 36 51 39 52 53 53 72 54 37 55
REMARK SMILES IDX 38 56 52 58 73 59 40 60 24 61 25 62 33 63 26 64 32 65 34 66
REMARK SMILES IDX 31 67 27 68 28 69 29 70 30 71 56 72 57 73 65 74 58 75 64 76
REMARK SMILES IDX 66 77 63 78 59 79 60 80 61 81 62 82 41 83 42 84 50 85 43 86
REMARK SMILES IDX 49 87 51 88 48 89 44 90 45 91 46 92 47 93
REMARK H PARENT 80 14 71 46 39 57
REMARK Flexibility Score: inf
ROOT
ATOM      1  C   UNL     1      -0.460   1.072  -3.380  1.00  0.00     0.202 C 
ENDROOT
BRANCH   1   2
ATOM      2  O   UNL     1       0.132   2.202  -4.018  1.00  0.00    -0.374 OA
BRANCH   2   3
ATOM      3  C   UNL     1       1.492   2.479  -3.662  1.00  0.00     0.202 C 
BRANCH   3   4
ATOM      4  C   UNL     1       1.664   3.221  -2.332  1.00  0.00     0.261 C 
BRANCH   4   5
ATOM      5  O   UNL     1       1.423   2.308  -1.240  1.00  0.00    -0.463 OA
BRANCH   5   6
ATOM      6  C   UNL     1       0.453   2.629  -0.360  1.00  0.00     0.315 C 
ATOM      7  O   UNL     1      -0.113   3.718  -0.324  1.00  0.00    -0.252 OA
BRANCH   6   8
ATOM      8  C   UNL     1      -0.004   1.474   0.520  1.00  0.00     0.162 C 
ATOM      9  C   UNL     1       1.969  -0.146  -0.190  1.00  0.00     0.076 C 
ATOM     10  C   UNL     1       0.800   0.175   0.738  1.00  0.00     0.195 C 
ATOM     11  N   UNL     1      -0.172  -0.931   0.613  1.00  0.00    -0.328 N 
ATOM     12  C   UNL     1      -1.398   1.024   0.064  1.00  0.00     0.083 C 
ATOM     13  C   UNL     1      -1.282  -0.464  -0.200  1.00  0.00     0.263 C 
ATOM     14  H   UNL     1       0.293  -1.702   0.132  1.00  0.00     0.348 HD
BRANCH  11  15
ATOM     15  C   UNL     1      -0.527  -1.650   1.836  1.00  0.00     0.299 C 
BRANCH  15  16
ATOM     16  C   UNL     1      -1.258  -0.864   2.902  1.00  0.00     0.012 A 
ATOM     17  C   UNL     1      -0.573  -0.389   4.031  1.00  0.00     0.052 A 
ATOM     18  C   UNL     1      -2.629  -0.580   2.784  1.00  0.00     0.052 A 
ATOM     19  C   UNL     1      -1.238   0.385   4.981  1.00  0.00     0.162 A 
ATOM     20  C   UNL     1      -3.269   0.225   3.723  1.00  0.00     0.162 A 
ATOM     21  F   UNL     1      -0.565   0.821   6.055  1.00  0.00    -0.204 F 
ATOM     22  C   UNL     1      -2.578   0.711   4.821  1.00  0.00     0.194 A 
ATOM     23  F   UNL     1      -4.560   0.535   3.544  1.00  0.00    -0.204 F 
ATOM     24  F   UNL     1      -3.199   1.485   5.721  1.00  0.00    -0.200 F 
ENDBRANCH  15  16
ENDBRANCH  11  15
ENDBRANCH   6   8
ENDBRANCH   5   6
ENDBRANCH   4   5
ENDBRANCH   3   4
ENDBRANCH   2   3
ENDBRANCH   1   2
BRANCH   1  25
ATOM     25  C   UNL     1      -0.287  -0.271  -4.093  1.00  0.00     0.261 C 
BRANCH  25  26
ATOM     26  O   UNL     1       1.087  -0.682  -4.078  1.00  0.00    -0.460 OA
BRANCH  26  27
ATOM     27  C   UNL     1       1.736  -0.440  -5.239  1.00  0.00     0.338 C 
ATOM     28  O   UNL     1       1.236  -0.044  -6.284  1.00  0.00    -0.246 OA
BRANCH  27  29
ATOM     29  C   UNL     1       3.194  -0.533  -5.043  1.00  0.00     0.060 A 
ATOM     30  C   UNL     1       3.970   0.417  -5.715  1.00  0.00     0.016 A 
ATOM     31  C   UNL     1       3.800  -1.540  -4.285  1.00  0.00     0.016 A 
ATOM     32  C   UNL     1       5.352   0.300  -5.727  1.00  0.00     0.010 A 
ATOM     33  C   UNL     1       5.195  -1.651  -4.290  1.00  0.00     0.010 A 
ATOM     34  C   UNL     1       5.968  -0.770  -5.065  1.00  0.00    -0.014 A 
BRANCH  34  35
ATOM     35  C   UNL     1       7.388  -1.054  -5.386  1.00  0.00     0.031 A 
ATOM     36  C   UNL     1       7.698  -2.154  -6.368  1.00  0.00     0.074 A 
ATOM     37  C   UNL     1       8.365  -0.263  -4.910  1.00  0.00     0.049 A 
ATOM     38  N   UNL     1       8.846  -2.515  -6.878  1.00  0.00    -0.248 NA
ATOM     39  C   UNL     1       6.555  -2.953  -6.840  1.00  0.00     0.031 C 
ATOM     40  C   UNL     1       8.167   0.859  -3.991  1.00  0.00     0.029 A 
ATOM     41  N   UNL     1       9.714  -0.265  -5.152  1.00  0.00    -0.354 N 
ATOM     42  C   UNL     1       8.565  -3.578  -7.731  1.00  0.00     0.074 A 
ATOM     43  C   UNL     1       7.146  -3.838  -7.625  1.00  0.00     0.031 C 
ATOM     44  C   UNL     1       9.352   1.448  -3.761  1.00  0.00     0.029 A 
ATOM     45  C   UNL     1      10.395   0.729  -4.489  1.00  0.00     0.049 A 
ATOM     46  H   UNL     1      10.154  -0.916  -5.745  1.00  0.00     0.167 HD
ATOM     47  C   UNL     1       9.410  -4.261  -8.541  1.00  0.00     0.034 A 
ATOM     48  C   UNL     1      11.711   1.018  -4.470  1.00  0.00     0.034 A 
ATOM     49  C   UNL     1      10.824  -3.989  -8.626  1.00  0.00     0.049 A 
ATOM     50  C   UNL     1      12.644   0.197  -5.327  1.00  0.00     0.074 A 
ATOM     51  C   UNL     1      11.779  -4.612  -9.410  1.00  0.00     0.029 A 
ATOM     52  N   UNL     1      11.491  -3.016  -7.890  1.00  0.00    -0.354 N 
ATOM     53  N   UNL     1      12.364  -0.800  -6.137  1.00  0.00    -0.248 NA
ATOM     54  C   UNL     1      14.067   0.553  -5.281  1.00  0.00     0.031 C 
ATOM     55  C   UNL     1      13.029  -4.071  -9.092  1.00  0.00     0.029 A 
ATOM     56  C   UNL     1      12.847  -3.045  -8.177  1.00  0.00     0.049 A 
ATOM     57  H   UNL     1      11.062  -2.395  -7.257  1.00  0.00     0.167 HD
ATOM     58  C   UNL     1      13.575  -1.166  -6.721  1.00  0.00     0.074 A 
ATOM     59  C   UNL     1      14.578  -0.267  -6.186  1.00  0.00     0.031 C 
ATOM     60  C   UNL     1      13.836  -2.151  -7.620  1.00  0.00     0.034 A 
BRANCH  47  61
ATOM     61  C   UNL     1       8.829  -5.399  -9.351  1.00  0.00     0.023 A 
ATOM     62  C   UNL     1       7.844  -5.188 -10.332  1.00  0.00     0.031 A 
ATOM     63  C   UNL     1       9.241  -6.721  -9.109  1.00  0.00     0.131 A 
ATOM     64  C   UNL     1       7.253  -6.285 -10.980  1.00  0.00     0.055 A 
ATOM     65  C   UNL     1       8.709  -7.801  -9.816  1.00  0.00     0.041 A 
ATOM     66  F   UNL     1      10.157  -6.990  -8.165  1.00  0.00    -0.206 F 
ATOM     67  C   UNL     1       7.698  -7.588 -10.748  1.00  0.00     0.022 A 
BRANCH  64  68
ATOM     68  S   UNL     1       5.790  -6.000 -12.015  1.00  0.00     0.124 S 
ATOM     69  O   UNL     1       4.870  -5.385 -11.061  1.00  0.00    -0.237 OA
ATOM     70  O   UNL     1       6.309  -5.124 -13.059  1.00  0.00    -0.237 OA
ATOM     71  O   UNL     1       5.414  -7.342 -12.455  1.00  0.00    -0.744 OA
ENDBRANCH  64  68
ENDBRANCH  47  61
BRANCH  48  72
ATOM     72  C   UNL     1      12.233   2.112  -3.600  1.00  0.00     0.023 A 
ATOM     73  C   UNL     1      12.881   3.233  -4.141  1.00  0.00     0.031 A 
ATOM     74  C   UNL     1      12.135   2.021  -2.199  1.00  0.00     0.131 A 
ATOM     75  C   UNL     1      13.449   4.193  -3.288  1.00  0.00     0.055 A 
ATOM     76  C   UNL     1      12.651   3.007  -1.356  1.00  0.00     0.041 A 
ATOM     77  F   UNL     1      11.527   0.970  -1.627  1.00  0.00    -0.206 F 
ATOM     78  C   UNL     1      13.326   4.094  -1.900  1.00  0.00     0.022 A 
BRANCH  75  79
ATOM     79  S   UNL     1      14.437   5.529  -4.016  1.00  0.00     0.124 S 
ATOM     80  O   UNL     1      15.456   4.781  -4.744  1.00  0.00    -0.237 OA
ATOM     81  O   UNL     1      13.447   6.226  -4.831  1.00  0.00    -0.237 OA
ATOM     82  O   UNL     1      14.917   6.270  -2.852  1.00  0.00    -0.744 OA
ENDBRANCH  75  79
ENDBRANCH  48  72
BRANCH  60  83
ATOM     83  C   UNL     1      15.262  -2.269  -8.108  1.00  0.00     0.023 A 
ATOM     84  C   UNL     1      16.317  -2.603  -7.240  1.00  0.00     0.031 A 
ATOM     85  C   UNL     1      15.574  -2.010  -9.455  1.00  0.00     0.131 A 
ATOM     86  C   UNL     1      17.639  -2.590  -7.708  1.00  0.00     0.055 A 
ATOM     87  C   UNL     1      16.884  -2.075  -9.932  1.00  0.00     0.041 A 
ATOM     88  F   UNL     1      14.609  -1.685 -10.330  1.00  0.00    -0.206 F 
ATOM     89  C   UNL     1      17.927  -2.347  -9.053  1.00  0.00     0.022 A 
BRANCH  86  90
ATOM     90  S   UNL     1      18.987  -2.765  -6.507  1.00  0.00     0.124 S 
ATOM     91  O   UNL     1      18.701  -1.682  -5.572  1.00  0.00    -0.237 OA
ATOM     92  O   UNL     1      18.779  -4.117  -6.000  1.00  0.00    -0.237 OA
ATOM     93  O   UNL     1      20.191  -2.584  -7.315  1.00  0.00    -0.744 OA
ENDBRANCH  86  90
ENDBRANCH  60  83
ENDBRANCH  34  35
ENDBRANCH  27  29
ENDBRANCH  26  27
ENDBRANCH  25  26
ENDBRANCH   1  25
TORSDOF 19
