REMARK SMILES CC(C)[NH2+][C@@]1(C(=O)OCCOCCOC(=O)c2ccc(-c3c4nc(c(-c5cc(S(=O)(=O)[O-])ccc5F)c5ccc([nH]5)c(-c5cc(S(=O)(=O)[O-])ccc5F)c5nc(c(-c6cc(S(=O)(=O)[O-])ccc6F)c6ccc3[nH]6)C=C5)C=C4)cc2)CCC[C@@H]1CCOC1CCOCC1
REMARK SMILES IDX 10 1 9 2 8 3 6 4 7 5 5 6 80 7 83 8 81 9 82 10 4 11 2 14 1 15
REMARK SMILES IDX 3 16 84 17 85 18 86 19 87 20 88 21 92 22 89 23 91 24 90 25
REMARK SMILES IDX 11 26 12 27 13 28 14 29 15 30 16 31 17 32 18 33 79 34 19 35
REMARK SMILES IDX 78 36 20 37 21 38 22 39 72 40 23 41 77 42 71 43 73 44 24 45
REMARK SMILES IDX 76 46 70 47 69 48 25 50 57 51 37 52 56 53 38 54 41 55 55 56
REMARK SMILES IDX 74 57 39 58 40 59 54 61 75 62 42 63 26 64 27 65 35 66 28 67
REMARK SMILES IDX 34 68 36 69 33 70 29 71 30 72 31 73 32 74 58 75 59 76 67 77
REMARK SMILES IDX 60 78 66 79 68 80 65 81 61 82 62 83 63 84 64 85 43 86 44 87
REMARK SMILES IDX 52 88 45 89 51 90 53 91 50 92 46 93 47 94 48 95 49 96
REMARK H PARENT 4 12 4 13 73 49 41 60
REMARK Flexibility Score: inf
ROOT
ATOM      1  C   UNL     1       0.908  -1.357   5.965  1.00  0.00     0.202 C 
ENDROOT
BRANCH   1   2
ATOM      2  C   UNL     1       0.864   0.163   5.838  1.00  0.00     0.261 C 
BRANCH   2   3
ATOM      3  O   UNL     1      -0.145   0.581   4.909  1.00  0.00    -0.459 OA
BRANCH   3   4
ATOM      4  C   UNL     1       0.316   1.257   3.828  1.00  0.00     0.368 C 
ATOM      5  O   UNL     1       1.497   1.563   3.680  1.00  0.00    -0.245 OA
BRANCH   4   6
ATOM      6  C   UNL     1      -0.807   1.670   2.808  1.00  0.00     0.197 C 
ATOM      7  C   UNL     1      -0.714   3.215   2.736  1.00  0.00     0.081 C 
ATOM      8  C   UNL     1      -2.315   1.597   3.295  1.00  0.00     0.065 C 
ATOM      9  C   UNL     1      -1.359   3.688   4.046  1.00  0.00     0.008 C 
ATOM     10  C   UNL     1      -2.270   2.546   4.506  1.00  0.00     0.011 C 
BRANCH   6  11
ATOM     11  N   UNL     1      -0.636   0.999   1.488  1.00  0.00    -0.330 N 
ATOM     12  H   UNL     1      -1.095   0.090   1.549  1.00  0.00     0.347 HD
ATOM     13  H   UNL     1      -1.036   1.655   0.817  1.00  0.00     0.347 HD
BRANCH  11  14
ATOM     14  C   UNL     1       0.738   0.765   0.997  1.00  0.00     0.176 C 
ATOM     15  C   UNL     1       0.665  -0.086  -0.278  1.00  0.00     0.075 C 
ATOM     16  C   UNL     1       1.532   2.033   0.665  1.00  0.00     0.075 C 
ENDBRANCH  11  14
ENDBRANCH   6  11
BRANCH   8  17
ATOM     17  C   UNL     1      -2.976   0.212   3.472  1.00  0.00     0.039 C 
BRANCH  17  18
ATOM     18  C   UNL     1      -4.459   0.092   3.916  1.00  0.00     0.161 C 
BRANCH  18  19
ATOM     19  O   UNL     1      -5.515   0.328   2.968  1.00  0.00    -0.378 OA
BRANCH  19  20
ATOM     20  C   UNL     1      -5.601   1.615   2.375  1.00  0.00     0.122 C 
ATOM     21  C   UNL     1      -5.544   2.764   3.367  1.00  0.00     0.060 C 
ATOM     22  C   UNL     1      -6.920   1.837   1.623  1.00  0.00     0.060 C 
ATOM     23  C   UNL     1      -5.322   4.023   2.563  1.00  0.00     0.163 C 
ATOM     24  C   UNL     1      -6.896   3.219   0.950  1.00  0.00     0.163 C 
ATOM     25  O   UNL     1      -6.510   4.289   1.821  1.00  0.00    -0.381 OA
ENDBRANCH  19  20
ENDBRANCH  18  19
ENDBRANCH  17  18
ENDBRANCH   8  17
ENDBRANCH   4   6
ENDBRANCH   3   4
ENDBRANCH   2   3
ENDBRANCH   1   2
BRANCH   1  26
ATOM     26  O   UNL     1       0.942  -2.105   4.754  1.00  0.00    -0.374 OA
BRANCH  26  27
ATOM     27  C   UNL     1      -0.272  -2.210   4.002  1.00  0.00     0.202 C 
BRANCH  27  28
ATOM     28  C   UNL     1      -1.454  -2.943   4.659  1.00  0.00     0.261 C 
BRANCH  28  29
ATOM     29  O   UNL     1      -2.033  -2.205   5.759  1.00  0.00    -0.460 OA
BRANCH  29  30
ATOM     30  C   UNL     1      -1.984  -2.839   6.959  1.00  0.00     0.338 C 
ATOM     31  O   UNL     1      -1.588  -3.972   7.165  1.00  0.00    -0.246 OA
BRANCH  30  32
ATOM     32  C   UNL     1      -2.242  -1.885   8.060  1.00  0.00     0.060 A 
ATOM     33  C   UNL     1      -1.238  -1.753   9.027  1.00  0.00     0.016 A 
ATOM     34  C   UNL     1      -3.464  -1.227   8.219  1.00  0.00     0.016 A 
ATOM     35  C   UNL     1      -1.475  -1.030  10.191  1.00  0.00     0.010 A 
ATOM     36  C   UNL     1      -3.703  -0.502   9.399  1.00  0.00     0.010 A 
ATOM     37  C   UNL     1      -2.728  -0.446  10.414  1.00  0.00    -0.014 A 
BRANCH  37  38
ATOM     38  C   UNL     1      -3.041   0.027  11.791  1.00  0.00     0.031 A 
ATOM     39  C   UNL     1      -3.878  -0.849  12.692  1.00  0.00     0.074 A 
ATOM     40  C   UNL     1      -2.479   1.148  12.282  1.00  0.00     0.049 A 
ATOM     41  N   UNL     1      -4.194  -0.686  13.951  1.00  0.00    -0.248 NA
ATOM     42  C   UNL     1      -4.426  -2.073  12.089  1.00  0.00     0.031 C 
ATOM     43  C   UNL     1      -1.603   2.047  11.533  1.00  0.00     0.029 A 
ATOM     44  N   UNL     1      -2.543   1.708  13.535  1.00  0.00    -0.354 N 
ATOM     45  C   UNL     1      -4.974  -1.788  14.294  1.00  0.00     0.074 A 
ATOM     46  C   UNL     1      -5.123  -2.582  13.093  1.00  0.00     0.031 C 
ATOM     47  C   UNL     1      -1.198   3.039  12.346  1.00  0.00     0.029 A 
ATOM     48  C   UNL     1      -1.813   2.868  13.661  1.00  0.00     0.049 A 
ATOM     49  H   UNL     1      -3.062   1.316  14.274  1.00  0.00     0.167 HD
ATOM     50  C   UNL     1      -5.504  -2.116  15.499  1.00  0.00     0.034 A 
ATOM     51  C   UNL     1      -1.667   3.703  14.711  1.00  0.00     0.034 A 
ATOM     52  C   UNL     1      -5.354  -1.313  16.689  1.00  0.00     0.049 A 
ATOM     53  C   UNL     1      -2.342   3.363  16.019  1.00  0.00     0.074 A 
ATOM     54  C   UNL     1      -5.844  -1.559  17.960  1.00  0.00     0.029 A 
ATOM     55  N   UNL     1      -4.675  -0.103  16.756  1.00  0.00    -0.354 N 
ATOM     56  N   UNL     1      -3.072   2.315  16.328  1.00  0.00    -0.248 NA
ATOM     57  C   UNL     1      -2.159   4.313  17.124  1.00  0.00     0.031 C 
ATOM     58  C   UNL     1      -5.536  -0.461  18.771  1.00  0.00     0.029 A 
ATOM     59  C   UNL     1      -4.768   0.427  18.036  1.00  0.00     0.049 A 
ATOM     60  H   UNL     1      -4.196   0.317  16.006  1.00  0.00     0.167 HD
ATOM     61  C   UNL     1      -3.404   2.466  17.673  1.00  0.00     0.074 A 
ATOM     62  C   UNL     1      -2.778   3.694  18.118  1.00  0.00     0.031 C 
ATOM     63  C   UNL     1      -4.155   1.661  18.470  1.00  0.00     0.034 A 
BRANCH  50  64
ATOM     64  C   UNL     1      -6.344  -3.371  15.571  1.00  0.00     0.023 A 
ATOM     65  C   UNL     1      -5.804  -4.646  15.323  1.00  0.00     0.031 A 
ATOM     66  C   UNL     1      -7.715  -3.287  15.871  1.00  0.00     0.131 A 
ATOM     67  C   UNL     1      -6.644  -5.772  15.310  1.00  0.00     0.055 A 
ATOM     68  C   UNL     1      -8.527  -4.420  15.941  1.00  0.00     0.041 A 
ATOM     69  F   UNL     1      -8.294  -2.096  16.093  1.00  0.00    -0.206 F 
ATOM     70  C   UNL     1      -7.996  -5.671  15.645  1.00  0.00     0.022 A 
BRANCH  67  71
ATOM     71  S   UNL     1      -5.977  -7.346  14.703  1.00  0.00     0.124 S 
ATOM     72  O   UNL     1      -5.532  -6.980  13.361  1.00  0.00    -0.237 OA
ATOM     73  O   UNL     1      -4.924  -7.636  15.670  1.00  0.00    -0.237 OA
ATOM     74  O   UNL     1      -7.129  -8.245  14.745  1.00  0.00    -0.744 OA
ENDBRANCH  67  71
ENDBRANCH  50  64
BRANCH  51  75
ATOM     75  C   UNL     1      -0.881   4.965  14.570  1.00  0.00     0.023 A 
ATOM     76  C   UNL     1       0.260   5.212  15.349  1.00  0.00     0.031 A 
ATOM     77  C   UNL     1      -1.309   5.979  13.693  1.00  0.00     0.131 A 
ATOM     78  C   UNL     1       0.904   6.458  15.273  1.00  0.00     0.055 A 
ATOM     79  C   UNL     1      -0.630   7.192  13.576  1.00  0.00     0.041 A 
ATOM     80  F   UNL     1      -2.399   5.801  12.929  1.00  0.00    -0.206 F 
ATOM     81  C   UNL     1       0.476   7.443  14.380  1.00  0.00     0.022 A 
BRANCH  78  82
ATOM     82  S   UNL     1       2.254   6.814  16.433  1.00  0.00     0.124 S 
ATOM     83  O   UNL     1       1.593   6.636  17.720  1.00  0.00    -0.237 OA
ATOM     84  O   UNL     1       3.239   5.800  16.070  1.00  0.00    -0.237 OA
ATOM     85  O   UNL     1       2.628   8.188  16.106  1.00  0.00    -0.744 OA
ENDBRANCH  78  82
ENDBRANCH  51  75
BRANCH  63  86
ATOM     86  C   UNL     1      -4.297   2.064  19.922  1.00  0.00     0.023 A 
ATOM     87  C   UNL     1      -4.938   3.256  20.304  1.00  0.00     0.031 A 
ATOM     88  C   UNL     1      -3.755   1.255  20.938  1.00  0.00     0.131 A 
ATOM     89  C   UNL     1      -4.953   3.642  21.654  1.00  0.00     0.055 A 
ATOM     90  C   UNL     1      -3.841   1.607  22.286  1.00  0.00     0.041 A 
ATOM     91  F   UNL     1      -3.127   0.107  20.637  1.00  0.00    -0.206 F 
ATOM     92  C   UNL     1      -4.426   2.816  22.649  1.00  0.00     0.022 A 
BRANCH  89  93
ATOM     93  S   UNL     1      -5.557   5.300  22.078  1.00  0.00     0.124 S 
ATOM     94  O   UNL     1      -4.705   6.152  21.254  1.00  0.00    -0.237 OA
ATOM     95  O   UNL     1      -6.960   5.231  21.685  1.00  0.00    -0.237 OA
ATOM     96  O   UNL     1      -5.320   5.393  23.517  1.00  0.00    -0.744 OA
ENDBRANCH  89  93
ENDBRANCH  63  86
ENDBRANCH  37  38
ENDBRANCH  30  32
ENDBRANCH  29  30
ENDBRANCH  28  29
ENDBRANCH  27  28
ENDBRANCH  26  27
ENDBRANCH   1  26
TORSDOF 23
