REMARK SMILES [NH3+][C@@]1(C(=O)OCCOCCOC(=O)c2ccc(-c3c4nc(c(-c5cc(S(=O)(=O)[O-])ccc5F)c5ccc([nH]5)c(-c5cc(S(=O)(=O)[O-])ccc5F)c5nc(c(-c6cc(S(=O)(=O)[O-])ccc6F)c6ccc3[nH]6)C=C5)C=C4)cc2)CC[C@H](Sc2cccs2)C1
REMARK SMILES IDX 9 1 8 2 7 3 6 4 5 5 3 6 4 7 2 8 77 9 86 10 78 11 79 12 1 13
REMARK SMILES IDX 80 17 81 18 82 19 85 20 83 21 84 22 10 23 11 24 12 25 13 26
REMARK SMILES IDX 14 27 15 28 76 29 16 30 75 31 17 32 18 33 19 34 69 35 20 36
REMARK SMILES IDX 74 37 68 38 70 39 21 40 73 41 67 42 66 43 22 45 54 46 34 47
REMARK SMILES IDX 53 48 35 49 38 50 52 51 71 52 36 53 37 54 51 56 72 57 39 58
REMARK SMILES IDX 23 59 24 60 32 61 25 62 31 63 33 64 30 65 26 66 27 67 28 68
REMARK SMILES IDX 29 69 55 70 56 71 64 72 57 73 63 74 65 75 62 76 58 77 59 78
REMARK SMILES IDX 60 79 61 80 40 81 41 82 49 83 42 84 48 85 50 86 47 87 43 88
REMARK SMILES IDX 44 89 45 90 46 91
REMARK H PARENT 1 14 1 15 1 16 70 44 38 55
REMARK Flexibility Score: inf
ROOT
ATOM      1  C   UNL     1      -1.441   2.002   1.973  1.00  0.00     0.202 C 
ENDROOT
BRANCH   1   2
ATOM      2  O   UNL     1      -2.819   1.715   1.754  1.00  0.00    -0.374 OA
BRANCH   2   3
ATOM      3  C   UNL     1      -3.343   0.513   2.323  1.00  0.00     0.202 C 
BRANCH   3   4
ATOM      4  C   UNL     1      -2.997  -0.792   1.601  1.00  0.00     0.261 C 
BRANCH   4   5
ATOM      5  O   UNL     1      -1.589  -1.085   1.674  1.00  0.00    -0.459 OA
BRANCH   5   6
ATOM      6  C   UNL     1      -0.915  -1.075   0.492  1.00  0.00     0.368 C 
ATOM      7  O   UNL     1      -1.442  -0.904  -0.603  1.00  0.00    -0.245 OA
BRANCH   6   8
ATOM      8  C   UNL     1       0.623  -1.287   0.682  1.00  0.00     0.193 C 
ATOM      9  C   UNL     1       0.923  -2.782   0.587  1.00  0.00     0.082 C 
ATOM     10  C   UNL     1       1.187  -0.881   2.060  1.00  0.00     0.095 C 
ATOM     11  C   UNL     1       0.709  -3.277   2.013  1.00  0.00     0.022 C 
ATOM     12  C   UNL     1       1.348  -2.186   2.871  1.00  0.00     0.059 C 
BRANCH   8  13
ATOM     13  N   UNL     1       1.321  -0.560  -0.406  1.00  0.00    -0.343 N 
ATOM     14  H   UNL     1       0.934  -0.843  -1.306  1.00  0.00     0.345 HD
ATOM     15  H   UNL     1       2.316  -0.783  -0.379  1.00  0.00     0.345 HD
ATOM     16  H   UNL     1       1.194   0.444  -0.280  1.00  0.00     0.345 HD
ENDBRANCH   8  13
BRANCH  12  17
ATOM     17  S   UNL     1       0.617  -1.983   4.516  1.00  0.00    -0.112 SA
BRANCH  17  18
ATOM     18  C   UNL     1       0.967  -3.468   5.381  1.00  0.00     0.060 A 
ATOM     19  C   UNL     1       1.744  -4.546   5.009  1.00  0.00     0.027 A 
ATOM     20  S   UNL     1       0.293  -3.704   6.943  1.00  0.00    -0.137 S 
ATOM     21  C   UNL     1       1.729  -5.593   5.981  1.00  0.00     0.013 A 
ATOM     22  C   UNL     1       0.980  -5.260   7.085  1.00  0.00     0.066 A 
ENDBRANCH  17  18
ENDBRANCH  12  17
ENDBRANCH   6   8
ENDBRANCH   5   6
ENDBRANCH   4   5
ENDBRANCH   3   4
ENDBRANCH   2   3
ENDBRANCH   1   2
BRANCH   1  23
ATOM     23  C   UNL     1      -1.035   2.502   3.367  1.00  0.00     0.261 C 
BRANCH  23  24
ATOM     24  O   UNL     1      -1.323   1.558   4.412  1.00  0.00    -0.460 OA
BRANCH  24  25
ATOM     25  C   UNL     1      -2.333   1.936   5.232  1.00  0.00     0.338 C 
ATOM     26  O   UNL     1      -2.933   3.007   5.198  1.00  0.00    -0.246 OA
BRANCH  25  27
ATOM     27  C   UNL     1      -2.780   0.823   6.090  1.00  0.00     0.060 A 
ATOM     28  C   UNL     1      -4.162   0.604   6.166  1.00  0.00     0.016 A 
ATOM     29  C   UNL     1      -1.903   0.081   6.885  1.00  0.00     0.016 A 
ATOM     30  C   UNL     1      -4.678  -0.288   7.099  1.00  0.00     0.010 A 
ATOM     31  C   UNL     1      -2.426  -0.818   7.826  1.00  0.00     0.010 A 
ATOM     32  C   UNL     1      -3.818  -0.961   7.976  1.00  0.00    -0.014 A 
BRANCH  32  33
ATOM     33  C   UNL     1      -4.411  -1.629   9.163  1.00  0.00     0.031 A 
ATOM     34  C   UNL     1      -4.417  -0.896  10.479  1.00  0.00     0.074 A 
ATOM     35  C   UNL     1      -5.021  -2.822   9.054  1.00  0.00     0.049 A 
ATOM     36  N   UNL     1      -4.959  -1.234  11.621  1.00  0.00    -0.248 NA
ATOM     37  C   UNL     1      -3.711   0.393  10.506  1.00  0.00     0.031 C 
ATOM     38  C   UNL     1      -5.099  -3.620   7.832  1.00  0.00     0.029 A 
ATOM     39  N   UNL     1      -5.697  -3.566   9.988  1.00  0.00    -0.354 N 
ATOM     40  C   UNL     1      -4.665  -0.197  12.501  1.00  0.00     0.074 A 
ATOM     41  C   UNL     1      -3.848   0.750  11.772  1.00  0.00     0.031 C 
ATOM     42  C   UNL     1      -5.780  -4.748   8.093  1.00  0.00     0.029 A 
ATOM     43  C   UNL     1      -6.171  -4.761   9.502  1.00  0.00     0.049 A 
ATOM     44  H   UNL     1      -5.829  -3.272  10.918  1.00  0.00     0.167 HD
ATOM     45  C   UNL     1      -5.055  -0.037  13.791  1.00  0.00     0.034 A 
ATOM     46  C   UNL     1      -6.835  -5.755  10.125  1.00  0.00     0.034 A 
ATOM     47  C   UNL     1      -5.853  -1.001  14.512  1.00  0.00     0.049 A 
ATOM     48  C   UNL     1      -7.219  -5.588  11.574  1.00  0.00     0.074 A 
ATOM     49  C   UNL     1      -6.318  -0.939  15.814  1.00  0.00     0.029 A 
ATOM     50  N   UNL     1      -6.289  -2.216  13.995  1.00  0.00    -0.354 N 
ATOM     51  N   UNL     1      -6.967  -4.587  12.387  1.00  0.00    -0.248 NA
ATOM     52  C   UNL     1      -7.997  -6.675  12.181  1.00  0.00     0.031 C 
ATOM     53  C   UNL     1      -6.971  -2.143  16.106  1.00  0.00     0.029 A 
ATOM     54  C   UNL     1      -6.987  -2.926  14.962  1.00  0.00     0.049 A 
ATOM     55  H   UNL     1      -6.127  -2.528  13.075  1.00  0.00     0.167 HD
ATOM     56  C   UNL     1      -7.575  -4.917  13.596  1.00  0.00     0.074 A 
ATOM     57  C   UNL     1      -8.220  -6.199  13.397  1.00  0.00     0.031 C 
ATOM     58  C   UNL     1      -7.604  -4.219  14.762  1.00  0.00     0.034 A 
BRANCH  45  59
ATOM     59  C   UNL     1      -4.564   1.202  14.506  1.00  0.00     0.023 A 
ATOM     60  C   UNL     1      -4.907   2.495  14.068  1.00  0.00     0.031 A 
ATOM     61  C   UNL     1      -3.680   1.093  15.594  1.00  0.00     0.131 A 
ATOM     62  C   UNL     1      -4.294   3.618  14.647  1.00  0.00     0.055 A 
ATOM     63  C   UNL     1      -3.143   2.217  16.224  1.00  0.00     0.041 A 
ATOM     64  F   UNL     1      -3.297  -0.112  16.046  1.00  0.00    -0.206 F 
ATOM     65  C   UNL     1      -3.432   3.489  15.738  1.00  0.00     0.022 A 
BRANCH  62  66
ATOM     66  S   UNL     1      -4.491   5.229  13.834  1.00  0.00     0.124 S 
ATOM     67  O   UNL     1      -4.026   4.937  12.480  1.00  0.00    -0.237 OA
ATOM     68  O   UNL     1      -5.920   5.482  13.980  1.00  0.00    -0.237 OA
ATOM     69  O   UNL     1      -3.618   6.111  14.606  1.00  0.00    -0.744 OA
ENDBRANCH  62  66
ENDBRANCH  45  59
BRANCH  46  70
ATOM     70  C   UNL     1      -7.145  -7.012   9.388  1.00  0.00     0.023 A 
ATOM     71  C   UNL     1      -8.463  -7.384   9.080  1.00  0.00     0.031 A 
ATOM     72  C   UNL     1      -6.105  -7.873   8.993  1.00  0.00     0.131 A 
ATOM     73  C   UNL     1      -8.708  -8.600   8.421  1.00  0.00     0.055 A 
ATOM     74  C   UNL     1      -6.351  -9.059   8.300  1.00  0.00     0.041 A 
ATOM     75  F   UNL     1      -4.827  -7.561   9.261  1.00  0.00    -0.206 F 
ATOM     76  C   UNL     1      -7.660  -9.432   8.018  1.00  0.00     0.022 A 
BRANCH  73  77
ATOM     77  S   UNL     1     -10.426  -9.106   8.132  1.00  0.00     0.124 S 
ATOM     78  O   UNL     1     -10.938  -9.211   9.493  1.00  0.00    -0.237 OA
ATOM     79  O   UNL     1     -10.940  -7.997   7.335  1.00  0.00    -0.237 OA
ATOM     80  O   UNL     1     -10.291 -10.373   7.415  1.00  0.00    -0.744 OA
ENDBRANCH  73  77
ENDBRANCH  46  70
BRANCH  58  81
ATOM     81  C   UNL     1      -8.389  -4.823  15.904  1.00  0.00     0.023 A 
ATOM     82  C   UNL     1      -7.995  -6.024  16.522  1.00  0.00     0.031 A 
ATOM     83  C   UNL     1      -9.561  -4.198  16.366  1.00  0.00     0.131 A 
ATOM     84  C   UNL     1      -8.798  -6.593  17.523  1.00  0.00     0.055 A 
ATOM     85  C   UNL     1     -10.323  -4.737  17.404  1.00  0.00     0.041 A 
ATOM     86  F   UNL     1      -9.988  -3.051  15.813  1.00  0.00    -0.206 F 
ATOM     87  C   UNL     1      -9.951  -5.949  17.979  1.00  0.00     0.022 A 
BRANCH  84  88
ATOM     88  S   UNL     1      -8.376  -8.243  18.148  1.00  0.00     0.124 S 
ATOM     89  O   UNL     1      -8.352  -9.035  16.923  1.00  0.00    -0.237 OA
ATOM     90  O   UNL     1      -7.083  -8.013  18.785  1.00  0.00    -0.237 OA
ATOM     91  O   UNL     1      -9.471  -8.553  19.065  1.00  0.00    -0.744 OA
ENDBRANCH  84  88
ENDBRANCH  58  81
ENDBRANCH  32  33
ENDBRANCH  25  27
ENDBRANCH  24  25
ENDBRANCH  23  24
ENDBRANCH   1  23
TORSDOF 20
