REMARK SMILES C=CCCC[C@]1(C(=O)OCCOCCOC(=O)c2ccc(-c3c4nc(c(-c5cc(S(=O)(=O)[O-])ccc5F)c5ccc([nH]5)c(-c5cc(S(=O)(=O)[O-])ccc5F)c5nc(c(-c6cc(S(=O)(=O)[O-])ccc6F)c6ccc3[nH]6)C=C5)C=C4)cc2)CCCN(C(=O)OC(C)(C)C)C1
REMARK SMILES IDX 11 1 10 2 9 3 7 4 8 5 6 6 81 7 92 8 82 9 84 10 83 11 5 12
REMARK SMILES IDX 4 13 3 14 2 15 1 16 85 17 86 18 87 19 88 20 89 21 90 22
REMARK SMILES IDX 91 23 12 24 13 25 14 26 15 27 16 28 17 29 18 30 19 31 80 32
REMARK SMILES IDX 20 33 79 34 21 35 22 36 23 37 73 38 24 39 78 40 72 41 74 42
REMARK SMILES IDX 25 43 77 44 71 45 70 46 26 48 58 49 38 50 57 51 39 52 42 53
REMARK SMILES IDX 56 54 75 55 40 56 41 57 55 59 76 60 43 61 27 62 28 63 36 64
REMARK SMILES IDX 29 65 35 66 37 67 34 68 30 69 31 70 32 71 33 72 59 73 60 74
REMARK SMILES IDX 68 75 61 76 67 77 69 78 66 79 62 80 63 81 64 82 65 83 44 84
REMARK SMILES IDX 45 85 53 86 46 87 52 88 54 89 51 90 47 91 48 92 49 93 50 94
REMARK H PARENT 74 47 42 58
REMARK Flexibility Score: inf
ROOT
ATOM      1  C   UNL     1       0.344  -0.800   1.992  1.00  0.00     0.202 C 
ENDROOT
BRANCH   1   2
ATOM      2  C   UNL     1      -1.039  -0.957   2.694  1.00  0.00     0.261 C 
BRANCH   2   3
ATOM      3  O   UNL     1      -1.199   0.061   3.721  1.00  0.00    -0.463 OA
BRANCH   3   4
ATOM      4  C   UNL     1      -2.373   0.733   4.017  1.00  0.00     0.313 C 
ATOM      5  O   UNL     1      -3.490   0.251   3.958  1.00  0.00    -0.252 OA
BRANCH   4   6
ATOM      6  C   UNL     1      -1.995   2.237   4.145  1.00  0.00     0.086 C 
ATOM      7  C   UNL     1      -1.730   2.443   2.568  1.00  0.00     0.022 C 
ATOM      8  C   UNL     1      -2.961   3.449   4.413  1.00  0.00     0.141 C 
ATOM      9  C   UNL     1      -1.287   3.787   2.018  1.00  0.00     0.023 C 
ATOM     10  N   UNL     1      -2.259   4.727   3.980  1.00  0.00    -0.307 N 
ATOM     11  C   UNL     1      -2.176   4.891   2.542  1.00  0.00     0.123 C 
BRANCH   6  12
ATOM     12  C   UNL     1      -0.936   2.390   5.333  1.00  0.00     0.021 C 
BRANCH  12  13
ATOM     13  C   UNL     1      -0.497   1.251   6.302  1.00  0.00     0.005 C 
BRANCH  13  14
ATOM     14  C   UNL     1       0.856   1.458   7.049  1.00  0.00     0.027 C 
BRANCH  14  15
ATOM     15  C   UNL     1       1.348   2.865   7.236  1.00  0.00    -0.035 C 
ATOM     16  C   UNL     1       2.631   3.232   7.091  1.00  0.00     0.004 C 
ENDBRANCH  14  15
ENDBRANCH  13  14
ENDBRANCH  12  13
ENDBRANCH   6  12
BRANCH  10  17
ATOM     17  C   UNL     1      -1.346   5.437   4.785  1.00  0.00     0.410 C 
ATOM     18  O   UNL     1      -1.266   5.315   6.000  1.00  0.00    -0.224 OA
BRANCH  17  19
ATOM     19  O   UNL     1      -0.511   6.224   4.040  1.00  0.00    -0.444 OA
BRANCH  19  20
ATOM     20  C   UNL     1       0.683   6.919   4.522  1.00  0.00     0.106 C 
ATOM     21  C   UNL     1       0.464   7.655   5.843  1.00  0.00     0.056 C 
ATOM     22  C   UNL     1       1.863   5.952   4.620  1.00  0.00     0.056 C 
ATOM     23  C   UNL     1       1.023   7.950   3.429  1.00  0.00     0.056 C 
ENDBRANCH  19  20
ENDBRANCH  17  19
ENDBRANCH  10  17
ENDBRANCH   4   6
ENDBRANCH   3   4
ENDBRANCH   2   3
ENDBRANCH   1   2
BRANCH   1  24
ATOM     24  O   UNL     1       1.498  -1.043   2.801  1.00  0.00    -0.374 OA
BRANCH  24  25
ATOM     25  C   UNL     1       1.704  -0.211   3.939  1.00  0.00     0.202 C 
BRANCH  25  26
ATOM     26  C   UNL     1       1.529   1.286   3.738  1.00  0.00     0.261 C 
BRANCH  26  27
ATOM     27  O   UNL     1       2.197   1.743   2.591  1.00  0.00    -0.460 OA
BRANCH  27  28
ATOM     28  C   UNL     1       3.039   2.766   2.786  1.00  0.00     0.338 C 
ATOM     29  O   UNL     1       3.425   3.295   3.816  1.00  0.00    -0.246 OA
BRANCH  28  30
ATOM     30  C   UNL     1       3.417   3.083   1.433  1.00  0.00     0.060 A 
ATOM     31  C   UNL     1       4.434   2.300   0.894  1.00  0.00     0.016 A 
ATOM     32  C   UNL     1       2.623   3.951   0.675  1.00  0.00     0.016 A 
ATOM     33  C   UNL     1       4.705   2.430  -0.444  1.00  0.00     0.010 A 
ATOM     34  C   UNL     1       2.880   4.057  -0.679  1.00  0.00     0.010 A 
ATOM     35  C   UNL     1       3.945   3.321  -1.218  1.00  0.00    -0.014 A 
BRANCH  35  36
ATOM     36  C   UNL     1       4.425   3.564  -2.578  1.00  0.00     0.031 A 
ATOM     37  C   UNL     1       5.319   4.743  -2.782  1.00  0.00     0.074 A 
ATOM     38  C   UNL     1       4.198   2.625  -3.508  1.00  0.00     0.049 A 
ATOM     39  N   UNL     1       6.083   5.028  -3.796  1.00  0.00    -0.248 NA
ATOM     40  C   UNL     1       5.375   5.724  -1.684  1.00  0.00     0.031 C 
ATOM     41  C   UNL     1       3.352   1.442  -3.318  1.00  0.00     0.029 A 
ATOM     42  N   UNL     1       4.701   2.485  -4.767  1.00  0.00    -0.354 N 
ATOM     43  C   UNL     1       6.729   6.208  -3.452  1.00  0.00     0.074 A 
ATOM     44  C   UNL     1       6.225   6.617  -2.162  1.00  0.00     0.031 C 
ATOM     45  C   UNL     1       3.431   0.672  -4.415  1.00  0.00     0.029 A 
ATOM     46  C   UNL     1       4.315   1.317  -5.379  1.00  0.00     0.049 A 
ATOM     47  H   UNL     1       5.283   3.153  -5.195  1.00  0.00     0.167 HD
ATOM     48  C   UNL     1       7.674   6.871  -4.157  1.00  0.00     0.034 A 
ATOM     49  C   UNL     1       4.666   0.829  -6.582  1.00  0.00     0.034 A 
ATOM     50  C   UNL     1       8.112   6.427  -5.456  1.00  0.00     0.049 A 
ATOM     51  C   UNL     1       5.690   1.609  -7.366  1.00  0.00     0.074 A 
ATOM     52  C   UNL     1       9.020   7.014  -6.315  1.00  0.00     0.029 A 
ATOM     53  N   UNL     1       7.651   5.273  -6.088  1.00  0.00    -0.354 N 
ATOM     54  N   UNL     1       6.306   2.725  -7.037  1.00  0.00    -0.248 NA
ATOM     55  C   UNL     1       6.087   1.055  -8.661  1.00  0.00     0.031 C 
ATOM     56  C   UNL     1       9.059   6.252  -7.489  1.00  0.00     0.029 A 
ATOM     57  C   UNL     1       8.236   5.144  -7.335  1.00  0.00     0.049 A 
ATOM     58  H   UNL     1       7.003   4.641  -5.702  1.00  0.00     0.167 HD
ATOM     59  C   UNL     1       7.180   2.999  -8.081  1.00  0.00     0.074 A 
ATOM     60  C   UNL     1       7.029   1.910  -9.031  1.00  0.00     0.031 C 
ATOM     61  C   UNL     1       8.029   4.047  -8.254  1.00  0.00     0.034 A 
BRANCH  48  62
ATOM     62  C   UNL     1       8.200   8.153  -3.562  1.00  0.00     0.023 A 
ATOM     63  C   UNL     1       8.902   8.175  -2.341  1.00  0.00     0.031 A 
ATOM     64  C   UNL     1       7.916   9.383  -4.177  1.00  0.00     0.131 A 
ATOM     65  C   UNL     1       9.228   9.402  -1.742  1.00  0.00     0.055 A 
ATOM     66  C   UNL     1       8.313  10.598  -3.615  1.00  0.00     0.041 A 
ATOM     67  F   UNL     1       7.215   9.429  -5.322  1.00  0.00    -0.206 F 
ATOM     68  C   UNL     1       8.960  10.613  -2.383  1.00  0.00     0.022 A 
BRANCH  65  69
ATOM     69  S   UNL     1       9.869   9.402  -0.043  1.00  0.00     0.124 S 
ATOM     70  O   UNL     1       8.775   8.765   0.685  1.00  0.00    -0.237 OA
ATOM     71  O   UNL     1      11.095   8.621  -0.168  1.00  0.00    -0.237 OA
ATOM     72  O   UNL     1      10.060  10.821   0.252  1.00  0.00    -0.744 OA
ENDBRANCH  65  69
ENDBRANCH  48  62
BRANCH  49  73
ATOM     73  C   UNL     1       4.056  -0.430  -7.092  1.00  0.00     0.023 A 
ATOM     74  C   UNL     1       4.825  -1.573  -7.354  1.00  0.00     0.031 A 
ATOM     75  C   UNL     1       2.670  -0.500  -7.335  1.00  0.00     0.131 A 
ATOM     76  C   UNL     1       4.212  -2.724  -7.878  1.00  0.00     0.055 A 
ATOM     77  C   UNL     1       2.058  -1.660  -7.810  1.00  0.00     0.041 A 
ATOM     78  F   UNL     1       1.884   0.562  -7.093  1.00  0.00    -0.206 F 
ATOM     79  C   UNL     1       2.833  -2.779  -8.096  1.00  0.00     0.022 A 
BRANCH  76  80
ATOM     80  S   UNL     1       5.254  -4.135  -8.340  1.00  0.00     0.124 S 
ATOM     81  O   UNL     1       6.196  -3.520  -9.268  1.00  0.00    -0.237 OA
ATOM     82  O   UNL     1       5.798  -4.544  -7.049  1.00  0.00    -0.237 OA
ATOM     83  O   UNL     1       4.308  -5.074  -8.941  1.00  0.00    -0.744 OA
ENDBRANCH  76  80
ENDBRANCH  49  73
BRANCH  61  84
ATOM     84  C   UNL     1       8.856   4.028  -9.512  1.00  0.00     0.023 A 
ATOM     85  C   UNL     1       8.262   4.152 -10.779  1.00  0.00     0.031 A 
ATOM     86  C   UNL     1      10.248   3.852  -9.442  1.00  0.00     0.131 A 
ATOM     87  C   UNL     1       9.047   4.017 -11.930  1.00  0.00     0.055 A 
ATOM     88  C   UNL     1      11.035   3.791 -10.591  1.00  0.00     0.041 A 
ATOM     89  F   UNL     1      10.864   3.731  -8.255  1.00  0.00    -0.206 F 
ATOM     90  C   UNL     1      10.432   3.854 -11.845  1.00  0.00     0.022 A 
BRANCH  87  91
ATOM     91  S   UNL     1       8.213   3.928 -13.537  1.00  0.00     0.124 S 
ATOM     92  O   UNL     1       7.295   2.811 -13.340  1.00  0.00    -0.237 OA
ATOM     93  O   UNL     1       7.599   5.247 -13.642  1.00  0.00    -0.237 OA
ATOM     94  O   UNL     1       9.305   3.675 -14.475  1.00  0.00    -0.744 OA
ENDBRANCH  87  91
ENDBRANCH  61  84
ENDBRANCH  35  36
ENDBRANCH  28  30
ENDBRANCH  27  28
ENDBRANCH  26  27
ENDBRANCH  25  26
ENDBRANCH  24  25
ENDBRANCH   1  24
TORSDOF 24
