REMARK SMILES CN(C(=O)N1CCC(C(=O)OCCOCCOC(=O)c2ccc(-c3c4nc(c(-c5cc(S(=O)(=O)[O-])ccc5F)c5ccc([nH]5)c(-c5cc(S(=O)(=O)[O-])ccc5F)c5nc(c(-c6cc(S(=O)(=O)[O-])ccc6F)c6ccc3[nH]6)C=C5)C=C4)cc2)CC1)[C@H]1CCSC1
REMARK SMILES IDX 15 1 14 2 13 3 12 4 11 5 9 6 10 7 8 8 3 9 4 10 5 11 6 12
REMARK SMILES IDX 84 13 7 14 83 15 2 16 1 17 85 18 86 19 89 20 87 21 88 22
REMARK SMILES IDX 16 23 17 24 18 25 19 26 20 27 21 28 82 29 22 30 81 31 23 32
REMARK SMILES IDX 24 33 25 34 75 35 26 36 80 37 74 38 76 39 27 40 79 41 73 42
REMARK SMILES IDX 72 43 28 45 60 46 40 47 59 48 41 49 44 50 58 51 77 52 42 53
REMARK SMILES IDX 43 54 57 56 78 57 45 58 29 59 30 60 38 61 31 62 37 63 39 64
REMARK SMILES IDX 36 65 32 66 33 67 34 68 35 69 61 70 62 71 70 72 63 73 69 74
REMARK SMILES IDX 71 75 68 76 64 77 65 78 66 79 67 80 46 81 47 82 55 83 48 84
REMARK SMILES IDX 54 85 56 86 53 87 49 88 50 89 51 90 52 91
REMARK H PARENT 76 44 44 55
REMARK Flexibility Score: inf
ROOT
ATOM      1  C   UNL     1      -1.116   0.566 -11.939  1.00  0.00     0.202 C 
ENDROOT
BRANCH   1   2
ATOM      2  O   UNL     1      -1.534   1.782 -12.556  1.00  0.00    -0.374 OA
BRANCH   2   3
ATOM      3  C   UNL     1      -0.988   2.996 -12.039  1.00  0.00     0.202 C 
BRANCH   3   4
ATOM      4  C   UNL     1      -1.586   3.516 -10.729  1.00  0.00     0.261 C 
BRANCH   4   5
ATOM      5  O   UNL     1      -1.361   2.609  -9.635  1.00  0.00    -0.463 OA
BRANCH   5   6
ATOM      6  C   UNL     1      -2.471   2.027  -9.117  1.00  0.00     0.309 C 
ATOM      7  O   UNL     1      -3.623   2.260  -9.466  1.00  0.00    -0.252 OA
BRANCH   6   8
ATOM      8  C   UNL     1      -2.164   1.049  -8.005  1.00  0.00     0.103 C 
ATOM      9  C   UNL     1       0.158   0.091  -4.806  1.00  0.00     0.320 C 
ATOM     10  O   UNL     1       1.286   0.158  -5.289  1.00  0.00    -0.248 OA
ATOM     11  N   UNL     1      -0.933  -0.039  -5.645  1.00  0.00    -0.325 N 
ATOM     12  C   UNL     1      -0.724  -0.680  -6.939  1.00  0.00     0.122 C 
ATOM     13  C   UNL     1      -2.152   0.758  -5.513  1.00  0.00     0.122 C 
ATOM     14  C   UNL     1      -0.818   0.322  -8.085  1.00  0.00     0.037 C 
ATOM     15  C   UNL     1      -2.291   1.758  -6.658  1.00  0.00     0.037 C 
BRANCH   9  16
ATOM     16  N   UNL     1      -0.072   0.071  -3.438  1.00  0.00    -0.324 N 
ATOM     17  C   UNL     1      -1.330  -0.351  -2.831  1.00  0.00     0.149 C 
BRANCH  16  18
ATOM     18  C   UNL     1       0.980   0.464  -2.479  1.00  0.00     0.097 C 
ATOM     19  C   UNL     1       2.419   0.014  -2.759  1.00  0.00     0.037 C 
ATOM     20  C   UNL     1       1.066   1.973  -2.257  1.00  0.00     0.094 C 
ATOM     21  C   UNL     1       3.252   0.545  -1.603  1.00  0.00     0.072 C 
ATOM     22  S   UNL     1       2.555   2.184  -1.231  1.00  0.00    -0.160 SA
ENDBRANCH  16  18
ENDBRANCH   9  16
ENDBRANCH   6   8
ENDBRANCH   5   6
ENDBRANCH   4   5
ENDBRANCH   3   4
ENDBRANCH   2   3
ENDBRANCH   1   2
BRANCH   1  23
ATOM     23  C   UNL     1       0.302   0.070 -12.255  1.00  0.00     0.261 C 
BRANCH  23  24
ATOM     24  O   UNL     1       1.325   0.938 -11.735  1.00  0.00    -0.460 OA
BRANCH  24  25
ATOM     25  C   UNL     1       2.062   1.577 -12.677  1.00  0.00     0.338 C 
ATOM     26  O   UNL     1       1.982   1.435 -13.890  1.00  0.00    -0.246 OA
BRANCH  25  27
ATOM     27  C   UNL     1       2.876   2.639 -12.057  1.00  0.00     0.060 A 
ATOM     28  C   UNL     1       2.708   3.947 -12.531  1.00  0.00     0.016 A 
ATOM     29  C   UNL     1       3.832   2.358 -11.079  1.00  0.00     0.016 A 
ATOM     30  C   UNL     1       3.517   4.976 -12.050  1.00  0.00     0.010 A 
ATOM     31  C   UNL     1       4.652   3.391 -10.608  1.00  0.00     0.010 A 
ATOM     32  C   UNL     1       4.514   4.700 -11.106  1.00  0.00    -0.014 A 
BRANCH  32  33
ATOM     33  C   UNL     1       5.484   5.757 -10.720  1.00  0.00     0.031 A 
ATOM     34  C   UNL     1       6.844   5.774 -11.363  1.00  0.00     0.074 A 
ATOM     35  C   UNL     1       5.151   6.692  -9.810  1.00  0.00     0.049 A 
ATOM     36  N   UNL     1       7.866   6.553 -11.120  1.00  0.00    -0.248 NA
ATOM     37  C   UNL     1       7.083   4.779 -12.420  1.00  0.00     0.031 C 
ATOM     38  C   UNL     1       3.844   6.810  -9.163  1.00  0.00     0.029 A 
ATOM     39  N   UNL     1       5.888   7.713  -9.263  1.00  0.00    -0.354 N 
ATOM     40  C   UNL     1       8.876   6.135 -11.980  1.00  0.00     0.074 A 
ATOM     41  C   UNL     1       8.346   5.023 -12.742  1.00  0.00     0.031 C 
ATOM     42  C   UNL     1       3.878   7.835  -8.294  1.00  0.00     0.029 A 
ATOM     43  C   UNL     1       5.220   8.414  -8.285  1.00  0.00     0.049 A 
ATOM     44  H   UNL     1       6.808   7.924  -9.544  1.00  0.00     0.167 HD
ATOM     45  C   UNL     1      10.128   6.633 -12.117  1.00  0.00     0.034 A 
ATOM     46  C   UNL     1       5.656   9.381  -7.451  1.00  0.00     0.034 A 
ATOM     47  C   UNL     1      10.639   7.745 -11.354  1.00  0.00     0.049 A 
ATOM     48  C   UNL     1       7.093   9.840  -7.551  1.00  0.00     0.074 A 
ATOM     49  C   UNL     1      11.870   8.368 -11.461  1.00  0.00     0.029 A 
ATOM     50  N   UNL     1       9.959   8.382 -10.325  1.00  0.00    -0.354 N 
ATOM     51  N   UNL     1       8.025   9.463  -8.396  1.00  0.00    -0.248 NA
ATOM     52  C   UNL     1       7.539  10.849  -6.580  1.00  0.00     0.031 C 
ATOM     53  C   UNL     1      11.966   9.325 -10.445  1.00  0.00     0.029 A 
ATOM     54  C   UNL     1      10.766   9.353  -9.752  1.00  0.00     0.049 A 
ATOM     55  H   UNL     1       9.039   8.176 -10.043  1.00  0.00     0.167 HD
ATOM     56  C   UNL     1       9.155  10.211  -8.075  1.00  0.00     0.074 A 
ATOM     57  C   UNL     1       8.786  11.070  -6.970  1.00  0.00     0.031 C 
ATOM     58  C   UNL     1      10.387  10.194  -8.643  1.00  0.00     0.034 A 
BRANCH  45  59
ATOM     59  C   UNL     1      11.059   5.944 -13.083  1.00  0.00     0.023 A 
ATOM     60  C   UNL     1      10.853   5.974 -14.472  1.00  0.00     0.031 A 
ATOM     61  C   UNL     1      12.188   5.260 -12.596  1.00  0.00     0.131 A 
ATOM     62  C   UNL     1      11.739   5.295 -15.324  1.00  0.00     0.055 A 
ATOM     63  C   UNL     1      13.100   4.641 -13.452  1.00  0.00     0.041 A 
ATOM     64  F   UNL     1      12.422   5.182 -11.277  1.00  0.00    -0.206 F 
ATOM     65  C   UNL     1      12.873   4.649 -14.825  1.00  0.00     0.022 A 
BRANCH  62  66
ATOM     66  S   UNL     1      11.338   5.183 -17.089  1.00  0.00     0.124 S 
ATOM     67  O   UNL     1      10.049   4.497 -17.058  1.00  0.00    -0.237 OA
ATOM     68  O   UNL     1      11.306   6.584 -17.495  1.00  0.00    -0.237 OA
ATOM     69  O   UNL     1      12.440   4.399 -17.643  1.00  0.00    -0.744 OA
ENDBRANCH  62  66
ENDBRANCH  45  59
BRANCH  46  70
ATOM     70  C   UNL     1       4.762   9.944  -6.396  1.00  0.00     0.023 A 
ATOM     71  C   UNL     1       4.450  11.312  -6.365  1.00  0.00     0.031 A 
ATOM     72  C   UNL     1       4.281   9.137  -5.348  1.00  0.00     0.131 A 
ATOM     73  C   UNL     1       3.732  11.843  -5.281  1.00  0.00     0.055 A 
ATOM     74  C   UNL     1       3.516   9.658  -4.304  1.00  0.00     0.041 A 
ATOM     75  F   UNL     1       4.556   7.823  -5.321  1.00  0.00    -0.206 F 
ATOM     76  C   UNL     1       3.252  11.023  -4.257  1.00  0.00     0.022 A 
BRANCH  73  77
ATOM     77  S   UNL     1       3.538  13.643  -5.167  1.00  0.00     0.124 S 
ATOM     78  O   UNL     1       4.924  14.095  -5.206  1.00  0.00    -0.237 OA
ATOM     79  O   UNL     1       2.734  13.935  -6.349  1.00  0.00    -0.237 OA
ATOM     80  O   UNL     1       2.855  13.832  -3.889  1.00  0.00    -0.744 OA
ENDBRANCH  73  77
ENDBRANCH  46  70
BRANCH  58  81
ATOM     81  C   UNL     1      11.411  11.161  -8.101  1.00  0.00     0.023 A 
ATOM     82  C   UNL     1      11.956  11.014  -6.813  1.00  0.00     0.031 A 
ATOM     83  C   UNL     1      11.852  12.240  -8.888  1.00  0.00     0.131 A 
ATOM     84  C   UNL     1      12.880  11.956  -6.335  1.00  0.00     0.055 A 
ATOM     85  C   UNL     1      12.813  13.140  -8.428  1.00  0.00     0.041 A 
ATOM     86  F   UNL     1      11.363  12.428 -10.125  1.00  0.00    -0.206 F 
ATOM     87  C   UNL     1      13.325  13.007  -7.141  1.00  0.00     0.022 A 
BRANCH  84  88
ATOM     88  S   UNL     1      13.449  11.827  -4.618  1.00  0.00     0.124 S 
ATOM     89  O   UNL     1      12.206  11.996  -3.873  1.00  0.00    -0.237 OA
ATOM     90  O   UNL     1      14.038  10.492  -4.581  1.00  0.00    -0.237 OA
ATOM     91  O   UNL     1      14.405  12.926  -4.489  1.00  0.00    -0.744 OA
ENDBRANCH  84  88
ENDBRANCH  58  81
ENDBRANCH  32  33
ENDBRANCH  25  27
ENDBRANCH  24  25
ENDBRANCH  23  24
ENDBRANCH   1  23
TORSDOF 19
