REMARK SMILES Cc1nsc(NC(=O)CC2([NH3+])CCC2)c1C(=O)OCCOCCOC(=O)c1ccc(-c2c3nc(c(-c4cc(S(=O)(=O)[O-])ccc4F)c4ccc([nH]4)c(-c4cc(S(=O)(=O)[O-])ccc4F)c4nc(c(-c5cc(S(=O)(=O)[O-])ccc5F)c5ccc2[nH]5)C=C4)C=C3)cc1
REMARK SMILES IDX 20 1 19 2 18 3 16 4 17 5 15 6 1 7 2 8 3 9 4 10 5 11 6 12
REMARK SMILES IDX 7 13 8 15 9 16 10 17 12 18 14 19 13 20 11 21 21 25 22 26
REMARK SMILES IDX 23 27 24 28 25 29 26 30 27 31 28 32 89 33 29 34 88 35 30 36
REMARK SMILES IDX 31 37 32 38 82 39 33 40 87 41 81 42 83 43 34 44 86 45 80 46
REMARK SMILES IDX 79 47 35 49 67 50 47 51 66 52 48 53 51 54 65 55 84 56 49 57
REMARK SMILES IDX 50 58 64 60 85 61 52 62 36 63 37 64 45 65 38 66 44 67 46 68
REMARK SMILES IDX 43 69 39 70 40 71 41 72 42 73 68 74 69 75 77 76 70 77 76 78
REMARK SMILES IDX 78 79 75 80 71 81 72 82 73 83 74 84 53 85 54 86 62 87 55 88
REMARK SMILES IDX 61 89 63 90 60 91 56 92 57 93 58 94 59 95
REMARK H PARENT 6 14 11 22 11 23 11 24 83 48 51 59
REMARK Flexibility Score: inf
ROOT
ATOM      1  C   UNL     1      -0.221   4.785   0.787  1.00  0.00     0.202 C 
ENDROOT
BRANCH   1   2
ATOM      2  C   UNL     1       1.184   4.183   0.849  1.00  0.00     0.261 C 
BRANCH   2   3
ATOM      3  O   UNL     1       1.175   2.757   1.024  1.00  0.00    -0.460 OA
BRANCH   3   4
ATOM      4  C   UNL     1       1.315   2.348   2.315  1.00  0.00     0.343 C 
ATOM      5  O   UNL     1       1.505   3.103   3.262  1.00  0.00    -0.246 OA
BRANCH   4   6
ATOM      6  C   UNL     1       1.133   0.919   2.511  1.00  0.00     0.117 A 
ATOM      7  C   UNL     1       1.275  -0.081   0.074  1.00  0.00     0.069 C 
ATOM      8  C   UNL     1       1.206  -0.167   1.560  1.00  0.00     0.068 A 
ATOM      9  N   UNL     1       1.205  -1.393   2.094  1.00  0.00    -0.195 NA
ATOM     10  S   UNL     1       1.001  -1.255   3.725  1.00  0.00    -0.017 S 
ATOM     11  C   UNL     1       0.669   0.406   3.719  1.00  0.00     0.130 A 
BRANCH  11  12
ATOM     12  N   UNL     1       0.068   1.108   4.749  1.00  0.00    -0.315 N 
ATOM     13  C   UNL     1      -0.814   0.725   5.720  1.00  0.00     0.231 C 
ATOM     14  H   UNL     1       0.322   2.058   4.790  1.00  0.00     0.170 HD
ATOM     15  O   UNL     1      -1.336   1.625   6.392  1.00  0.00    -0.274 OA
BRANCH  13  16
ATOM     16  C   UNL     1      -1.168  -0.710   6.021  1.00  0.00     0.168 C 
BRANCH  16  17
ATOM     17  C   UNL     1      -2.274  -1.360   5.198  1.00  0.00     0.103 C 
ATOM     18  C   UNL     1      -2.475  -2.869   5.517  1.00  0.00     0.069 C 
ATOM     19  C   UNL     1      -3.771  -1.164   5.574  1.00  0.00     0.069 C 
ATOM     20  C   UNL     1      -3.991  -2.676   5.323  1.00  0.00     0.013 C 
BRANCH  17  21
ATOM     21  N   UNL     1      -2.160  -1.211   3.737  1.00  0.00    -0.352 N 
ATOM     22  H   UNL     1      -1.187  -1.335   3.458  1.00  0.00     0.344 HD
ATOM     23  H   UNL     1      -2.477  -0.280   3.465  1.00  0.00     0.344 HD
ATOM     24  H   UNL     1      -2.738  -1.915   3.278  1.00  0.00     0.344 HD
ENDBRANCH  17  21
ENDBRANCH  16  17
ENDBRANCH  13  16
ENDBRANCH  11  12
ENDBRANCH   4   6
ENDBRANCH   3   4
ENDBRANCH   2   3
ENDBRANCH   1   2
BRANCH   1  25
ATOM     25  O   UNL     1      -1.040   4.640   1.944  1.00  0.00    -0.374 OA
BRANCH  25  26
ATOM     26  C   UNL     1      -1.732   3.413   2.165  1.00  0.00     0.202 C 
BRANCH  26  27
ATOM     27  C   UNL     1      -2.857   3.034   1.218  1.00  0.00     0.261 C 
BRANCH  27  28
ATOM     28  O   UNL     1      -2.372   2.720  -0.083  1.00  0.00    -0.460 OA
BRANCH  28  29
ATOM     29  C   UNL     1      -2.700   3.640  -1.024  1.00  0.00     0.338 C 
ATOM     30  O   UNL     1      -2.959   4.810  -0.840  1.00  0.00    -0.246 OA
BRANCH  29  31
ATOM     31  C   UNL     1      -2.841   2.948  -2.312  1.00  0.00     0.060 A 
ATOM     32  C   UNL     1      -3.314   3.714  -3.376  1.00  0.00     0.016 A 
ATOM     33  C   UNL     1      -2.748   1.549  -2.390  1.00  0.00     0.016 A 
ATOM     34  C   UNL     1      -3.876   3.058  -4.450  1.00  0.00     0.010 A 
ATOM     35  C   UNL     1      -3.314   0.896  -3.464  1.00  0.00     0.010 A 
ATOM     36  C   UNL     1      -3.940   1.656  -4.445  1.00  0.00    -0.014 A 
BRANCH  36  37
ATOM     37  C   UNL     1      -4.536   1.005  -5.594  1.00  0.00     0.031 A 
ATOM     38  C   UNL     1      -3.732   1.215  -6.815  1.00  0.00     0.074 A 
ATOM     39  C   UNL     1      -5.663   0.268  -5.565  1.00  0.00     0.049 A 
ATOM     40  N   UNL     1      -3.994   2.046  -7.765  1.00  0.00    -0.248 NA
ATOM     41  C   UNL     1      -2.384   0.632  -6.882  1.00  0.00     0.031 C 
ATOM     42  C   UNL     1      -6.437  -0.178  -4.407  1.00  0.00     0.029 A 
ATOM     43  N   UNL     1      -6.329  -0.295  -6.611  1.00  0.00    -0.354 N 
ATOM     44  C   UNL     1      -2.969   1.899  -8.684  1.00  0.00     0.074 A 
ATOM     45  C   UNL     1      -1.917   1.198  -7.997  1.00  0.00     0.031 C 
ATOM     46  C   UNL     1      -7.336  -1.113  -4.801  1.00  0.00     0.029 A 
ATOM     47  C   UNL     1      -7.299  -1.228  -6.252  1.00  0.00     0.049 A 
ATOM     48  H   UNL     1      -6.140  -0.061  -7.548  1.00  0.00     0.167 HD
ATOM     49  C   UNL     1      -3.192   2.138 -10.003  1.00  0.00     0.034 A 
ATOM     50  C   UNL     1      -7.998  -2.047  -7.088  1.00  0.00     0.034 A 
ATOM     51  C   UNL     1      -4.408   2.901 -10.190  1.00  0.00     0.049 A 
ATOM     52  C   UNL     1      -7.998  -1.390  -8.419  1.00  0.00     0.074 A 
ATOM     53  C   UNL     1      -4.842   4.147  -9.780  1.00  0.00     0.029 A 
ATOM     54  N   UNL     1      -5.544   2.214 -10.558  1.00  0.00    -0.354 N 
ATOM     55  N   UNL     1      -8.611  -0.262  -8.651  1.00  0.00    -0.248 NA
ATOM     56  C   UNL     1      -6.920  -1.704  -9.345  1.00  0.00     0.031 C 
ATOM     57  C   UNL     1      -6.222   3.972  -9.463  1.00  0.00     0.029 A 
ATOM     58  C   UNL     1      -6.582   2.659  -9.775  1.00  0.00     0.049 A 
ATOM     59  H   UNL     1      -5.602   1.524 -11.258  1.00  0.00     0.167 HD
ATOM     60  C   UNL     1      -7.729   0.473  -9.427  1.00  0.00     0.074 A 
ATOM     61  C   UNL     1      -6.750  -0.503  -9.906  1.00  0.00     0.031 C 
ATOM     62  C   UNL     1      -7.713   1.839  -9.377  1.00  0.00     0.034 A 
BRANCH  49  63
ATOM     63  C   UNL     1      -2.556   1.353 -11.123  1.00  0.00     0.023 A 
ATOM     64  C   UNL     1      -2.890   1.731 -12.436  1.00  0.00     0.031 A 
ATOM     65  C   UNL     1      -1.910   0.103 -10.986  1.00  0.00     0.131 A 
ATOM     66  C   UNL     1      -2.687   0.852 -13.511  1.00  0.00     0.055 A 
ATOM     67  C   UNL     1      -1.647  -0.739 -12.068  1.00  0.00     0.041 A 
ATOM     68  F   UNL     1      -1.585  -0.423  -9.800  1.00  0.00    -0.206 F 
ATOM     69  C   UNL     1      -2.067  -0.383 -13.337  1.00  0.00     0.022 A 
BRANCH  66  70
ATOM     70  S   UNL     1      -3.416   1.277 -15.111  1.00  0.00     0.124 S 
ATOM     71  O   UNL     1      -4.821   1.440 -14.758  1.00  0.00    -0.237 OA
ATOM     72  O   UNL     1      -2.691   2.496 -15.456  1.00  0.00    -0.237 OA
ATOM     73  O   UNL     1      -3.110   0.114 -15.941  1.00  0.00    -0.744 OA
ENDBRANCH  66  70
ENDBRANCH  49  63
BRANCH  50  74
ATOM     74  C   UNL     1      -8.324  -3.493  -6.891  1.00  0.00     0.023 A 
ATOM     75  C   UNL     1      -9.281  -4.189  -7.668  1.00  0.00     0.031 A 
ATOM     76  C   UNL     1      -7.478  -4.285  -6.082  1.00  0.00     0.131 A 
ATOM     77  C   UNL     1      -9.353  -5.605  -7.619  1.00  0.00     0.055 A 
ATOM     78  C   UNL     1      -7.550  -5.679  -6.042  1.00  0.00     0.041 A 
ATOM     79  F   UNL     1      -6.485  -3.733  -5.366  1.00  0.00    -0.206 F 
ATOM     80  C   UNL     1      -8.482  -6.347  -6.819  1.00  0.00     0.022 A 
BRANCH  77  81
ATOM     81  S   UNL     1     -10.534  -6.527  -8.665  1.00  0.00     0.124 S 
ATOM     82  O   UNL     1     -11.820  -6.151  -8.090  1.00  0.00    -0.237 OA
ATOM     83  O   UNL     1     -10.242  -6.013  -9.998  1.00  0.00    -0.237 OA
ATOM     84  O   UNL     1     -10.157  -7.926  -8.456  1.00  0.00    -0.744 OA
ENDBRANCH  77  81
ENDBRANCH  50  74
BRANCH  62  85
ATOM     85  C   UNL     1      -8.876   2.544  -8.700  1.00  0.00     0.023 A 
ATOM     86  C   UNL     1      -9.290   2.344  -7.362  1.00  0.00     0.031 A 
ATOM     87  C   UNL     1      -9.535   3.542  -9.440  1.00  0.00     0.131 A 
ATOM     88  C   UNL     1     -10.337   3.120  -6.822  1.00  0.00     0.055 A 
ATOM     89  C   UNL     1     -10.550   4.326  -8.895  1.00  0.00     0.041 A 
ATOM     90  F   UNL     1      -9.177   3.796 -10.710  1.00  0.00    -0.206 F 
ATOM     91  C   UNL     1     -10.961   4.113  -7.585  1.00  0.00     0.022 A 
BRANCH  88  92
ATOM     92  S   UNL     1     -10.930   2.838  -5.121  1.00  0.00     0.124 S 
ATOM     93  O   UNL     1     -11.110   1.393  -5.057  1.00  0.00    -0.237 OA
ATOM     94  O   UNL     1      -9.844   3.383  -4.312  1.00  0.00    -0.237 OA
ATOM     95  O   UNL     1     -12.175   3.609  -5.063  1.00  0.00    -0.744 OA
ENDBRANCH  88  92
ENDBRANCH  62  85
ENDBRANCH  36  37
ENDBRANCH  29  31
ENDBRANCH  28  29
ENDBRANCH  27  28
ENDBRANCH  26  27
ENDBRANCH  25  26
ENDBRANCH   1  25
TORSDOF 21
