REMARK SMILES O=C(OCCOCCOC(=O)c1ccc2c(c1)NC1=[NH+]S(=O)(=O)[NH+]=C1N2)c1ccc(-c2c3nc(c(-c4cc(S(=O)(=O)[O-])ccc4F)c4ccc([nH]4)c(-c4cc(S(=O)(=O)[O-])ccc4F)c4nc(c(-c5cc(S(=O)(=O)[O-])ccc5F)c5ccc2[nH]5)C=C4)C=C3)cc1
REMARK SMILES IDX 4 1 3 2 2 3 1 4 27 5 28 6 89 7 29 8 88 9 30 10 31 11 32 12
REMARK SMILES IDX 82 13 33 14 87 15 81 16 83 17 34 18 86 19 80 20 79 21 35 23
REMARK SMILES IDX 67 24 47 25 66 26 48 27 51 28 65 29 84 30 49 31 50 32 64 34
REMARK SMILES IDX 85 35 52 36 36 37 37 38 45 39 38 40 44 41 46 42 43 43 39 44
REMARK SMILES IDX 40 45 41 46 42 47 68 48 69 49 77 50 70 51 76 52 78 53 75 54
REMARK SMILES IDX 71 55 72 56 73 57 74 58 53 59 54 60 62 61 55 62 61 63 63 64
REMARK SMILES IDX 60 65 56 66 57 67 58 68 59 69 5 70 6 71 7 72 8 73 9 74 10 75
REMARK SMILES IDX 11 76 12 77 13 78 17 79 14 80 16 81 15 82 18 83 26 84 19 85
REMARK SMILES IDX 25 87 20 89 24 90 21 91 22 94 23 95
REMARK H PARENT 83 22 51 33 18 86 26 88 20 92 24 93
REMARK Flexibility Score: inf
ROOT
ATOM      1  C   UNL     1       3.701  -0.795   1.615  1.00  0.00     0.261 C 
ENDROOT
BRANCH   1   2
ATOM      2  O   UNL     1       2.995   0.438   1.917  1.00  0.00    -0.460 OA
BRANCH   2   3
ATOM      3  C   UNL     1       2.921   1.581   1.174  1.00  0.00     0.338 C 
ATOM      4  O   UNL     1       2.166   2.489   1.508  1.00  0.00    -0.246 OA
BRANCH   3   5
ATOM      5  C   UNL     1       3.695   1.699  -0.088  1.00  0.00     0.060 A 
ATOM      6  C   UNL     1       3.040   2.164  -1.243  1.00  0.00     0.016 A 
ATOM      7  C   UNL     1       5.004   1.238  -0.174  1.00  0.00     0.016 A 
ATOM      8  C   UNL     1       3.644   2.028  -2.499  1.00  0.00     0.010 A 
ATOM      9  C   UNL     1       5.559   1.018  -1.427  1.00  0.00     0.010 A 
ATOM     10  C   UNL     1       4.882   1.389  -2.603  1.00  0.00    -0.014 A 
BRANCH  10  11
ATOM     11  C   UNL     1       5.656   1.399  -3.856  1.00  0.00     0.031 A 
ATOM     12  C   UNL     1       6.485   2.617  -3.963  1.00  0.00     0.074 A 
ATOM     13  C   UNL     1       5.806   0.456  -4.811  1.00  0.00     0.049 A 
ATOM     14  N   UNL     1       6.267   3.587  -4.789  1.00  0.00    -0.248 NA
ATOM     15  C   UNL     1       7.521   2.887  -2.961  1.00  0.00     0.031 C 
ATOM     16  C   UNL     1       5.155  -0.834  -4.953  1.00  0.00     0.029 A 
ATOM     17  N   UNL     1       6.695   0.426  -5.852  1.00  0.00    -0.354 N 
ATOM     18  C   UNL     1       7.250   4.521  -4.521  1.00  0.00     0.074 A 
ATOM     19  C   UNL     1       7.825   4.149  -3.254  1.00  0.00     0.031 C 
ATOM     20  C   UNL     1       5.860  -1.649  -5.767  1.00  0.00     0.029 A 
ATOM     21  C   UNL     1       6.878  -0.837  -6.402  1.00  0.00     0.049 A 
ATOM     22  H   UNL     1       7.163   1.227  -6.181  1.00  0.00     0.167 HD
ATOM     23  C   UNL     1       7.687   5.387  -5.472  1.00  0.00     0.034 A 
ATOM     24  C   UNL     1       7.663  -1.209  -7.438  1.00  0.00     0.034 A 
ATOM     25  C   UNL     1       6.808   5.409  -6.613  1.00  0.00     0.049 A 
ATOM     26  C   UNL     1       7.850  -0.018  -8.287  1.00  0.00     0.074 A 
ATOM     27  C   UNL     1       5.492   5.768  -6.814  1.00  0.00     0.029 A 
ATOM     28  N   UNL     1       7.168   4.636  -7.691  1.00  0.00    -0.354 N 
ATOM     29  N   UNL     1       6.899   0.507  -9.007  1.00  0.00    -0.248 NA
ATOM     30  C   UNL     1       8.993   0.842  -8.036  1.00  0.00     0.031 C 
ATOM     31  C   UNL     1       5.002   4.880  -7.813  1.00  0.00     0.029 A 
ATOM     32  C   UNL     1       6.045   4.039  -8.208  1.00  0.00     0.049 A 
ATOM     33  H   UNL     1       8.084   4.529  -8.036  1.00  0.00     0.167 HD
ATOM     34  C   UNL     1       7.088   1.871  -8.868  1.00  0.00     0.074 A 
ATOM     35  C   UNL     1       8.469   2.010  -8.413  1.00  0.00     0.031 C 
ATOM     36  C   UNL     1       6.031   2.736  -8.859  1.00  0.00     0.034 A 
BRANCH  23  37
ATOM     37  C   UNL     1       9.079   5.954  -5.476  1.00  0.00     0.023 A 
ATOM     38  C   UNL     1      10.124   5.405  -4.707  1.00  0.00     0.031 A 
ATOM     39  C   UNL     1       9.448   6.962  -6.381  1.00  0.00     0.131 A 
ATOM     40  C   UNL     1      11.428   5.898  -4.768  1.00  0.00     0.055 A 
ATOM     41  C   UNL     1      10.773   7.398  -6.509  1.00  0.00     0.041 A 
ATOM     42  F   UNL     1       8.542   7.521  -7.197  1.00  0.00    -0.206 F 
ATOM     43  C   UNL     1      11.770   6.879  -5.688  1.00  0.00     0.022 A 
BRANCH  40  44
ATOM     44  S   UNL     1      12.684   5.275  -3.616  1.00  0.00     0.124 S 
ATOM     45  O   UNL     1      13.631   4.637  -4.523  1.00  0.00    -0.237 OA
ATOM     46  O   UNL     1      13.143   6.508  -2.981  1.00  0.00    -0.237 OA
ATOM     47  O   UNL     1      11.933   4.377  -2.743  1.00  0.00    -0.744 OA
ENDBRANCH  40  44
ENDBRANCH  23  37
BRANCH  24  48
ATOM     48  C   UNL     1       8.573  -2.375  -7.477  1.00  0.00     0.023 A 
ATOM     49  C   UNL     1       9.115  -2.889  -6.282  1.00  0.00     0.031 A 
ATOM     50  C   UNL     1       9.144  -2.805  -8.687  1.00  0.00     0.131 A 
ATOM     51  C   UNL     1      10.230  -3.739  -6.319  1.00  0.00     0.055 A 
ATOM     52  C   UNL     1      10.246  -3.667  -8.721  1.00  0.00     0.041 A 
ATOM     53  F   UNL     1       8.680  -2.345  -9.858  1.00  0.00    -0.206 F 
ATOM     54  C   UNL     1      10.806  -4.125  -7.532  1.00  0.00     0.022 A 
BRANCH  51  55
ATOM     55  S   UNL     1      10.998  -4.317  -4.778  1.00  0.00     0.124 S 
ATOM     56  O   UNL     1      11.261  -5.724  -5.071  1.00  0.00    -0.237 OA
ATOM     57  O   UNL     1      12.174  -3.460  -4.694  1.00  0.00    -0.237 OA
ATOM     58  O   UNL     1       9.964  -4.085  -3.771  1.00  0.00    -0.744 OA
ENDBRANCH  51  55
ENDBRANCH  24  48
BRANCH  36  59
ATOM     59  C   UNL     1       4.676   2.242  -9.339  1.00  0.00     0.023 A 
ATOM     60  C   UNL     1       3.994   3.040 -10.277  1.00  0.00     0.031 A 
ATOM     61  C   UNL     1       3.964   1.163  -8.778  1.00  0.00     0.131 A 
ATOM     62  C   UNL     1       2.650   2.790 -10.585  1.00  0.00     0.055 A 
ATOM     63  C   UNL     1       2.642   0.874  -9.141  1.00  0.00     0.041 A 
ATOM     64  F   UNL     1       4.487   0.402  -7.811  1.00  0.00    -0.206 F 
ATOM     65  C   UNL     1       1.972   1.700 -10.035  1.00  0.00     0.022 A 
BRANCH  62  66
ATOM     66  S   UNL     1       1.703   3.964 -11.589  1.00  0.00     0.124 S 
ATOM     67  O   UNL     1       1.370   3.165 -12.765  1.00  0.00    -0.237 OA
ATOM     68  O   UNL     1       0.578   4.284 -10.712  1.00  0.00    -0.237 OA
ATOM     69  O   UNL     1       2.636   5.062 -11.823  1.00  0.00    -0.744 OA
ENDBRANCH  62  66
ENDBRANCH  36  59
ENDBRANCH  10  11
ENDBRANCH   3   5
ENDBRANCH   2   3
ENDBRANCH   1   2
BRANCH   1  70
ATOM     70  C   UNL     1       3.341  -1.512   0.306  1.00  0.00     0.202 C 
BRANCH  70  71
ATOM     71  O   UNL     1       2.519  -0.696  -0.503  1.00  0.00    -0.374 OA
BRANCH  71  72
ATOM     72  C   UNL     1       1.604  -1.313  -1.389  1.00  0.00     0.202 C 
BRANCH  72  73
ATOM     73  C   UNL     1       2.111  -1.450  -2.823  1.00  0.00     0.261 C 
BRANCH  73  74
ATOM     74  O   UNL     1       2.862  -2.665  -2.998  1.00  0.00    -0.460 OA
BRANCH  74  75
ATOM     75  C   UNL     1       4.174  -2.572  -2.700  1.00  0.00     0.338 C 
ATOM     76  O   UNL     1       4.762  -1.578  -2.299  1.00  0.00    -0.246 OA
BRANCH  75  77
ATOM     77  C   UNL     1       4.851  -3.864  -2.760  1.00  0.00     0.064 A 
ATOM     78  C   UNL     1       4.341  -4.948  -3.474  1.00  0.00     0.020 A 
ATOM     79  C   UNL     1       5.982  -3.993  -1.949  1.00  0.00     0.072 A 
ATOM     80  C   UNL     1       4.904  -6.207  -3.283  1.00  0.00     0.057 A 
ATOM     81  C   UNL     1       6.524  -5.246  -1.724  1.00  0.00     0.173 A 
ATOM     82  C   UNL     1       5.955  -6.374  -2.371  1.00  0.00     0.172 A 
ATOM     83  N   UNL     1       7.495  -5.404  -0.720  1.00  0.00    -0.229 N 
ATOM     84  N   UNL     1       6.366  -7.666  -1.997  1.00  0.00    -0.229 N 
ATOM     85  C   UNL     1       7.801  -6.640  -0.238  1.00  0.00     0.383 C 
ATOM     86  H   UNL     1       7.957  -4.612  -0.361  1.00  0.00     0.313 HD
ATOM     87  C   UNL     1       7.195  -7.854  -0.925  1.00  0.00     0.383 C 
ATOM     88  H   UNL     1       6.054  -8.445  -2.514  1.00  0.00     0.313 HD
ATOM     89  N   UNL     1       8.536  -6.954   0.769  1.00  0.00    -0.122 N 
ATOM     90  N   UNL     1       7.537  -8.962  -0.368  1.00  0.00    -0.122 N 
ATOM     91  S   UNL     1       8.469  -8.577   0.920  1.00  0.00     0.469 S 
ATOM     92  H   UNL     1       9.042  -6.333   1.341  1.00  0.00     0.331 HD
ATOM     93  H   UNL     1       7.286  -9.867  -0.661  1.00  0.00     0.331 HD
ATOM     94  O   UNL     1       9.799  -9.130   0.712  1.00  0.00    -0.143 OA
ATOM     95  O   UNL     1       7.727  -8.893   2.114  1.00  0.00    -0.143 OA
ENDBRANCH  75  77
ENDBRANCH  74  75
ENDBRANCH  73  74
ENDBRANCH  72  73
ENDBRANCH  71  72
ENDBRANCH  70  71
ENDBRANCH   1  70
TORSDOF 17
