REMARK SMILES O=C(OCCOCCOC(=O)[C@@H]1CCCC[C@H]1C(=O)Nc1ccc(NC(=O)c2ccco2)cc1)c1ccc(-c2c3nc(c(-c4cc(S(=O)(=O)[O-])ccc4F)c4ccc([nH]4)c(-c4cc(S(=O)(=O)[O-])ccc4F)c4nc(c(-c5cc(S(=O)(=O)[O-])ccc5F)c5ccc2[nH]5)C=C4)C=C3)cc1
REMARK SMILES IDX 7 1 6 2 5 3 4 4 3 5 2 6 1 7 35 8 36 9 97 10 37 11 96 12
REMARK SMILES IDX 38 13 39 14 40 15 90 16 41 17 95 18 89 19 91 20 42 21 94 22
REMARK SMILES IDX 88 23 87 24 43 26 75 27 55 28 74 29 56 30 59 31 73 32 92 33
REMARK SMILES IDX 57 34 58 35 72 37 93 38 60 39 44 40 45 41 53 42 46 43 52 44
REMARK SMILES IDX 54 45 51 46 47 47 48 48 49 49 50 50 76 51 77 52 85 53 78 54
REMARK SMILES IDX 84 55 86 56 83 57 79 58 80 59 81 60 82 61 61 62 62 63 70 64
REMARK SMILES IDX 63 65 69 66 71 67 68 68 64 69 65 70 66 71 67 72 8 73 9 74
REMARK SMILES IDX 10 75 11 76 12 77 13 78 17 79 14 80 16 81 15 82 18 83 19 84
REMARK SMILES IDX 20 85 21 87 22 88 34 89 23 90 33 91 24 92 25 93 26 94 27 96
REMARK SMILES IDX 28 97 29 98 32 99 30 100 31 101
REMARK H PARENT 91 25 59 36 20 86 25 95
REMARK Flexibility Score: inf
ROOT
ATOM      1  C   UNL     1       2.543  -1.618  -1.494  1.00  0.00     0.202 C 
ENDROOT
BRANCH   1   2
ATOM      2  O   UNL     1       3.888  -1.135  -1.528  1.00  0.00    -0.374 OA
BRANCH   2   3
ATOM      3  C   UNL     1       4.592  -1.184  -0.288  1.00  0.00     0.202 C 
BRANCH   3   4
ATOM      4  C   UNL     1       4.331  -0.044   0.716  1.00  0.00     0.261 C 
BRANCH   4   5
ATOM      5  O   UNL     1       2.930   0.224   0.886  1.00  0.00    -0.460 OA
BRANCH   5   6
ATOM      6  C   UNL     1       2.179   1.149   0.241  1.00  0.00     0.338 C 
ATOM      7  O   UNL     1       0.988   1.257   0.529  1.00  0.00    -0.246 OA
BRANCH   6   8
ATOM      8  C   UNL     1       2.737   2.057  -0.804  1.00  0.00     0.060 A 
ATOM      9  C   UNL     1       3.864   1.773  -1.573  1.00  0.00     0.016 A 
ATOM     10  C   UNL     1       2.050   3.253  -1.065  1.00  0.00     0.016 A 
ATOM     11  C   UNL     1       4.353   2.646  -2.513  1.00  0.00     0.010 A 
ATOM     12  C   UNL     1       2.517   4.141  -2.036  1.00  0.00     0.010 A 
ATOM     13  C   UNL     1       3.684   3.835  -2.742  1.00  0.00    -0.014 A 
BRANCH  13  14
ATOM     14  C   UNL     1       4.370   4.784  -3.617  1.00  0.00     0.031 A 
ATOM     15  C   UNL     1       5.162   5.866  -2.966  1.00  0.00     0.074 A 
ATOM     16  C   UNL     1       4.443   4.518  -4.931  1.00  0.00     0.049 A 
ATOM     17  N   UNL     1       5.779   6.877  -3.503  1.00  0.00    -0.248 NA
ATOM     18  C   UNL     1       5.288   5.783  -1.500  1.00  0.00     0.031 C 
ATOM     19  C   UNL     1       3.867   3.336  -5.582  1.00  0.00     0.029 A 
ATOM     20  N   UNL     1       5.058   5.193  -5.943  1.00  0.00    -0.354 N 
ATOM     21  C   UNL     1       6.325   7.584  -2.439  1.00  0.00     0.074 A 
ATOM     22  C   UNL     1       5.985   6.872  -1.228  1.00  0.00     0.031 C 
ATOM     23  C   UNL     1       4.158   3.375  -6.891  1.00  0.00     0.029 A 
ATOM     24  C   UNL     1       4.848   4.626  -7.176  1.00  0.00     0.049 A 
ATOM     25  H   UNL     1       5.598   6.005  -5.804  1.00  0.00     0.167 HD
ATOM     26  C   UNL     1       7.018   8.745  -2.495  1.00  0.00     0.034 A 
ATOM     27  C   UNL     1       5.120   5.119  -8.398  1.00  0.00     0.034 A 
ATOM     28  C   UNL     1       7.284   9.407  -3.748  1.00  0.00     0.049 A 
ATOM     29  C   UNL     1       5.775   6.472  -8.449  1.00  0.00     0.074 A 
ATOM     30  C   UNL     1       7.835  10.650  -3.985  1.00  0.00     0.029 A 
ATOM     31  N   UNL     1       6.994   8.854  -4.996  1.00  0.00    -0.354 N 
ATOM     32  N   UNL     1       6.156   7.236  -7.447  1.00  0.00    -0.248 NA
ATOM     33  C   UNL     1       6.018   7.043  -9.775  1.00  0.00     0.031 C 
ATOM     34  C   UNL     1       7.827  10.868  -5.370  1.00  0.00     0.029 A 
ATOM     35  C   UNL     1       7.334   9.735  -6.005  1.00  0.00     0.049 A 
ATOM     36  H   UNL     1       6.602   7.962  -5.138  1.00  0.00     0.167 HD
ATOM     37  C   UNL     1       6.688   8.382  -8.020  1.00  0.00     0.074 A 
ATOM     38  C   UNL     1       6.591   8.197  -9.459  1.00  0.00     0.031 C 
ATOM     39  C   UNL     1       7.205   9.489  -7.424  1.00  0.00     0.034 A 
BRANCH  26  40
ATOM     40  C   UNL     1       7.353   9.388  -1.172  1.00  0.00     0.023 A 
ATOM     41  C   UNL     1       8.197   8.768  -0.231  1.00  0.00     0.031 A 
ATOM     42  C   UNL     1       6.676  10.556  -0.775  1.00  0.00     0.131 A 
ATOM     43  C   UNL     1       8.255   9.254   1.086  1.00  0.00     0.055 A 
ATOM     44  C   UNL     1       6.808  11.085   0.511  1.00  0.00     0.041 A 
ATOM     45  F   UNL     1       5.827  11.171  -1.612  1.00  0.00    -0.206 F 
ATOM     46  C   UNL     1       7.582  10.421   1.457  1.00  0.00     0.022 A 
BRANCH  43  47
ATOM     47  S   UNL     1       9.044   8.226   2.359  1.00  0.00     0.124 S 
ATOM     48  O   UNL     1       8.287   6.981   2.247  1.00  0.00    -0.237 OA
ATOM     49  O   UNL     1      10.430   8.173   1.907  1.00  0.00    -0.237 OA
ATOM     50  O   UNL     1       8.818   8.973   3.595  1.00  0.00    -0.744 OA
ENDBRANCH  43  47
ENDBRANCH  26  40
BRANCH  27  51
ATOM     51  C   UNL     1       4.655   4.390  -9.612  1.00  0.00     0.023 A 
ATOM     52  C   UNL     1       5.553   3.858 -10.548  1.00  0.00     0.031 A 
ATOM     53  C   UNL     1       3.278   4.181  -9.828  1.00  0.00     0.131 A 
ATOM     54  C   UNL     1       5.063   3.146 -11.657  1.00  0.00     0.055 A 
ATOM     55  C   UNL     1       2.799   3.436 -10.906  1.00  0.00     0.041 A 
ATOM     56  F   UNL     1       2.373   4.668  -8.964  1.00  0.00    -0.206 F 
ATOM     57  C   UNL     1       3.695   2.917 -11.832  1.00  0.00     0.022 A 
BRANCH  54  58
ATOM     58  S   UNL     1       6.239   2.541 -12.900  1.00  0.00     0.124 S 
ATOM     59  O   UNL     1       6.866   3.780 -13.345  1.00  0.00    -0.237 OA
ATOM     60  O   UNL     1       7.077   1.643 -12.113  1.00  0.00    -0.237 OA
ATOM     61  O   UNL     1       5.384   1.885 -13.888  1.00  0.00    -0.744 OA
ENDBRANCH  54  58
ENDBRANCH  27  51
BRANCH  39  62
ATOM     62  C   UNL     1       7.735  10.548  -8.346  1.00  0.00     0.023 A 
ATOM     63  C   UNL     1       6.872  11.383  -9.072  1.00  0.00     0.031 A 
ATOM     64  C   UNL     1       9.121  10.733  -8.472  1.00  0.00     0.131 A 
ATOM     65  C   UNL     1       7.410  12.353  -9.927  1.00  0.00     0.055 A 
ATOM     66  C   UNL     1       9.650  11.729  -9.289  1.00  0.00     0.041 A 
ATOM     67  F   UNL     1       9.979   9.955  -7.791  1.00  0.00    -0.206 F 
ATOM     68  C   UNL     1       8.793  12.541 -10.028  1.00  0.00     0.022 A 
BRANCH  65  69
ATOM     69  S   UNL     1       6.280  13.341 -10.941  1.00  0.00     0.124 S 
ATOM     70  O   UNL     1       5.675  12.324 -11.796  1.00  0.00    -0.237 OA
ATOM     71  O   UNL     1       5.401  13.939  -9.942  1.00  0.00    -0.237 OA
ATOM     72  O   UNL     1       7.167  14.280 -11.626  1.00  0.00    -0.744 OA
ENDBRANCH  65  69
ENDBRANCH  39  62
ENDBRANCH  13  14
ENDBRANCH   6   8
ENDBRANCH   5   6
ENDBRANCH   4   5
ENDBRANCH   3   4
ENDBRANCH   2   3
ENDBRANCH   1   2
BRANCH   1  73
ATOM     73  C   UNL     1       2.448  -3.014  -2.102  1.00  0.00     0.261 C 
BRANCH  73  74
ATOM     74  O   UNL     1       2.874  -3.994  -1.135  1.00  0.00    -0.463 OA
BRANCH  74  75
ATOM     75  C   UNL     1       4.187  -4.328  -1.156  1.00  0.00     0.309 C 
ATOM     76  O   UNL     1       5.005  -3.970  -1.993  1.00  0.00    -0.252 OA
BRANCH  75  77
ATOM     77  C   UNL     1       4.545  -5.266  -0.025  1.00  0.00     0.111 C 
ATOM     78  C   UNL     1       4.151  -6.685  -0.448  1.00  0.00     0.016 C 
ATOM     79  C   UNL     1       3.977  -4.879   1.350  1.00  0.00     0.093 C 
ATOM     80  C   UNL     1       4.550  -7.690   0.625  1.00  0.00     0.001 C 
ATOM     81  C   UNL     1       4.286  -5.942   2.414  1.00  0.00     0.014 C 
ATOM     82  C   UNL     1       3.893  -7.341   1.954  1.00  0.00     0.001 C 
BRANCH  79  83
ATOM     83  C   UNL     1       4.249  -3.506   1.982  1.00  0.00     0.228 C 
ATOM     84  O   UNL     1       3.272  -2.825   2.327  1.00  0.00    -0.274 OA
ATOM     85  N   UNL     1       5.462  -3.014   2.364  1.00  0.00    -0.326 N 
ATOM     86  H   UNL     1       5.394  -2.213   2.932  1.00  0.00     0.169 HD
BRANCH  85  87
ATOM     87  C   UNL     1       6.779  -3.404   2.120  1.00  0.00     0.041 A 
ATOM     88  C   UNL     1       7.683  -3.321   3.173  1.00  0.00     0.028 A 
ATOM     89  C   UNL     1       7.255  -3.807   0.884  1.00  0.00     0.028 A 
ATOM     90  C   UNL     1       8.945  -3.911   3.058  1.00  0.00     0.028 A 
ATOM     91  C   UNL     1       8.493  -4.444   0.778  1.00  0.00     0.028 A 
ATOM     92  C   UNL     1       9.297  -4.607   1.906  1.00  0.00     0.041 A 
BRANCH  92  93
ATOM     93  N   UNL     1      10.380  -5.495   1.789  1.00  0.00    -0.319 N 
ATOM     94  C   UNL     1      11.198  -6.106   2.720  1.00  0.00     0.291 C 
ATOM     95  H   UNL     1      10.599  -5.729   0.858  1.00  0.00     0.170 HD
ATOM     96  O   UNL     1      12.053  -6.885   2.288  1.00  0.00    -0.265 OA
BRANCH  94  97
ATOM     97  C   UNL     1      11.019  -5.867   4.130  1.00  0.00     0.191 A 
ATOM     98  C   UNL     1      10.008  -6.187   5.021  1.00  0.00     0.056 A 
ATOM     99  O   UNL     1      12.002  -5.179   4.788  1.00  0.00    -0.459 OA
ATOM    100  C   UNL     1      10.367  -5.607   6.265  1.00  0.00     0.043 A 
ATOM    101  C   UNL     1      11.591  -5.013   6.070  1.00  0.00     0.196 A 
ENDBRANCH  94  97
ENDBRANCH  92  93
ENDBRANCH  85  87
ENDBRANCH  79  83
ENDBRANCH  75  77
ENDBRANCH  74  75
ENDBRANCH  73  74
ENDBRANCH   1  73
TORSDOF 21
