REMARK SMILES CCCCCCNC(=O)Oc1cccc(-c2ccc([C@@H](C)C(=O)OCCOCCOC(=O)c3ccc(-c4c5nc(c(-c6cc(S(=O)(=O)[O-])ccc6F)c6ccc([nH]6)c(-c6cc(S(=O)(=O)[O-])ccc6F)c6nc(c(-c7cc(S(=O)(=O)[O-])ccc7F)c7ccc4[nH]7)C=C6)C=C5)cc3)cc2F)c1
REMARK SMILES IDX 24 1 22 2 23 3 20 4 21 5 19 6 16 7 17 8 97 9 18 10 96 11
REMARK SMILES IDX 98 12 15 13 11 14 12 15 99 16 13 17 14 18 10 19 8 20 7 21
REMARK SMILES IDX 9 23 6 24 5 25 4 26 3 27 2 28 1 29 25 30 26 31 27 32 28 33
REMARK SMILES IDX 29 34 30 35 31 36 32 37 33 38 34 39 95 40 35 41 94 42 36 43
REMARK SMILES IDX 37 44 38 45 88 46 39 47 93 48 87 49 89 50 40 51 92 52 86 53
REMARK SMILES IDX 85 54 41 56 73 57 53 58 72 59 54 60 57 61 71 62 90 63 55 64
REMARK SMILES IDX 56 65 70 67 91 68 58 69 42 70 43 71 51 72 44 73 50 74 52 75
REMARK SMILES IDX 49 76 45 77 46 78 47 79 48 80 74 81 75 82 83 83 76 84 82 85
REMARK SMILES IDX 84 86 81 87 77 88 78 89 79 90 80 91 59 92 60 93 68 94 61 95
REMARK SMILES IDX 67 96 69 97 66 98 62 99 63 100 64 101 65 102
REMARK H PARENT 7 22 89 55 57 66
REMARK Flexibility Score: inf
ROOT
ATOM      1  O   UNL     1      -3.964  11.272   9.989  1.00  0.00    -0.463 OA
ENDROOT
BRANCH   1   2
ATOM      2  C   UNL     1      -4.489  12.033   8.995  1.00  0.00     0.313 C 
ATOM      3  O   UNL     1      -4.222  13.217   8.809  1.00  0.00    -0.252 OA
BRANCH   2   4
ATOM      4  C   UNL     1      -5.491  11.296   8.120  1.00  0.00     0.126 C 
ATOM      5  C   UNL     1      -6.905  11.645   8.576  1.00  0.00     0.025 C 
BRANCH   4   6
ATOM      6  C   UNL     1      -5.314   9.794   7.923  1.00  0.00    -0.031 A 
ATOM      7  C   UNL     1      -5.219   6.980   7.412  1.00  0.00     0.018 A 
ATOM      8  C   UNL     1      -5.426   7.484   8.707  1.00  0.00     0.012 A 
ATOM      9  C   UNL     1      -5.010   7.918   6.394  1.00  0.00     0.131 A 
ATOM     10  C   UNL     1      -5.476   8.865   8.959  1.00  0.00     0.005 A 
ATOM     11  C   UNL     1      -5.055   9.294   6.636  1.00  0.00     0.044 A 
ATOM     12  F   UNL     1      -4.809   7.514   5.129  1.00  0.00    -0.206 F 
BRANCH   7  13
ATOM     13  C   UNL     1      -5.286   5.532   7.132  1.00  0.00    -0.012 A 
ATOM     14  C   UNL     1      -4.396   3.504   6.127  1.00  0.00     0.133 A 
ATOM     15  C   UNL     1      -5.509   2.775   6.539  1.00  0.00     0.047 A 
ATOM     16  C   UNL     1      -4.283   4.870   6.404  1.00  0.00     0.056 A 
ATOM     17  C   UNL     1      -6.511   3.413   7.263  1.00  0.00     0.004 A 
ATOM     18  C   UNL     1      -6.398   4.776   7.556  1.00  0.00     0.009 A 
BRANCH  14  19
ATOM     19  O   UNL     1      -3.463   2.822   5.326  1.00  0.00    -0.410 OA
BRANCH  19  20
ATOM     20  C   UNL     1      -2.125   2.877   5.676  1.00  0.00     0.412 C 
ATOM     21  N   UNL     1      -1.316   2.147   4.854  1.00  0.00    -0.321 N 
ATOM     22  H   UNL     1      -0.354   2.156   5.064  1.00  0.00     0.167 HD
ATOM     23  O   UNL     1      -1.654   3.501   6.629  1.00  0.00    -0.224 OA
BRANCH  21  24
ATOM     24  C   UNL     1      -1.720   1.360   3.705  1.00  0.00     0.119 C 
BRANCH  24  25
ATOM     25  C   UNL     1      -1.121   1.897   2.404  1.00  0.00     0.021 C 
BRANCH  25  26
ATOM     26  C   UNL     1       0.408   1.813   2.314  1.00  0.00     0.002 C 
BRANCH  26  27
ATOM     27  C   UNL     1       1.000   0.402   2.402  1.00  0.00    -0.000 C 
BRANCH  27  28
ATOM     28  C   UNL     1       0.528  -0.580   1.326  1.00  0.00    -0.003 C 
ATOM     29  C   UNL     1       0.917  -0.162  -0.084  1.00  0.00     0.004 C 
ENDBRANCH  27  28
ENDBRANCH  26  27
ENDBRANCH  25  26
ENDBRANCH  24  25
ENDBRANCH  21  24
ENDBRANCH  19  20
ENDBRANCH  14  19
ENDBRANCH   7  13
ENDBRANCH   4   6
ENDBRANCH   2   4
ENDBRANCH   1   2
BRANCH   1  30
ATOM     30  C   UNL     1      -2.908  11.877  10.758  1.00  0.00     0.261 C 
BRANCH  30  31
ATOM     31  C   UNL     1      -1.581  11.142  10.556  1.00  0.00     0.202 C 
BRANCH  31  32
ATOM     32  O   UNL     1      -1.015  11.201   9.247  1.00  0.00    -0.374 OA
BRANCH  32  33
ATOM     33  C   UNL     1      -1.596  10.377   8.237  1.00  0.00     0.202 C 
BRANCH  33  34
ATOM     34  C   UNL     1      -1.293   8.874   8.282  1.00  0.00     0.261 C 
BRANCH  34  35
ATOM     35  O   UNL     1      -1.799   8.234   9.466  1.00  0.00    -0.460 OA
BRANCH  35  36
ATOM     36  C   UNL     1      -0.835   7.856  10.343  1.00  0.00     0.338 C 
ATOM     37  O   UNL     1       0.370   7.973  10.196  1.00  0.00    -0.246 OA
BRANCH  36  38
ATOM     38  C   UNL     1      -1.433   7.455  11.632  1.00  0.00     0.060 A 
ATOM     39  C   UNL     1      -0.878   8.022  12.786  1.00  0.00     0.016 A 
ATOM     40  C   UNL     1      -2.433   6.484  11.731  1.00  0.00     0.016 A 
ATOM     41  C   UNL     1      -1.262   7.566  14.043  1.00  0.00     0.010 A 
ATOM     42  C   UNL     1      -2.819   6.026  13.000  1.00  0.00     0.010 A 
ATOM     43  C   UNL     1      -2.197   6.530  14.159  1.00  0.00    -0.014 A 
BRANCH  43  44
ATOM     44  C   UNL     1      -2.358   5.867  15.480  1.00  0.00     0.031 A 
ATOM     45  C   UNL     1      -1.652   4.558  15.726  1.00  0.00     0.074 A 
ATOM     46  C   UNL     1      -3.029   6.469  16.480  1.00  0.00     0.049 A 
ATOM     47  N   UNL     1      -1.601   3.831  16.813  1.00  0.00    -0.248 NA
ATOM     48  C   UNL     1      -0.899   3.998  14.594  1.00  0.00     0.031 C 
ATOM     49  C   UNL     1      -3.701   7.764  16.382  1.00  0.00     0.029 A 
ATOM     50  N   UNL     1      -3.240   6.080  17.779  1.00  0.00    -0.354 N 
ATOM     51  C   UNL     1      -0.803   2.734  16.499  1.00  0.00     0.074 A 
ATOM     52  C   UNL     1      -0.440   2.866  15.105  1.00  0.00     0.031 C 
ATOM     53  C   UNL     1      -4.240   8.068  17.576  1.00  0.00     0.029 A 
ATOM     54  C   UNL     1      -3.983   6.976  18.513  1.00  0.00     0.049 A 
ATOM     55  H   UNL     1      -2.892   5.238  18.151  1.00  0.00     0.167 HD
ATOM     56  C   UNL     1      -0.394   1.721  17.303  1.00  0.00     0.034 A 
ATOM     57  C   UNL     1      -4.414   6.915  19.790  1.00  0.00     0.034 A 
ATOM     58  C   UNL     1      -0.771   1.592  18.689  1.00  0.00     0.049 A 
ATOM     59  C   UNL     1      -4.036   5.719  20.634  1.00  0.00     0.074 A 
ATOM     60  C   UNL     1      -0.421   0.602  19.591  1.00  0.00     0.029 A 
ATOM     61  N   UNL     1      -1.593   2.478  19.375  1.00  0.00    -0.354 N 
ATOM     62  N   UNL     1      -3.282   4.689  20.322  1.00  0.00    -0.248 NA
ATOM     63  C   UNL     1      -4.559   5.685  22.006  1.00  0.00     0.031 C 
ATOM     64  C   UNL     1      -1.086   0.851  20.798  1.00  0.00     0.029 A 
ATOM     65  C   UNL     1      -1.787   2.039  20.677  1.00  0.00     0.049 A 
ATOM     66  H   UNL     1      -1.981   3.299  18.993  1.00  0.00     0.167 HD
ATOM     67  C   UNL     1      -3.215   3.906  21.473  1.00  0.00     0.074 A 
ATOM     68  C   UNL     1      -3.988   4.591  22.487  1.00  0.00     0.031 C 
ATOM     69  C   UNL     1      -2.570   2.728  21.676  1.00  0.00     0.034 A 
BRANCH  56  70
ATOM     70  C   UNL     1       0.472   0.650  16.681  1.00  0.00     0.023 A 
ATOM     71  C   UNL     1       1.759   0.933  16.189  1.00  0.00     0.031 A 
ATOM     72  C   UNL     1      -0.006  -0.666  16.555  1.00  0.00     0.131 A 
ATOM     73  C   UNL     1       2.494  -0.068  15.534  1.00  0.00     0.055 A 
ATOM     74  C   UNL     1       0.762  -1.676  15.972  1.00  0.00     0.041 A 
ATOM     75  F   UNL     1      -1.236  -0.991  16.985  1.00  0.00    -0.206 F 
ATOM     76  C   UNL     1       2.014  -1.377  15.445  1.00  0.00     0.022 A 
BRANCH  73  77
ATOM     77  S   UNL     1       4.026   0.396  14.681  1.00  0.00     0.124 S 
ATOM     78  O   UNL     1       3.544   1.393  13.729  1.00  0.00    -0.237 OA
ATOM     79  O   UNL     1       4.854   0.898  15.771  1.00  0.00    -0.237 OA
ATOM     80  O   UNL     1       4.478  -0.859  14.082  1.00  0.00    -0.744 OA
ENDBRANCH  73  77
ENDBRANCH  56  70
BRANCH  57  81
ATOM     81  C   UNL     1      -5.282   7.990  20.354  1.00  0.00     0.023 A 
ATOM     82  C   UNL     1      -4.873   8.748  21.464  1.00  0.00     0.031 A 
ATOM     83  C   UNL     1      -6.572   8.219  19.841  1.00  0.00     0.131 A 
ATOM     84  C   UNL     1      -5.765   9.656  22.058  1.00  0.00     0.055 A 
ATOM     85  C   UNL     1      -7.432   9.166  20.399  1.00  0.00     0.041 A 
ATOM     86  F   UNL     1      -7.017   7.520  18.785  1.00  0.00    -0.206 F 
ATOM     87  C   UNL     1      -7.036   9.880  21.525  1.00  0.00     0.022 A 
BRANCH  84  88
ATOM     88  S   UNL     1      -5.278  10.463  23.609  1.00  0.00     0.124 S 
ATOM     89  O   UNL     1      -5.005   9.316  24.467  1.00  0.00    -0.237 OA
ATOM     90  O   UNL     1      -4.119  11.244  23.192  1.00  0.00    -0.237 OA
ATOM     91  O   UNL     1      -6.458  11.246  23.969  1.00  0.00    -0.744 OA
ENDBRANCH  84  88
ENDBRANCH  57  81
BRANCH  69  92
ATOM     92  C   UNL     1      -2.642   2.135  23.064  1.00  0.00     0.023 A 
ATOM     93  C   UNL     1      -3.852   1.673  23.610  1.00  0.00     0.031 A 
ATOM     94  C   UNL     1      -1.483   2.049  23.857  1.00  0.00     0.131 A 
ATOM     95  C   UNL     1      -3.888   1.204  24.933  1.00  0.00     0.055 A 
ATOM     96  C   UNL     1      -1.514   1.521  25.149  1.00  0.00     0.041 A 
ATOM     97  F   UNL     1      -0.300   2.476  23.388  1.00  0.00    -0.206 F 
ATOM     98  C   UNL     1      -2.724   1.109  25.699  1.00  0.00     0.022 A 
BRANCH  95  99
ATOM     99  S   UNL     1      -5.497   0.811  25.673  1.00  0.00     0.124 S 
ATOM    100  O   UNL     1      -6.209   2.078  25.544  1.00  0.00    -0.237 OA
ATOM    101  O   UNL     1      -5.974  -0.277  24.826  1.00  0.00    -0.237 OA
ATOM    102  O   UNL     1      -5.160   0.425  27.043  1.00  0.00    -0.744 OA
ENDBRANCH  95  99
ENDBRANCH  69  92
ENDBRANCH  43  44
ENDBRANCH  36  38
ENDBRANCH  35  36
ENDBRANCH  34  35
ENDBRANCH  33  34
ENDBRANCH  32  33
ENDBRANCH  31  32
ENDBRANCH  30  31
ENDBRANCH   1  30
TORSDOF 26
