REMARK SMILES O=C(OCCOCCOC(=O)[C@H]1SC=C[C@@H]1S(=O)(=O)NCCC1=c2ccccc2=NC1)c1ccc(-c2c3nc(c(-c4cc(S(=O)(=O)[O-])ccc4F)c4ccc([nH]4)c(-c4cc(S(=O)(=O)[O-])ccc4F)c4nc(c(-c5cc(S(=O)(=O)[O-])ccc5F)c5ccc2[nH]5)C=C4)C=C3)cc1
REMARK SMILES IDX 7 1 6 2 5 3 4 4 3 5 2 6 1 7 32 8 33 9 94 10 34 11 93 12
REMARK SMILES IDX 35 13 36 14 37 15 87 16 38 17 92 18 86 19 88 20 39 21 91 22
REMARK SMILES IDX 85 23 84 24 40 26 72 27 52 28 71 29 53 30 56 31 70 32 89 33
REMARK SMILES IDX 54 34 55 35 69 37 90 38 57 39 41 40 42 41 50 42 43 43 49 44
REMARK SMILES IDX 51 45 48 46 44 47 45 48 46 49 47 50 73 51 74 52 82 53 75 54
REMARK SMILES IDX 81 55 83 56 80 57 76 58 77 59 78 60 79 61 58 62 59 63 67 64
REMARK SMILES IDX 60 65 66 66 68 67 65 68 61 69 62 70 63 71 64 72 8 73 9 74
REMARK SMILES IDX 10 75 11 76 12 77 13 78 16 79 14 80 15 81 17 82 18 83 19 84
REMARK SMILES IDX 20 85 21 87 22 88 23 89 24 90 31 91 25 92 29 93 30 94 26 95
REMARK SMILES IDX 28 96 27 97
REMARK H PARENT 88 25 56 36 20 86
REMARK Flexibility Score: inf
ROOT
ATOM      1  C   UNL     1       2.288   0.530   1.728  1.00  0.00     0.202 C 
ENDROOT
BRANCH   1   2
ATOM      2  O   UNL     1       3.691   0.608   1.416  1.00  0.00    -0.374 OA
BRANCH   2   3
ATOM      3  C   UNL     1       4.038   1.649   0.494  1.00  0.00     0.202 C 
BRANCH   3   4
ATOM      4  C   UNL     1       4.145   1.188  -0.962  1.00  0.00     0.261 C 
BRANCH   4   5
ATOM      5  O   UNL     1       2.884   0.720  -1.460  1.00  0.00    -0.460 OA
BRANCH   5   6
ATOM      6  C   UNL     1       2.277  -0.471  -1.269  1.00  0.00     0.338 C 
ATOM      7  O   UNL     1       1.071  -0.533  -1.514  1.00  0.00    -0.246 OA
BRANCH   6   8
ATOM      8  C   UNL     1       2.951  -1.723  -0.782  1.00  0.00     0.060 A 
ATOM      9  C   UNL     1       2.218  -2.912  -0.950  1.00  0.00     0.016 A 
ATOM     10  C   UNL     1       4.180  -1.814  -0.120  1.00  0.00     0.016 A 
ATOM     11  C   UNL     1       2.695  -4.134  -0.470  1.00  0.00     0.010 A 
ATOM     12  C   UNL     1       4.673  -3.030   0.350  1.00  0.00     0.010 A 
ATOM     13  C   UNL     1       3.935  -4.196   0.173  1.00  0.00    -0.014 A 
BRANCH  13  14
ATOM     14  C   UNL     1       4.559  -5.492   0.489  1.00  0.00     0.031 A 
ATOM     15  C   UNL     1       4.673  -5.986   1.895  1.00  0.00     0.074 A 
ATOM     16  C   UNL     1       5.103  -6.161  -0.543  1.00  0.00     0.049 A 
ATOM     17  N   UNL     1       5.118  -7.138   2.317  1.00  0.00    -0.248 NA
ATOM     18  C   UNL     1       4.259  -5.068   2.968  1.00  0.00     0.031 C 
ATOM     19  C   UNL     1       5.128  -5.668  -1.923  1.00  0.00     0.029 A 
ATOM     20  N   UNL     1       5.739  -7.369  -0.607  1.00  0.00    -0.354 N 
ATOM     21  C   UNL     1       5.017  -7.101   3.703  1.00  0.00     0.074 A 
ATOM     22  C   UNL     1       4.529  -5.784   4.053  1.00  0.00     0.031 C 
ATOM     23  C   UNL     1       5.721  -6.579  -2.702  1.00  0.00     0.029 A 
ATOM     24  C   UNL     1       6.134  -7.710  -1.878  1.00  0.00     0.049 A 
ATOM     25  H   UNL     1       5.898  -7.939   0.180  1.00  0.00     0.167 HD
ATOM     26  C   UNL     1       5.288  -8.096   4.580  1.00  0.00     0.034 A 
ATOM     27  C   UNL     1       6.743  -8.822  -2.333  1.00  0.00     0.034 A 
ATOM     28  C   UNL     1       5.793  -9.384   4.167  1.00  0.00     0.049 A 
ATOM     29  C   UNL     1       6.988  -9.932  -1.349  1.00  0.00     0.074 A 
ATOM     30  C   UNL     1       6.032 -10.501   4.945  1.00  0.00     0.029 A 
ATOM     31  N   UNL     1       6.146  -9.724   2.865  1.00  0.00    -0.354 N 
ATOM     32  N   UNL     1       6.743  -9.950  -0.058  1.00  0.00    -0.248 NA
ATOM     33  C   UNL     1       7.556 -11.178  -1.871  1.00  0.00     0.031 C 
ATOM     34  C   UNL     1       6.602 -11.483   4.133  1.00  0.00     0.029 A 
ATOM     35  C   UNL     1       6.636 -11.019   2.826  1.00  0.00     0.049 A 
ATOM     36  H   UNL     1       6.061  -9.130   2.084  1.00  0.00     0.167 HD
ATOM     37  C   UNL     1       7.114 -11.213   0.387  1.00  0.00     0.074 A 
ATOM     38  C   UNL     1       7.566 -11.941  -0.784  1.00  0.00     0.031 C 
ATOM     39  C   UNL     1       7.089 -11.721   1.645  1.00  0.00     0.034 A 
BRANCH  26  40
ATOM     40  C   UNL     1       5.019  -7.879   6.053  1.00  0.00     0.023 A 
ATOM     41  C   UNL     1       6.053  -8.035   6.997  1.00  0.00     0.031 A 
ATOM     42  C   UNL     1       3.712  -7.678   6.536  1.00  0.00     0.131 A 
ATOM     43  C   UNL     1       5.757  -8.033   8.367  1.00  0.00     0.055 A 
ATOM     44  C   UNL     1       3.430  -7.629   7.903  1.00  0.00     0.041 A 
ATOM     45  F   UNL     1       2.684  -7.533   5.685  1.00  0.00    -0.206 F 
ATOM     46  C   UNL     1       4.453  -7.822   8.825  1.00  0.00     0.022 A 
BRANCH  43  47
ATOM     47  S   UNL     1       7.034  -8.380   9.609  1.00  0.00     0.124 S 
ATOM     48  O   UNL     1       6.982  -7.178  10.438  1.00  0.00    -0.237 OA
ATOM     49  O   UNL     1       6.524  -9.594  10.239  1.00  0.00    -0.237 OA
ATOM     50  O   UNL     1       8.253  -8.539   8.823  1.00  0.00    -0.744 OA
ENDBRANCH  43  47
ENDBRANCH  26  40
BRANCH  27  51
ATOM     51  C   UNL     1       7.014  -8.936  -3.794  1.00  0.00     0.023 A 
ATOM     52  C   UNL     1       7.861  -8.014  -4.441  1.00  0.00     0.031 A 
ATOM     53  C   UNL     1       6.282  -9.831  -4.590  1.00  0.00     0.131 A 
ATOM     54  C   UNL     1       7.878  -7.948  -5.840  1.00  0.00     0.055 A 
ATOM     55  C   UNL     1       6.364  -9.813  -5.984  1.00  0.00     0.041 A 
ATOM     56  F   UNL     1       5.440 -10.708  -4.022  1.00  0.00    -0.206 F 
ATOM     57  C   UNL     1       7.147  -8.852  -6.616  1.00  0.00     0.022 A 
BRANCH  54  58
ATOM     58  S   UNL     1       8.698  -6.570  -6.694  1.00  0.00     0.124 S 
ATOM     59  O   UNL     1       9.709  -7.262  -7.487  1.00  0.00    -0.237 OA
ATOM     60  O   UNL     1       7.592  -5.987  -7.450  1.00  0.00    -0.237 OA
ATOM     61  O   UNL     1       9.204  -5.742  -5.604  1.00  0.00    -0.744 OA
ENDBRANCH  54  58
ENDBRANCH  27  51
BRANCH  39  62
ATOM     62  C   UNL     1       7.587 -13.131   1.849  1.00  0.00     0.023 A 
ATOM     63  C   UNL     1       6.719 -14.115   2.358  1.00  0.00     0.031 A 
ATOM     64  C   UNL     1       8.945 -13.455   1.694  1.00  0.00     0.131 A 
ATOM     65  C   UNL     1       7.230 -15.360   2.743  1.00  0.00     0.055 A 
ATOM     66  C   UNL     1       9.438 -14.717   2.023  1.00  0.00     0.041 A 
ATOM     67  F   UNL     1       9.814 -12.545   1.224  1.00  0.00    -0.206 F 
ATOM     68  C   UNL     1       8.582 -15.670   2.567  1.00  0.00     0.022 A 
BRANCH  65  69
ATOM     69  S   UNL     1       6.183 -16.581   3.581  1.00  0.00     0.124 S 
ATOM     70  O   UNL     1       6.251 -17.716   2.664  1.00  0.00    -0.237 OA
ATOM     71  O   UNL     1       6.880 -16.762   4.851  1.00  0.00    -0.237 OA
ATOM     72  O   UNL     1       4.880 -15.929   3.667  1.00  0.00    -0.744 OA
ENDBRANCH  65  69
ENDBRANCH  39  62
ENDBRANCH  13  14
ENDBRANCH   6   8
ENDBRANCH   5   6
ENDBRANCH   4   5
ENDBRANCH   3   4
ENDBRANCH   2   3
ENDBRANCH   1   2
BRANCH   1  73
ATOM     73  C   UNL     1       2.018   0.889   3.189  1.00  0.00     0.261 C 
BRANCH  73  74
ATOM     74  O   UNL     1       2.797   2.038   3.537  1.00  0.00    -0.462 OA
BRANCH  74  75
ATOM     75  C   UNL     1       4.028   1.746   4.056  1.00  0.00     0.321 C 
ATOM     76  O   UNL     1       4.349   0.660   4.524  1.00  0.00    -0.251 OA
BRANCH  75  77
ATOM     77  C   UNL     1       4.996   2.876   3.800  1.00  0.00     0.184 C 
ATOM     78  S   UNL     1       4.311   4.484   4.378  1.00  0.00    -0.117 SA
ATOM     79  C   UNL     1       6.330   2.645   4.516  1.00  0.00     0.172 C 
ATOM     80  C   UNL     1       5.609   4.756   5.472  1.00  0.00     0.039 C 
ATOM     81  C   UNL     1       6.543   3.803   5.464  1.00  0.00     0.003 C 
BRANCH  79  82
ATOM     82  S   UNL     1       7.707   2.591   3.318  1.00  0.00     0.219 S 
ATOM     83  O   UNL     1       7.252   2.996   2.007  1.00  0.00    -0.212 OA
ATOM     84  O   UNL     1       8.869   3.229   3.908  1.00  0.00    -0.212 OA
BRANCH  82  85
ATOM     85  N   UNL     1       8.129   0.980   3.240  1.00  0.00    -0.214 NA
ATOM     86  H   UNL     1       8.132   0.646   4.204  1.00  0.00     0.141 HD
BRANCH  85  87
ATOM     87  C   UNL     1       7.376  -0.021   2.471  1.00  0.00     0.103 C 
BRANCH  87  88
ATOM     88  C   UNL     1       7.663   0.014   0.963  1.00  0.00     0.050 C 
BRANCH  88  89
ATOM     89  C   UNL     1       9.108   0.035   0.581  1.00  0.00    -0.038 C 
ATOM     90  C   UNL     1       9.802   1.052   0.074  1.00  0.00     0.001 A 
ATOM     91  C   UNL     1       9.976  -1.182   0.704  1.00  0.00     0.174 C 
ATOM     92  C   UNL     1       9.509   2.401  -0.283  1.00  0.00     0.010 A 
ATOM     93  C   UNL     1      11.157   0.495  -0.053  1.00  0.00     0.065 A 
ATOM     94  N   UNL     1      11.334  -0.742   0.293  1.00  0.00    -0.280 NA
ATOM     95  C   UNL     1      10.507   3.188  -0.716  1.00  0.00     0.001 A 
ATOM     96  C   UNL     1      12.203   1.420  -0.542  1.00  0.00     0.028 A 
ATOM     97  C   UNL     1      11.866   2.687  -0.837  1.00  0.00     0.002 A 
ENDBRANCH  88  89
ENDBRANCH  87  88
ENDBRANCH  85  87
ENDBRANCH  82  85
ENDBRANCH  79  82
ENDBRANCH  75  77
ENDBRANCH  74  75
ENDBRANCH  73  74
ENDBRANCH   1  73
TORSDOF 22
