REMARK SMILES Cc1ccc(-c2cc3cccnc3n2CCC(=O)OCCOCCOC(=O)c2ccc(-c3c4nc(c(-c5cc(S(=O)(=O)[O-])ccc5F)c5ccc([nH]5)c(-c5cc(S(=O)(=O)[O-])ccc5F)c5nc(c(-c6cc(S(=O)(=O)[O-])ccc6F)c6ccc3[nH]6)C=C5)C=C4)cc2)cn1
REMARK SMILES IDX 22 1 21 2 20 3 19 4 17 5 18 6 16 7 15 8 14 9 6 10 7 11 8 12
REMARK SMILES IDX 13 13 9 14 12 15 10 16 11 17 5 18 1 19 2 20 3 21 92 22 4 23
REMARK SMILES IDX 91 24 23 25 24 26 25 27 26 28 27 29 28 30 29 31 90 32 30 33
REMARK SMILES IDX 89 34 31 35 32 36 33 37 83 38 34 39 88 40 82 41 84 42 35 43
REMARK SMILES IDX 87 44 81 45 80 46 36 48 68 49 48 50 67 51 49 52 52 53 66 54
REMARK SMILES IDX 85 55 50 56 51 57 65 59 86 60 53 61 37 62 38 63 46 64 39 65
REMARK SMILES IDX 45 66 47 67 44 68 40 69 41 70 42 71 43 72 69 73 70 74 78 75
REMARK SMILES IDX 71 76 77 77 79 78 76 79 72 80 73 81 74 82 75 83 54 84 55 85
REMARK SMILES IDX 63 86 56 87 62 88 64 89 61 90 57 91 58 92 59 93 60 94
REMARK H PARENT 84 47 52 58
REMARK Flexibility Score: inf
ROOT
ATOM      1  O   UNL     1       0.750  -0.236   1.541  1.00  0.00    -0.374 OA
ENDROOT
BRANCH   1   2
ATOM      2  C   UNL     1       0.010  -0.067   0.097  1.00  0.00     0.202 C 
BRANCH   2   3
ATOM      3  C   UNL     1      -0.771  -1.603  -1.245  1.00  0.00     0.261 C 
BRANCH   3   4
ATOM      4  O   UNL     1      -2.328  -2.344  -1.079  1.00  0.00    -0.463 OA
BRANCH   4   5
ATOM      5  C   UNL     1      -2.647  -3.381  -0.252  1.00  0.00     0.307 C 
ATOM      6  O   UNL     1      -2.057  -4.458  -0.303  1.00  0.00    -0.252 OA
BRANCH   5   7
ATOM      7  C   UNL     1      -3.759  -3.128   0.828  1.00  0.00     0.144 C 
BRANCH   7   8
ATOM      8  C   UNL     1      -4.064  -1.787   1.539  1.00  0.00     0.136 C 
BRANCH   8   9
ATOM      9  N   UNL     1      -4.399  -0.703   0.655  1.00  0.00    -0.325 N 
ATOM     10  C   UNL     1      -3.478  -0.051  -0.120  1.00  0.00     0.052 A 
ATOM     11  C   UNL     1      -4.208   0.733  -1.006  1.00  0.00     0.039 A 
ATOM     12  C   UNL     1      -5.572   0.649  -0.669  1.00  0.00     0.020 A 
ATOM     13  C   UNL     1      -5.660  -0.208   0.421  1.00  0.00     0.140 A 
ATOM     14  C   UNL     1      -6.749   1.203  -1.188  1.00  0.00     0.013 A 
ATOM     15  N   UNL     1      -6.785  -0.535   1.090  1.00  0.00    -0.238 NA
ATOM     16  C   UNL     1      -7.932   0.915  -0.520  1.00  0.00     0.021 A 
ATOM     17  C   UNL     1      -7.886   0.088   0.596  1.00  0.00     0.113 A 
BRANCH  10  18
ATOM     18  C   UNL     1      -2.046  -0.348  -0.173  1.00  0.00     0.017 A 
ATOM     19  C   UNL     1       2.789  -0.913  -1.106  1.00  0.00     0.066 C 
ATOM     20  C   UNL     1       1.304  -1.187  -1.104  1.00  0.00     0.037 A 
ATOM     21  C   UNL     1       0.586  -2.070   0.263  1.00  0.00     0.024 A 
ATOM     22  N   UNL     1       0.400   0.002  -1.991  1.00  0.00    -0.261 NA
ATOM     23  C   UNL     1      -1.103  -1.622   0.758  1.00  0.00     0.014 A 
ATOM     24  C   UNL     1      -1.214   0.429  -1.532  1.00  0.00     0.121 A 
ENDBRANCH  10  18
ENDBRANCH   8   9
ENDBRANCH   7   8
ENDBRANCH   5   7
ENDBRANCH   4   5
ENDBRANCH   3   4
ENDBRANCH   2   3
ENDBRANCH   1   2
BRANCH   1  25
ATOM     25  C   UNL     1       0.003  -0.088   2.771  1.00  0.00     0.202 C 
BRANCH  25  26
ATOM     26  C   UNL     1      -0.226   1.312   3.319  1.00  0.00     0.261 C 
BRANCH  26  27
ATOM     27  O   UNL     1      -0.787   2.131   2.323  1.00  0.00    -0.460 OA
BRANCH  27  28
ATOM     28  C   UNL     1       0.099   2.655   1.442  1.00  0.00     0.338 C 
ATOM     29  O   UNL     1       1.313   2.667   1.527  1.00  0.00    -0.246 OA
BRANCH  28  30
ATOM     30  C   UNL     1      -0.710   3.246   0.351  1.00  0.00     0.060 A 
ATOM     31  C   UNL     1      -0.069   4.263  -0.334  1.00  0.00     0.016 A 
ATOM     32  C   UNL     1      -2.105   3.215   0.514  1.00  0.00     0.016 A 
ATOM     33  C   UNL     1      -0.709   5.472  -0.297  1.00  0.00     0.010 A 
ATOM     34  C   UNL     1      -2.741   4.413   0.562  1.00  0.00     0.010 A 
ATOM     35  C   UNL     1      -1.962   5.532   0.330  1.00  0.00    -0.014 A 
BRANCH  35  36
ATOM     36  C   UNL     1      -2.513   6.811   0.677  1.00  0.00     0.031 A 
ATOM     37  C   UNL     1      -3.125   7.398  -0.521  1.00  0.00     0.074 A 
ATOM     38  C   UNL     1      -2.453   7.320   1.924  1.00  0.00     0.049 A 
ATOM     39  N   UNL     1      -2.500   8.129  -1.382  1.00  0.00    -0.248 NA
ATOM     40  C   UNL     1      -4.385   6.823  -1.025  1.00  0.00     0.031 C 
ATOM     41  C   UNL     1      -2.063   6.684   3.188  1.00  0.00     0.029 A 
ATOM     42  N   UNL     1      -2.783   8.580   2.319  1.00  0.00    -0.354 N 
ATOM     43  C   UNL     1      -3.436   8.377  -2.368  1.00  0.00     0.074 A 
ATOM     44  C   UNL     1      -4.407   7.321  -2.263  1.00  0.00     0.031 C 
ATOM     45  C   UNL     1      -2.408   7.488   4.226  1.00  0.00     0.029 A 
ATOM     46  C   UNL     1      -2.886   8.754   3.701  1.00  0.00     0.049 A 
ATOM     47  H   UNL     1      -2.936   9.312   1.679  1.00  0.00     0.167 HD
ATOM     48  C   UNL     1      -3.533   9.623  -2.905  1.00  0.00     0.034 A 
ATOM     49  C   UNL     1      -3.383   9.867   4.312  1.00  0.00     0.034 A 
ATOM     50  C   UNL     1      -2.367  10.408  -2.575  1.00  0.00     0.049 A 
ATOM     51  C   UNL     1      -3.308  10.971   3.315  1.00  0.00     0.074 A 
ATOM     52  C   UNL     1      -1.017  10.286  -2.838  1.00  0.00     0.029 A 
ATOM     53  N   UNL     1      -2.477  11.229  -1.476  1.00  0.00    -0.354 N 
ATOM     54  N   UNL     1      -2.175  11.465   2.896  1.00  0.00    -0.248 NA
ATOM     55  C   UNL     1      -4.438  11.113   2.404  1.00  0.00     0.031 C 
ATOM     56  C   UNL     1      -0.365  10.682  -1.636  1.00  0.00     0.029 A 
ATOM     57  C   UNL     1      -1.329  11.133  -0.732  1.00  0.00     0.049 A 
ATOM     58  H   UNL     1      -3.253  11.794  -1.260  1.00  0.00     0.167 HD
ATOM     59  C   UNL     1      -2.328  11.545   1.520  1.00  0.00     0.074 A 
ATOM     60  C   UNL     1      -3.760  11.355   1.278  1.00  0.00     0.031 C 
ATOM     61  C   UNL     1      -1.256  11.421   0.686  1.00  0.00     0.034 A 
BRANCH  48  62
ATOM     62  C   UNL     1      -4.850  10.235  -3.299  1.00  0.00     0.023 A 
ATOM     63  C   UNL     1      -6.097   9.704  -2.912  1.00  0.00     0.031 A 
ATOM     64  C   UNL     1      -4.880  11.508  -3.892  1.00  0.00     0.131 A 
ATOM     65  C   UNL     1      -7.294  10.388  -3.135  1.00  0.00     0.055 A 
ATOM     66  C   UNL     1      -6.071  12.224  -4.058  1.00  0.00     0.041 A 
ATOM     67  F   UNL     1      -3.746  12.117  -4.272  1.00  0.00    -0.206 F 
ATOM     68  C   UNL     1      -7.287  11.664  -3.683  1.00  0.00     0.022 A 
BRANCH  65  69
ATOM     69  S   UNL     1      -8.877   9.631  -2.674  1.00  0.00     0.124 S 
ATOM     70  O   UNL     1      -9.457  10.647  -1.803  1.00  0.00    -0.237 OA
ATOM     71  O   UNL     1      -9.515   9.473  -3.978  1.00  0.00    -0.237 OA
ATOM     72  O   UNL     1      -8.486   8.383  -2.024  1.00  0.00    -0.744 OA
ENDBRANCH  65  69
ENDBRANCH  48  62
BRANCH  49  73
ATOM     73  C   UNL     1      -4.400   9.907   5.398  1.00  0.00     0.023 A 
ATOM     74  C   UNL     1      -5.252   8.806   5.585  1.00  0.00     0.031 A 
ATOM     75  C   UNL     1      -4.782  11.123   6.002  1.00  0.00     0.131 A 
ATOM     76  C   UNL     1      -6.465   8.950   6.274  1.00  0.00     0.055 A 
ATOM     77  C   UNL     1      -5.985  11.259   6.711  1.00  0.00     0.041 A 
ATOM     78  F   UNL     1      -4.033  12.226   5.846  1.00  0.00    -0.206 F 
ATOM     79  C   UNL     1      -6.845  10.172   6.831  1.00  0.00     0.022 A 
BRANCH  76  80
ATOM     80  S   UNL     1      -7.612   7.549   6.375  1.00  0.00     0.124 S 
ATOM     81  O   UNL     1      -8.045   7.600   7.769  1.00  0.00    -0.237 OA
ATOM     82  O   UNL     1      -8.620   7.918   5.388  1.00  0.00    -0.237 OA
ATOM     83  O   UNL     1      -6.775   6.402   6.033  1.00  0.00    -0.744 OA
ENDBRANCH  76  80
ENDBRANCH  49  73
BRANCH  61  84
ATOM     84  C   UNL     1       0.131  11.421   1.283  1.00  0.00     0.023 A 
ATOM     85  C   UNL     1       1.010  12.386   0.777  1.00  0.00     0.031 A 
ATOM     86  C   UNL     1       0.670  10.404   2.095  1.00  0.00     0.131 A 
ATOM     87  C   UNL     1       2.382  12.290   1.017  1.00  0.00     0.055 A 
ATOM     88  C   UNL     1       2.040  10.343   2.386  1.00  0.00     0.041 A 
ATOM     89  F   UNL     1      -0.090   9.400   2.554  1.00  0.00    -0.206 F 
ATOM     90  C   UNL     1       2.907  11.279   1.826  1.00  0.00     0.022 A 
BRANCH  87  91
ATOM     91  S   UNL     1       3.515  13.406   0.159  1.00  0.00     0.124 S 
ATOM     92  O   UNL     1       4.194  14.069   1.269  1.00  0.00    -0.237 OA
ATOM     93  O   UNL     1       4.335  12.477  -0.615  1.00  0.00    -0.237 OA
ATOM     94  O   UNL     1       2.637  14.263  -0.633  1.00  0.00    -0.744 OA
ENDBRANCH  87  91
ENDBRANCH  61  84
ENDBRANCH  35  36
ENDBRANCH  28  30
ENDBRANCH  27  28
ENDBRANCH  26  27
ENDBRANCH  25  26
ENDBRANCH   1  25
TORSDOF 20
