REMARK SMILES C[C@@H](c1ccc(F)cc1)N1C[C@H](C(=O)OCCOCCOC(=O)c2ccc(-c3c4nc(c(-c5cc(S(=O)(=O)[O-])ccc5F)c5ccc([nH]5)c(-c5cc(S(=O)(=O)[O-])ccc5F)c5nc(c(-c6cc(S(=O)(=O)[O-])ccc6F)c6ccc3[nH]6)C=C5)C=C4)cc2)CC1=O
REMARK SMILES IDX 19 1 18 2 17 3 16 4 15 5 13 6 14 7 12 8 10 9 11 10 88 11
REMARK SMILES IDX 87 12 89 13 2 14 1 15 3 16 4 17 9 18 5 19 8 20 6 21 7 22
REMARK SMILES IDX 20 23 21 24 22 25 23 26 24 27 25 28 86 29 26 30 85 31 27 32
REMARK SMILES IDX 28 33 29 34 79 35 30 36 84 37 78 38 80 39 31 40 83 41 77 42
REMARK SMILES IDX 76 43 32 45 64 46 44 47 63 48 45 49 48 50 62 51 81 52 46 53
REMARK SMILES IDX 47 54 61 56 82 57 49 58 33 59 34 60 42 61 35 62 41 63 43 64
REMARK SMILES IDX 40 65 36 66 37 67 38 68 39 69 65 70 66 71 74 72 67 73 73 74
REMARK SMILES IDX 75 75 72 76 68 77 69 78 70 79 71 80 50 81 51 82 59 83 52 84
REMARK SMILES IDX 58 85 60 86 57 87 53 88 54 89 55 90 56 91
REMARK H PARENT 80 44 48 55
REMARK Flexibility Score: inf
ROOT
ATOM      1  C   UNL     1      -2.567   2.356  -2.260  1.00  0.00     0.202 C 
ENDROOT
BRANCH   1   2
ATOM      2  O   UNL     1      -2.737   1.532  -3.414  1.00  0.00    -0.374 OA
BRANCH   2   3
ATOM      3  C   UNL     1      -4.005   0.897  -3.575  1.00  0.00     0.202 C 
BRANCH   3   4
ATOM      4  C   UNL     1      -4.271  -0.341  -2.712  1.00  0.00     0.261 C 
BRANCH   4   5
ATOM      5  O   UNL     1      -4.190  -0.048  -1.305  1.00  0.00    -0.463 OA
BRANCH   5   6
ATOM      6  C   UNL     1      -3.253  -0.747  -0.617  1.00  0.00     0.311 C 
ATOM      7  O   UNL     1      -2.604  -1.680  -1.077  1.00  0.00    -0.252 OA
BRANCH   6   8
ATOM      8  C   UNL     1      -3.120  -0.308   0.831  1.00  0.00     0.128 C 
ATOM      9  N   UNL     1      -1.123   0.932   0.954  1.00  0.00    -0.335 N 
ATOM     10  C   UNL     1      -1.656  -0.390   1.226  1.00  0.00     0.136 C 
ATOM     11  C   UNL     1      -2.147   1.866   1.107  1.00  0.00     0.224 C 
ATOM     12  C   UNL     1      -3.472   1.134   1.165  1.00  0.00     0.117 C 
ATOM     13  O   UNL     1      -2.057   3.077   1.217  1.00  0.00    -0.275 OA
BRANCH   9  14
ATOM     14  C   UNL     1       0.335   1.203   1.029  1.00  0.00     0.112 C 
ATOM     15  C   UNL     1       1.161  -0.004   0.536  1.00  0.00     0.036 C 
BRANCH  14  16
ATOM     16  C   UNL     1       0.807   2.492   0.346  1.00  0.00    -0.026 A 
ATOM     17  C   UNL     1       0.722   3.710   1.051  1.00  0.00     0.009 A 
ATOM     18  C   UNL     1       1.389   2.522  -0.936  1.00  0.00     0.009 A 
ATOM     19  C   UNL     1       1.181   4.907   0.498  1.00  0.00     0.039 A 
ATOM     20  C   UNL     1       1.882   3.716  -1.476  1.00  0.00     0.039 A 
ATOM     21  C   UNL     1       1.768   4.898  -0.756  1.00  0.00     0.123 A 
ATOM     22  F   UNL     1       2.237   6.040  -1.277  1.00  0.00    -0.207 F 
ENDBRANCH  14  16
ENDBRANCH   9  14
ENDBRANCH   6   8
ENDBRANCH   5   6
ENDBRANCH   4   5
ENDBRANCH   3   4
ENDBRANCH   2   3
ENDBRANCH   1   2
BRANCH   1  23
ATOM     23  C   UNL     1      -3.251   3.729  -2.258  1.00  0.00     0.261 C 
BRANCH  23  24
ATOM     24  O   UNL     1      -4.688   3.628  -2.278  1.00  0.00    -0.460 OA
BRANCH  24  25
ATOM     25  C   UNL     1      -5.266   4.056  -3.427  1.00  0.00     0.338 C 
ATOM     26  O   UNL     1      -4.703   4.572  -4.384  1.00  0.00    -0.246 OA
BRANCH  25  27
ATOM     27  C   UNL     1      -6.679   3.634  -3.481  1.00  0.00     0.060 A 
ATOM     28  C   UNL     1      -7.096   2.940  -4.624  1.00  0.00     0.016 A 
ATOM     29  C   UNL     1      -7.597   3.970  -2.483  1.00  0.00     0.016 A 
ATOM     30  C   UNL     1      -8.441   2.629  -4.802  1.00  0.00     0.010 A 
ATOM     31  C   UNL     1      -8.952   3.665  -2.669  1.00  0.00     0.010 A 
ATOM     32  C   UNL     1      -9.384   3.027  -3.846  1.00  0.00    -0.014 A 
BRANCH  32  33
ATOM     33  C   UNL     1     -10.830   2.911  -4.165  1.00  0.00     0.031 A 
ATOM     34  C   UNL     1     -11.564   4.128  -4.662  1.00  0.00     0.074 A 
ATOM     35  C   UNL     1     -11.462   1.726  -4.082  1.00  0.00     0.049 A 
ATOM     36  N   UNL     1     -12.825   4.261  -4.983  1.00  0.00    -0.248 NA
ATOM     37  C   UNL     1     -10.770   5.357  -4.822  1.00  0.00     0.031 C 
ATOM     38  C   UNL     1     -10.839   0.466  -3.680  1.00  0.00     0.029 A 
ATOM     39  N   UNL     1     -12.767   1.389  -4.342  1.00  0.00    -0.354 N 
ATOM     40  C   UNL     1     -12.976   5.584  -5.383  1.00  0.00     0.074 A 
ATOM     41  C   UNL     1     -11.686   6.221  -5.235  1.00  0.00     0.031 C 
ATOM     42  C   UNL     1     -11.762  -0.510  -3.726  1.00  0.00     0.029 A 
ATOM     43  C   UNL     1     -13.049   0.061  -4.122  1.00  0.00     0.049 A 
ATOM     44  H   UNL     1     -13.438   2.037  -4.656  1.00  0.00     0.167 HD
ATOM     45  C   UNL     1     -14.089   6.207  -5.840  1.00  0.00     0.034 A 
ATOM     46  C   UNL     1     -14.214  -0.613  -4.211  1.00  0.00     0.034 A 
ATOM     47  C   UNL     1     -15.369   5.564  -5.986  1.00  0.00     0.049 A 
ATOM     48  C   UNL     1     -15.460   0.124  -4.630  1.00  0.00     0.074 A 
ATOM     49  C   UNL     1     -16.557   6.108  -6.444  1.00  0.00     0.029 A 
ATOM     50  N   UNL     1     -15.633   4.238  -5.674  1.00  0.00    -0.354 N 
ATOM     51  N   UNL     1     -15.597   1.386  -4.965  1.00  0.00    -0.248 NA
ATOM     52  C   UNL     1     -16.709  -0.650  -4.679  1.00  0.00     0.031 C 
ATOM     53  C   UNL     1     -17.551   5.130  -6.349  1.00  0.00     0.029 A 
ATOM     54  C   UNL     1     -16.970   3.955  -5.900  1.00  0.00     0.049 A 
ATOM     55  H   UNL     1     -14.967   3.593  -5.342  1.00  0.00     0.167 HD
ATOM     56  C   UNL     1     -16.942   1.551  -5.283  1.00  0.00     0.074 A 
ATOM     57  C   UNL     1     -17.575   0.261  -5.103  1.00  0.00     0.031 C 
ATOM     58  C   UNL     1     -17.591   2.668  -5.698  1.00  0.00     0.034 A 
BRANCH  45  59
ATOM     59  C   UNL     1     -13.983   7.672  -6.173  1.00  0.00     0.023 A 
ATOM     60  C   UNL     1     -13.256   8.126  -7.287  1.00  0.00     0.031 A 
ATOM     61  C   UNL     1     -14.640   8.625  -5.375  1.00  0.00     0.131 A 
ATOM     62  C   UNL     1     -13.175   9.501  -7.552  1.00  0.00     0.055 A 
ATOM     63  C   UNL     1     -14.604   9.986  -5.678  1.00  0.00     0.041 A 
ATOM     64  F   UNL     1     -15.331   8.245  -4.289  1.00  0.00    -0.206 F 
ATOM     65  C   UNL     1     -13.863  10.432  -6.769  1.00  0.00     0.022 A 
BRANCH  62  66
ATOM     66  S   UNL     1     -12.099  10.069  -8.896  1.00  0.00     0.124 S 
ATOM     67  O   UNL     1     -10.781   9.682  -8.402  1.00  0.00    -0.237 OA
ATOM     68  O   UNL     1     -12.598   9.317 -10.042  1.00  0.00    -0.237 OA
ATOM     69  O   UNL     1     -12.342  11.510  -8.944  1.00  0.00    -0.744 OA
ENDBRANCH  62  66
ENDBRANCH  45  59
BRANCH  46  70
ATOM     70  C   UNL     1     -14.264  -2.058  -3.855  1.00  0.00     0.023 A 
ATOM     71  C   UNL     1     -14.492  -3.041  -4.830  1.00  0.00     0.031 A 
ATOM     72  C   UNL     1     -14.084  -2.473  -2.523  1.00  0.00     0.131 A 
ATOM     73  C   UNL     1     -14.550  -4.393  -4.455  1.00  0.00     0.055 A 
ATOM     74  C   UNL     1     -14.107  -3.820  -2.162  1.00  0.00     0.041 A 
ATOM     75  F   UNL     1     -13.860  -1.569  -1.556  1.00  0.00    -0.206 F 
ATOM     76  C   UNL     1     -14.346  -4.789  -3.131  1.00  0.00     0.022 A 
BRANCH  73  77
ATOM     77  S   UNL     1     -14.916  -5.636  -5.724  1.00  0.00     0.124 S 
ATOM     78  O   UNL     1     -16.281  -5.284  -6.099  1.00  0.00    -0.237 OA
ATOM     79  O   UNL     1     -13.885  -5.368  -6.721  1.00  0.00    -0.237 OA
ATOM     80  O   UNL     1     -14.771  -6.903  -5.010  1.00  0.00    -0.744 OA
ENDBRANCH  73  77
ENDBRANCH  46  70
BRANCH  58  81
ATOM     81  C   UNL     1     -19.059   2.547  -6.013  1.00  0.00     0.023 A 
ATOM     82  C   UNL     1     -20.020   2.405  -4.999  1.00  0.00     0.031 A 
ATOM     83  C   UNL     1     -19.502   2.634  -7.345  1.00  0.00     0.131 A 
ATOM     84  C   UNL     1     -21.380   2.331  -5.335  1.00  0.00     0.055 A 
ATOM     85  C   UNL     1     -20.858   2.605  -7.670  1.00  0.00     0.041 A 
ATOM     86  F   UNL     1     -18.622   2.775  -8.349  1.00  0.00    -0.206 F 
ATOM     87  C   UNL     1     -21.806   2.448  -6.662  1.00  0.00     0.022 A 
BRANCH  84  88
ATOM     88  S   UNL     1     -22.593   2.053  -4.016  1.00  0.00     0.124 S 
ATOM     89  O   UNL     1     -22.238   0.714  -3.558  1.00  0.00    -0.237 OA
ATOM     90  O   UNL     1     -22.305   3.141  -3.087  1.00  0.00    -0.237 OA
ATOM     91  O   UNL     1     -23.878   2.153  -4.705  1.00  0.00    -0.744 OA
ENDBRANCH  84  88
ENDBRANCH  58  81
ENDBRANCH  32  33
ENDBRANCH  25  27
ENDBRANCH  24  25
ENDBRANCH  23  24
ENDBRANCH   1  23
TORSDOF 19
