REMARK SMILES [NH3+][C@]1(C(=O)OCCOCCOC(=O)c2ccc(-c3c4nc(c(-c5cc(S(=O)(=O)[O-])ccc5F)c5ccc([nH]5)c(-c5cc(S(=O)(=O)[O-])ccc5F)c5nc(c(-c6cc(S(=O)(=O)[O-])ccc6F)c6ccc3[nH]6)C=C5)C=C4)cc2)CCC[C@@H]1CCOc1ccc(CO)cc1
REMARK SMILES IDX 6 1 5 2 3 3 4 4 2 5 77 6 80 7 78 8 79 9 1 10 81 14 82 15
REMARK SMILES IDX 83 16 84 17 85 18 91 19 86 20 90 21 87 22 88 23 89 24 7 26
REMARK SMILES IDX 8 27 9 28 10 29 11 30 12 31 13 32 14 33 15 34 76 35 16 36
REMARK SMILES IDX 75 37 17 38 18 39 19 40 69 41 20 42 74 43 68 44 70 45 21 46
REMARK SMILES IDX 73 47 67 48 66 49 22 51 54 52 34 53 53 54 35 55 38 56 52 57
REMARK SMILES IDX 71 58 36 59 37 60 51 62 72 63 39 64 23 65 24 66 32 67 25 68
REMARK SMILES IDX 31 69 33 70 30 71 26 72 27 73 28 74 29 75 55 76 56 77 64 78
REMARK SMILES IDX 57 79 63 80 65 81 62 82 58 83 59 84 60 85 61 86 40 87 41 88
REMARK SMILES IDX 49 89 42 90 48 91 50 92 47 93 43 94 44 95 45 96 46 97
REMARK H PARENT 1 11 1 12 1 13 89 25 70 50 38 61
REMARK Flexibility Score: inf
ROOT
ATOM      1  C   UNL     1       2.260  -1.483  -0.494  1.00  0.00     0.261 C 
ENDROOT
BRANCH   1   2
ATOM      2  O   UNL     1       1.728  -0.575   0.485  1.00  0.00    -0.459 OA
BRANCH   2   3
ATOM      3  C   UNL     1       1.113   0.503  -0.071  1.00  0.00     0.368 C 
ATOM      4  O   UNL     1       0.896   0.595  -1.274  1.00  0.00    -0.245 OA
BRANCH   3   5
ATOM      5  C   UNL     1       0.589   1.532   0.951  1.00  0.00     0.195 C 
ATOM      6  C   UNL     1       1.617   1.848   2.045  1.00  0.00     0.081 C 
ATOM      7  C   UNL     1       0.451   2.922   0.261  1.00  0.00     0.066 C 
ATOM      8  C   UNL     1       1.205   3.219   2.576  1.00  0.00     0.008 C 
ATOM      9  C   UNL     1       0.547   3.946   1.402  1.00  0.00     0.011 C 
BRANCH   5  10
ATOM     10  N   UNL     1      -0.677   1.068   1.566  1.00  0.00    -0.343 N 
ATOM     11  H   UNL     1      -1.004   1.763   2.237  1.00  0.00     0.345 HD
ATOM     12  H   UNL     1      -0.517   0.181   2.045  1.00  0.00     0.345 HD
ATOM     13  H   UNL     1      -1.381   0.939   0.839  1.00  0.00     0.345 HD
ENDBRANCH   5  10
BRANCH   7  14
ATOM     14  C   UNL     1      -0.798   3.109  -0.636  1.00  0.00     0.052 C 
BRANCH  14  15
ATOM     15  C   UNL     1      -0.754   4.358  -1.537  1.00  0.00     0.230 C 
BRANCH  15  16
ATOM     16  O   UNL     1      -0.303   4.085  -2.880  1.00  0.00    -0.494 OA
BRANCH  16  17
ATOM     17  C   UNL     1       1.059   3.994  -2.948  1.00  0.00     0.119 A 
ATOM     18  C   UNL     1       1.870   5.119  -2.877  1.00  0.00     0.047 A 
ATOM     19  C   UNL     1       1.623   2.731  -3.064  1.00  0.00     0.047 A 
ATOM     20  C   UNL     1       3.254   4.961  -2.757  1.00  0.00     0.010 A 
ATOM     21  C   UNL     1       2.995   2.564  -2.878  1.00  0.00     0.010 A 
ATOM     22  C   UNL     1       3.821   3.679  -2.687  1.00  0.00    -0.022 A 
BRANCH  22  23
ATOM     23  C   UNL     1       5.282   3.499  -2.371  1.00  0.00     0.191 C 
BRANCH  23  24
ATOM     24  O   UNL     1       5.992   2.957  -3.472  1.00  0.00    -0.392 OA
ATOM     25  H   UNL     1       5.631   2.084  -3.691  1.00  0.00     0.211 HD
ENDBRANCH  23  24
ENDBRANCH  22  23
ENDBRANCH  16  17
ENDBRANCH  15  16
ENDBRANCH  14  15
ENDBRANCH   7  14
ENDBRANCH   3   5
ENDBRANCH   2   3
ENDBRANCH   1   2
BRANCH   1  26
ATOM     26  C   UNL     1       1.351  -2.655  -0.894  1.00  0.00     0.202 C 
BRANCH  26  27
ATOM     27  O   UNL     1       0.025  -2.424  -1.355  1.00  0.00    -0.374 OA
BRANCH  27  28
ATOM     28  C   UNL     1      -0.954  -1.938  -0.445  1.00  0.00     0.202 C 
BRANCH  28  29
ATOM     29  C   UNL     1      -1.390  -2.790   0.753  1.00  0.00     0.261 C 
BRANCH  29  30
ATOM     30  O   UNL     1      -0.303  -3.286   1.544  1.00  0.00    -0.460 OA
BRANCH  30  31
ATOM     31  C   UNL     1      -0.119  -4.624   1.437  1.00  0.00     0.338 C 
ATOM     32  O   UNL     1      -0.818  -5.414   0.812  1.00  0.00    -0.246 OA
BRANCH  31  33
ATOM     33  C   UNL     1       1.179  -5.013   2.013  1.00  0.00     0.060 A 
ATOM     34  C   UNL     1       2.039  -5.750   1.191  1.00  0.00     0.016 A 
ATOM     35  C   UNL     1       1.521  -4.736   3.338  1.00  0.00     0.016 A 
ATOM     36  C   UNL     1       3.215  -6.275   1.710  1.00  0.00     0.010 A 
ATOM     37  C   UNL     1       2.702  -5.274   3.863  1.00  0.00     0.010 A 
ATOM     38  C   UNL     1       3.529  -6.082   3.062  1.00  0.00    -0.014 A 
BRANCH  38  39
ATOM     39  C   UNL     1       4.639  -6.876   3.640  1.00  0.00     0.031 A 
ATOM     40  C   UNL     1       4.314  -8.148   4.377  1.00  0.00     0.074 A 
ATOM     41  C   UNL     1       5.916  -6.523   3.410  1.00  0.00     0.049 A 
ATOM     42  N   UNL     1       5.121  -9.044   4.881  1.00  0.00    -0.248 NA
ATOM     43  C   UNL     1       2.886  -8.450   4.564  1.00  0.00     0.031 C 
ATOM     44  C   UNL     1       6.340  -5.335   2.668  1.00  0.00     0.029 A 
ATOM     45  N   UNL     1       7.091  -7.138   3.759  1.00  0.00    -0.354 N 
ATOM     46  C   UNL     1       4.302 -10.024   5.434  1.00  0.00     0.074 A 
ATOM     47  C   UNL     1       2.936  -9.585   5.245  1.00  0.00     0.031 C 
ATOM     48  C   UNL     1       7.682  -5.316   2.607  1.00  0.00     0.029 A 
ATOM     49  C   UNL     1       8.213  -6.471   3.328  1.00  0.00     0.049 A 
ATOM     50  H   UNL     1       7.127  -7.979   4.269  1.00  0.00     0.167 HD
ATOM     51  C   UNL     1       4.658 -11.188   6.031  1.00  0.00     0.034 A 
ATOM     52  C   UNL     1       9.518  -6.758   3.503  1.00  0.00     0.034 A 
ATOM     53  C   UNL     1       6.027 -11.601   6.225  1.00  0.00     0.049 A 
ATOM     54  C   UNL     1       9.887  -8.024   4.239  1.00  0.00     0.074 A 
ATOM     55  C   UNL     1       6.505 -12.756   6.820  1.00  0.00     0.029 A 
ATOM     56  N   UNL     1       7.142 -10.867   5.835  1.00  0.00    -0.354 N 
ATOM     57  N   UNL     1       9.101  -8.947   4.748  1.00  0.00    -0.248 NA
ATOM     58  C   UNL     1      11.320  -8.293   4.408  1.00  0.00     0.031 C 
ATOM     59  C   UNL     1       7.903 -12.687   6.853  1.00  0.00     0.029 A 
ATOM     60  C   UNL     1       8.303 -11.528   6.207  1.00  0.00     0.049 A 
ATOM     61  H   UNL     1       7.111 -10.004   5.364  1.00  0.00     0.167 HD
ATOM     62  C   UNL     1       9.950  -9.918   5.275  1.00  0.00     0.074 A 
ATOM     63  C   UNL     1      11.302  -9.482   4.991  1.00  0.00     0.031 C 
ATOM     64  C   UNL     1       9.645 -11.065   5.936  1.00  0.00     0.034 A 
BRANCH  51  65
ATOM     65  C   UNL     1       3.548 -12.066   6.558  1.00  0.00     0.023 A 
ATOM     66  C   UNL     1       2.611 -12.674   5.703  1.00  0.00     0.031 A 
ATOM     67  C   UNL     1       3.413 -12.281   7.941  1.00  0.00     0.131 A 
ATOM     68  C   UNL     1       1.550 -13.418   6.242  1.00  0.00     0.055 A 
ATOM     69  C   UNL     1       2.397 -13.083   8.467  1.00  0.00     0.041 A 
ATOM     70  F   UNL     1       4.261 -11.706   8.809  1.00  0.00    -0.206 F 
ATOM     71  C   UNL     1       1.451 -13.647   7.617  1.00  0.00     0.022 A 
BRANCH  68  72
ATOM     72  S   UNL     1       0.228 -13.980   5.134  1.00  0.00     0.124 S 
ATOM     73  O   UNL     1      -0.265 -12.714   4.597  1.00  0.00    -0.237 OA
ATOM     74  O   UNL     1       0.944 -14.837   4.197  1.00  0.00    -0.237 OA
ATOM     75  O   UNL     1      -0.699 -14.672   6.029  1.00  0.00    -0.744 OA
ENDBRANCH  68  72
ENDBRANCH  51  65
BRANCH  52  76
ATOM     76  C   UNL     1      10.576  -5.830   3.008  1.00  0.00     0.023 A 
ATOM     77  C   UNL     1      11.519  -6.240   2.053  1.00  0.00     0.031 A 
ATOM     78  C   UNL     1      10.700  -4.534   3.541  1.00  0.00     0.131 A 
ATOM     79  C   UNL     1      12.577  -5.386   1.702  1.00  0.00     0.055 A 
ATOM     80  C   UNL     1      11.720  -3.667   3.146  1.00  0.00     0.041 A 
ATOM     81  F   UNL     1       9.826  -4.090   4.459  1.00  0.00    -0.206 F 
ATOM     82  C   UNL     1      12.676  -4.098   2.232  1.00  0.00     0.022 A 
BRANCH  79  83
ATOM     83  S   UNL     1      13.885  -6.023   0.618  1.00  0.00     0.124 S 
ATOM     84  O   UNL     1      14.334  -7.200   1.352  1.00  0.00    -0.237 OA
ATOM     85  O   UNL     1      13.154  -6.277  -0.619  1.00  0.00    -0.237 OA
ATOM     86  O   UNL     1      14.843  -4.921   0.558  1.00  0.00    -0.744 OA
ENDBRANCH  79  83
ENDBRANCH  52  76
BRANCH  64  87
ATOM     87  C   UNL     1      10.808 -11.928   6.367  1.00  0.00     0.023 A 
ATOM     88  C   UNL     1      11.750 -11.476   7.308  1.00  0.00     0.031 A 
ATOM     89  C   UNL     1      11.005 -13.196   5.792  1.00  0.00     0.131 A 
ATOM     90  C   UNL     1      12.890 -12.246   7.582  1.00  0.00     0.055 A 
ATOM     91  C   UNL     1      12.104 -13.990   6.124  1.00  0.00     0.041 A 
ATOM     92  F   UNL     1      10.139 -13.680   4.887  1.00  0.00    -0.206 F 
ATOM     93  C   UNL     1      13.065 -13.508   7.008  1.00  0.00     0.022 A 
BRANCH  90  94
ATOM     94  S   UNL     1      14.207 -11.517   8.594  1.00  0.00     0.124 S 
ATOM     95  O   UNL     1      14.504 -10.288   7.864  1.00  0.00    -0.237 OA
ATOM     96  O   UNL     1      13.549 -11.347   9.885  1.00  0.00    -0.237 OA
ATOM     97  O   UNL     1      15.262 -12.527   8.563  1.00  0.00    -0.744 OA
ENDBRANCH  90  94
ENDBRANCH  64  87
ENDBRANCH  38  39
ENDBRANCH  31  33
ENDBRANCH  30  31
ENDBRANCH  29  30
ENDBRANCH  28  29
ENDBRANCH  27  28
ENDBRANCH  26  27
ENDBRANCH   1  26
TORSDOF 24
