REMARK SMILES CCCCCCNC(=O)Oc1cccc(-c2ccc([C@@H](C)C(=O)OCCOCCOC(=O)c3ccc(-c4c5nc(c(-c6cc(S(=O)(=O)[O-])ccc6F)c6ccc([nH]6)c(-c6cc(S(=O)(=O)[O-])ccc6F)c6nc(c(-c7cc(S(=O)(=O)[O-])ccc7F)c7ccc4[nH]7)C=C6)C=C5)cc3)cc2)c1
REMARK SMILES IDX 24 1 22 2 23 3 20 4 21 5 19 6 16 7 17 8 97 9 18 10 96 11
REMARK SMILES IDX 15 12 11 13 12 14 98 15 13 16 14 17 10 18 8 19 7 20 9 22
REMARK SMILES IDX 6 23 5 24 4 25 3 26 2 27 1 28 25 29 26 30 27 31 28 32 29 33
REMARK SMILES IDX 30 34 31 35 32 36 33 37 34 38 95 39 35 40 94 41 36 42 37 43
REMARK SMILES IDX 38 44 88 45 39 46 93 47 87 48 89 49 40 50 92 51 86 52 85 53
REMARK SMILES IDX 41 55 73 56 53 57 72 58 54 59 57 60 71 61 90 62 55 63 56 64
REMARK SMILES IDX 70 66 91 67 58 68 42 69 43 70 51 71 44 72 50 73 52 74 49 75
REMARK SMILES IDX 45 76 46 77 47 78 48 79 74 80 75 81 83 82 76 83 82 84 84 85
REMARK SMILES IDX 81 86 77 87 78 88 79 89 80 90 59 91 60 92 68 93 61 94 67 95
REMARK SMILES IDX 69 96 66 97 62 98 63 99 64 100 65 101
REMARK H PARENT 7 21 89 54 57 65
REMARK Flexibility Score: inf
ROOT
ATOM      1  O   UNL     1      -4.008  10.819  10.523  1.00  0.00    -0.463 OA
ENDROOT
BRANCH   1   2
ATOM      2  C   UNL     1      -4.525  11.623   9.559  1.00  0.00     0.313 C 
ATOM      3  O   UNL     1      -4.264  12.816   9.434  1.00  0.00    -0.252 OA
BRANCH   2   4
ATOM      4  C   UNL     1      -5.509  10.923   8.634  1.00  0.00     0.126 C 
ATOM      5  C   UNL     1      -6.931  11.235   9.092  1.00  0.00     0.025 C 
BRANCH   4   6
ATOM      6  C   UNL     1      -5.315   9.435   8.361  1.00  0.00    -0.034 A 
ATOM      7  C   UNL     1      -5.194   6.658   7.713  1.00  0.00    -0.018 A 
ATOM      8  C   UNL     1      -5.410   7.092   9.030  1.00  0.00     0.009 A 
ATOM      9  C   UNL     1      -4.987   7.640   6.734  1.00  0.00     0.009 A 
ATOM     10  C   UNL     1      -5.473   8.456   9.350  1.00  0.00     0.005 A 
ATOM     11  C   UNL     1      -5.046   9.003   7.051  1.00  0.00     0.005 A 
BRANCH   7  12
ATOM     12  C   UNL     1      -5.256   5.228   7.352  1.00  0.00    -0.015 A 
ATOM     13  C   UNL     1      -4.364   3.264   6.231  1.00  0.00     0.133 A 
ATOM     14  C   UNL     1      -5.480   2.513   6.594  1.00  0.00     0.047 A 
ATOM     15  C   UNL     1      -4.249   4.611   6.590  1.00  0.00     0.056 A 
ATOM     16  C   UNL     1      -6.484   3.107   7.350  1.00  0.00     0.004 A 
ATOM     17  C   UNL     1      -6.371   4.450   7.724  1.00  0.00     0.009 A 
BRANCH  13  18
ATOM     18  O   UNL     1      -3.430   2.628   5.393  1.00  0.00    -0.410 OA
BRANCH  18  19
ATOM     19  C   UNL     1      -2.091   2.659   5.746  1.00  0.00     0.412 C 
ATOM     20  N   UNL     1      -1.286   1.968   4.887  1.00  0.00    -0.321 N 
ATOM     21  H   UNL     1      -0.324   1.962   5.097  1.00  0.00     0.167 HD
ATOM     22  O   UNL     1      -1.617   3.234   6.727  1.00  0.00    -0.224 OA
BRANCH  20  23
ATOM     23  C   UNL     1      -1.692   1.243   3.699  1.00  0.00     0.119 C 
BRANCH  23  24
ATOM     24  C   UNL     1      -1.095   1.847   2.427  1.00  0.00     0.021 C 
BRANCH  24  25
ATOM     25  C   UNL     1       0.434   1.769   2.333  1.00  0.00     0.002 C 
BRANCH  25  26
ATOM     26  C   UNL     1       1.027   0.355   2.345  1.00  0.00    -0.000 C 
BRANCH  26  27
ATOM     27  C   UNL     1       0.556  -0.567   1.218  1.00  0.00    -0.003 C 
ATOM     28  C   UNL     1       0.945  -0.074  -0.167  1.00  0.00     0.004 C 
ENDBRANCH  26  27
ENDBRANCH  25  26
ENDBRANCH  24  25
ENDBRANCH  23  24
ENDBRANCH  20  23
ENDBRANCH  18  19
ENDBRANCH  13  18
ENDBRANCH   7  12
ENDBRANCH   4   6
ENDBRANCH   2   4
ENDBRANCH   1   2
BRANCH   1  29
ATOM     29  C   UNL     1      -2.965  11.392  11.332  1.00  0.00     0.261 C 
BRANCH  29  30
ATOM     30  C   UNL     1      -1.628  10.684  11.101  1.00  0.00     0.202 C 
BRANCH  30  31
ATOM     31  O   UNL     1      -1.051  10.818   9.802  1.00  0.00    -0.374 OA
BRANCH  31  32
ATOM     32  C   UNL     1      -1.617  10.046   8.744  1.00  0.00     0.202 C 
BRANCH  32  33
ATOM     33  C   UNL     1      -1.304   8.545   8.709  1.00  0.00     0.261 C 
BRANCH  33  34
ATOM     34  O   UNL     1      -1.804   7.838   9.855  1.00  0.00    -0.460 OA
BRANCH  34  35
ATOM     35  C   UNL     1      -0.840   7.426  10.714  1.00  0.00     0.338 C 
ATOM     36  O   UNL     1       0.365   7.565  10.581  1.00  0.00    -0.246 OA
BRANCH  35  37
ATOM     37  C   UNL     1      -1.439   6.947  11.976  1.00  0.00     0.060 A 
ATOM     38  C   UNL     1      -0.900   7.457  13.163  1.00  0.00     0.016 A 
ATOM     39  C   UNL     1      -2.427   5.959  12.014  1.00  0.00     0.016 A 
ATOM     40  C   UNL     1      -1.284   6.927  14.390  1.00  0.00     0.010 A 
ATOM     41  C   UNL     1      -2.812   5.426  13.253  1.00  0.00     0.010 A 
ATOM     42  C   UNL     1      -2.205   5.872  14.442  1.00  0.00    -0.014 A 
BRANCH  42  43
ATOM     43  C   UNL     1      -2.363   5.134  15.723  1.00  0.00     0.031 A 
ATOM     44  C   UNL     1      -1.639   3.823  15.898  1.00  0.00     0.074 A 
ATOM     45  C   UNL     1      -3.045   5.671  16.752  1.00  0.00     0.049 A 
ATOM     46  N   UNL     1      -1.584   3.036  16.942  1.00  0.00    -0.248 NA
ATOM     47  C   UNL     1      -0.872   3.338  14.740  1.00  0.00     0.031 C 
ATOM     48  C   UNL     1      -3.733   6.962  16.724  1.00  0.00     0.029 A 
ATOM     49  N   UNL     1      -3.255   5.207  18.026  1.00  0.00    -0.354 N 
ATOM     50  C   UNL     1      -0.769   1.970  16.572  1.00  0.00     0.074 A 
ATOM     51  C   UNL     1      -0.400   2.186  15.189  1.00  0.00     0.031 C 
ATOM     52  C   UNL     1      -4.279   7.191  17.931  1.00  0.00     0.029 A 
ATOM     53  C   UNL     1      -4.012   6.051  18.806  1.00  0.00     0.049 A 
ATOM     54  H   UNL     1      -2.898   4.350  18.352  1.00  0.00     0.167 HD
ATOM     55  C   UNL     1      -0.349   0.919  17.320  1.00  0.00     0.034 A 
ATOM     56  C   UNL     1      -4.448   5.913  20.075  1.00  0.00     0.034 A 
ATOM     57  C   UNL     1      -0.732   0.708  18.694  1.00  0.00     0.049 A 
ATOM     58  C   UNL     1      -4.058   4.676  20.852  1.00  0.00     0.074 A 
ATOM     59  C   UNL     1      -0.374  -0.328  19.540  1.00  0.00     0.029 A 
ATOM     60  N   UNL     1      -1.568   1.543  19.424  1.00  0.00    -0.354 N 
ATOM     61  N   UNL     1      -3.289   3.675  20.486  1.00  0.00    -0.248 NA
ATOM     62  C   UNL     1      -4.589   4.556  22.216  1.00  0.00     0.031 C 
ATOM     63  C   UNL     1      -1.048  -0.157  20.755  1.00  0.00     0.029 A 
ATOM     64  C   UNL     1      -1.762   1.028  20.698  1.00  0.00     0.049 A 
ATOM     65  H   UNL     1      -1.964   2.379  19.087  1.00  0.00     0.167 HD
ATOM     66  C   UNL     1      -3.217   2.829  21.591  1.00  0.00     0.074 A 
ATOM     67  C   UNL     1      -4.005   3.445  22.638  1.00  0.00     0.031 C 
ATOM     68  C   UNL     1      -2.558   1.650  21.730  1.00  0.00     0.034 A 
BRANCH  55  69
ATOM     69  C   UNL     1       0.537  -0.101  16.645  1.00  0.00     0.023 A 
ATOM     70  C   UNL     1       1.823   0.228  16.179  1.00  0.00     0.031 A 
ATOM     71  C   UNL     1       0.081  -1.415  16.442  1.00  0.00     0.131 A 
ATOM     72  C   UNL     1       2.579  -0.725  15.479  1.00  0.00     0.055 A 
ATOM     73  C   UNL     1       0.869  -2.381  15.812  1.00  0.00     0.041 A 
ATOM     74  F   UNL     1      -1.147  -1.782  16.843  1.00  0.00    -0.206 F 
ATOM     75  C   UNL     1       2.121  -2.034  15.314  1.00  0.00     0.022 A 
BRANCH  72  76
ATOM     76  S   UNL     1       4.113  -0.193  14.668  1.00  0.00     0.124 S 
ATOM     77  O   UNL     1       3.625   0.845  13.765  1.00  0.00    -0.237 OA
ATOM     78  O   UNL     1       4.922   0.264  15.792  1.00  0.00    -0.237 OA
ATOM     79  O   UNL     1       4.591  -1.408  14.010  1.00  0.00    -0.744 OA
ENDBRANCH  72  76
ENDBRANCH  55  69
BRANCH  56  80
ATOM     80  C   UNL     1      -5.330   6.945  20.697  1.00  0.00     0.023 A 
ATOM     81  C   UNL     1      -4.938   7.637  21.854  1.00  0.00     0.031 A 
ATOM     82  C   UNL     1      -6.619   7.191  20.190  1.00  0.00     0.131 A 
ATOM     83  C   UNL     1      -5.844   8.494  22.499  1.00  0.00     0.055 A 
ATOM     84  C   UNL     1      -7.494   8.092  20.799  1.00  0.00     0.041 A 
ATOM     85  F   UNL     1      -7.050   6.553  19.090  1.00  0.00    -0.206 F 
ATOM     86  C   UNL     1      -7.114   8.737  21.971  1.00  0.00     0.022 A 
BRANCH  83  87
ATOM     87  S   UNL     1      -5.379   9.201  24.104  1.00  0.00     0.124 S 
ATOM     88  O   UNL     1      -5.095   8.003  24.885  1.00  0.00    -0.237 OA
ATOM     89  O   UNL     1      -4.229  10.025  23.749  1.00  0.00    -0.237 OA
ATOM     90  O   UNL     1      -6.573   9.942  24.507  1.00  0.00    -0.744 OA
ENDBRANCH  83  87
ENDBRANCH  56  80
BRANCH  68  91
ATOM     91  C   UNL     1      -2.627   0.979  23.082  1.00  0.00     0.023 A 
ATOM     92  C   UNL     1      -3.833   0.471  23.598  1.00  0.00     0.031 A 
ATOM     93  C   UNL     1      -1.470   0.861  23.874  1.00  0.00     0.131 A 
ATOM     94  C   UNL     1      -3.868  -0.073  24.891  1.00  0.00     0.055 A 
ATOM     95  C   UNL     1      -1.498   0.260  25.133  1.00  0.00     0.041 A 
ATOM     96  F   UNL     1      -0.290   1.328  23.434  1.00  0.00    -0.206 F 
ATOM     97  C   UNL     1      -2.704  -0.197  25.655  1.00  0.00     0.022 A 
BRANCH  94  98
ATOM     98  S   UNL     1      -5.473  -0.526  25.602  1.00  0.00     0.124 S 
ATOM     99  O   UNL     1      -6.199   0.738  25.544  1.00  0.00    -0.237 OA
ATOM    100  O   UNL     1      -5.935  -1.568  24.692  1.00  0.00    -0.237 OA
ATOM    101  O   UNL     1      -5.135  -0.986  26.948  1.00  0.00    -0.744 OA
ENDBRANCH  94  98
ENDBRANCH  68  91
ENDBRANCH  42  43
ENDBRANCH  35  37
ENDBRANCH  34  35
ENDBRANCH  33  34
ENDBRANCH  32  33
ENDBRANCH  31  32
ENDBRANCH  30  31
ENDBRANCH  29  30
ENDBRANCH   1  29
TORSDOF 26
