REMARK SMILES O=C(OCCOCCOC(=O)c1[nH]ncc1C[NH+]1CCC([N@H+]2CCC[C@@H](C(=O)N3CCCC3)C2)CC1)c1ccc(-c2c3nc(c(-c4cc(S(=O)(=O)[O-])ccc4F)c4ccc([nH]4)c(-c4cc(S(=O)(=O)[O-])ccc4F)c4nc(c(-c5cc(S(=O)(=O)[O-])ccc5F)c5ccc2[nH]5)C=C4)C=C3)cc1
REMARK SMILES IDX 7 1 6 2 5 3 4 4 3 5 2 6 1 7 37 8 38 9 99 10 39 11 98 12
REMARK SMILES IDX 40 13 41 14 42 15 92 16 43 17 97 18 91 19 93 20 44 21 96 22
REMARK SMILES IDX 90 23 89 24 45 26 77 27 57 28 76 29 58 30 61 31 75 32 94 33
REMARK SMILES IDX 59 34 60 35 74 37 95 38 62 39 46 40 47 41 55 42 48 43 54 44
REMARK SMILES IDX 56 45 53 46 49 47 50 48 51 49 52 50 78 51 79 52 87 53 80 54
REMARK SMILES IDX 86 55 88 56 85 57 81 58 82 59 83 60 84 61 63 62 64 63 72 64
REMARK SMILES IDX 65 65 71 66 73 67 70 68 66 69 67 70 68 71 69 72 8 73 9 74
REMARK SMILES IDX 10 75 11 76 12 77 13 78 16 79 14 80 15 82 17 83 18 84 19 85
REMARK SMILES IDX 36 86 20 88 35 89 21 90 22 91 23 92 34 93 24 95 26 96 25 97
REMARK SMILES IDX 27 98 28 99 29 100 30 101 33 102 31 103 32 104
REMARK H PARENT 93 25 61 36 13 81 18 87 22 94
REMARK Flexibility Score: inf
ROOT
ATOM      1  C   UNL     1       2.806  -1.650   1.037  1.00  0.00     0.202 C 
ENDROOT
BRANCH   1   2
ATOM      2  O   UNL     1       4.124  -1.110   0.922  1.00  0.00    -0.374 OA
BRANCH   2   3
ATOM      3  C   UNL     1       4.383   0.165   1.503  1.00  0.00     0.202 C 
BRANCH   3   4
ATOM      4  C   UNL     1       4.106   1.359   0.596  1.00  0.00     0.261 C 
BRANCH   4   5
ATOM      5  O   UNL     1       2.716   1.382   0.246  1.00  0.00    -0.460 OA
BRANCH   5   6
ATOM      6  C   UNL     1       2.161   0.916  -0.895  1.00  0.00     0.338 C 
ATOM      7  O   UNL     1       0.937   0.923  -1.006  1.00  0.00    -0.246 OA
BRANCH   6   8
ATOM      8  C   UNL     1       2.967   0.399  -2.038  1.00  0.00     0.060 A 
ATOM      9  C   UNL     1       4.137  -0.352  -1.904  1.00  0.00     0.016 A 
ATOM     10  C   UNL     1       2.446   0.587  -3.324  1.00  0.00     0.016 A 
ATOM     11  C   UNL     1       4.785  -0.899  -2.987  1.00  0.00     0.010 A 
ATOM     12  C   UNL     1       3.080   0.019  -4.431  1.00  0.00     0.010 A 
ATOM     13  C   UNL     1       4.245  -0.734  -4.252  1.00  0.00    -0.014 A 
BRANCH  13  14
ATOM     14  C   UNL     1       5.019  -1.288  -5.364  1.00  0.00     0.031 A 
ATOM     15  C   UNL     1       5.838  -0.342  -6.173  1.00  0.00     0.074 A 
ATOM     16  C   UNL     1       5.091  -2.624  -5.505  1.00  0.00     0.049 A 
ATOM     17  N   UNL     1       6.530  -0.567  -7.250  1.00  0.00    -0.248 NA
ATOM     18  C   UNL     1       5.892   1.050  -5.691  1.00  0.00     0.031 C 
ATOM     19  C   UNL     1       4.453  -3.601  -4.614  1.00  0.00     0.029 A 
ATOM     20  N   UNL     1       5.750  -3.392  -6.421  1.00  0.00    -0.354 N 
ATOM     21  C   UNL     1       7.066   0.663  -7.607  1.00  0.00     0.074 A 
ATOM     22  C   UNL     1       6.627   1.629  -6.626  1.00  0.00     0.031 C 
ATOM     23  C   UNL     1       4.758  -4.840  -5.032  1.00  0.00     0.029 A 
ATOM     24  C   UNL     1       5.522  -4.740  -6.267  1.00  0.00     0.049 A 
ATOM     25  H   UNL     1       6.331  -3.019  -7.123  1.00  0.00     0.167 HD
ATOM     26  C   UNL     1       7.838   0.939  -8.682  1.00  0.00     0.034 A 
ATOM     27  C   UNL     1       5.844  -5.760  -7.085  1.00  0.00     0.034 A 
ATOM     28  C   UNL     1       8.227  -0.077  -9.625  1.00  0.00     0.049 A 
ATOM     29  C   UNL     1       6.586  -5.405  -8.350  1.00  0.00     0.074 A 
ATOM     30  C   UNL     1       8.951   0.056 -10.793  1.00  0.00     0.029 A 
ATOM     31  N   UNL     1       7.905  -1.427  -9.502  1.00  0.00    -0.354 N 
ATOM     32  N   UNL     1       7.024  -4.228  -8.744  1.00  0.00    -0.248 NA
ATOM     33  C   UNL     1       6.864  -6.497  -9.286  1.00  0.00     0.031 C 
ATOM     34  C   UNL     1       8.993  -1.195 -11.416  1.00  0.00     0.029 A 
ATOM     35  C   UNL     1       8.379  -2.131 -10.593  1.00  0.00     0.049 A 
ATOM     36  H   UNL     1       7.411  -1.822  -8.748  1.00  0.00     0.167 HD
ATOM     37  C   UNL     1       7.649  -4.443  -9.966  1.00  0.00     0.074 A 
ATOM     38  C   UNL     1       7.548  -5.867 -10.229  1.00  0.00     0.031 C 
ATOM     39  C   UNL     1       8.248  -3.555 -10.802  1.00  0.00     0.034 A 
BRANCH  26  40
ATOM     40  C   UNL     1       8.169   2.386  -8.935  1.00  0.00     0.023 A 
ATOM     41  C   UNL     1       8.949   3.146  -8.045  1.00  0.00     0.031 A 
ATOM     42  C   UNL     1       7.607   3.043 -10.044  1.00  0.00     0.131 A 
ATOM     43  C   UNL     1       9.076   4.530  -8.237  1.00  0.00     0.055 A 
ATOM     44  C   UNL     1       7.810   4.404 -10.276  1.00  0.00     0.041 A 
ATOM     45  F   UNL     1       6.819   2.379 -10.904  1.00  0.00    -0.206 F 
ATOM     46  C   UNL     1       8.536   5.160  -9.361  1.00  0.00     0.022 A 
BRANCH  43  47
ATOM     47  S   UNL     1       9.815   5.526  -6.911  1.00  0.00     0.124 S 
ATOM     48  O   UNL     1       8.903   5.261  -5.801  1.00  0.00    -0.237 OA
ATOM     49  O   UNL     1      11.150   4.952  -6.790  1.00  0.00    -0.237 OA
ATOM     50  O   UNL     1       9.767   6.889  -7.437  1.00  0.00    -0.744 OA
ENDBRANCH  43  47
ENDBRANCH  26  40
BRANCH  27  51
ATOM     51  C   UNL     1       5.383  -7.152  -6.803  1.00  0.00     0.023 A 
ATOM     52  C   UNL     1       6.292  -8.215  -6.701  1.00  0.00     0.031 A 
ATOM     53  C   UNL     1       4.011  -7.455  -6.697  1.00  0.00     0.131 A 
ATOM     54  C   UNL     1       5.821  -9.531  -6.556  1.00  0.00     0.055 A 
ATOM     55  C   UNL     1       3.550  -8.756  -6.485  1.00  0.00     0.041 A 
ATOM     56  F   UNL     1       3.088  -6.485  -6.798  1.00  0.00    -0.206 F 
ATOM     57  C   UNL     1       4.457  -9.806  -6.431  1.00  0.00     0.022 A 
BRANCH  54  58
ATOM     58  S   UNL     1       7.013 -10.895  -6.656  1.00  0.00     0.124 S 
ATOM     59  O   UNL     1       7.645 -10.639  -7.945  1.00  0.00    -0.237 OA
ATOM     60  O   UNL     1       7.839 -10.660  -5.477  1.00  0.00    -0.237 OA
ATOM     61  O   UNL     1       6.170 -12.087  -6.599  1.00  0.00    -0.744 OA
ENDBRANCH  54  58
ENDBRANCH  27  51
BRANCH  39  62
ATOM     62  C   UNL     1       8.875  -4.123 -12.046  1.00  0.00     0.023 A 
ATOM     63  C   UNL     1       8.097  -4.672 -13.077  1.00  0.00     0.031 A 
ATOM     64  C   UNL     1      10.271  -4.088 -12.206  1.00  0.00     0.131 A 
ATOM     65  C   UNL     1       8.726  -5.209 -14.207  1.00  0.00     0.055 A 
ATOM     66  C   UNL     1      10.885  -4.558 -13.364  1.00  0.00     0.041 A 
ATOM     67  F   UNL     1      11.057  -3.575 -11.245  1.00  0.00    -0.206 F 
ATOM     68  C   UNL     1      10.112  -5.133 -14.368  1.00  0.00     0.022 A 
BRANCH  65  69
ATOM     69  S   UNL     1       7.713  -6.088 -15.425  1.00  0.00     0.124 S 
ATOM     70  O   UNL     1       7.136  -7.160 -14.621  1.00  0.00    -0.237 OA
ATOM     71  O   UNL     1       6.784  -5.052 -15.866  1.00  0.00    -0.237 OA
ATOM     72  O   UNL     1       8.683  -6.518 -16.430  1.00  0.00    -0.744 OA
ENDBRANCH  65  69
ENDBRANCH  39  62
ENDBRANCH  13  14
ENDBRANCH   6   8
ENDBRANCH   5   6
ENDBRANCH   4   5
ENDBRANCH   3   4
ENDBRANCH   2   3
ENDBRANCH   1   2
BRANCH   1  73
ATOM     73  C   UNL     1       2.937  -3.117   1.459  1.00  0.00     0.261 C 
BRANCH  73  74
ATOM     74  O   UNL     1       3.515  -3.142   2.770  1.00  0.00    -0.459 OA
BRANCH  74  75
ATOM     75  C   UNL     1       4.840  -2.838   2.825  1.00  0.00     0.356 C 
ATOM     76  O   UNL     1       5.690  -3.166   2.006  1.00  0.00    -0.244 OA
BRANCH  75  77
ATOM     77  C   UNL     1       5.061  -1.958   3.938  1.00  0.00     0.152 A 
ATOM     78  N   UNL     1       6.088  -1.062   3.990  1.00  0.00    -0.271 N 
ATOM     79  C   UNL     1       4.390  -1.824   5.146  1.00  0.00     0.059 A 
ATOM     80  N   UNL     1       6.012  -0.218   5.035  1.00  0.00    -0.183 NA
ATOM     81  H   UNL     1       6.816  -1.036   3.327  1.00  0.00     0.190 HD
ATOM     82  C   UNL     1       4.991  -0.698   5.748  1.00  0.00     0.145 A 
BRANCH  79  83
ATOM     83  C   UNL     1       3.345  -2.728   5.707  1.00  0.00     0.303 C 
BRANCH  83  84
ATOM     84  N   UNL     1       3.945  -3.946   6.289  1.00  0.00    -0.331 N 
ATOM     85  C   UNL     1       4.814  -4.673   5.354  1.00  0.00     0.268 C 
ATOM     86  C   UNL     1       4.639  -3.668   7.548  1.00  0.00     0.268 C 
ATOM     87  H   UNL     1       3.159  -4.564   6.491  1.00  0.00     0.348 HD
ATOM     88  C   UNL     1       5.322  -5.987   5.906  1.00  0.00     0.126 C 
ATOM     89  C   UNL     1       5.062  -4.977   8.208  1.00  0.00     0.126 C 
ATOM     90  C   UNL     1       5.981  -5.784   7.277  1.00  0.00     0.195 C 
BRANCH  90  91
ATOM     91  N   UNL     1       6.453  -7.035   7.913  1.00  0.00    -0.331 N 
ATOM     92  C   UNL     1       5.393  -8.030   8.101  1.00  0.00     0.262 C 
ATOM     93  C   UNL     1       7.554  -7.621   7.129  1.00  0.00     0.275 C 
ATOM     94  H   UNL     1       6.781  -6.776   8.843  1.00  0.00     0.348 HD
ATOM     95  C   UNL     1       5.938  -9.199   8.909  1.00  0.00     0.062 C 
ATOM     96  C   UNL     1       8.214  -8.847   7.782  1.00  0.00     0.134 C 
ATOM     97  C   UNL     1       7.116  -9.852   8.197  1.00  0.00     0.025 C 
BRANCH  96  98
ATOM     98  C   UNL     1       9.141  -9.538   6.769  1.00  0.00     0.231 C 
ATOM     99  O   UNL     1       9.073 -10.754   6.568  1.00  0.00    -0.274 OA
ATOM    100  N   UNL     1       9.986  -8.765   6.010  1.00  0.00    -0.342 N 
ATOM    101  C   UNL     1      10.667  -7.525   6.329  1.00  0.00     0.119 C 
ATOM    102  C   UNL     1      10.166  -9.094   4.607  1.00  0.00     0.119 C 
ATOM    103  C   UNL     1      10.524  -6.735   5.040  1.00  0.00     0.023 C 
ATOM    104  C   UNL     1      10.688  -7.811   3.963  1.00  0.00     0.023 C 
ENDBRANCH  96  98
ENDBRANCH  90  91
ENDBRANCH  83  84
ENDBRANCH  79  83
ENDBRANCH  75  77
ENDBRANCH  74  75
ENDBRANCH  73  74
ENDBRANCH   1  73
TORSDOF 21
