REMARK SMILES C[C@@H](NC(=O)CCCN1C(=O)/C(=C/c2c3ccccc3cc3ccccc23)SC1=S)C(=O)OCCOCCOC(=O)c1ccc(-c2c3nc(c(-c4cc(S(=O)(=O)[O-])ccc4F)c4ccc([nH]4)c(-c4cc(S(=O)(=O)[O-])ccc4F)c4nc(c(-c5cc(S(=O)(=O)[O-])ccc5F)c5ccc2[nH]5)C=C4)C=C3)cc1
REMARK SMILES IDX 34 1 33 2 31 3 32 4 2 5 1 6 3 7 4 8 5 10 6 11 7 12 8 13 9 14
REMARK SMILES IDX 10 15 29 16 11 17 12 18 28 19 30 20 13 21 14 22 15 23 27 24
REMARK SMILES IDX 16 25 20 26 22 27 26 28 17 29 19 30 21 31 23 32 25 33 18 34
REMARK SMILES IDX 24 35 35 36 36 37 37 38 38 39 39 40 40 41 41 42 42 43 43 44
REMARK SMILES IDX 104 45 44 46 103 47 45 48 46 49 47 50 97 51 48 52 102 53
REMARK SMILES IDX 96 54 98 55 49 56 101 57 95 58 94 59 50 61 82 62 62 63 81 64
REMARK SMILES IDX 63 65 66 66 80 67 99 68 64 69 65 70 79 72 100 73 67 74 51 75
REMARK SMILES IDX 52 76 60 77 53 78 59 79 61 80 58 81 54 82 55 83 56 84 57 85
REMARK SMILES IDX 83 86 84 87 92 88 85 89 91 90 93 91 90 92 86 93 87 94 88 95
REMARK SMILES IDX 89 96 68 97 69 98 77 99 70 100 76 101 78 102 75 103 71 104
REMARK SMILES IDX 72 105 73 106 74 107
REMARK H PARENT 3 9 98 60 66 71
REMARK Flexibility Score: inf
ROOT
ATOM      1  C   UNL     1      -3.123   2.305  -1.213  1.00  0.00     0.261 C 
ENDROOT
BRANCH   1   2
ATOM      2  O   UNL     1      -1.655   2.141  -1.169  1.00  0.00    -0.462 OA
BRANCH   2   3
ATOM      3  C   UNL     1      -0.902   3.057  -1.858  1.00  0.00     0.328 C 
ATOM      4  O   UNL     1      -1.401   4.109  -2.259  1.00  0.00    -0.250 OA
BRANCH   3   5
ATOM      5  C   UNL     1       0.559   2.613  -2.360  1.00  0.00     0.189 C 
ATOM      6  C   UNL     1       1.686   1.712  -1.817  1.00  0.00     0.043 C 
BRANCH   5   7
ATOM      7  N   UNL     1       0.391   2.112  -3.698  1.00  0.00    -0.343 N 
ATOM      8  C   UNL     1      -0.019   0.824  -3.895  1.00  0.00     0.220 C 
ATOM      9  H   UNL     1       0.571   2.696  -4.470  1.00  0.00     0.164 HD
ATOM     10  O   UNL     1       0.281   0.269  -4.949  1.00  0.00    -0.275 OA
BRANCH   8  11
ATOM     11  C   UNL     1      -0.908   0.165  -2.825  1.00  0.00     0.102 C 
BRANCH  11  12
ATOM     12  C   UNL     1      -0.503  -0.346  -1.381  1.00  0.00     0.032 C 
BRANCH  12  13
ATOM     13  C   UNL     1       0.041   0.180   0.090  1.00  0.00     0.128 C 
BRANCH  13  14
ATOM     14  N   UNL     1      -0.249   1.411   0.967  1.00  0.00    -0.293 N 
ATOM     15  C   UNL     1      -0.740   1.117   2.236  1.00  0.00     0.266 C 
ATOM     16  C   UNL     1       0.285   2.687   1.098  1.00  0.00     0.148 C 
ATOM     17  O   UNL     1      -0.589   0.064   2.840  1.00  0.00    -0.268 OA
ATOM     18  C   UNL     1      -1.339   2.320   2.887  1.00  0.00     0.081 C 
ATOM     19  S   UNL     1      -0.815   3.700   2.038  1.00  0.00    -0.054 SA
ATOM     20  S   UNL     1       1.784   3.380   0.832  1.00  0.00    -0.052 S 
ATOM     21  C   UNL     1      -2.158   2.273   3.947  1.00  0.00     0.030 C 
BRANCH  21  22
ATOM     22  C   UNL     1      -2.519   3.483   4.720  1.00  0.00    -0.009 A 
ATOM     23  C   UNL     1      -3.374   4.501   4.187  1.00  0.00    -0.010 A 
ATOM     24  C   UNL     1      -1.803   3.671   5.941  1.00  0.00    -0.010 A 
ATOM     25  C   UNL     1      -4.147   4.377   3.004  1.00  0.00     0.009 A 
ATOM     26  C   UNL     1      -3.425   5.744   4.853  1.00  0.00    -0.017 A 
ATOM     27  C   UNL     1      -1.879   4.924   6.577  1.00  0.00    -0.017 A 
ATOM     28  C   UNL     1      -0.977   2.679   6.537  1.00  0.00     0.009 A 
ATOM     29  C   UNL     1      -4.897   5.432   2.481  1.00  0.00     0.001 A 
ATOM     30  C   UNL     1      -4.184   6.802   4.317  1.00  0.00     0.009 A 
ATOM     31  C   UNL     1      -2.682   5.935   6.027  1.00  0.00     0.017 A 
ATOM     32  C   UNL     1      -1.119   5.165   7.735  1.00  0.00     0.009 A 
ATOM     33  C   UNL     1      -0.234   2.929   7.689  1.00  0.00     0.001 A 
ATOM     34  C   UNL     1      -4.906   6.652   3.134  1.00  0.00     0.001 A 
ATOM     35  C   UNL     1      -0.297   4.180   8.282  1.00  0.00     0.001 A 
ENDBRANCH  21  22
ENDBRANCH  13  14
ENDBRANCH  12  13
ENDBRANCH  11  12
ENDBRANCH   8  11
ENDBRANCH   5   7
ENDBRANCH   3   5
ENDBRANCH   2   3
ENDBRANCH   1   2
BRANCH   1  36
ATOM     36  C   UNL     1      -3.908   0.973  -0.957  1.00  0.00     0.202 C 
BRANCH  36  37
ATOM     37  O   UNL     1      -4.638   0.893   0.282  1.00  0.00    -0.374 OA
BRANCH  37  38
ATOM     38  C   UNL     1      -3.818   0.817   1.438  1.00  0.00     0.202 C 
BRANCH  38  39
ATOM     39  C   UNL     1      -3.618  -0.551   2.091  1.00  0.00     0.261 C 
BRANCH  39  40
ATOM     40  O   UNL     1      -3.409  -1.557   1.119  1.00  0.00    -0.460 OA
BRANCH  40  41
ATOM     41  C   UNL     1      -4.502  -2.335   0.991  1.00  0.00     0.338 C 
ATOM     42  O   UNL     1      -5.516  -2.337   1.672  1.00  0.00    -0.246 OA
BRANCH  41  43
ATOM     43  C   UNL     1      -4.370  -3.087  -0.243  1.00  0.00     0.060 A 
ATOM     44  C   UNL     1      -5.402  -2.929  -1.169  1.00  0.00     0.016 A 
ATOM     45  C   UNL     1      -3.317  -3.984  -0.433  1.00  0.00     0.016 A 
ATOM     46  C   UNL     1      -5.440  -3.757  -2.272  1.00  0.00     0.010 A 
ATOM     47  C   UNL     1      -3.350  -4.807  -1.548  1.00  0.00     0.010 A 
ATOM     48  C   UNL     1      -4.446  -4.730  -2.427  1.00  0.00    -0.014 A 
BRANCH  48  49
ATOM     49  C   UNL     1      -4.678  -5.822  -3.383  1.00  0.00     0.031 A 
ATOM     50  C   UNL     1      -5.183  -7.126  -2.845  1.00  0.00     0.074 A 
ATOM     51  C   UNL     1      -4.453  -5.614  -4.687  1.00  0.00     0.049 A 
ATOM     52  N   UNL     1      -5.382  -8.257  -3.463  1.00  0.00    -0.248 NA
ATOM     53  C   UNL     1      -5.485  -7.162  -1.404  1.00  0.00     0.031 C 
ATOM     54  C   UNL     1      -4.001  -4.351  -5.270  1.00  0.00     0.029 A 
ATOM     55  N   UNL     1      -4.555  -6.465  -5.749  1.00  0.00    -0.354 N 
ATOM     56  C   UNL     1      -5.812  -9.147  -2.484  1.00  0.00     0.074 A 
ATOM     57  C   UNL     1      -5.801  -8.434  -1.227  1.00  0.00     0.031 C 
ATOM     58  C   UNL     1      -3.838  -4.519  -6.591  1.00  0.00     0.029 A 
ATOM     59  C   UNL     1      -4.132  -5.909  -6.929  1.00  0.00     0.049 A 
ATOM     60  H   UNL     1      -4.899  -7.385  -5.675  1.00  0.00     0.167 HD
ATOM     61  C   UNL     1      -6.186 -10.440  -2.637  1.00  0.00     0.034 A 
ATOM     62  C   UNL     1      -3.964  -6.482  -8.134  1.00  0.00     0.034 A 
ATOM     63  C   UNL     1      -6.160 -11.104  -3.917  1.00  0.00     0.049 A 
ATOM     64  C   UNL     1      -4.328  -7.936  -8.279  1.00  0.00     0.074 A 
ATOM     65  C   UNL     1      -6.522 -12.400  -4.231  1.00  0.00     0.029 A 
ATOM     66  N   UNL     1      -5.725 -10.514  -5.102  1.00  0.00    -0.354 N 
ATOM     67  N   UNL     1      -4.748  -8.776  -7.358  1.00  0.00    -0.248 NA
ATOM     68  C   UNL     1      -4.213  -8.515  -9.620  1.00  0.00     0.031 C 
ATOM     69  C   UNL     1      -6.233 -12.616  -5.583  1.00  0.00     0.029 A 
ATOM     70  C   UNL     1      -5.776 -11.429  -6.140  1.00  0.00     0.049 A 
ATOM     71  H   UNL     1      -5.424  -9.581  -5.189  1.00  0.00     0.167 HD
ATOM     72  C   UNL     1      -4.977  -9.980  -8.015  1.00  0.00     0.074 A 
ATOM     73  C   UNL     1      -4.649  -9.751  -9.411  1.00  0.00     0.031 C 
ATOM     74  C   UNL     1      -5.428 -11.162  -7.519  1.00  0.00     0.034 A 
BRANCH  61  75
ATOM     75  C   UNL     1      -6.564 -11.204  -1.388  1.00  0.00     0.023 A 
ATOM     76  C   UNL     1      -7.622 -10.795  -0.554  1.00  0.00     0.031 A 
ATOM     77  C   UNL     1      -5.795 -12.305  -0.970  1.00  0.00     0.131 A 
ATOM     78  C   UNL     1      -7.811 -11.408   0.695  1.00  0.00     0.055 A 
ATOM     79  C   UNL     1      -6.051 -12.973   0.230  1.00  0.00     0.041 A 
ATOM     80  F   UNL     1      -4.755 -12.730  -1.704  1.00  0.00    -0.206 F 
ATOM     81  C   UNL     1      -7.049 -12.511   1.082  1.00  0.00     0.022 A 
BRANCH  78  82
ATOM     82  S   UNL     1      -8.928 -10.617   1.889  1.00  0.00     0.124 S 
ATOM     83  O   UNL     1      -8.356  -9.275   1.983  1.00  0.00    -0.237 OA
ATOM     84  O   UNL     1     -10.221 -10.715   1.223  1.00  0.00    -0.237 OA
ATOM     85  O   UNL     1      -8.780 -11.434   3.091  1.00  0.00    -0.744 OA
ENDBRANCH  78  82
ENDBRANCH  61  75
BRANCH  62  86
ATOM     86  C   UNL     1      -3.400  -5.682  -9.253  1.00  0.00     0.023 A 
ATOM     87  C   UNL     1      -4.177  -5.331 -10.365  1.00  0.00     0.031 A 
ATOM     88  C   UNL     1      -2.074  -5.213  -9.197  1.00  0.00     0.131 A 
ATOM     89  C   UNL     1      -3.618  -4.546 -11.386  1.00  0.00     0.055 A 
ATOM     90  C   UNL     1      -1.536  -4.398 -10.193  1.00  0.00     0.041 A 
ATOM     91  F   UNL     1      -1.293  -5.512  -8.146  1.00  0.00    -0.206 F 
ATOM     92  C   UNL     1      -2.309  -4.065 -11.300  1.00  0.00     0.022 A 
BRANCH  89  93
ATOM     93  S   UNL     1      -4.622  -4.185 -12.852  1.00  0.00     0.124 S 
ATOM     94  O   UNL     1      -4.908  -5.525 -13.354  1.00  0.00    -0.237 OA
ATOM     95  O   UNL     1      -5.750  -3.461 -12.278  1.00  0.00    -0.237 OA
ATOM     96  O   UNL     1      -3.729  -3.383 -13.687  1.00  0.00    -0.744 OA
ENDBRANCH  89  93
ENDBRANCH  62  86
BRANCH  74  97
ATOM     97  C   UNL     1      -5.642 -12.277  -8.510  1.00  0.00     0.023 A 
ATOM     98  C   UNL     1      -4.568 -12.911  -9.157  1.00  0.00     0.031 A 
ATOM     99  C   UNL     1      -6.946 -12.724  -8.789  1.00  0.00     0.131 A 
ATOM    100  C   UNL     1      -4.822 -13.930 -10.086  1.00  0.00     0.055 A 
ATOM    101  C   UNL     1      -7.188 -13.779  -9.666  1.00  0.00     0.041 A 
ATOM    102  F   UNL     1      -8.006 -12.149  -8.197  1.00  0.00    -0.206 F 
ATOM    103  C   UNL     1      -6.123 -14.382 -10.329  1.00  0.00     0.022 A 
BRANCH 100 104
ATOM    104  S   UNL     1      -3.434 -14.609 -11.034  1.00  0.00     0.124 S 
ATOM    105  O   UNL     1      -2.932 -13.425 -11.723  1.00  0.00    -0.237 OA
ATOM    106  O   UNL     1      -2.574 -15.150  -9.986  1.00  0.00    -0.237 OA
ATOM    107  O   UNL     1      -4.064 -15.608 -11.895  1.00  0.00    -0.744 OA
ENDBRANCH 100 104
ENDBRANCH  74  97
ENDBRANCH  48  49
ENDBRANCH  41  43
ENDBRANCH  40  41
ENDBRANCH  39  40
ENDBRANCH  38  39
ENDBRANCH  37  38
ENDBRANCH  36  37
ENDBRANCH   1  36
TORSDOF 23
