REMARK SMILES O=C(OCCOCCOC(=O)c1cc(Cl)c2c(c1)[C@H]1C=CC[C@H]1[C@H](c1ccc(S(=O)(=O)N3CCOCC3)cc1)N2)c1ccc(-c2c3nc(c(-c4cc(S(=O)(=O)[O-])ccc4F)c4ccc([nH]4)c(-c4cc(S(=O)(=O)[O-])ccc4F)c4nc(c(-c5cc(S(=O)(=O)[O-])ccc5F)c5ccc2[nH]5)C=C4)C=C3)cc1
REMARK SMILES IDX 6 1 5 2 4 3 3 4 2 5 1 6 41 7 42 8 103 9 43 10 102 11 44 12
REMARK SMILES IDX 45 13 46 14 96 15 47 16 101 17 95 18 97 19 48 20 100 21
REMARK SMILES IDX 94 22 93 23 49 25 81 26 61 27 80 28 62 29 65 30 79 31 98 32
REMARK SMILES IDX 63 33 64 34 78 36 99 37 66 38 50 39 51 40 59 41 52 42 58 43
REMARK SMILES IDX 60 44 57 45 53 46 54 47 55 48 56 49 82 50 83 51 91 52 84 53
REMARK SMILES IDX 90 54 92 55 89 56 85 57 86 58 87 59 88 60 67 61 68 62 76 63
REMARK SMILES IDX 69 64 75 65 77 66 74 67 70 68 71 69 72 70 73 71 7 72 8 73
REMARK SMILES IDX 9 74 10 75 11 76 12 77 13 78 18 79 14 80 17 81 15 82 16 83
REMARK SMILES IDX 19 84 40 85 20 86 23 87 24 88 21 90 22 91 25 92 26 93 39 94
REMARK SMILES IDX 27 95 38 96 28 97 29 98 30 99 31 100 32 101 33 102 37 103
REMARK SMILES IDX 34 104 36 105 35 106
REMARK H PARENT 97 24 65 35 40 89
REMARK Flexibility Score: inf
ROOT
ATOM      1  O   UNL     1       4.114   1.436  -0.510  1.00  0.00    -0.374 OA
ENDROOT
BRANCH   1   2
ATOM      2  C   UNL     1       4.413   0.451  -1.494  1.00  0.00     0.202 C 
BRANCH   2   3
ATOM      3  C   UNL     1       4.293  -0.994  -1.011  1.00  0.00     0.261 C 
BRANCH   3   4
ATOM      4  O   UNL     1       2.968  -1.293  -0.557  1.00  0.00    -0.460 OA
BRANCH   4   5
ATOM      5  C   UNL     1       2.467  -1.249   0.699  1.00  0.00     0.338 C 
ATOM      6  O   UNL     1       1.363  -1.765   0.880  1.00  0.00    -0.246 OA
BRANCH   5   7
ATOM      7  C   UNL     1       3.116  -0.558   1.866  1.00  0.00     0.060 A 
ATOM      8  C   UNL     1       4.374   0.049   1.875  1.00  0.00     0.016 A 
ATOM      9  C   UNL     1       2.360  -0.486   3.054  1.00  0.00     0.016 A 
ATOM     10  C   UNL     1       4.845   0.747   2.977  1.00  0.00     0.010 A 
ATOM     11  C   UNL     1       2.851   0.156   4.197  1.00  0.00     0.010 A 
ATOM     12  C   UNL     1       4.106   0.761   4.154  1.00  0.00    -0.014 A 
BRANCH  12  13
ATOM     13  C   UNL     1       4.810   1.228   5.355  1.00  0.00     0.031 A 
ATOM     14  C   UNL     1       5.792   0.283   5.979  1.00  0.00     0.074 A 
ATOM     15  C   UNL     1       4.700   2.504   5.754  1.00  0.00     0.049 A 
ATOM     16  N   UNL     1       6.659   0.504   6.925  1.00  0.00    -0.248 NA
ATOM     17  C   UNL     1       5.841  -1.083   5.420  1.00  0.00     0.031 C 
ATOM     18  C   UNL     1       3.860   3.515   5.114  1.00  0.00     0.029 A 
ATOM     19  N   UNL     1       5.316   3.170   6.778  1.00  0.00    -0.354 N 
ATOM     20  C   UNL     1       7.374  -0.677   7.054  1.00  0.00     0.074 A 
ATOM     21  C   UNL     1       6.845  -1.618   6.097  1.00  0.00     0.031 C 
ATOM     22  C   UNL     1       3.997   4.674   5.778  1.00  0.00     0.029 A 
ATOM     23  C   UNL     1       4.912   4.477   6.902  1.00  0.00     0.049 A 
ATOM     24  H   UNL     1       5.984   2.753   7.369  1.00  0.00     0.167 HD
ATOM     25  C   UNL     1       8.379  -0.949   7.914  1.00  0.00     0.034 A 
ATOM     26  C   UNL     1       5.234   5.393   7.836  1.00  0.00     0.034 A 
ATOM     27  C   UNL     1       8.825  -0.022   8.913  1.00  0.00     0.049 A 
ATOM     28  C   UNL     1       6.252   5.015   8.883  1.00  0.00     0.074 A 
ATOM     29  C   UNL     1       9.779  -0.216   9.892  1.00  0.00     0.029 A 
ATOM     30  N   UNL     1       8.325   1.262   9.078  1.00  0.00    -0.354 N 
ATOM     31  N   UNL     1       6.936   3.900   8.998  1.00  0.00    -0.248 NA
ATOM     32  C   UNL     1       6.550   6.008   9.923  1.00  0.00     0.031 C 
ATOM     33  C   UNL     1       9.805   0.925  10.694  1.00  0.00     0.029 A 
ATOM     34  C   UNL     1       8.924   1.861  10.169  1.00  0.00     0.049 A 
ATOM     35  H   UNL     1       7.645   1.683   8.504  1.00  0.00     0.167 HD
ATOM     36  C   UNL     1       7.761   4.064  10.105  1.00  0.00     0.074 A 
ATOM     37  C   UNL     1       7.500   5.394  10.618  1.00  0.00     0.031 C 
ATOM     38  C   UNL     1       8.653   3.196  10.648  1.00  0.00     0.034 A 
BRANCH  25  39
ATOM     39  C   UNL     1       9.002  -2.312   7.864  1.00  0.00     0.023 A 
ATOM     40  C   UNL     1       8.777  -3.215   8.917  1.00  0.00     0.031 A 
ATOM     41  C   UNL     1       9.866  -2.693   6.823  1.00  0.00     0.131 A 
ATOM     42  C   UNL     1       9.440  -4.445   8.927  1.00  0.00     0.055 A 
ATOM     43  C   UNL     1      10.502  -3.935   6.823  1.00  0.00     0.041 A 
ATOM     44  F   UNL     1      10.087  -1.871   5.784  1.00  0.00    -0.206 F 
ATOM     45  C   UNL     1      10.298  -4.813   7.884  1.00  0.00     0.022 A 
BRANCH  42  46
ATOM     46  S   UNL     1       9.225  -5.602  10.304  1.00  0.00     0.124 S 
ATOM     47  O   UNL     1       8.879  -6.840   9.609  1.00  0.00    -0.237 OA
ATOM     48  O   UNL     1      10.546  -5.582  10.925  1.00  0.00    -0.237 OA
ATOM     49  O   UNL     1       8.146  -5.014  11.090  1.00  0.00    -0.744 OA
ENDBRANCH  42  46
ENDBRANCH  25  39
BRANCH  26  50
ATOM     50  C   UNL     1       4.572   6.728   7.804  1.00  0.00     0.023 A 
ATOM     51  C   UNL     1       3.175   6.831   7.940  1.00  0.00     0.031 A 
ATOM     52  C   UNL     1       5.299   7.903   7.554  1.00  0.00     0.131 A 
ATOM     53  C   UNL     1       2.542   8.068   7.763  1.00  0.00     0.055 A 
ATOM     54  C   UNL     1       4.670   9.145   7.439  1.00  0.00     0.041 A 
ATOM     55  F   UNL     1       6.632   7.856   7.411  1.00  0.00    -0.206 F 
ATOM     56  C   UNL     1       3.283   9.229   7.529  1.00  0.00     0.022 A 
BRANCH  53  57
ATOM     57  S   UNL     1       0.732   8.189   7.740  1.00  0.00     0.124 S 
ATOM     58  O   UNL     1       0.479   9.210   8.753  1.00  0.00    -0.237 OA
ATOM     59  O   UNL     1       0.481   8.595   6.359  1.00  0.00    -0.237 OA
ATOM     60  O   UNL     1       0.291   6.841   8.083  1.00  0.00    -0.744 OA
ENDBRANCH  53  57
ENDBRANCH  26  50
BRANCH  38  61
ATOM     61  C   UNL     1       9.439   3.634  11.856  1.00  0.00     0.023 A 
ATOM     62  C   UNL     1      10.839   3.748  11.765  1.00  0.00     0.031 A 
ATOM     63  C   UNL     1       8.836   3.745  13.118  1.00  0.00     0.131 A 
ATOM     64  C   UNL     1      11.597   3.913  12.928  1.00  0.00     0.055 A 
ATOM     65  C   UNL     1       9.593   3.960  14.270  1.00  0.00     0.041 A 
ATOM     66  F   UNL     1       7.505   3.628  13.251  1.00  0.00    -0.206 F 
ATOM     67  C   UNL     1      10.982   4.028  14.179  1.00  0.00     0.022 A 
BRANCH  64  68
ATOM     68  S   UNL     1      13.409   3.891  12.869  1.00  0.00     0.124 S 
ATOM     69  O   UNL     1      13.748   5.177  13.474  1.00  0.00    -0.237 OA
ATOM     70  O   UNL     1      13.728   2.717  13.677  1.00  0.00    -0.237 OA
ATOM     71  O   UNL     1      13.715   3.777  11.447  1.00  0.00    -0.744 OA
ENDBRANCH  64  68
ENDBRANCH  38  61
ENDBRANCH  12  13
ENDBRANCH   5   7
ENDBRANCH   4   5
ENDBRANCH   3   4
ENDBRANCH   2   3
ENDBRANCH   1   2
BRANCH   1  72
ATOM     72  C   UNL     1       2.804   2.003  -0.579  1.00  0.00     0.202 C 
BRANCH  72  73
ATOM     73  C   UNL     1       2.834   3.383  -1.241  1.00  0.00     0.261 C 
BRANCH  73  74
ATOM     74  O   UNL     1       3.325   3.269  -2.587  1.00  0.00    -0.460 OA
BRANCH  74  75
ATOM     75  C   UNL     1       4.666   3.442  -2.727  1.00  0.00     0.338 C 
ATOM     76  O   UNL     1       5.463   3.855  -1.915  1.00  0.00    -0.246 OA
BRANCH  75  77
ATOM     77  C   UNL     1       5.054   2.824  -4.010  1.00  0.00     0.062 A 
ATOM     78  C   UNL     1       4.321   3.058  -5.167  1.00  0.00     0.038 A 
ATOM     79  C   UNL     1       6.141   1.941  -4.021  1.00  0.00     0.022 A 
ATOM     80  C   UNL     1       4.702   2.417  -6.340  1.00  0.00     0.065 A 
ATOM     81  C   UNL     1       6.479   1.237  -5.186  1.00  0.00    -0.015 A 
ATOM     82  Cl  UNL     1       3.805   2.761  -7.782  1.00  0.00    -0.082 Cl
ATOM     83  C   UNL     1       5.777   1.500  -6.369  1.00  0.00     0.057 A 
ATOM     84  C   UNL     1       7.599   0.233  -5.150  1.00  0.00     0.049 C 
ATOM     85  N   UNL     1       6.185   0.937  -7.562  1.00  0.00    -0.376 N 
ATOM     86  C   UNL     1       7.223  -1.153  -4.686  1.00  0.00    -0.023 C 
ATOM     87  C   UNL     1       8.224  -0.067  -6.525  1.00  0.00     0.031 C 
ATOM     88  C   UNL     1       7.146  -0.143  -7.633  1.00  0.00     0.114 C 
ATOM     89  H   UNL     1       5.806   1.285  -8.401  1.00  0.00     0.161 HD
ATOM     90  C   UNL     1       7.953  -2.082  -5.319  1.00  0.00    -0.030 C 
ATOM     91  C   UNL     1       8.881  -1.447  -6.310  1.00  0.00     0.034 C 
BRANCH  88  92
ATOM     92  C   UNL     1       7.767  -0.093  -9.022  1.00  0.00    -0.025 A 
ATOM     93  C   UNL     1       8.325   1.098  -9.524  1.00  0.00     0.007 A 
ATOM     94  C   UNL     1       7.755  -1.234  -9.834  1.00  0.00     0.007 A 
ATOM     95  C   UNL     1       8.908   1.134 -10.789  1.00  0.00     0.022 A 
ATOM     96  C   UNL     1       8.302  -1.190 -11.114  1.00  0.00     0.022 A 
ATOM     97  C   UNL     1       8.918  -0.024 -11.568  1.00  0.00     0.082 A 
BRANCH  97  98
ATOM     98  S   UNL     1       9.781  -0.035 -13.121  1.00  0.00     0.243 S 
ATOM     99  O   UNL     1       8.804  -0.318 -14.149  1.00  0.00    -0.207 OA
ATOM    100  O   UNL     1      10.601   1.158 -13.163  1.00  0.00    -0.207 OA
BRANCH  98 101
ATOM    101  N   UNL     1      10.825  -1.341 -12.980  1.00  0.00    -0.193 NA
ATOM    102  C   UNL     1      10.505  -2.674 -13.530  1.00  0.00     0.131 C 
ATOM    103  C   UNL     1      11.940  -1.320 -12.010  1.00  0.00     0.131 C 
ATOM    104  C   UNL     1      10.497  -3.764 -12.449  1.00  0.00     0.177 C 
ATOM    105  C   UNL     1      11.757  -2.426 -10.968  1.00  0.00     0.177 C 
ATOM    106  O   UNL     1      11.650  -3.709 -11.601  1.00  0.00    -0.379 OA
ENDBRANCH  98 101
ENDBRANCH  97  98
ENDBRANCH  88  92
ENDBRANCH  75  77
ENDBRANCH  74  75
ENDBRANCH  73  74
ENDBRANCH  72  73
ENDBRANCH   1  72
TORSDOF 20
