REMARK SMILES CC(C)(O)CC[C@@]1(C(=O)OCCOCCOC(=O)c2ccc(-c3c4nc(c(-c5cc(S(=O)(=O)[O-])ccc5F)c5ccc([nH]5)c(-c5cc(S(=O)(=O)[O-])ccc5F)c5nc(c(-c6cc(S(=O)(=O)[O-])ccc6F)c6ccc3[nH]6)C=C5)C=C4)cc2)CCc2ccccc21
REMARK SMILES IDX 12 1 11 2 10 3 8 4 9 5 7 6 82 7 89 8 83 9 84 10 88 11 85 12
REMARK SMILES IDX 87 13 86 14 6 15 5 16 2 17 1 18 3 19 4 20 13 22 14 23 15 24
REMARK SMILES IDX 16 25 17 26 18 27 19 28 20 29 81 30 21 31 80 32 22 33 23 34
REMARK SMILES IDX 24 35 74 36 25 37 79 38 73 39 75 40 26 41 78 42 72 43 71 44
REMARK SMILES IDX 27 46 59 47 39 48 58 49 40 50 43 51 57 52 76 53 41 54 42 55
REMARK SMILES IDX 56 57 77 58 44 59 28 60 29 61 37 62 30 63 36 64 38 65 35 66
REMARK SMILES IDX 31 67 32 68 33 69 34 70 60 71 61 72 69 73 62 74 68 75 70 76
REMARK SMILES IDX 67 77 63 78 64 79 65 80 66 81 45 82 46 83 54 84 47 85 53 86
REMARK SMILES IDX 55 87 52 88 48 89 49 90 50 91 51 92
REMARK H PARENT 4 21 75 45 43 56
REMARK Flexibility Score: inf
ROOT
ATOM      1  C   UNL     1      -1.310   2.663   3.463  1.00  0.00     0.202 C 
ENDROOT
BRANCH   1   2
ATOM      2  C   UNL     1      -0.032   2.482   2.645  1.00  0.00     0.261 C 
BRANCH   2   3
ATOM      3  O   UNL     1       0.186   1.112   2.272  1.00  0.00    -0.463 OA
BRANCH   3   4
ATOM      4  C   UNL     1       1.317   0.568   2.787  1.00  0.00     0.316 C 
ATOM      5  O   UNL     1       2.125   1.198   3.466  1.00  0.00    -0.251 OA
BRANCH   4   6
ATOM      6  C   UNL     1       1.536  -0.903   2.392  1.00  0.00     0.094 C 
ATOM      7  C   UNL     1       0.339  -1.781   1.937  1.00  0.00     0.028 C 
ATOM      8  C   UNL     1       1.852  -1.755   3.657  1.00  0.00    -0.028 A 
ATOM      9  C   UNL     1       0.760  -3.240   2.160  1.00  0.00     0.037 C 
ATOM     10  C   UNL     1       1.395  -3.075   3.493  1.00  0.00    -0.044 A 
ATOM     11  C   UNL     1       2.289  -1.364   4.919  1.00  0.00     0.005 A 
ATOM     12  C   UNL     1       1.422  -4.017   4.512  1.00  0.00     0.004 A 
ATOM     13  C   UNL     1       2.264  -2.287   5.976  1.00  0.00     0.000 A 
ATOM     14  C   UNL     1       1.846  -3.607   5.771  1.00  0.00     0.000 A 
BRANCH   6  15
ATOM     15  C   UNL     1       2.662  -0.862   1.317  1.00  0.00     0.026 C 
BRANCH  15  16
ATOM     16  C   UNL     1       2.301  -1.046  -0.188  1.00  0.00     0.036 C 
BRANCH  16  17
ATOM     17  C   UNL     1       1.447  -0.016  -0.991  1.00  0.00     0.059 C 
ATOM     18  C   UNL     1      -0.076  -0.082  -0.825  1.00  0.00     0.042 C 
ATOM     19  C   UNL     1       1.716  -0.252  -2.490  1.00  0.00     0.042 C 
BRANCH  17  20
ATOM     20  O   UNL     1       1.874   1.298  -0.647  1.00  0.00    -0.390 OA
ATOM     21  H   UNL     1       1.349   1.948  -1.141  1.00  0.00     0.211 HD
ENDBRANCH  17  20
ENDBRANCH  16  17
ENDBRANCH  15  16
ENDBRANCH   6  15
ENDBRANCH   4   6
ENDBRANCH   3   4
ENDBRANCH   2   3
ENDBRANCH   1   2
BRANCH   1  22
ATOM     22  O   UNL     1      -1.471   1.871   4.637  1.00  0.00    -0.374 OA
BRANCH  22  23
ATOM     23  C   UNL     1      -1.656   0.465   4.485  1.00  0.00     0.202 C 
BRANCH  23  24
ATOM     24  C   UNL     1      -2.954  -0.039   3.836  1.00  0.00     0.261 C 
BRANCH  24  25
ATOM     25  O   UNL     1      -3.191   0.469   2.510  1.00  0.00    -0.460 OA
BRANCH  25  26
ATOM     26  C   UNL     1      -4.238   1.328   2.420  1.00  0.00     0.338 C 
ATOM     27  O   UNL     1      -4.995   1.658   3.327  1.00  0.00    -0.246 OA
BRANCH  26  28
ATOM     28  C   UNL     1      -4.261   1.990   1.103  1.00  0.00     0.060 A 
ATOM     29  C   UNL     1      -4.223   3.391   1.080  1.00  0.00     0.016 A 
ATOM     30  C   UNL     1      -4.415   1.267  -0.081  1.00  0.00     0.016 A 
ATOM     31  C   UNL     1      -4.376   4.076  -0.123  1.00  0.00     0.010 A 
ATOM     32  C   UNL     1      -4.582   1.958  -1.288  1.00  0.00     0.010 A 
ATOM     33  C   UNL     1      -4.592   3.366  -1.311  1.00  0.00    -0.014 A 
BRANCH  33  34
ATOM     34  C   UNL     1      -4.953   4.104  -2.548  1.00  0.00     0.031 A 
ATOM     35  C   UNL     1      -6.400   4.198  -2.950  1.00  0.00     0.074 A 
ATOM     36  C   UNL     1      -4.004   4.716  -3.280  1.00  0.00     0.049 A 
ATOM     37  N   UNL     1      -6.934   4.762  -4.003  1.00  0.00    -0.248 NA
ATOM     38  C   UNL     1      -7.373   3.573  -2.042  1.00  0.00     0.031 C 
ATOM     39  C   UNL     1      -2.578   4.741  -2.958  1.00  0.00     0.029 A 
ATOM     40  N   UNL     1      -4.098   5.432  -4.447  1.00  0.00    -0.354 N 
ATOM     41  C   UNL     1      -8.306   4.563  -3.886  1.00  0.00     0.074 A 
ATOM     42  C   UNL     1      -8.515   3.793  -2.677  1.00  0.00     0.031 C 
ATOM     43  C   UNL     1      -1.928   5.429  -3.912  1.00  0.00     0.029 A 
ATOM     44  C   UNL     1      -2.884   5.859  -4.931  1.00  0.00     0.049 A 
ATOM     45  H   UNL     1      -4.954   5.623  -4.894  1.00  0.00     0.167 HD
ATOM     46  C   UNL     1      -9.297   4.990  -4.707  1.00  0.00     0.034 A 
ATOM     47  C   UNL     1      -2.576   6.497  -6.079  1.00  0.00     0.034 A 
ATOM     48  C   UNL     1      -9.072   5.745  -5.915  1.00  0.00     0.049 A 
ATOM     49  C   UNL     1      -3.689   6.873  -7.028  1.00  0.00     0.074 A 
ATOM     50  C   UNL     1     -10.005   6.239  -6.811  1.00  0.00     0.029 A 
ATOM     51  N   UNL     1      -7.824   6.106  -6.407  1.00  0.00    -0.354 N 
ATOM     52  N   UNL     1      -4.983   6.682  -6.903  1.00  0.00    -0.248 NA
ATOM     53  C   UNL     1      -3.300   7.554  -8.270  1.00  0.00     0.031 C 
ATOM     54  C   UNL     1      -9.320   6.831  -7.878  1.00  0.00     0.029 A 
ATOM     55  C   UNL     1      -7.961   6.779  -7.612  1.00  0.00     0.049 A 
ATOM     56  H   UNL     1      -6.966   5.912  -5.965  1.00  0.00     0.167 HD
ATOM     57  C   UNL     1      -5.562   7.246  -8.038  1.00  0.00     0.074 A 
ATOM     58  C   UNL     1      -4.478   7.798  -8.825  1.00  0.00     0.031 C 
ATOM     59  C   UNL     1      -6.870   7.308  -8.396  1.00  0.00     0.034 A 
BRANCH  46  60
ATOM     60  C   UNL     1     -10.711   4.601  -4.349  1.00  0.00     0.023 A 
ATOM     61  C   UNL     1     -11.341   5.077  -3.186  1.00  0.00     0.031 A 
ATOM     62  C   UNL     1     -11.436   3.727  -5.179  1.00  0.00     0.131 A 
ATOM     63  C   UNL     1     -12.630   4.631  -2.854  1.00  0.00     0.055 A 
ATOM     64  C   UNL     1     -12.745   3.344  -4.881  1.00  0.00     0.041 A 
ATOM     65  F   UNL     1     -10.879   3.221  -6.291  1.00  0.00    -0.206 F 
ATOM     66  C   UNL     1     -13.345   3.787  -3.707  1.00  0.00     0.022 A 
BRANCH  63  67
ATOM     67  S   UNL     1     -13.310   5.067  -1.230  1.00  0.00     0.124 S 
ATOM     68  O   UNL     1     -12.313   4.495  -0.329  1.00  0.00    -0.237 OA
ATOM     69  O   UNL     1     -13.359   6.523  -1.290  1.00  0.00    -0.237 OA
ATOM     70  O   UNL     1     -14.610   4.399  -1.213  1.00  0.00    -0.744 OA
ENDBRANCH  63  67
ENDBRANCH  46  60
BRANCH  47  71
ATOM     71  C   UNL     1      -1.154   6.779  -6.431  1.00  0.00     0.023 A 
ATOM     72  C   UNL     1      -0.690   8.094  -6.589  1.00  0.00     0.031 A 
ATOM     73  C   UNL     1      -0.253   5.727  -6.679  1.00  0.00     0.131 A 
ATOM     74  C   UNL     1       0.623   8.323  -7.032  1.00  0.00     0.055 A 
ATOM     75  C   UNL     1       1.068   5.962  -7.065  1.00  0.00     0.041 A 
ATOM     76  F   UNL     1      -0.645   4.450  -6.544  1.00  0.00    -0.206 F 
ATOM     77  C   UNL     1       1.508   7.267  -7.257  1.00  0.00     0.022 A 
BRANCH  74  78
ATOM     78  S   UNL     1       1.129  10.025  -7.401  1.00  0.00     0.124 S 
ATOM     79  O   UNL     1       0.144  10.417  -8.403  1.00  0.00    -0.237 OA
ATOM     80  O   UNL     1       1.007  10.666  -6.096  1.00  0.00    -0.237 OA
ATOM     81  O   UNL     1       2.496   9.873  -7.894  1.00  0.00    -0.744 OA
ENDBRANCH  74  78
ENDBRANCH  47  71
BRANCH  59  82
ATOM     82  C   UNL     1      -7.196   8.029  -9.682  1.00  0.00     0.023 A 
ATOM     83  C   UNL     1      -6.797   7.527 -10.934  1.00  0.00     0.031 A 
ATOM     84  C   UNL     1      -7.904   9.244  -9.654  1.00  0.00     0.131 A 
ATOM     85  C   UNL     1      -7.058   8.263 -12.099  1.00  0.00     0.055 A 
ATOM     86  C   UNL     1      -8.215   9.942 -10.822  1.00  0.00     0.041 A 
ATOM     87  F   UNL     1      -8.309   9.772  -8.487  1.00  0.00    -0.206 F 
ATOM     88  C   UNL     1      -7.779   9.459 -12.052  1.00  0.00     0.022 A 
BRANCH  85  89
ATOM     89  S   UNL     1      -6.364   7.683 -13.671  1.00  0.00     0.124 S 
ATOM     90  O   UNL     1      -4.933   7.670 -13.384  1.00  0.00    -0.237 OA
ATOM     91  O   UNL     1      -6.994   6.376 -13.828  1.00  0.00    -0.237 OA
ATOM     92  O   UNL     1      -6.794   8.697 -14.632  1.00  0.00    -0.744 OA
ENDBRANCH  85  89
ENDBRANCH  59  82
ENDBRANCH  33  34
ENDBRANCH  26  28
ENDBRANCH  25  26
ENDBRANCH  24  25
ENDBRANCH  23  24
ENDBRANCH  22  23
ENDBRANCH   1  22
TORSDOF 21
