REMARK SMILES CC(C)CN(C)c1cc2c(cc1Cl)C=C(C(=O)OCCOCCOC(=O)c1ccc(-c3c4nc(c(-c5cc(S(=O)(=O)[O-])ccc5F)c5ccc([nH]5)c(-c5cc(S(=O)(=O)[O-])ccc5F)c5nc(c(-c6cc(S(=O)(=O)[O-])ccc6F)c6ccc3[nH]6)C=C5)C=C4)cc1)[C@H](C(F)(F)F)O2
REMARK SMILES IDX 21 1 20 2 19 3 18 4 16 5 17 6 15 7 7 8 8 9 12 10 9 11 11 12
REMARK SMILES IDX 13 13 10 14 95 15 14 16 90 17 5 18 6 19 4 20 2 21 1 22 3 23
REMARK SMILES IDX 91 24 92 25 93 26 94 27 22 28 23 29 24 30 25 31 26 32 27 33
REMARK SMILES IDX 28 34 89 35 29 36 88 37 30 38 31 39 32 40 82 41 33 42 87 43
REMARK SMILES IDX 81 44 83 45 34 46 86 47 80 48 79 49 35 51 67 52 47 53 66 54
REMARK SMILES IDX 48 55 51 56 65 57 84 58 49 59 50 60 64 62 85 63 52 64 36 65
REMARK SMILES IDX 37 66 45 67 38 68 44 69 46 70 43 71 39 72 40 73 41 74 42 75
REMARK SMILES IDX 68 76 69 77 77 78 70 79 76 80 78 81 75 82 71 83 72 84 73 85
REMARK SMILES IDX 74 86 53 87 54 88 62 89 55 90 61 91 63 92 60 93 56 94 57 95
REMARK SMILES IDX 58 96 59 97
REMARK H PARENT 83 50 51 61
REMARK Flexibility Score: inf
ROOT
ATOM      1  O   UNL     1       0.459   7.704  -5.519  1.00  0.00    -0.374 OA
ENDROOT
BRANCH   1   2
ATOM      2  C   UNL     1      -0.427   7.824  -6.630  1.00  0.00     0.202 C 
BRANCH   2   3
ATOM      3  C   UNL     1      -0.827   6.538  -7.357  1.00  0.00     0.261 C 
BRANCH   3   4
ATOM      4  O   UNL     1      -1.418   5.586  -6.459  1.00  0.00    -0.460 OA
BRANCH   4   5
ATOM      5  C   UNL     1      -0.698   4.463  -6.287  1.00  0.00     0.338 C 
ATOM      6  O   UNL     1       0.283   4.130  -6.938  1.00  0.00    -0.246 OA
BRANCH   5   7
ATOM      7  C   UNL     1      -1.136   3.716  -5.092  1.00  0.00     0.087 C 
ATOM      8  C   UNL     1      -0.814  -0.149  -1.889  1.00  0.00     0.059 A 
ATOM      9  C   UNL     1      -1.879   0.655  -2.355  1.00  0.00     0.074 A 
ATOM     10  C   UNL     1       0.483   0.204  -2.322  1.00  0.00     0.065 A 
ATOM     11  C   UNL     1      -1.658   1.749  -3.202  1.00  0.00     0.130 A 
ATOM     12  C   UNL     1       0.714   1.378  -3.036  1.00  0.00     0.034 A 
ATOM     13  Cl  UNL     1       1.853  -0.846  -2.172  1.00  0.00    -0.082 Cl
ATOM     14  C   UNL     1      -0.358   2.138  -3.489  1.00  0.00     0.019 A 
ATOM     15  O   UNL     1      -2.753   2.353  -3.752  1.00  0.00    -0.475 OA
ATOM     16  C   UNL     1      -0.097   3.212  -4.415  1.00  0.00     0.027 C 
ATOM     17  C   UNL     1      -2.574   3.376  -4.794  1.00  0.00     0.316 C 
BRANCH   8  18
ATOM     18  N   UNL     1      -1.052  -1.270  -1.078  1.00  0.00    -0.373 N 
ATOM     19  C   UNL     1      -2.094  -2.182  -1.547  1.00  0.00     0.143 C 
BRANCH  18  20
ATOM     20  C   UNL     1      -0.919  -1.116   0.390  1.00  0.00     0.119 C 
BRANCH  20  21
ATOM     21  C   UNL     1       0.545  -1.128   0.879  1.00  0.00     0.002 C 
ATOM     22  C   UNL     1       1.105   0.289   1.045  1.00  0.00     0.009 C 
ATOM     23  C   UNL     1       0.712  -1.877   2.204  1.00  0.00     0.009 C 
ENDBRANCH  20  21
ENDBRANCH  18  20
ENDBRANCH   8  18
BRANCH  17  24
ATOM     24  C   UNL     1      -3.446   4.577  -4.373  1.00  0.00     0.430 C 
ATOM     25  F   UNL     1      -3.650   5.458  -5.373  1.00  0.00    -0.167 F 
ATOM     26  F   UNL     1      -4.678   4.162  -3.980  1.00  0.00    -0.167 F 
ATOM     27  F   UNL     1      -2.902   5.247  -3.329  1.00  0.00    -0.167 F 
ENDBRANCH  17  24
ENDBRANCH   5   7
ENDBRANCH   4   5
ENDBRANCH   3   4
ENDBRANCH   2   3
ENDBRANCH   1   2
BRANCH   1  28
ATOM     28  C   UNL     1      -0.056   7.196  -4.288  1.00  0.00     0.202 C 
BRANCH  28  29
ATOM     29  C   UNL     1      -1.081   8.034  -3.512  1.00  0.00     0.261 C 
BRANCH  29  30
ATOM     30  O   UNL     1      -2.333   8.166  -4.204  1.00  0.00    -0.460 OA
BRANCH  30  31
ATOM     31  C   UNL     1      -2.621   9.417  -4.642  1.00  0.00     0.338 C 
ATOM     32  O   UNL     1      -1.946  10.424  -4.480  1.00  0.00    -0.246 OA
BRANCH  31  33
ATOM     33  C   UNL     1      -3.775   9.357  -5.559  1.00  0.00     0.060 A 
ATOM     34  C   UNL     1      -5.003   8.843  -5.145  1.00  0.00     0.016 A 
ATOM     35  C   UNL     1      -3.616   9.865  -6.856  1.00  0.00     0.016 A 
ATOM     36  C   UNL     1      -6.084   8.861  -6.032  1.00  0.00     0.010 A 
ATOM     37  C   UNL     1      -4.695   9.876  -7.740  1.00  0.00     0.010 A 
ATOM     38  C   UNL     1      -5.944   9.390  -7.330  1.00  0.00    -0.014 A 
BRANCH  38  39
ATOM     39  C   UNL     1      -7.131   9.552  -8.208  1.00  0.00     0.031 A 
ATOM     40  C   UNL     1      -7.346   8.672  -9.405  1.00  0.00     0.074 A 
ATOM     41  C   UNL     1      -8.013  10.530  -7.918  1.00  0.00     0.049 A 
ATOM     42  N   UNL     1      -8.363   8.646 -10.227  1.00  0.00    -0.248 NA
ATOM     43  C   UNL     1      -6.289   7.701  -9.726  1.00  0.00     0.031 C 
ATOM     44  C   UNL     1      -7.881  11.465  -6.799  1.00  0.00     0.029 A 
ATOM     45  N   UNL     1      -9.191  10.896  -8.519  1.00  0.00    -0.354 N 
ATOM     46  C   UNL     1      -8.084   7.646 -11.150  1.00  0.00     0.074 A 
ATOM     47  C   UNL     1      -6.776   7.123 -10.819  1.00  0.00     0.031 C 
ATOM     48  C   UNL     1      -8.956  12.266  -6.768  1.00  0.00     0.029 A 
ATOM     49  C   UNL     1      -9.836  11.935  -7.886  1.00  0.00     0.049 A 
ATOM     50  H   UNL     1      -9.543  10.458  -9.328  1.00  0.00     0.167 HD
ATOM     51  C   UNL     1      -8.863   7.197 -12.163  1.00  0.00     0.034 A 
ATOM     52  C   UNL     1     -11.007  12.546  -8.165  1.00  0.00     0.034 A 
ATOM     53  C   UNL     1     -10.167   7.731 -12.475  1.00  0.00     0.049 A 
ATOM     54  C   UNL     1     -11.827  12.047  -9.330  1.00  0.00     0.074 A 
ATOM     55  C   UNL     1     -11.047   7.305 -13.454  1.00  0.00     0.029 A 
ATOM     56  N   UNL     1     -10.777   8.796 -11.829  1.00  0.00    -0.354 N 
ATOM     57  N   UNL     1     -11.601  11.027 -10.123  1.00  0.00    -0.248 NA
ATOM     58  C   UNL     1     -13.070  12.772  -9.633  1.00  0.00     0.031 C 
ATOM     59  C   UNL     1     -12.149   8.157 -13.454  1.00  0.00     0.029 A 
ATOM     60  C   UNL     1     -12.006   9.060 -12.414  1.00  0.00     0.049 A 
ATOM     61  H   UNL     1     -10.395   9.290 -11.068  1.00  0.00     0.167 HD
ATOM     62  C   UNL     1     -12.692  10.961 -10.986  1.00  0.00     0.074 A 
ATOM     63  C   UNL     1     -13.589  12.030 -10.602  1.00  0.00     0.031 C 
ATOM     64  C   UNL     1     -12.923  10.097 -12.006  1.00  0.00     0.034 A 
BRANCH  51  65
ATOM     65  C   UNL     1      -8.387   6.038 -13.006  1.00  0.00     0.023 A 
ATOM     66  C   UNL     1      -8.219   6.200 -14.395  1.00  0.00     0.031 A 
ATOM     67  C   UNL     1      -8.323   4.738 -12.475  1.00  0.00     0.131 A 
ATOM     68  C   UNL     1      -8.067   5.074 -15.213  1.00  0.00     0.055 A 
ATOM     69  C   UNL     1      -8.123   3.623 -13.290  1.00  0.00     0.041 A 
ATOM     70  F   UNL     1      -8.482   4.531 -11.157  1.00  0.00    -0.206 F 
ATOM     71  C   UNL     1      -8.014   3.787 -14.668  1.00  0.00     0.022 A 
BRANCH  68  72
ATOM     72  S   UNL     1      -8.034   5.226 -17.021  1.00  0.00     0.124 S 
ATOM     73  O   UNL     1      -6.775   4.562 -17.355  1.00  0.00    -0.237 OA
ATOM     74  O   UNL     1      -9.242   4.505 -17.409  1.00  0.00    -0.237 OA
ATOM     75  O   UNL     1      -8.052   6.666 -17.251  1.00  0.00    -0.744 OA
ENDBRANCH  68  72
ENDBRANCH  51  65
BRANCH  52  76
ATOM     76  C   UNL     1     -11.504  13.643  -7.280  1.00  0.00     0.023 A 
ATOM     77  C   UNL     1     -10.765  14.824  -7.089  1.00  0.00     0.031 A 
ATOM     78  C   UNL     1     -12.705  13.497  -6.564  1.00  0.00     0.131 A 
ATOM     79  C   UNL     1     -11.208  15.785  -6.170  1.00  0.00     0.055 A 
ATOM     80  C   UNL     1     -13.182  14.491  -5.709  1.00  0.00     0.041 A 
ATOM     81  F   UNL     1     -13.439  12.381  -6.696  1.00  0.00    -0.206 F 
ATOM     82  C   UNL     1     -12.424  15.637  -5.497  1.00  0.00     0.022 A 
BRANCH  79  83
ATOM     83  S   UNL     1     -10.162  17.200  -5.725  1.00  0.00     0.124 S 
ATOM     84  O   UNL     1     -10.984  18.329  -6.147  1.00  0.00    -0.237 OA
ATOM     85  O   UNL     1     -10.023  17.025  -4.281  1.00  0.00    -0.237 OA
ATOM     86  O   UNL     1      -8.943  16.981  -6.495  1.00  0.00    -0.744 OA
ENDBRANCH  79  83
ENDBRANCH  52  76
BRANCH  64  87
ATOM     87  C   UNL     1     -14.209  10.216 -12.793  1.00  0.00     0.023 A 
ATOM     88  C   UNL     1     -15.101   9.125 -12.846  1.00  0.00     0.031 A 
ATOM     89  C   UNL     1     -14.468  11.322 -13.620  1.00  0.00     0.131 A 
ATOM     90  C   UNL     1     -16.173   9.141 -13.747  1.00  0.00     0.055 A 
ATOM     91  C   UNL     1     -15.574  11.359 -14.471  1.00  0.00     0.041 A 
ATOM     92  F   UNL     1     -13.643  12.382 -13.621  1.00  0.00    -0.206 F 
ATOM     93  C   UNL     1     -16.421  10.258 -14.551  1.00  0.00     0.022 A 
BRANCH  90  94
ATOM     94  S   UNL     1     -17.216   7.676 -13.989  1.00  0.00     0.124 S 
ATOM     95  O   UNL     1     -18.540   8.187 -13.642  1.00  0.00    -0.237 OA
ATOM     96  O   UNL     1     -17.012   7.386 -15.405  1.00  0.00    -0.237 OA
ATOM     97  O   UNL     1     -16.667   6.694 -13.060  1.00  0.00    -0.744 OA
ENDBRANCH  90  94
ENDBRANCH  64  87
ENDBRANCH  38  39
ENDBRANCH  31  33
ENDBRANCH  30  31
ENDBRANCH  29  30
ENDBRANCH  28  29
ENDBRANCH   1  28
TORSDOF 21
