REMARK SMILES CC(C)Cc1ccc([C@H](C)C(=O)OCCOCCOC(=O)c2ccc(-c3c4nc(c(-c5cc(S(=O)(=O)[O-])ccc5F)c5ccc([nH]5)c(-c5cc(S(=O)(=O)[O-])ccc5F)c5nc(c(-c6cc(S(=O)(=O)[O-])ccc6F)c6ccc3[nH]6)C=C5)C=C4)cc2)cc1
REMARK SMILES IDX 16 1 15 2 14 3 13 4 11 5 12 6 9 7 10 8 8 9 5 10 6 11 86 12
REMARK SMILES IDX 7 13 85 14 4 15 2 16 1 17 3 18 17 19 18 20 19 21 20 22 21 23
REMARK SMILES IDX 22 24 23 25 84 26 24 27 83 28 25 29 26 30 27 31 77 32 28 33
REMARK SMILES IDX 82 34 76 35 78 36 29 37 81 38 75 39 74 40 30 42 62 43 42 44
REMARK SMILES IDX 61 45 43 46 46 47 60 48 79 49 44 50 45 51 59 53 80 54 47 55
REMARK SMILES IDX 31 56 32 57 40 58 33 59 39 60 41 61 38 62 34 63 35 64 36 65
REMARK SMILES IDX 37 66 63 67 64 68 72 69 65 70 71 71 73 72 70 73 66 74 67 75
REMARK SMILES IDX 68 76 69 77 48 78 49 79 57 80 50 81 56 82 58 83 55 84 51 85
REMARK SMILES IDX 52 86 53 87 54 88
REMARK H PARENT 78 41 46 52
REMARK Flexibility Score: inf
ROOT
ATOM      1  O   UNL     1      -6.661  -2.659   4.015  1.00  0.00    -0.374 OA
ENDROOT
BRANCH   1   2
ATOM      2  C   UNL     1      -6.554  -1.801   5.150  1.00  0.00     0.202 C 
BRANCH   2   3
ATOM      3  C   UNL     1      -5.423  -2.109   6.134  1.00  0.00     0.261 C 
BRANCH   3   4
ATOM      4  O   UNL     1      -4.135  -1.842   5.553  1.00  0.00    -0.463 OA
BRANCH   4   5
ATOM      5  C   UNL     1      -3.299  -2.909   5.419  1.00  0.00     0.313 C 
ATOM      6  O   UNL     1      -3.553  -4.050   5.790  1.00  0.00    -0.252 OA
BRANCH   5   7
ATOM      7  C   UNL     1      -1.971  -2.523   4.771  1.00  0.00     0.126 C 
ATOM      8  C   UNL     1      -2.064  -1.426   3.714  1.00  0.00     0.025 C 
BRANCH   7   9
ATOM      9  C   UNL     1      -0.899  -2.225   5.798  1.00  0.00    -0.034 A 
ATOM     10  C   UNL     1       1.062  -2.019   7.793  1.00  0.00    -0.048 A 
ATOM     11  C   UNL     1      -0.218  -1.500   8.008  1.00  0.00     0.004 A 
ATOM     12  C   UNL     1       1.390  -2.531   6.533  1.00  0.00     0.004 A 
ATOM     13  C   UNL     1      -1.188  -1.586   7.011  1.00  0.00     0.005 A 
ATOM     14  C   UNL     1       0.415  -2.644   5.547  1.00  0.00     0.005 A 
BRANCH  10  15
ATOM     15  C   UNL     1       2.027  -2.156   8.943  1.00  0.00     0.038 C 
BRANCH  15  16
ATOM     16  C   UNL     1       1.804  -3.478   9.713  1.00  0.00    -0.013 C 
ATOM     17  C   UNL     1       2.120  -4.718   8.867  1.00  0.00     0.008 C 
ATOM     18  C   UNL     1       2.656  -3.495  10.981  1.00  0.00     0.008 C 
ENDBRANCH  15  16
ENDBRANCH  10  15
ENDBRANCH   7   9
ENDBRANCH   5   7
ENDBRANCH   4   5
ENDBRANCH   3   4
ENDBRANCH   2   3
ENDBRANCH   1   2
BRANCH   1  19
ATOM     19  C   UNL     1      -5.671  -2.544   2.996  1.00  0.00     0.202 C 
BRANCH  19  20
ATOM     20  C   UNL     1      -5.740  -1.317   2.078  1.00  0.00     0.261 C 
BRANCH  20  21
ATOM     21  O   UNL     1      -5.552  -0.069   2.771  1.00  0.00    -0.460 OA
BRANCH  21  22
ATOM     22  C   UNL     1      -6.666   0.703   2.832  1.00  0.00     0.338 C 
ATOM     23  O   UNL     1      -7.760   0.444   2.346  1.00  0.00    -0.246 OA
BRANCH  22  24
ATOM     24  C   UNL     1      -6.464   1.866   3.715  1.00  0.00     0.060 A 
ATOM     25  C   UNL     1      -7.405   2.069   4.732  1.00  0.00     0.016 A 
ATOM     26  C   UNL     1      -5.461   2.811   3.481  1.00  0.00     0.016 A 
ATOM     27  C   UNL     1      -7.387   3.245   5.478  1.00  0.00     0.010 A 
ATOM     28  C   UNL     1      -5.449   3.997   4.229  1.00  0.00     0.010 A 
ATOM     29  C   UNL     1      -6.437   4.238   5.202  1.00  0.00    -0.014 A 
BRANCH  29  30
ATOM     30  C   UNL     1      -6.597   5.577   5.826  1.00  0.00     0.031 A 
ATOM     31  C   UNL     1      -7.250   6.680   5.033  1.00  0.00     0.074 A 
ATOM     32  C   UNL     1      -6.236   5.787   7.105  1.00  0.00     0.049 A 
ATOM     33  N   UNL     1      -7.515   7.912   5.384  1.00  0.00    -0.248 NA
ATOM     34  C   UNL     1      -7.659   6.345   3.660  1.00  0.00     0.031 C 
ATOM     35  C   UNL     1      -5.638   4.785   7.987  1.00  0.00     0.029 A 
ATOM     36  N   UNL     1      -6.326   6.912   7.887  1.00  0.00    -0.354 N 
ATOM     37  C   UNL     1      -8.129   8.499   4.281  1.00  0.00     0.074 A 
ATOM     38  C   UNL     1      -8.155   7.498   3.236  1.00  0.00     0.031 C 
ATOM     39  C   UNL     1      -5.415   5.341   9.190  1.00  0.00     0.029 A 
ATOM     40  C   UNL     1      -5.824   6.744   9.157  1.00  0.00     0.049 A 
ATOM     41  H   UNL     1      -6.713   7.759   7.569  1.00  0.00     0.167 HD
ATOM     42  C   UNL     1      -8.635   9.751   4.156  1.00  0.00     0.034 A 
ATOM     43  C   UNL     1      -5.698   7.625  10.170  1.00  0.00     0.034 A 
ATOM     44  C   UNL     1      -8.591  10.746   5.200  1.00  0.00     0.049 A 
ATOM     45  C   UNL     1      -6.203   9.037   9.979  1.00  0.00     0.074 A 
ATOM     46  C   UNL     1      -9.062  12.048   5.174  1.00  0.00     0.029 A 
ATOM     47  N   UNL     1      -8.039  10.552   6.460  1.00  0.00    -0.354 N 
ATOM     48  N   UNL     1      -6.780   9.576   8.930  1.00  0.00    -0.248 NA
ATOM     49  C   UNL     1      -6.053   9.952  11.118  1.00  0.00     0.031 C 
ATOM     50  C   UNL     1      -8.741  12.658   6.392  1.00  0.00     0.029 A 
ATOM     51  C   UNL     1      -8.138  11.716   7.209  1.00  0.00     0.049 A 
ATOM     52  H   UNL     1      -7.636   9.711   6.776  1.00  0.00     0.167 HD
ATOM     53  C   UNL     1      -7.096  10.882   9.300  1.00  0.00     0.074 A 
ATOM     54  C   UNL     1      -6.660  11.041  10.672  1.00  0.00     0.031 C 
ATOM     55  C   UNL     1      -7.696  11.861   8.575  1.00  0.00     0.034 A 
BRANCH  42  56
ATOM     56  C   UNL     1      -9.238  10.124   2.823  1.00  0.00     0.023 A 
ATOM     57  C   UNL     1     -10.406   9.507   2.340  1.00  0.00     0.031 A 
ATOM     58  C   UNL     1      -8.627  11.101   2.016  1.00  0.00     0.131 A 
ATOM     59  C   UNL     1     -10.892   9.830   1.064  1.00  0.00     0.055 A 
ATOM     60  C   UNL     1      -9.157  11.470   0.778  1.00  0.00     0.041 A 
ATOM     61  F   UNL     1      -7.498  11.707   2.415  1.00  0.00    -0.206 F 
ATOM     62  C   UNL     1     -10.289  10.825   0.290  1.00  0.00     0.022 A 
BRANCH  59  63
ATOM     63  S   UNL     1     -12.254   8.849   0.377  1.00  0.00     0.124 S 
ATOM     64  O   UNL     1     -11.669   7.510   0.353  1.00  0.00    -0.237 OA
ATOM     65  O   UNL     1     -13.320   9.064   1.347  1.00  0.00    -0.237 OA
ATOM     66  O   UNL     1     -12.478   9.446  -0.938  1.00  0.00    -0.744 OA
ENDBRANCH  59  63
ENDBRANCH  42  56
BRANCH  43  67
ATOM     67  C   UNL     1      -5.042   7.226  11.449  1.00  0.00     0.023 A 
ATOM     68  C   UNL     1      -5.740   7.252  12.666  1.00  0.00     0.031 A 
ATOM     69  C   UNL     1      -3.676   6.890  11.481  1.00  0.00     0.131 A 
ATOM     70  C   UNL     1      -5.060   7.006  13.869  1.00  0.00     0.055 A 
ATOM     71  C   UNL     1      -3.017   6.590  12.674  1.00  0.00     0.041 A 
ATOM     72  F   UNL     1      -2.959   6.851  10.346  1.00  0.00    -0.206 F 
ATOM     73  C   UNL     1      -3.706   6.664  13.880  1.00  0.00     0.022 A 
BRANCH  70  74
ATOM     74  S   UNL     1      -5.946   7.247  15.434  1.00  0.00     0.124 S 
ATOM     75  O   UNL     1      -6.399   8.628  15.310  1.00  0.00    -0.237 OA
ATOM     76  O   UNL     1      -6.982   6.222  15.354  1.00  0.00    -0.237 OA
ATOM     77  O   UNL     1      -4.918   7.014  16.446  1.00  0.00    -0.744 OA
ENDBRANCH  70  74
ENDBRANCH  43  67
BRANCH  55  78
ATOM     78  C   UNL     1      -7.964  13.169   9.281  1.00  0.00     0.023 A 
ATOM     79  C   UNL     1      -6.921  14.005   9.719  1.00  0.00     0.031 A 
ATOM     80  C   UNL     1      -9.286  13.569   9.547  1.00  0.00     0.131 A 
ATOM     81  C   UNL     1      -7.215  15.161  10.459  1.00  0.00     0.055 A 
ATOM     82  C   UNL     1      -9.574  14.752  10.229  1.00  0.00     0.041 A 
ATOM     83  F   UNL     1     -10.322  12.811   9.153  1.00  0.00    -0.206 F 
ATOM     84  C   UNL     1      -8.535  15.547  10.704  1.00  0.00     0.022 A 
BRANCH  81  85
ATOM     85  S   UNL     1      -5.844  16.095  11.194  1.00  0.00     0.124 S 
ATOM     86  O   UNL     1      -5.168  15.072  11.985  1.00  0.00    -0.237 OA
ATOM     87  O   UNL     1      -5.125  16.570  10.017  1.00  0.00    -0.237 OA
ATOM     88  O   UNL     1      -6.516  17.136  11.971  1.00  0.00    -0.744 OA
ENDBRANCH  81  85
ENDBRANCH  55  78
ENDBRANCH  29  30
ENDBRANCH  22  24
ENDBRANCH  21  22
ENDBRANCH  20  21
ENDBRANCH  19  20
ENDBRANCH   1  19
TORSDOF 20
