REMARK SMILES CCc1nc(COC)cc(N2CCCC[C@H]2C(=O)OCCOCCOC(=O)c2ccc(-c3c4nc(c(-c5cc(S(=O)(=O)[O-])ccc5F)c5ccc([nH]5)c(-c5cc(S(=O)(=O)[O-])ccc5F)c5nc(c(-c6cc(S(=O)(=O)[O-])ccc6F)c6ccc3[nH]6)C=C5)C=C4)cc2)n1
REMARK SMILES IDX 22 1 21 2 20 3 19 4 17 5 18 6 16 7 11 8 12 9 13 10 15 11
REMARK SMILES IDX 14 12 10 13 3 14 4 15 91 16 5 17 9 18 2 19 1 20 6 21 7 22
REMARK SMILES IDX 8 23 23 24 24 25 25 26 26 27 27 28 28 29 29 30 90 31 30 32
REMARK SMILES IDX 89 33 31 34 32 35 33 36 83 37 34 38 88 39 82 40 84 41 35 42
REMARK SMILES IDX 87 43 81 44 80 45 36 47 68 48 48 49 67 50 49 51 52 52 66 53
REMARK SMILES IDX 85 54 50 55 51 56 65 58 86 59 53 60 37 61 38 62 46 63 39 64
REMARK SMILES IDX 45 65 47 66 44 67 40 68 41 69 42 70 43 71 69 72 70 73 78 74
REMARK SMILES IDX 71 75 77 76 79 77 76 78 72 79 73 80 74 81 75 82 54 83 55 84
REMARK SMILES IDX 63 85 56 86 62 87 64 88 61 89 57 90 58 91 59 92 60 93
REMARK H PARENT 84 46 52 57
REMARK Flexibility Score: inf
ROOT
ATOM      1  O   UNL     1       3.073  -7.336  -6.164  1.00  0.00    -0.374 OA
ENDROOT
BRANCH   1   2
ATOM      2  C   UNL     1       2.044  -6.775  -6.976  1.00  0.00     0.202 C 
BRANCH   2   3
ATOM      3  C   UNL     1       0.648  -6.652  -6.359  1.00  0.00     0.261 C 
BRANCH   3   4
ATOM      4  O   UNL     1       0.644  -5.774  -5.224  1.00  0.00    -0.462 OA
BRANCH   4   5
ATOM      5  C   UNL     1       0.662  -6.406  -4.015  1.00  0.00     0.328 C 
ATOM      6  O   UNL     1       0.655  -7.625  -3.876  1.00  0.00    -0.250 OA
BRANCH   5   7
ATOM      7  C   UNL     1       0.839  -5.408  -2.855  1.00  0.00     0.193 C 
ATOM      8  N   UNL     1      -0.060  -4.252  -2.938  1.00  0.00    -0.343 N 
ATOM      9  C   UNL     1      -1.490  -4.460  -2.778  1.00  0.00     0.119 C 
ATOM     10  C   UNL     1      -1.797  -5.298  -1.537  1.00  0.00     0.022 C 
ATOM     11  C   UNL     1       0.583  -6.127  -1.522  1.00  0.00     0.037 C 
ATOM     12  C   UNL     1      -0.889  -6.516  -1.383  1.00  0.00     0.005 C 
BRANCH   8  13
ATOM     13  C   UNL     1       0.430  -2.967  -3.033  1.00  0.00     0.133 A 
ATOM     14  C   UNL     1       0.542  -0.808  -2.230  1.00  0.00     0.130 A 
ATOM     15  N   UNL     1       1.324  -0.382  -3.231  1.00  0.00    -0.235 NA
ATOM     16  N   UNL     1       0.066  -2.064  -2.104  1.00  0.00    -0.216 NA
ATOM     17  C   UNL     1       1.629  -1.281  -4.182  1.00  0.00     0.072 A 
ATOM     18  C   UNL     1       1.237  -2.605  -4.094  1.00  0.00     0.073 A 
BRANCH  14  19
ATOM     19  C   UNL     1       0.170   0.210  -1.189  1.00  0.00     0.074 C 
ATOM     20  C   UNL     1       0.858  -0.062   0.139  1.00  0.00     0.012 C 
ENDBRANCH  14  19
BRANCH  17  21
ATOM     21  C   UNL     1       2.357  -0.785  -5.407  1.00  0.00     0.216 C 
BRANCH  21  22
ATOM     22  O   UNL     1       1.645   0.203  -6.156  1.00  0.00    -0.378 OA
ATOM     23  C   UNL     1       0.419  -0.265  -6.704  1.00  0.00     0.195 C 
ENDBRANCH  21  22
ENDBRANCH  17  21
ENDBRANCH   8  13
ENDBRANCH   5   7
ENDBRANCH   4   5
ENDBRANCH   3   4
ENDBRANCH   2   3
ENDBRANCH   1   2
BRANCH   1  24
ATOM     24  C   UNL     1       3.707  -6.491  -5.206  1.00  0.00     0.202 C 
BRANCH  24  25
ATOM     25  C   UNL     1       4.713  -5.449  -5.709  1.00  0.00     0.261 C 
BRANCH  25  26
ATOM     26  O   UNL     1       4.110  -4.445  -6.543  1.00  0.00    -0.460 OA
BRANCH  26  27
ATOM     27  C   UNL     1       4.379  -4.581  -7.866  1.00  0.00     0.338 C 
ATOM     28  O   UNL     1       5.089  -5.431  -8.388  1.00  0.00    -0.246 OA
BRANCH  27  29
ATOM     29  C   UNL     1       3.515  -3.671  -8.634  1.00  0.00     0.060 A 
ATOM     30  C   UNL     1       2.672  -4.219  -9.608  1.00  0.00     0.016 A 
ATOM     31  C   UNL     1       3.559  -2.293  -8.430  1.00  0.00     0.016 A 
ATOM     32  C   UNL     1       1.891  -3.384 -10.404  1.00  0.00     0.010 A 
ATOM     33  C   UNL     1       2.756  -1.458  -9.210  1.00  0.00     0.010 A 
ATOM     34  C   UNL     1       1.951  -1.994 -10.232  1.00  0.00    -0.014 A 
BRANCH  34  35
ATOM     35  C   UNL     1       1.345  -1.097 -11.248  1.00  0.00     0.031 A 
ATOM     36  C   UNL     1       2.264  -0.377 -12.201  1.00  0.00     0.074 A 
ATOM     37  C   UNL     1       0.012  -0.954 -11.355  1.00  0.00     0.049 A 
ATOM     38  N   UNL     1       1.983   0.483 -13.145  1.00  0.00    -0.248 NA
ATOM     39  C   UNL     1       3.700  -0.661 -12.053  1.00  0.00     0.031 C 
ATOM     40  C   UNL     1      -0.982  -1.632 -10.524  1.00  0.00     0.029 A 
ATOM     41  N   UNL     1      -0.736  -0.192 -12.217  1.00  0.00    -0.354 N 
ATOM     42  C   UNL     1       3.207   0.852 -13.693  1.00  0.00     0.074 A 
ATOM     43  C   UNL     1       4.231   0.175 -12.928  1.00  0.00     0.031 C 
ATOM     44  C   UNL     1      -2.211  -1.269 -10.931  1.00  0.00     0.029 A 
ATOM     45  C   UNL     1      -2.093  -0.302 -12.021  1.00  0.00     0.049 A 
ATOM     46  H   UNL     1      -0.338   0.380 -12.913  1.00  0.00     0.167 HD
ATOM     47  C   UNL     1       3.457   1.659 -14.755  1.00  0.00     0.034 A 
ATOM     48  C   UNL     1      -3.116   0.317 -12.643  1.00  0.00     0.034 A 
ATOM     49  C   UNL     1       2.426   2.329 -15.505  1.00  0.00     0.049 A 
ATOM     50  C   UNL     1      -2.813   1.294 -13.755  1.00  0.00     0.074 A 
ATOM     51  C   UNL     1       2.558   3.166 -16.599  1.00  0.00     0.029 A 
ATOM     52  N   UNL     1       1.065   2.247 -15.232  1.00  0.00    -0.354 N 
ATOM     53  N   UNL     1      -1.652   1.635 -14.267  1.00  0.00    -0.248 NA
ATOM     54  C   UNL     1      -3.963   1.966 -14.376  1.00  0.00     0.031 C 
ATOM     55  C   UNL     1       1.288   3.646 -16.940  1.00  0.00     0.029 A 
ATOM     56  C   UNL     1       0.351   3.043 -16.114  1.00  0.00     0.049 A 
ATOM     57  H   UNL     1       0.667   1.702 -14.515  1.00  0.00     0.167 HD
ATOM     58  C   UNL     1      -1.937   2.532 -15.294  1.00  0.00     0.074 A 
ATOM     59  C   UNL     1      -3.379   2.670 -15.334  1.00  0.00     0.031 C 
ATOM     60  C   UNL     1      -1.087   3.178 -16.135  1.00  0.00     0.034 A 
BRANCH  47  61
ATOM     61  C   UNL     1       4.908   1.883 -15.117  1.00  0.00     0.023 A 
ATOM     62  C   UNL     1       5.746   0.818 -15.494  1.00  0.00     0.031 A 
ATOM     63  C   UNL     1       5.482   3.161 -15.009  1.00  0.00     0.131 A 
ATOM     64  C   UNL     1       7.125   1.029 -15.642  1.00  0.00     0.055 A 
ATOM     65  C   UNL     1       6.838   3.383 -15.256  1.00  0.00     0.041 A 
ATOM     66  F   UNL     1       4.740   4.215 -14.631  1.00  0.00    -0.206 F 
ATOM     67  C   UNL     1       7.673   2.310 -15.552  1.00  0.00     0.022 A 
BRANCH  64  68
ATOM     68  S   UNL     1       8.212  -0.419 -15.756  1.00  0.00     0.124 S 
ATOM     69  O   UNL     1       7.883  -1.132 -14.524  1.00  0.00    -0.237 OA
ATOM     70  O   UNL     1       7.771  -1.048 -16.995  1.00  0.00    -0.237 OA
ATOM     71  O   UNL     1       9.553   0.161 -15.791  1.00  0.00    -0.744 OA
ENDBRANCH  64  68
ENDBRANCH  47  61
BRANCH  48  72
ATOM     72  C   UNL     1      -4.526   0.053 -12.233  1.00  0.00     0.023 A 
ATOM     73  C   UNL     1      -5.439  -0.532 -13.125  1.00  0.00     0.031 A 
ATOM     74  C   UNL     1      -4.996   0.428 -10.962  1.00  0.00     0.131 A 
ATOM     75  C   UNL     1      -6.783  -0.686 -12.751  1.00  0.00     0.055 A 
ATOM     76  C   UNL     1      -6.323   0.227 -10.576  1.00  0.00     0.041 A 
ATOM     77  F   UNL     1      -4.166   0.992 -10.070  1.00  0.00    -0.206 F 
ATOM     78  C   UNL     1      -7.228  -0.323 -11.478  1.00  0.00     0.022 A 
BRANCH  75  79
ATOM     79  S   UNL     1      -7.963  -1.300 -13.985  1.00  0.00     0.124 S 
ATOM     80  O   UNL     1      -7.849  -0.291 -15.032  1.00  0.00    -0.237 OA
ATOM     81  O   UNL     1      -7.417  -2.616 -14.297  1.00  0.00    -0.237 OA
ATOM     82  O   UNL     1      -9.234  -1.311 -13.263  1.00  0.00    -0.744 OA
ENDBRANCH  75  79
ENDBRANCH  48  72
BRANCH  60  83
ATOM     83  C   UNL     1      -1.704   4.051 -17.203  1.00  0.00     0.023 A 
ATOM     84  C   UNL     1      -2.413   5.223 -16.887  1.00  0.00     0.031 A 
ATOM     85  C   UNL     1      -1.581   3.698 -18.559  1.00  0.00     0.131 A 
ATOM     86  C   UNL     1      -3.022   5.968 -17.910  1.00  0.00     0.055 A 
ATOM     87  C   UNL     1      -2.133   4.478 -19.576  1.00  0.00     0.041 A 
ATOM     88  F   UNL     1      -0.917   2.588 -18.919  1.00  0.00    -0.206 F 
ATOM     89  C   UNL     1      -2.870   5.613 -19.253  1.00  0.00     0.022 A 
BRANCH  86  90
ATOM     90  S   UNL     1      -4.099   7.354 -17.455  1.00  0.00     0.124 S 
ATOM     91  O   UNL     1      -5.098   6.700 -16.616  1.00  0.00    -0.237 OA
ATOM     92  O   UNL     1      -3.178   8.253 -16.766  1.00  0.00    -0.237 OA
ATOM     93  O   UNL     1      -4.593   7.842 -18.741  1.00  0.00    -0.744 OA
ENDBRANCH  86  90
ENDBRANCH  60  83
ENDBRANCH  34  35
ENDBRANCH  27  29
ENDBRANCH  26  27
ENDBRANCH  25  26
ENDBRANCH  24  25
ENDBRANCH   1  24
TORSDOF 21
