REMARK SMILES O=C(OCCOCCOC(=O)[C@H]1CC[C@@]2(CC[N@@H+](C3CC3)C2)C1)c1ccc(-c2c3nc(c(-c4cc(S(=O)(=O)[O-])ccc4F)c4ccc([nH]4)c(-c4cc(S(=O)(=O)[O-])ccc4F)c4nc(c(-c5cc(S(=O)(=O)[O-])ccc5F)c5ccc2[nH]5)C=C4)C=C3)cc1
REMARK SMILES IDX 5 1 4 2 3 3 2 4 1 5 24 6 25 7 86 8 26 9 85 10 27 11 28 12
REMARK SMILES IDX 29 13 79 14 30 15 84 16 78 17 80 18 31 19 83 20 77 21 76 22
REMARK SMILES IDX 32 24 64 25 44 26 63 27 45 28 48 29 62 30 81 31 46 32 47 33
REMARK SMILES IDX 61 35 82 36 49 37 33 38 34 39 42 40 35 41 41 42 43 43 40 44
REMARK SMILES IDX 36 45 37 46 38 47 39 48 65 49 66 50 74 51 67 52 73 53 75 54
REMARK SMILES IDX 72 55 68 56 69 57 70 58 71 59 50 60 51 61 59 62 52 63 58 64
REMARK SMILES IDX 60 65 57 66 53 67 54 68 55 69 56 70 6 71 7 72 8 73 9 74
REMARK SMILES IDX 10 75 11 76 12 77 13 78 23 79 14 80 15 81 16 82 22 83 17 84
REMARK SMILES IDX 18 85 19 87 20 88 21 89
REMARK H PARENT 80 23 48 34 18 86
REMARK Flexibility Score: inf
ROOT
ATOM      1  C   UNL     1       3.116  -1.162   2.382  1.00  0.00     0.202 C 
ENDROOT
BRANCH   1   2
ATOM      2  C   UNL     1       1.894  -0.475   1.768  1.00  0.00     0.261 C 
BRANCH   2   3
ATOM      3  O   UNL     1       2.208   0.866   1.374  1.00  0.00    -0.460 OA
BRANCH   3   4
ATOM      4  C   UNL     1       2.032   1.993   2.104  1.00  0.00     0.338 C 
ATOM      5  O   UNL     1       2.446   3.055   1.641  1.00  0.00    -0.246 OA
BRANCH   4   6
ATOM      6  C   UNL     1       1.370   2.024   3.446  1.00  0.00     0.060 A 
ATOM      7  C   UNL     1       1.359   0.973   4.365  1.00  0.00     0.016 A 
ATOM      8  C   UNL     1       0.801   3.246   3.841  1.00  0.00     0.016 A 
ATOM      9  C   UNL     1       0.798   1.102   5.619  1.00  0.00     0.010 A 
ATOM     10  C   UNL     1       0.244   3.396   5.113  1.00  0.00     0.010 A 
ATOM     11  C   UNL     1       0.244   2.315   5.999  1.00  0.00    -0.014 A 
BRANCH  11  12
ATOM     12  C   UNL     1      -0.459   2.337   7.286  1.00  0.00     0.031 A 
ATOM     13  C   UNL     1      -1.948   2.230   7.258  1.00  0.00     0.074 A 
ATOM     14  C   UNL     1       0.253   2.270   8.424  1.00  0.00     0.049 A 
ATOM     15  N   UNL     1      -2.799   2.276   8.242  1.00  0.00    -0.248 NA
ATOM     16  C   UNL     1      -2.558   2.030   5.933  1.00  0.00     0.031 C 
ATOM     17  C   UNL     1       1.716   2.191   8.497  1.00  0.00     0.029 A 
ATOM     18  N   UNL     1      -0.149   2.222   9.729  1.00  0.00    -0.354 N 
ATOM     19  C   UNL     1      -4.051   2.146   7.654  1.00  0.00     0.074 A 
ATOM     20  C   UNL     1      -3.847   2.026   6.228  1.00  0.00     0.031 C 
ATOM     21  C   UNL     1       2.085   2.099   9.783  1.00  0.00     0.029 A 
ATOM     22  C   UNL     1       0.897   2.202  10.621  1.00  0.00     0.049 A 
ATOM     23  H   UNL     1      -1.094   2.204  10.003  1.00  0.00     0.167 HD
ATOM     24  C   UNL     1      -5.256   2.144   8.269  1.00  0.00     0.034 A 
ATOM     25  C   UNL     1       0.880   2.315  11.963  1.00  0.00     0.034 A 
ATOM     26  C   UNL     1      -5.386   2.288   9.697  1.00  0.00     0.049 A 
ATOM     27  C   UNL     1      -0.472   2.449  12.617  1.00  0.00     0.074 A 
ATOM     28  C   UNL     1      -6.532   2.389  10.460  1.00  0.00     0.029 A 
ATOM     29  N   UNL     1      -4.309   2.363  10.579  1.00  0.00    -0.354 N 
ATOM     30  N   UNL     1      -1.664   2.426  12.058  1.00  0.00    -0.248 NA
ATOM     31  C   UNL     1      -0.490   2.633  14.070  1.00  0.00     0.031 C 
ATOM     32  C   UNL     1      -6.147   2.604  11.788  1.00  0.00     0.029 A 
ATOM     33  C   UNL     1      -4.763   2.543  11.873  1.00  0.00     0.049 A 
ATOM     34  H   UNL     1      -3.362   2.297  10.318  1.00  0.00     0.167 HD
ATOM     35  C   UNL     1      -2.576   2.574  13.096  1.00  0.00     0.074 A 
ATOM     36  C   UNL     1      -1.792   2.663  14.315  1.00  0.00     0.031 C 
ATOM     37  C   UNL     1      -3.933   2.634  13.056  1.00  0.00     0.034 A 
BRANCH  24  38
ATOM     38  C   UNL     1      -6.474   2.119   7.378  1.00  0.00     0.023 A 
ATOM     39  C   UNL     1      -6.750   1.040   6.517  1.00  0.00     0.031 A 
ATOM     40  C   UNL     1      -7.300   3.253   7.294  1.00  0.00     0.131 A 
ATOM     41  C   UNL     1      -7.755   1.163   5.544  1.00  0.00     0.055 A 
ATOM     42  C   UNL     1      -8.359   3.330   6.388  1.00  0.00     0.041 A 
ATOM     43  F   UNL     1      -7.064   4.330   8.061  1.00  0.00    -0.206 F 
ATOM     44  C   UNL     1      -8.579   2.290   5.491  1.00  0.00     0.022 A 
BRANCH  41  45
ATOM     45  S   UNL     1      -7.843  -0.083   4.225  1.00  0.00     0.124 S 
ATOM     46  O   UNL     1      -6.517   0.034   3.622  1.00  0.00    -0.237 OA
ATOM     47  O   UNL     1      -8.101  -1.312   4.966  1.00  0.00    -0.237 OA
ATOM     48  O   UNL     1      -8.944   0.383   3.385  1.00  0.00    -0.744 OA
ENDBRANCH  41  45
ENDBRANCH  24  38
BRANCH  25  49
ATOM     49  C   UNL     1       2.152   2.411  12.738  1.00  0.00     0.023 A 
ATOM     50  C   UNL     1       2.469   1.497  13.755  1.00  0.00     0.031 A 
ATOM     51  C   UNL     1       3.063   3.459  12.497  1.00  0.00     0.131 A 
ATOM     52  C   UNL     1       3.639   1.670  14.515  1.00  0.00     0.055 A 
ATOM     53  C   UNL     1       4.254   3.591  13.213  1.00  0.00     0.041 A 
ATOM     54  F   UNL     1       2.813   4.373  11.545  1.00  0.00    -0.206 F 
ATOM     55  C   UNL     1       4.541   2.700  14.240  1.00  0.00     0.022 A 
BRANCH  52  56
ATOM     56  S   UNL     1       3.923   0.583  15.940  1.00  0.00     0.124 S 
ATOM     57  O   UNL     1       2.712   0.798  16.723  1.00  0.00    -0.237 OA
ATOM     58  O   UNL     1       4.053  -0.724  15.304  1.00  0.00    -0.237 OA
ATOM     59  O   UNL     1       5.150   1.111  16.532  1.00  0.00    -0.744 OA
ENDBRANCH  52  56
ENDBRANCH  25  49
BRANCH  37  60
ATOM     60  C   UNL     1      -4.638   2.755  14.381  1.00  0.00     0.023 A 
ATOM     61  C   UNL     1      -4.529   3.910  15.172  1.00  0.00     0.031 A 
ATOM     62  C   UNL     1      -5.437   1.697  14.850  1.00  0.00     0.131 A 
ATOM     63  C   UNL     1      -5.165   3.958  16.419  1.00  0.00     0.055 A 
ATOM     64  C   UNL     1      -6.126   1.780  16.058  1.00  0.00     0.041 A 
ATOM     65  F   UNL     1      -5.569   0.570  14.132  1.00  0.00    -0.206 F 
ATOM     66  C   UNL     1      -5.981   2.911  16.857  1.00  0.00     0.022 A 
BRANCH  63  67
ATOM     67  S   UNL     1      -4.829   5.367  17.508  1.00  0.00     0.124 S 
ATOM     68  O   UNL     1      -3.380   5.287  17.667  1.00  0.00    -0.237 OA
ATOM     69  O   UNL     1      -5.323   6.494  16.724  1.00  0.00    -0.237 OA
ATOM     70  O   UNL     1      -5.603   5.062  18.710  1.00  0.00    -0.744 OA
ENDBRANCH  63  67
ENDBRANCH  37  60
ENDBRANCH  11  12
ENDBRANCH   4   6
ENDBRANCH   3   4
ENDBRANCH   2   3
ENDBRANCH   1   2
BRANCH   1  71
ATOM     71  O   UNL     1       3.716  -0.487   3.487  1.00  0.00    -0.374 OA
BRANCH  71  72
ATOM     72  C   UNL     1       4.665   0.538   3.185  1.00  0.00     0.202 C 
BRANCH  72  73
ATOM     73  C   UNL     1       5.987   0.225   3.882  1.00  0.00     0.261 C 
BRANCH  73  74
ATOM     74  O   UNL     1       6.527  -0.964   3.285  1.00  0.00    -0.463 OA
BRANCH  74  75
ATOM     75  C   UNL     1       6.079  -2.123   3.838  1.00  0.00     0.309 C 
ATOM     76  O   UNL     1       5.531  -2.233   4.929  1.00  0.00    -0.252 OA
BRANCH  75  77
ATOM     77  C   UNL     1       6.324  -3.273   2.885  1.00  0.00     0.100 C 
ATOM     78  C   UNL     1       7.295  -4.255   3.521  1.00  0.00     0.016 C 
ATOM     79  C   UNL     1       5.033  -4.066   2.633  1.00  0.00     0.028 C 
ATOM     80  C   UNL     1       6.379  -5.224   4.263  1.00  0.00     0.014 C 
ATOM     81  C   UNL     1       5.229  -5.454   3.269  1.00  0.00     0.026 C 
ATOM     82  C   UNL     1       3.950  -5.974   3.928  1.00  0.00     0.074 C 
ATOM     83  C   UNL     1       5.596  -6.543   2.239  1.00  0.00     0.269 C 
ATOM     84  C   UNL     1       3.976  -7.465   3.656  1.00  0.00     0.263 C 
ATOM     85  N   UNL     1       4.573  -7.592   2.318  1.00  0.00    -0.332 N 
ATOM     86  H   UNL     1       5.052  -8.479   2.161  1.00  0.00     0.348 HD
BRANCH  85  87
ATOM     87  C   UNL     1       3.567  -7.703   1.248  1.00  0.00     0.184 C 
ATOM     88  C   UNL     1       2.910  -6.532   0.580  1.00  0.00     0.071 C 
ATOM     89  C   UNL     1       3.873  -7.391  -0.192  1.00  0.00     0.071 C 
ENDBRANCH  85  87
ENDBRANCH  75  77
ENDBRANCH  74  75
ENDBRANCH  73  74
ENDBRANCH  72  73
ENDBRANCH  71  72
ENDBRANCH   1  71
TORSDOF 18
