REMARK SMILES CC(C)n1ccc(C#CC(=O)OCCOCCOC(=O)c2ccc(-c3c4nc(c(-c5cc(S(=O)(=O)[O-])ccc5F)c5ccc([nH]5)c(-c5cc(S(=O)(=O)[O-])ccc5F)c5nc(c(-c6cc(S(=O)(=O)[O-])ccc6F)c6ccc3[nH]6)C=C5)C=C4)cc2)n1
REMARK SMILES IDX 16 1 15 2 14 3 13 4 12 5 10 6 11 7 9 8 8 9 7 10 4 11 5 12
REMARK SMILES IDX 84 13 6 14 2 15 1 16 3 17 17 18 18 19 19 20 20 21 21 22
REMARK SMILES IDX 22 23 83 24 23 25 82 26 24 27 25 28 26 29 76 30 27 31 81 32
REMARK SMILES IDX 75 33 77 34 28 35 80 36 74 37 73 38 29 40 61 41 41 42 60 43
REMARK SMILES IDX 42 44 45 45 59 46 78 47 43 48 44 49 58 51 79 52 46 53 30 54
REMARK SMILES IDX 31 55 39 56 32 57 38 58 40 59 37 60 33 61 34 62 35 63 36 64
REMARK SMILES IDX 62 65 63 66 71 67 64 68 70 69 72 70 69 71 65 72 66 73 67 74
REMARK SMILES IDX 68 75 47 76 48 77 56 78 49 79 55 80 57 81 54 82 50 83 51 84
REMARK SMILES IDX 52 85 53 86
REMARK H PARENT 77 39 45 50
REMARK Flexibility Score: inf
ROOT
ATOM      1  C   UNL     1      -8.026   1.949  -2.347  1.00  0.00     0.202 C 
ENDROOT
BRANCH   1   2
ATOM      2  O   UNL     1      -8.905   2.862  -1.693  1.00  0.00    -0.374 OA
BRANCH   2   3
ATOM      3  C   UNL     1      -8.402   4.118  -1.239  1.00  0.00     0.202 C 
BRANCH   3   4
ATOM      4  C   UNL     1      -7.468   4.094  -0.031  1.00  0.00     0.262 C 
BRANCH   4   5
ATOM      5  O   UNL     1      -6.239   3.415  -0.324  1.00  0.00    -0.454 OA
BRANCH   5   6
ATOM      6  C   UNL     1      -6.009   2.299   0.413  1.00  0.00     0.384 C 
ATOM      7  O   UNL     1      -6.692   1.879   1.337  1.00  0.00    -0.236 OA
BRANCH   6   8
ATOM      8  C   UNL     1      -4.891   1.542  -0.051  1.00  0.00     0.024 C 
ATOM      9  C   UNL     1      -4.003   0.785  -0.384  1.00  0.00    -0.033 C 
BRANCH   9  10
ATOM     10  C   UNL     1      -3.018  -0.184  -0.673  1.00  0.00     0.135 A 
ATOM     11  N   UNL     1      -1.069  -0.980  -0.869  1.00  0.00    -0.269 N 
ATOM     12  C   UNL     1      -1.912  -2.047  -1.044  1.00  0.00     0.110 A 
ATOM     13  N   UNL     1      -1.736   0.177  -0.668  1.00  0.00    -0.164 NA
ATOM     14  C   UNL     1      -3.191  -1.557  -0.911  1.00  0.00     0.059 A 
BRANCH  11  15
ATOM     15  C   UNL     1       0.395  -0.974  -0.913  1.00  0.00     0.101 C 
ATOM     16  C   UNL     1       0.998   0.129  -0.032  1.00  0.00     0.033 C 
ATOM     17  C   UNL     1       1.013  -2.319  -0.512  1.00  0.00     0.033 C 
ENDBRANCH  11  15
ENDBRANCH   9  10
ENDBRANCH   6   8
ENDBRANCH   5   6
ENDBRANCH   4   5
ENDBRANCH   3   4
ENDBRANCH   2   3
ENDBRANCH   1   2
BRANCH   1  18
ATOM     18  C   UNL     1      -7.530   2.302  -3.742  1.00  0.00     0.261 C 
BRANCH  18  19
ATOM     19  O   UNL     1      -6.743   3.483  -3.745  1.00  0.00    -0.460 OA
BRANCH  19  20
ATOM     20  C   UNL     1      -7.379   4.571  -4.240  1.00  0.00     0.338 C 
ATOM     21  O   UNL     1      -8.581   4.717  -4.380  1.00  0.00    -0.246 OA
BRANCH  20  22
ATOM     22  C   UNL     1      -6.368   5.520  -4.713  1.00  0.00     0.060 A 
ATOM     23  C   UNL     1      -6.844   6.628  -5.416  1.00  0.00     0.016 A 
ATOM     24  C   UNL     1      -5.014   5.149  -4.726  1.00  0.00     0.016 A 
ATOM     25  C   UNL     1      -6.005   7.222  -6.329  1.00  0.00     0.010 A 
ATOM     26  C   UNL     1      -4.186   5.729  -5.653  1.00  0.00     0.010 A 
ATOM     27  C   UNL     1      -4.724   6.691  -6.503  1.00  0.00    -0.014 A 
BRANCH  27  28
ATOM     28  C   UNL     1      -3.910   7.225  -7.569  1.00  0.00     0.031 A 
ATOM     29  C   UNL     1      -3.339   8.544  -7.237  1.00  0.00     0.074 A 
ATOM     30  C   UNL     1      -3.636   6.526  -8.685  1.00  0.00     0.049 A 
ATOM     31  N   UNL     1      -3.663   9.690  -7.730  1.00  0.00    -0.248 NA
ATOM     32  C   UNL     1      -2.456   8.623  -6.061  1.00  0.00     0.031 C 
ATOM     33  C   UNL     1      -3.924   5.119  -8.971  1.00  0.00     0.029 A 
ATOM     34  N   UNL     1      -2.930   6.919  -9.775  1.00  0.00    -0.354 N 
ATOM     35  C   UNL     1      -2.838  10.608  -7.095  1.00  0.00     0.074 A 
ATOM     36  C   UNL     1      -2.320   9.941  -5.934  1.00  0.00     0.031 C 
ATOM     37  C   UNL     1      -3.194   4.726 -10.041  1.00  0.00     0.029 A 
ATOM     38  C   UNL     1      -2.491   5.879 -10.585  1.00  0.00     0.049 A 
ATOM     39  H   UNL     1      -2.745   7.865  -9.976  1.00  0.00     0.167 HD
ATOM     40  C   UNL     1      -2.431  11.739  -7.731  1.00  0.00     0.034 A 
ATOM     41  C   UNL     1      -1.548   5.962 -11.563  1.00  0.00     0.034 A 
ATOM     42  C   UNL     1      -3.281  12.027  -8.866  1.00  0.00     0.049 A 
ATOM     43  C   UNL     1      -1.458   7.398 -11.948  1.00  0.00     0.074 A 
ATOM     44  C   UNL     1      -4.637  12.258  -9.016  1.00  0.00     0.029 A 
ATOM     45  N   UNL     1      -2.822  11.705 -10.125  1.00  0.00    -0.354 N 
ATOM     46  N   UNL     1      -2.438   8.048 -12.518  1.00  0.00    -0.248 NA
ATOM     47  C   UNL     1      -0.495   8.236 -11.245  1.00  0.00     0.031 C 
ATOM     48  C   UNL     1      -4.995  11.578 -10.217  1.00  0.00     0.029 A 
ATOM     49  C   UNL     1      -3.834  11.044 -10.780  1.00  0.00     0.049 A 
ATOM     50  H   UNL     1      -1.931  11.912 -10.489  1.00  0.00     0.167 HD
ATOM     51  C   UNL     1      -2.463   9.288 -11.895  1.00  0.00     0.074 A 
ATOM     52  C   UNL     1      -1.187   9.379 -11.186  1.00  0.00     0.031 C 
ATOM     53  C   UNL     1      -3.625   9.999 -11.768  1.00  0.00     0.034 A 
BRANCH  40  54
ATOM     54  C   UNL     1      -1.061  12.355  -7.558  1.00  0.00     0.023 A 
ATOM     55  C   UNL     1      -0.789  13.520  -8.296  1.00  0.00     0.031 A 
ATOM     56  C   UNL     1       0.062  11.738  -6.954  1.00  0.00     0.131 A 
ATOM     57  C   UNL     1       0.531  13.957  -8.496  1.00  0.00     0.055 A 
ATOM     58  C   UNL     1       1.366  12.218  -7.097  1.00  0.00     0.041 A 
ATOM     59  F   UNL     1      -0.009  10.591  -6.272  1.00  0.00    -0.206 F 
ATOM     60  C   UNL     1       1.612  13.314  -7.901  1.00  0.00     0.022 A 
BRANCH  57  61
ATOM     61  S   UNL     1       0.821  15.271  -9.704  1.00  0.00     0.124 S 
ATOM     62  O   UNL     1       0.140  14.744 -10.882  1.00  0.00    -0.237 OA
ATOM     63  O   UNL     1       0.193  16.417  -9.054  1.00  0.00    -0.237 OA
ATOM     64  O   UNL     1       2.277  15.328  -9.798  1.00  0.00    -0.744 OA
ENDBRANCH  57  61
ENDBRANCH  40  54
BRANCH  41  65
ATOM     65  C   UNL     1      -0.488   4.955 -11.863  1.00  0.00     0.023 A 
ATOM     66  C   UNL     1       0.226   4.923 -13.081  1.00  0.00     0.031 A 
ATOM     67  C   UNL     1       0.002   4.127 -10.826  1.00  0.00     0.131 A 
ATOM     68  C   UNL     1       1.364   4.088 -13.221  1.00  0.00     0.055 A 
ATOM     69  C   UNL     1       1.120   3.304 -10.970  1.00  0.00     0.041 A 
ATOM     70  F   UNL     1      -0.540   4.154  -9.598  1.00  0.00    -0.206 F 
ATOM     71  C   UNL     1       1.812   3.287 -12.169  1.00  0.00     0.022 A 
BRANCH  68  72
ATOM     72  S   UNL     1       2.341   4.093 -14.762  1.00  0.00     0.124 S 
ATOM     73  O   UNL     1       1.416   3.494 -15.717  1.00  0.00    -0.237 OA
ATOM     74  O   UNL     1       2.636   5.509 -14.942  1.00  0.00    -0.237 OA
ATOM     75  O   UNL     1       3.502   3.265 -14.433  1.00  0.00    -0.744 OA
ENDBRANCH  68  72
ENDBRANCH  41  65
BRANCH  53  76
ATOM     76  C   UNL     1      -4.842   9.545 -12.554  1.00  0.00     0.023 A 
ATOM     77  C   UNL     1      -5.440   8.265 -12.461  1.00  0.00     0.031 A 
ATOM     78  C   UNL     1      -5.497  10.510 -13.340  1.00  0.00     0.131 A 
ATOM     79  C   UNL     1      -6.641   7.994 -13.149  1.00  0.00     0.055 A 
ATOM     80  C   UNL     1      -6.696  10.245 -14.000  1.00  0.00     0.041 A 
ATOM     81  F   UNL     1      -4.997  11.752 -13.449  1.00  0.00    -0.206 F 
ATOM     82  C   UNL     1      -7.271   8.983 -13.912  1.00  0.00     0.022 A 
BRANCH  79  83
ATOM     83  S   UNL     1      -7.405   6.340 -13.083  1.00  0.00     0.124 S 
ATOM     84  O   UNL     1      -6.290   5.437 -13.343  1.00  0.00    -0.237 OA
ATOM     85  O   UNL     1      -7.958   6.301 -11.732  1.00  0.00    -0.237 OA
ATOM     86  O   UNL     1      -8.410   6.386 -14.148  1.00  0.00    -0.744 OA
ENDBRANCH  79  83
ENDBRANCH  53  76
ENDBRANCH  27  28
ENDBRANCH  20  22
ENDBRANCH  19  20
ENDBRANCH  18  19
ENDBRANCH   1  18
TORSDOF 19
