REMARK SMILES CCN1C(=O)[C@H](CC(=O)Nc2ccc(C(=O)OCCOCCOC(=O)c3ccc(-c4c5nc(c(-c6cc(S(=O)(=O)[O-])ccc6F)c6ccc([nH]6)c(-c6cc(S(=O)(=O)[O-])ccc6F)c6nc(c(-c7cc(S(=O)(=O)[O-])ccc7F)c7ccc4[nH]7)C=C6)C=C5)cc3)cc2)S/C1=[NH+]\c1ccc(Cl)cc1
REMARK SMILES IDX 19 1 18 2 17 3 15 4 16 5 14 6 11 7 12 8 90 9 13 10 89 11
REMARK SMILES IDX 10 12 8 13 9 14 7 16 6 17 3 18 4 19 92 20 5 21 91 22 93 23
REMARK SMILES IDX 2 25 1 26 94 27 95 28 100 29 96 30 99 31 97 32 98 33 20 34
REMARK SMILES IDX 21 35 22 36 23 37 24 38 25 39 26 40 27 41 88 42 28 43 87 44
REMARK SMILES IDX 29 45 30 46 31 47 81 48 32 49 86 50 80 51 82 52 33 53 85 54
REMARK SMILES IDX 79 55 78 56 34 58 66 59 46 60 65 61 47 62 50 63 64 64 83 65
REMARK SMILES IDX 48 66 49 67 63 69 84 70 51 71 35 72 36 73 44 74 37 75 43 76
REMARK SMILES IDX 45 77 42 78 38 79 39 80 40 81 41 82 67 83 68 84 76 85 69 86
REMARK SMILES IDX 75 87 77 88 74 89 70 90 71 91 72 92 73 93 52 94 53 95 61 96
REMARK SMILES IDX 54 97 60 98 62 99 59 100 55 101 56 102 57 103 58 104
REMARK H PARENT 10 15 93 24 82 57 50 68
REMARK Flexibility Score: inf
ROOT
ATOM      1  C   UNL     1       1.678   3.635   0.146  1.00  0.00     0.202 C 
ENDROOT
BRANCH   1   2
ATOM      2  C   UNL     1       3.014   2.942   0.422  1.00  0.00     0.261 C 
BRANCH   2   3
ATOM      3  O   UNL     1       2.832   1.516   0.469  1.00  0.00    -0.460 OA
BRANCH   3   4
ATOM      4  C   UNL     1       2.770   0.946   1.695  1.00  0.00     0.338 C 
ATOM      5  O   UNL     1       2.935   1.476   2.780  1.00  0.00    -0.246 OA
BRANCH   4   6
ATOM      6  C   UNL     1       2.294  -0.444   1.523  1.00  0.00     0.060 A 
ATOM      7  C   UNL     1       1.124  -2.966   1.068  1.00  0.00     0.041 A 
ATOM      8  C   UNL     1       0.782  -2.201   2.196  1.00  0.00     0.027 A 
ATOM      9  C   UNL     1       2.122  -2.483   0.225  1.00  0.00     0.027 A 
ATOM     10  C   UNL     1       1.364  -0.951   2.429  1.00  0.00     0.018 A 
ATOM     11  C   UNL     1       2.698  -1.224   0.440  1.00  0.00     0.018 A 
BRANCH   7  12
ATOM     12  N   UNL     1       0.380  -4.145   0.880  1.00  0.00    -0.326 N 
ATOM     13  C   UNL     1       0.265  -5.081  -0.101  1.00  0.00     0.226 C 
ATOM     14  O   UNL     1      -0.553  -5.991   0.077  1.00  0.00    -0.275 OA
ATOM     15  H   UNL     1      -0.203  -4.341   1.649  1.00  0.00     0.169 HD
BRANCH  13  16
ATOM     16  C   UNL     1       1.085  -5.072  -1.363  1.00  0.00     0.128 C 
BRANCH  16  17
ATOM     17  C   UNL     1       0.521  -4.231  -2.505  1.00  0.00     0.183 C 
ATOM     18  N   UNL     1       0.165  -1.867  -2.754  1.00  0.00    -0.190 N 
ATOM     19  C   UNL     1      -0.312  -3.014  -2.154  1.00  0.00     0.324 C 
ATOM     20  C   UNL     1       1.302  -1.964  -3.511  1.00  0.00     0.319 C 
ATOM     21  O   UNL     1      -1.320  -3.066  -1.456  1.00  0.00    -0.245 OA
ATOM     22  S   UNL     1       1.863  -3.615  -3.570  1.00  0.00    -0.022 SA
ATOM     23  N   UNL     1       1.837  -0.931  -4.071  1.00  0.00    -0.235 N 
ATOM     24  H   UNL     1       1.458  -0.038  -3.901  1.00  0.00     0.313 HD
BRANCH  18  25
ATOM     25  C   UNL     1      -0.568  -0.616  -2.622  1.00  0.00     0.243 C 
ATOM     26  C   UNL     1      -0.249   0.089  -1.319  1.00  0.00     0.054 C 
ENDBRANCH  18  25
BRANCH  23  27
ATOM     27  C   UNL     1       2.945  -1.056  -4.918  1.00  0.00     0.125 A 
ATOM     28  C   UNL     1       4.205  -0.615  -4.504  1.00  0.00     0.053 A 
ATOM     29  C   UNL     1       2.788  -1.544  -6.221  1.00  0.00     0.053 A 
ATOM     30  C   UNL     1       5.305  -0.714  -5.362  1.00  0.00     0.025 A 
ATOM     31  C   UNL     1       3.885  -1.652  -7.078  1.00  0.00     0.025 A 
ATOM     32  C   UNL     1       5.142  -1.247  -6.640  1.00  0.00     0.041 A 
ATOM     33  Cl  UNL     1       6.504  -1.417  -7.675  1.00  0.00    -0.084 Cl
ENDBRANCH  23  27
ENDBRANCH  16  17
ENDBRANCH  13  16
ENDBRANCH   7  12
ENDBRANCH   4   6
ENDBRANCH   3   4
ENDBRANCH   2   3
ENDBRANCH   1   2
BRANCH   1  34
ATOM     34  O   UNL     1       0.850   3.663   1.312  1.00  0.00    -0.374 OA
BRANCH  34  35
ATOM     35  C   UNL     1      -0.195   2.691   1.327  1.00  0.00     0.202 C 
BRANCH  35  36
ATOM     36  C   UNL     1      -1.511   3.215   0.741  1.00  0.00     0.261 C 
BRANCH  36  37
ATOM     37  O   UNL     1      -1.415   3.408  -0.683  1.00  0.00    -0.460 OA
BRANCH  37  38
ATOM     38  C   UNL     1      -1.187   4.684  -1.080  1.00  0.00     0.338 C 
ATOM     39  O   UNL     1      -1.120   5.669  -0.364  1.00  0.00    -0.246 OA
BRANCH  38  40
ATOM     40  C   UNL     1      -0.879   4.715  -2.528  1.00  0.00     0.060 A 
ATOM     41  C   UNL     1       0.117   5.599  -2.958  1.00  0.00     0.016 A 
ATOM     42  C   UNL     1      -1.576   3.937  -3.458  1.00  0.00     0.016 A 
ATOM     43  C   UNL     1       0.396   5.735  -4.319  1.00  0.00     0.010 A 
ATOM     44  C   UNL     1      -1.295   4.075  -4.824  1.00  0.00     0.010 A 
ATOM     45  C   UNL     1      -0.327   4.995  -5.264  1.00  0.00    -0.014 A 
BRANCH  45  46
ATOM     46  C   UNL     1      -0.153   5.278  -6.713  1.00  0.00     0.031 A 
ATOM     47  C   UNL     1      -1.170   6.133  -7.421  1.00  0.00     0.074 A 
ATOM     48  C   UNL     1       0.909   4.800  -7.387  1.00  0.00     0.049 A 
ATOM     49  N   UNL     1      -1.239   6.471  -8.684  1.00  0.00    -0.248 NA
ATOM     50  C   UNL     1      -2.257   6.675  -6.592  1.00  0.00     0.031 C 
ATOM     51  C   UNL     1       1.980   3.986  -6.811  1.00  0.00     0.029 A 
ATOM     52  N   UNL     1       1.257   4.926  -8.709  1.00  0.00    -0.354 N 
ATOM     53  C   UNL     1      -2.377   7.261  -8.804  1.00  0.00     0.074 A 
ATOM     54  C   UNL     1      -2.985   7.320  -7.491  1.00  0.00     0.031 C 
ATOM     55  C   UNL     1       2.861   3.678  -7.779  1.00  0.00     0.029 A 
ATOM     56  C   UNL     1       2.401   4.242  -9.047  1.00  0.00     0.049 A 
ATOM     57  H   UNL     1       0.737   5.457  -9.354  1.00  0.00     0.167 HD
ATOM     58  C   UNL     1      -2.866   7.886  -9.904  1.00  0.00     0.034 A 
ATOM     59  C   UNL     1       2.993   4.068 -10.246  1.00  0.00     0.034 A 
ATOM     60  C   UNL     1      -2.258   7.815 -11.211  1.00  0.00     0.049 A 
ATOM     61  C   UNL     1       2.388   4.707 -11.472  1.00  0.00     0.074 A 
ATOM     62  C   UNL     1      -2.662   8.429 -12.385  1.00  0.00     0.029 A 
ATOM     63  N   UNL     1      -1.125   7.076 -11.523  1.00  0.00    -0.354 N 
ATOM     64  N   UNL     1       1.312   5.453 -11.571  1.00  0.00    -0.248 NA
ATOM     65  C   UNL     1       3.080   4.478 -12.749  1.00  0.00     0.031 C 
ATOM     66  C   UNL     1      -1.816   8.007 -13.417  1.00  0.00     0.029 A 
ATOM     67  C   UNL     1      -0.837   7.191 -12.875  1.00  0.00     0.049 A 
ATOM     68  H   UNL     1      -0.601   6.548 -10.878  1.00  0.00     0.167 HD
ATOM     69  C   UNL     1       1.216   5.802 -12.916  1.00  0.00     0.074 A 
ATOM     70  C   UNL     1       2.345   5.194 -13.587  1.00  0.00     0.031 C 
ATOM     71  C   UNL     1       0.282   6.565 -13.539  1.00  0.00     0.034 A 
BRANCH  58  72
ATOM     72  C   UNL     1      -4.152   8.659  -9.746  1.00  0.00     0.023 A 
ATOM     73  C   UNL     1      -4.233   9.805  -8.936  1.00  0.00     0.031 A 
ATOM     74  C   UNL     1      -5.322   8.228 -10.397  1.00  0.00     0.131 A 
ATOM     75  C   UNL     1      -5.470  10.440  -8.744  1.00  0.00     0.055 A 
ATOM     76  C   UNL     1      -6.533   8.909 -10.262  1.00  0.00     0.041 A 
ATOM     77  F   UNL     1      -5.309   7.128 -11.166  1.00  0.00    -0.206 F 
ATOM     78  C   UNL     1      -6.615  10.014  -9.420  1.00  0.00     0.022 A 
BRANCH  75  79
ATOM     79  S   UNL     1      -5.590  11.745  -7.490  1.00  0.00     0.124 S 
ATOM     80  O   UNL     1      -5.159  11.039  -6.286  1.00  0.00    -0.237 OA
ATOM     81  O   UNL     1      -4.672  12.757  -8.001  1.00  0.00    -0.237 OA
ATOM     82  O   UNL     1      -7.003  12.115  -7.515  1.00  0.00    -0.744 OA
ENDBRANCH  75  79
ENDBRANCH  58  72
BRANCH  59  83
ATOM     83  C   UNL     1       4.200   3.204 -10.373  1.00  0.00     0.023 A 
ATOM     84  C   UNL     1       5.441   3.738 -10.752  1.00  0.00     0.031 A 
ATOM     85  C   UNL     1       4.105   1.813 -10.188  1.00  0.00     0.131 A 
ATOM     86  C   UNL     1       6.528   2.881 -10.982  1.00  0.00     0.055 A 
ATOM     87  C   UNL     1       5.201   0.970 -10.375  1.00  0.00     0.041 A 
ATOM     88  F   UNL     1       2.940   1.253  -9.826  1.00  0.00    -0.206 F 
ATOM     89  C   UNL     1       6.420   1.502 -10.784  1.00  0.00     0.022 A 
BRANCH  86  90
ATOM     90  S   UNL     1       8.071   3.587 -11.625  1.00  0.00     0.124 S 
ATOM     91  O   UNL     1       7.631   4.149 -12.897  1.00  0.00    -0.237 OA
ATOM     92  O   UNL     1       8.421   4.550 -10.585  1.00  0.00    -0.237 OA
ATOM     93  O   UNL     1       8.960   2.432 -11.725  1.00  0.00    -0.744 OA
ENDBRANCH  86  90
ENDBRANCH  59  83
BRANCH  71  94
ATOM     94  C   UNL     1       0.470   6.819 -15.014  1.00  0.00     0.023 A 
ATOM     95  C   UNL     1       0.325   5.797 -15.969  1.00  0.00     0.031 A 
ATOM     96  C   UNL     1       0.804   8.107 -15.470  1.00  0.00     0.131 A 
ATOM     97  C   UNL     1       0.557   6.070 -17.326  1.00  0.00     0.055 A 
ATOM     98  C   UNL     1       0.983   8.385 -16.826  1.00  0.00     0.041 A 
ATOM     99  F   UNL     1       0.957   9.120 -14.601  1.00  0.00    -0.206 F 
ATOM    100  C   UNL     1       0.870   7.361 -17.762  1.00  0.00     0.022 A 
BRANCH  97 101
ATOM    101  S   UNL     1       0.515   4.700 -18.514  1.00  0.00     0.124 S 
ATOM    102  O   UNL     1       1.565   3.824 -18.005  1.00  0.00    -0.237 OA
ATOM    103  O   UNL     1      -0.851   4.205 -18.373  1.00  0.00    -0.237 OA
ATOM    104  O   UNL     1       0.811   5.344 -19.793  1.00  0.00    -0.744 OA
ENDBRANCH  97 101
ENDBRANCH  71  94
ENDBRANCH  45  46
ENDBRANCH  38  40
ENDBRANCH  37  38
ENDBRANCH  36  37
ENDBRANCH  35  36
ENDBRANCH  34  35
ENDBRANCH   1  34
TORSDOF 22
