REMARK SMILES Cc1cc(C(=O)N2C[C@@H](C(=O)OCCOCCOC(=O)c3ccc(-c4c5nc(c(-c6cc(S(=O)(=O)[O-])ccc6F)c6ccc([nH]6)c(-c6cc(S(=O)(=O)[O-])ccc6F)c6nc(c(-c7cc(S(=O)(=O)[O-])ccc7F)c7ccc4[nH]7)C=C6)C=C5)cc3)[C@H](C3CC3)C2)sc1C
REMARK SMILES IDX 16 1 15 2 14 3 13 4 12 5 10 6 11 7 9 8 7 9 8 10 88 11 84 12
REMARK SMILES IDX 5 13 6 14 4 15 1 16 2 17 3 18 90 19 89 20 91 21 85 22 86 23
REMARK SMILES IDX 87 24 17 25 18 26 19 27 20 28 21 29 22 30 83 31 23 32 82 33
REMARK SMILES IDX 24 34 25 35 26 36 76 37 27 38 81 39 75 40 77 41 28 42 80 43
REMARK SMILES IDX 74 44 73 45 29 47 61 48 41 49 60 50 42 51 45 52 59 53 78 54
REMARK SMILES IDX 43 55 44 56 58 58 79 59 46 60 30 61 31 62 39 63 32 64 38 65
REMARK SMILES IDX 40 66 37 67 33 68 34 69 35 70 36 71 62 72 63 73 71 74 64 75
REMARK SMILES IDX 70 76 72 77 69 78 65 79 66 80 67 81 68 82 47 83 48 84 56 85
REMARK SMILES IDX 49 86 55 87 57 88 54 89 50 90 51 91 52 92 53 93
REMARK H PARENT 77 46 45 57
REMARK Flexibility Score: inf
ROOT
ATOM      1  C   UNL     1       5.532   1.086   3.275  1.00  0.00     0.202 C 
ENDROOT
BRANCH   1   2
ATOM      2  O   UNL     1       6.872   1.110   3.762  1.00  0.00    -0.374 OA
BRANCH   2   3
ATOM      3  C   UNL     1       7.884   1.606   2.884  1.00  0.00     0.202 C 
BRANCH   3   4
ATOM      4  C   UNL     1       8.355   0.637   1.796  1.00  0.00     0.261 C 
BRANCH   4   5
ATOM      5  O   UNL     1       7.314   0.423   0.830  1.00  0.00    -0.463 OA
BRANCH   5   6
ATOM      6  C   UNL     1       6.777  -0.826   0.774  1.00  0.00     0.311 C 
ATOM      7  O   UNL     1       7.179  -1.805   1.385  1.00  0.00    -0.252 OA
BRANCH   6   8
ATOM      8  C   UNL     1       5.564  -0.819  -0.118  1.00  0.00     0.124 C 
ATOM      9  N   UNL     1       3.579  -1.966  -0.489  1.00  0.00    -0.337 N 
ATOM     10  C   UNL     1       4.357  -1.412   0.596  1.00  0.00     0.135 C 
ATOM     11  C   UNL     1       4.467  -2.506  -1.492  1.00  0.00     0.124 C 
ATOM     12  C   UNL     1       5.781  -1.713  -1.353  1.00  0.00     0.028 C 
BRANCH   9  13
ATOM     13  C   UNL     1       2.256  -2.365  -0.427  1.00  0.00     0.263 C 
ATOM     14  O   UNL     1       1.951  -3.512  -0.764  1.00  0.00    -0.268 OA
BRANCH  13  15
ATOM     15  C   UNL     1       1.233  -1.369  -0.111  1.00  0.00     0.093 A 
ATOM     16  C   UNL     1      -2.421  -0.472   0.141  1.00  0.00     0.045 C 
ATOM     17  C   UNL     1      -0.929  -0.441   0.094  1.00  0.00    -0.037 A 
ATOM     18  C   UNL     1      -0.119  -1.625   0.049  1.00  0.00     0.029 A 
ATOM     19  C   UNL     1      -0.139   0.695   0.036  1.00  0.00     0.005 A 
ATOM     20  S   UNL     1       1.521   0.315  -0.109  1.00  0.00    -0.135 S 
ATOM     21  C   UNL     1      -0.568   2.127   0.035  1.00  0.00     0.056 C 
ENDBRANCH  13  15
ENDBRANCH   9  13
BRANCH  12  22
ATOM     22  C   UNL     1       6.144  -1.000  -2.638  1.00  0.00    -0.005 C 
ATOM     23  C   UNL     1       6.024   0.486  -2.894  1.00  0.00     0.004 C 
ATOM     24  C   UNL     1       7.379  -0.135  -2.699  1.00  0.00     0.004 C 
ENDBRANCH  12  22
ENDBRANCH   6   8
ENDBRANCH   5   6
ENDBRANCH   4   5
ENDBRANCH   3   4
ENDBRANCH   2   3
ENDBRANCH   1   2
BRANCH   1  25
ATOM     25  C   UNL     1       4.758   2.409   3.284  1.00  0.00     0.261 C 
BRANCH  25  26
ATOM     26  O   UNL     1       5.308   3.373   2.372  1.00  0.00    -0.460 OA
BRANCH  26  27
ATOM     27  C   UNL     1       5.978   4.388   2.969  1.00  0.00     0.338 C 
ATOM     28  O   UNL     1       6.119   4.564   4.173  1.00  0.00    -0.246 OA
BRANCH  27  29
ATOM     29  C   UNL     1       6.689   5.194   1.962  1.00  0.00     0.060 A 
ATOM     30  C   UNL     1       8.054   5.431   2.170  1.00  0.00     0.016 A 
ATOM     31  C   UNL     1       6.022   5.780   0.884  1.00  0.00     0.016 A 
ATOM     32  C   UNL     1       8.747   6.301   1.331  1.00  0.00     0.010 A 
ATOM     33  C   UNL     1       6.718   6.660   0.048  1.00  0.00     0.010 A 
ATOM     34  C   UNL     1       8.072   6.953   0.291  1.00  0.00    -0.014 A 
BRANCH  34  35
ATOM     35  C   UNL     1       8.739   8.064  -0.431  1.00  0.00     0.031 A 
ATOM     36  C   UNL     1       8.427   9.479  -0.025  1.00  0.00     0.074 A 
ATOM     37  C   UNL     1       9.626   7.817  -1.411  1.00  0.00     0.049 A 
ATOM     38  N   UNL     1       8.837  10.605  -0.549  1.00  0.00    -0.248 NA
ATOM     39  C   UNL     1       7.525   9.640   1.125  1.00  0.00     0.031 C 
ATOM     40  C   UNL     1      10.048   6.488  -1.849  1.00  0.00     0.029 A 
ATOM     41  N   UNL     1      10.325   8.678  -2.218  1.00  0.00    -0.354 N 
ATOM     42  C   UNL     1       8.240  11.611   0.204  1.00  0.00     0.074 A 
ATOM     43  C   UNL     1       7.409  10.957   1.194  1.00  0.00     0.031 C 
ATOM     44  C   UNL     1      10.928   6.622  -2.856  1.00  0.00     0.029 A 
ATOM     45  C   UNL     1      11.097   8.042  -3.161  1.00  0.00     0.049 A 
ATOM     46  H   UNL     1      10.278   9.657  -2.131  1.00  0.00     0.167 HD
ATOM     47  C   UNL     1       8.380  12.955   0.086  1.00  0.00     0.034 A 
ATOM     48  C   UNL     1      11.832   8.549  -4.172  1.00  0.00     0.034 A 
ATOM     49  C   UNL     1       9.201  13.588  -0.918  1.00  0.00     0.049 A 
ATOM     50  C   UNL     1      11.893  10.047  -4.352  1.00  0.00     0.074 A 
ATOM     51  C   UNL     1       9.421  14.938  -1.129  1.00  0.00     0.029 A 
ATOM     52  N   UNL     1       9.928  12.912  -1.891  1.00  0.00    -0.354 N 
ATOM     53  N   UNL     1      11.321  10.990  -3.639  1.00  0.00    -0.248 NA
ATOM     54  C   UNL     1      12.702  10.548  -5.471  1.00  0.00     0.031 C 
ATOM     55  C   UNL     1      10.219  15.080  -2.270  1.00  0.00     0.029 A 
ATOM     56  C   UNL     1      10.567  13.818  -2.724  1.00  0.00     0.049 A 
ATOM     57  H   UNL     1       9.982  11.933  -1.976  1.00  0.00     0.167 HD
ATOM     58  C   UNL     1      11.730  12.196  -4.203  1.00  0.00     0.074 A 
ATOM     59  C   UNL     1      12.600  11.860  -5.312  1.00  0.00     0.031 C 
ATOM     60  C   UNL     1      11.424  13.466  -3.833  1.00  0.00     0.034 A 
BRANCH  47  61
ATOM     61  C   UNL     1       7.579  13.818   1.031  1.00  0.00     0.023 A 
ATOM     62  C   UNL     1       7.785  13.784   2.422  1.00  0.00     0.031 A 
ATOM     63  C   UNL     1       6.559  14.653   0.539  1.00  0.00     0.131 A 
ATOM     64  C   UNL     1       6.934  14.503   3.275  1.00  0.00     0.055 A 
ATOM     65  C   UNL     1       5.770  15.431   1.388  1.00  0.00     0.041 A 
ATOM     66  F   UNL     1       6.298  14.710  -0.776  1.00  0.00    -0.206 F 
ATOM     67  C   UNL     1       5.944  15.347   2.766  1.00  0.00     0.022 A 
BRANCH  64  68
ATOM     68  S   UNL     1       7.035  14.197   5.060  1.00  0.00     0.124 S 
ATOM     69  O   UNL     1       6.795  12.758   5.127  1.00  0.00    -0.237 OA
ATOM     70  O   UNL     1       8.389  14.634   5.379  1.00  0.00    -0.237 OA
ATOM     71  O   UNL     1       5.965  15.026   5.611  1.00  0.00    -0.744 OA
ENDBRANCH  64  68
ENDBRANCH  47  61
BRANCH  48  72
ATOM     72  C   UNL     1      12.535   7.640  -5.121  1.00  0.00     0.023 A 
ATOM     73  C   UNL     1      13.935   7.628  -5.213  1.00  0.00     0.031 A 
ATOM     74  C   UNL     1      11.809   6.797  -5.982  1.00  0.00     0.131 A 
ATOM     75  C   UNL     1      14.565   6.819  -6.172  1.00  0.00     0.055 A 
ATOM     76  C   UNL     1      12.442   5.958  -6.900  1.00  0.00     0.041 A 
ATOM     77  F   UNL     1      10.467   6.771  -5.935  1.00  0.00    -0.206 F 
ATOM     78  C   UNL     1      13.829   5.974  -7.007  1.00  0.00     0.022 A 
BRANCH  75  79
ATOM     79  S   UNL     1      16.364   6.941  -6.365  1.00  0.00     0.124 S 
ATOM     80  O   UNL     1      16.532   8.349  -6.704  1.00  0.00    -0.237 OA
ATOM     81  O   UNL     1      16.838   6.537  -5.045  1.00  0.00    -0.237 OA
ATOM     82  O   UNL     1      16.655   5.999  -7.444  1.00  0.00    -0.744 OA
ENDBRANCH  75  79
ENDBRANCH  48  72
BRANCH  60  83
ATOM     83  C   UNL     1      12.080  14.586  -4.604  1.00  0.00     0.023 A 
ATOM     84  C   UNL     1      11.764  14.850  -5.949  1.00  0.00     0.031 A 
ATOM     85  C   UNL     1      13.037  15.405  -3.977  1.00  0.00     0.131 A 
ATOM     86  C   UNL     1      12.433  15.875  -6.635  1.00  0.00     0.055 A 
ATOM     87  C   UNL     1      13.657  16.459  -4.648  1.00  0.00     0.041 A 
ATOM     88  F   UNL     1      13.378  15.197  -2.695  1.00  0.00    -0.206 F 
ATOM     89  C   UNL     1      13.364  16.692  -5.989  1.00  0.00     0.022 A 
BRANCH  86  90
ATOM     90  S   UNL     1      12.127  16.080  -8.412  1.00  0.00     0.124 S 
ATOM     91  O   UNL     1      12.529  14.781  -8.941  1.00  0.00    -0.237 OA
ATOM     92  O   UNL     1      10.698  16.371  -8.452  1.00  0.00    -0.237 OA
ATOM     93  O   UNL     1      12.996  17.196  -8.783  1.00  0.00    -0.744 OA
ENDBRANCH  86  90
ENDBRANCH  60  83
ENDBRANCH  34  35
ENDBRANCH  27  29
ENDBRANCH  26  27
ENDBRANCH  25  26
ENDBRANCH   1  25
TORSDOF 20
