REMARK SMILES CC(C)CCn1nc(C(=O)OCCOCCOC(=O)c2ccc(-c3c4nc(c(-c5cc(S(=O)(=O)[O-])ccc5F)c5ccc([nH]5)c(-c5cc(S(=O)(=O)[O-])ccc5F)c5nc(c(-c6cc(S(=O)(=O)[O-])ccc6F)c6ccc3[nH]6)C=C5)C=C4)cc2)c2c1CCN(C(=O)[C@@H]1CCc3nn(C)c(=O)n3C1)C2
REMARK SMILES IDX 14 1 13 2 12 3 11 4 9 5 10 6 8 7 6 8 7 9 84 10 83 11 85 12
REMARK SMILES IDX 101 13 86 14 87 15 5 16 4 17 2 18 1 19 3 20 88 21 89 22
REMARK SMILES IDX 90 23 91 24 100 25 92 26 99 27 93 28 97 29 94 30 95 31 98 32
REMARK SMILES IDX 96 33 15 34 16 35 17 36 18 37 19 38 20 39 21 40 82 41 22 42
REMARK SMILES IDX 81 43 23 44 24 45 25 46 75 47 26 48 80 49 74 50 76 51 27 52
REMARK SMILES IDX 79 53 73 54 72 55 28 57 60 58 40 59 59 60 41 61 44 62 58 63
REMARK SMILES IDX 77 64 42 65 43 66 57 68 78 69 45 70 29 71 30 72 38 73 31 74
REMARK SMILES IDX 37 75 39 76 36 77 32 78 33 79 34 80 35 81 61 82 62 83 70 84
REMARK SMILES IDX 63 85 69 86 71 87 68 88 64 89 65 90 66 91 67 92 46 93 47 94
REMARK SMILES IDX 55 95 48 96 54 97 56 98 53 99 49 100 50 101 51 102 52 103
REMARK H PARENT 76 56 44 67
REMARK Flexibility Score: inf
ROOT
ATOM      1  O   UNL     1       0.206   1.689  -8.408  1.00  0.00    -0.374 OA
ENDROOT
BRANCH   1   2
ATOM      2  C   UNL     1       0.788   0.516  -8.977  1.00  0.00     0.202 C 
BRANCH   2   3
ATOM      3  C   UNL     1       1.884  -0.157  -8.154  1.00  0.00     0.261 C 
BRANCH   3   4
ATOM      4  O   UNL     1       1.317  -0.830  -7.023  1.00  0.00    -0.458 OA
BRANCH   4   5
ATOM      5  C   UNL     1       1.422  -0.170  -5.828  1.00  0.00     0.359 C 
ATOM      6  O   UNL     1       2.100   0.822  -5.646  1.00  0.00    -0.244 OA
BRANCH   5   7
ATOM      7  C   UNL     1       0.554  -0.787  -4.810  1.00  0.00     0.175 A 
ATOM      8  N   UNL     1      -0.476  -1.033  -2.956  1.00  0.00    -0.268 N 
ATOM      9  N   UNL     1       0.237  -0.140  -3.665  1.00  0.00    -0.165 NA
ATOM     10  C   UNL     1      -0.439  -2.264  -3.528  1.00  0.00     0.046 A 
ATOM     11  C   UNL     1      -0.054  -2.072  -4.837  1.00  0.00     0.028 A 
ATOM     12  C   UNL     1      -0.717  -3.585  -2.929  1.00  0.00     0.078 C 
ATOM     13  C   UNL     1      -0.125  -3.131  -5.894  1.00  0.00     0.159 C 
ATOM     14  C   UNL     1      -0.294  -4.653  -3.960  1.00  0.00     0.126 C 
ATOM     15  N   UNL     1      -0.757  -4.346  -5.317  1.00  0.00    -0.338 N 
BRANCH   8  16
ATOM     16  C   UNL     1      -1.176  -0.606  -1.758  1.00  0.00     0.145 C 
BRANCH  16  17
ATOM     17  C   UNL     1      -0.780  -1.345  -0.479  1.00  0.00     0.027 C 
BRANCH  17  18
ATOM     18  C   UNL     1       0.738  -1.388  -0.233  1.00  0.00    -0.016 C 
ATOM     19  C   UNL     1       1.276  -0.016   0.168  1.00  0.00     0.007 C 
ATOM     20  C   UNL     1       1.071  -2.433   0.830  1.00  0.00     0.007 C 
ENDBRANCH  17  18
ENDBRANCH  16  17
ENDBRANCH   8  16
BRANCH  15  21
ATOM     21  C   UNL     1      -1.511  -5.134  -6.166  1.00  0.00     0.227 C 
ATOM     22  O   UNL     1      -1.470  -4.902  -7.384  1.00  0.00    -0.274 OA
BRANCH  21  23
ATOM     23  C   UNL     1      -2.463  -6.268  -5.717  1.00  0.00     0.099 C 
ATOM     24  C   UNL     1      -3.684  -5.856  -4.886  1.00  0.00     0.023 C 
ATOM     25  C   UNL     1      -1.833  -7.556  -5.209  1.00  0.00     0.142 C 
ATOM     26  C   UNL     1      -3.497  -5.888  -3.375  1.00  0.00     0.078 C 
ATOM     27  N   UNL     1      -1.760  -7.606  -3.770  1.00  0.00    -0.278 N 
ATOM     28  C   UNL     1      -2.452  -6.851  -2.896  1.00  0.00     0.133 A 
ATOM     29  C   UNL     1      -0.809  -8.273  -3.042  1.00  0.00     0.345 A 
ATOM     30  N   UNL     1      -2.041  -6.934  -1.662  1.00  0.00    -0.155 NA
ATOM     31  N   UNL     1      -0.989  -7.826  -1.731  1.00  0.00    -0.216 N 
ATOM     32  O   UNL     1       0.060  -9.018  -3.462  1.00  0.00    -0.246 OA
ATOM     33  C   UNL     1      -0.107  -8.089  -0.629  1.00  0.00     0.179 C 
ENDBRANCH  21  23
ENDBRANCH  15  21
ENDBRANCH   5   7
ENDBRANCH   4   5
ENDBRANCH   3   4
ENDBRANCH   2   3
ENDBRANCH   1   2
BRANCH   1  34
ATOM     34  C   UNL     1      -0.806   1.556  -7.413  1.00  0.00     0.202 C 
BRANCH  34  35
ATOM     35  C   UNL     1      -2.193   1.122  -7.860  1.00  0.00     0.261 C 
BRANCH  35  36
ATOM     36  O   UNL     1      -2.185  -0.199  -8.378  1.00  0.00    -0.460 OA
BRANCH  36  37
ATOM     37  C   UNL     1      -2.196  -0.262  -9.730  1.00  0.00     0.338 C 
ATOM     38  O   UNL     1      -1.905   0.629 -10.509  1.00  0.00    -0.246 OA
BRANCH  37  39
ATOM     39  C   UNL     1      -2.762  -1.555 -10.121  1.00  0.00     0.060 A 
ATOM     40  C   UNL     1      -3.058  -1.714 -11.475  1.00  0.00     0.016 A 
ATOM     41  C   UNL     1      -3.260  -2.424  -9.139  1.00  0.00     0.016 A 
ATOM     42  C   UNL     1      -4.057  -2.594 -11.816  1.00  0.00     0.010 A 
ATOM     43  C   UNL     1      -4.268  -3.288  -9.479  1.00  0.00     0.010 A 
ATOM     44  C   UNL     1      -4.716  -3.287 -10.795  1.00  0.00    -0.014 A 
BRANCH  44  45
ATOM     45  C   UNL     1      -5.831  -4.135 -11.151  1.00  0.00     0.031 A 
ATOM     46  C   UNL     1      -5.374  -5.370 -11.816  1.00  0.00     0.074 A 
ATOM     47  C   UNL     1      -7.101  -3.849 -10.807  1.00  0.00     0.049 A 
ATOM     48  N   UNL     1      -5.451  -5.655 -13.072  1.00  0.00    -0.248 NA
ATOM     49  C   UNL     1      -4.508  -6.281 -11.047  1.00  0.00     0.031 C 
ATOM     50  C   UNL     1      -7.590  -2.768  -9.947  1.00  0.00     0.029 A 
ATOM     51  N   UNL     1      -8.236  -4.533 -11.102  1.00  0.00    -0.354 N 
ATOM     52  C   UNL     1      -4.889  -6.918 -13.189  1.00  0.00     0.074 A 
ATOM     53  C   UNL     1      -4.105  -7.117 -12.003  1.00  0.00     0.031 C 
ATOM     54  C   UNL     1      -8.883  -3.006  -9.617  1.00  0.00     0.029 A 
ATOM     55  C   UNL     1      -9.350  -4.173 -10.348  1.00  0.00     0.049 A 
ATOM     56  H   UNL     1      -8.269  -5.230 -11.797  1.00  0.00     0.167 HD
ATOM     57  C   UNL     1      -5.387  -7.810 -14.086  1.00  0.00     0.034 A 
ATOM     58  C   UNL     1     -10.547  -4.824 -10.296  1.00  0.00     0.034 A 
ATOM     59  C   UNL     1      -6.164  -7.134 -15.104  1.00  0.00     0.049 A 
ATOM     60  C   UNL     1     -10.633  -5.638 -11.537  1.00  0.00     0.074 A 
ATOM     61  C   UNL     1      -5.891  -6.157 -16.042  1.00  0.00     0.029 A 
ATOM     62  N   UNL     1      -7.536  -7.152 -14.975  1.00  0.00    -0.354 N 
ATOM     63  N   UNL     1     -10.700  -5.107 -12.728  1.00  0.00    -0.248 NA
ATOM     64  C   UNL     1     -10.123  -7.002 -11.502  1.00  0.00     0.031 C 
ATOM     65  C   UNL     1      -7.053  -5.329 -16.065  1.00  0.00     0.029 A 
ATOM     66  C   UNL     1      -8.006  -5.881 -15.206  1.00  0.00     0.049 A 
ATOM     67  H   UNL     1      -8.085  -7.939 -14.756  1.00  0.00     0.167 HD
ATOM     68  C   UNL     1      -9.849  -5.870 -13.515  1.00  0.00     0.074 A 
ATOM     69  C   UNL     1      -9.601  -7.082 -12.732  1.00  0.00     0.031 C 
ATOM     70  C   UNL     1      -9.196  -5.323 -14.584  1.00  0.00     0.034 A 
BRANCH  57  71
ATOM     71  C   UNL     1      -5.540  -9.287 -13.794  1.00  0.00     0.023 A 
ATOM     72  C   UNL     1      -6.093 -10.079 -14.816  1.00  0.00     0.031 A 
ATOM     73  C   UNL     1      -5.465  -9.898 -12.518  1.00  0.00     0.131 A 
ATOM     74  C   UNL     1      -6.634 -11.344 -14.534  1.00  0.00     0.055 A 
ATOM     75  C   UNL     1      -5.945 -11.183 -12.258  1.00  0.00     0.041 A 
ATOM     76  F   UNL     1      -5.017  -9.271 -11.426  1.00  0.00    -0.206 F 
ATOM     77  C   UNL     1      -6.566 -11.902 -13.261  1.00  0.00     0.022 A 
BRANCH  74  78
ATOM     78  S   UNL     1      -7.597 -12.167 -15.824  1.00  0.00     0.124 S 
ATOM     79  O   UNL     1      -8.576 -11.139 -16.159  1.00  0.00    -0.237 OA
ATOM     80  O   UNL     1      -6.576 -12.439 -16.830  1.00  0.00    -0.237 OA
ATOM     81  O   UNL     1      -8.133 -13.344 -15.144  1.00  0.00    -0.744 OA
ENDBRANCH  74  78
ENDBRANCH  57  71
BRANCH  58  82
ATOM     82  C   UNL     1     -11.372  -5.079  -9.076  1.00  0.00     0.023 A 
ATOM     83  C   UNL     1     -12.753  -5.385  -9.101  1.00  0.00     0.031 A 
ATOM     84  C   UNL     1     -10.714  -5.250  -7.835  1.00  0.00     0.131 A 
ATOM     85  C   UNL     1     -13.409  -5.827  -7.922  1.00  0.00     0.055 A 
ATOM     86  C   UNL     1     -11.365  -5.687  -6.679  1.00  0.00     0.041 A 
ATOM     87  F   UNL     1      -9.387  -5.078  -7.725  1.00  0.00    -0.206 F 
ATOM     88  C   UNL     1     -12.716  -5.983  -6.719  1.00  0.00     0.022 A 
BRANCH  85  89
ATOM     89  S   UNL     1     -15.184  -6.265  -7.935  1.00  0.00     0.124 S 
ATOM     90  O   UNL     1     -15.814  -5.016  -8.344  1.00  0.00    -0.237 OA
ATOM     91  O   UNL     1     -15.227  -7.361  -8.897  1.00  0.00    -0.237 OA
ATOM     92  O   UNL     1     -15.450  -6.658  -6.550  1.00  0.00    -0.744 OA
ENDBRANCH  85  89
ENDBRANCH  58  82
BRANCH  70  93
ATOM     93  C   UNL     1      -9.630  -3.943 -15.048  1.00  0.00     0.023 A 
ATOM     94  C   UNL     1      -9.553  -2.761 -14.271  1.00  0.00     0.031 A 
ATOM     95  C   UNL     1     -10.034  -3.815 -16.387  1.00  0.00     0.131 A 
ATOM     96  C   UNL     1      -9.887  -1.516 -14.845  1.00  0.00     0.055 A 
ATOM     97  C   UNL     1     -10.341  -2.580 -16.956  1.00  0.00     0.041 A 
ATOM     98  F   UNL     1     -10.102  -4.895 -17.182  1.00  0.00    -0.206 F 
ATOM     99  C   UNL     1     -10.273  -1.425 -16.186  1.00  0.00     0.022 A 
BRANCH  96 100
ATOM    100  S   UNL     1      -9.834   0.015 -13.853  1.00  0.00     0.124 S 
ATOM    101  O   UNL     1     -10.642  -0.311 -12.684  1.00  0.00    -0.237 OA
ATOM    102  O   UNL     1      -8.404   0.190 -13.613  1.00  0.00    -0.237 OA
ATOM    103  O   UNL     1     -10.425   1.018 -14.740  1.00  0.00    -0.744 OA
ENDBRANCH  96 100
ENDBRANCH  70  93
ENDBRANCH  44  45
ENDBRANCH  37  39
ENDBRANCH  36  37
ENDBRANCH  35  36
ENDBRANCH  34  35
ENDBRANCH   1  34
TORSDOF 22
