REMARK SMILES Cc1cccc2c1N=CN1C2=[NH+]NC(=O)[C@@H]1CC(=O)OCCOCCOC(=O)c1ccc(-c2c3nc(c(-c4cc(S(=O)(=O)[O-])ccc4F)c4ccc([nH]4)c(-c4cc(S(=O)(=O)[O-])ccc4F)c4nc(c(-c5cc(S(=O)(=O)[O-])ccc5F)c5ccc2[nH]5)C=C4)C=C3)cc1
REMARK SMILES IDX 24 1 23 2 22 3 21 4 20 5 18 6 19 7 17 8 16 9 1 10 2 11 3 12
REMARK SMILES IDX 7 13 4 14 6 15 8 16 5 17 11 18 9 19 10 20 12 21 13 22 14 24
REMARK SMILES IDX 15 26 25 27 26 28 27 29 28 30 29 31 30 32 91 33 31 34 90 35
REMARK SMILES IDX 32 36 33 37 34 38 84 39 35 40 89 41 83 42 85 43 36 44 88 45
REMARK SMILES IDX 82 46 81 47 37 49 69 50 49 51 68 52 50 53 53 54 67 55 86 56
REMARK SMILES IDX 51 57 52 58 66 60 87 61 54 62 38 63 39 64 47 65 40 66 46 67
REMARK SMILES IDX 48 68 45 69 41 70 42 71 43 72 44 73 70 74 71 75 79 76 72 77
REMARK SMILES IDX 78 78 80 79 77 80 73 81 74 82 75 83 76 84 55 85 56 86 64 87
REMARK SMILES IDX 57 88 63 89 65 90 62 91 58 92 59 93 60 94 61 95
REMARK H PARENT 12 23 13 25 85 48 53 59
REMARK Flexibility Score: inf
ROOT
ATOM      1  C   UNL     1      -3.607   5.741   4.959  1.00  0.00     0.202 C 
ENDROOT
BRANCH   1   2
ATOM      2  O   UNL     1      -4.632   5.720   3.962  1.00  0.00    -0.374 OA
BRANCH   2   3
ATOM      3  C   UNL     1      -4.580   4.673   2.992  1.00  0.00     0.202 C 
BRANCH   3   4
ATOM      4  C   UNL     1      -3.400   4.715   2.014  1.00  0.00     0.261 C 
BRANCH   4   5
ATOM      5  O   UNL     1      -2.128   4.771   2.688  1.00  0.00    -0.463 OA
BRANCH   5   6
ATOM      6  C   UNL     1      -1.222   5.600   2.116  1.00  0.00     0.310 C 
ATOM      7  O   UNL     1      -1.365   6.165   1.038  1.00  0.00    -0.252 OA
BRANCH   6   8
ATOM      8  C   UNL     1      -0.046   5.899   3.005  1.00  0.00     0.183 C 
BRANCH   8   9
ATOM      9  C   UNL     1       0.685   4.734   3.670  1.00  0.00     0.286 C 
ATOM     10  C   UNL     1       1.416  -0.082  -0.624  1.00  0.00     0.047 C 
ATOM     11  C   UNL     1       1.186  -0.105   0.863  1.00  0.00    -0.024 A 
ATOM     12  C   UNL     1       1.205  -1.337   1.540  1.00  0.00     0.006 A 
ATOM     13  C   UNL     1       1.014   1.087   1.587  1.00  0.00     0.085 A 
ATOM     14  C   UNL     1       1.059  -1.395   2.924  1.00  0.00     0.001 A 
ATOM     15  C   UNL     1       0.845   1.008   2.982  1.00  0.00     0.092 A 
ATOM     16  N   UNL     1       1.062   2.322   0.902  1.00  0.00    -0.215 NA
ATOM     17  C   UNL     1       0.891  -0.220   3.651  1.00  0.00     0.019 A 
ATOM     18  C   UNL     1       0.638   2.287   3.729  1.00  0.00     0.309 C 
ATOM     19  C   UNL     1       0.917   3.390   1.610  1.00  0.00     0.317 C 
ATOM     20  N   UNL     1       0.674   3.449   2.964  1.00  0.00    -0.202 N 
ATOM     21  N   UNL     1       0.457   2.222   5.017  1.00  0.00    -0.169 N 
ATOM     22  N   UNL     1       0.264   3.378   5.689  1.00  0.00    -0.193 N 
ATOM     23  H   UNL     1       0.461   1.357   5.486  1.00  0.00     0.340 HD
ATOM     24  C   UNL     1       0.280   4.628   5.138  1.00  0.00     0.300 C 
ATOM     25  H   UNL     1       0.097   3.315   6.657  1.00  0.00     0.216 HD
ATOM     26  O   UNL     1       0.063   5.617   5.842  1.00  0.00    -0.267 OA
ENDBRANCH   8   9
ENDBRANCH   6   8
ENDBRANCH   5   6
ENDBRANCH   4   5
ENDBRANCH   3   4
ENDBRANCH   2   3
ENDBRANCH   1   2
BRANCH   1  27
ATOM     27  C   UNL     1      -3.483   4.495   5.848  1.00  0.00     0.261 C 
BRANCH  27  28
ATOM     28  O   UNL     1      -3.102   3.320   5.106  1.00  0.00    -0.460 OA
BRANCH  28  29
ATOM     29  C   UNL     1      -3.745   2.185   5.480  1.00  0.00     0.338 C 
ATOM     30  O   UNL     1      -4.530   2.057   6.405  1.00  0.00    -0.246 OA
BRANCH  29  31
ATOM     31  C   UNL     1      -3.399   1.066   4.587  1.00  0.00     0.060 A 
ATOM     32  C   UNL     1      -4.165   0.801   3.445  1.00  0.00     0.016 A 
ATOM     33  C   UNL     1      -2.423   0.165   5.000  1.00  0.00     0.016 A 
ATOM     34  C   UNL     1      -3.965  -0.386   2.726  1.00  0.00     0.010 A 
ATOM     35  C   UNL     1      -2.222  -1.010   4.273  1.00  0.00     0.010 A 
ATOM     36  C   UNL     1      -3.004  -1.317   3.145  1.00  0.00    -0.014 A 
BRANCH  36  37
ATOM     37  C   UNL     1      -2.881  -2.665   2.514  1.00  0.00     0.031 A 
ATOM     38  C   UNL     1      -3.190  -3.894   3.335  1.00  0.00     0.074 A 
ATOM     39  C   UNL     1      -2.450  -2.820   1.246  1.00  0.00     0.049 A 
ATOM     40  N   UNL     1      -3.025  -5.157   3.036  1.00  0.00    -0.248 NA
ATOM     41  C   UNL     1      -3.734  -3.666   4.684  1.00  0.00     0.031 C 
ATOM     42  C   UNL     1      -2.104  -1.735   0.331  1.00  0.00     0.029 A 
ATOM     43  N   UNL     1      -2.205  -3.962   0.518  1.00  0.00    -0.354 N 
ATOM     44  C   UNL     1      -3.408  -5.869   4.168  1.00  0.00     0.074 A 
ATOM     45  C   UNL     1      -3.763  -4.896   5.176  1.00  0.00     0.031 C 
ATOM     46  C   UNL     1      -1.682  -2.262  -0.832  1.00  0.00     0.029 A 
ATOM     47  C   UNL     1      -1.696  -3.721  -0.737  1.00  0.00     0.049 A 
ATOM     48  H   UNL     1      -2.379  -4.867   0.863  1.00  0.00     0.167 HD
ATOM     49  C   UNL     1      -3.492  -7.208   4.347  1.00  0.00     0.034 A 
ATOM     50  C   UNL     1      -1.274  -4.570  -1.698  1.00  0.00     0.034 A 
ATOM     51  C   UNL     1      -3.214  -8.180   3.324  1.00  0.00     0.049 A 
ATOM     52  C   UNL     1      -1.380  -6.059  -1.488  1.00  0.00     0.074 A 
ATOM     53  C   UNL     1      -3.368  -9.554   3.390  1.00  0.00     0.029 A 
ATOM     54  N   UNL     1      -2.743  -7.890   2.054  1.00  0.00    -0.354 N 
ATOM     55  N   UNL     1      -1.816  -6.713  -0.438  1.00  0.00    -0.248 NA
ATOM     56  C   UNL     1      -0.956  -6.929  -2.597  1.00  0.00     0.031 C 
ATOM     57  C   UNL     1      -2.956 -10.098   2.173  1.00  0.00     0.029 A 
ATOM     58  C   UNL     1      -2.589  -9.060   1.331  1.00  0.00     0.049 A 
ATOM     59  H   UNL     1      -2.547  -6.986   1.717  1.00  0.00     0.167 HD
ATOM     60  C   UNL     1      -1.760  -8.063  -0.775  1.00  0.00     0.074 A 
ATOM     61  C   UNL     1      -1.244  -8.136  -2.125  1.00  0.00     0.031 C 
ATOM     62  C   UNL     1      -2.115  -9.138  -0.029  1.00  0.00     0.034 A 
BRANCH  49  63
ATOM     63  C   UNL     1      -3.941  -7.720   5.691  1.00  0.00     0.023 A 
ATOM     64  C   UNL     1      -3.059  -8.473   6.487  1.00  0.00     0.031 A 
ATOM     65  C   UNL     1      -5.262  -7.543   6.139  1.00  0.00     0.131 A 
ATOM     66  C   UNL     1      -3.515  -9.031   7.688  1.00  0.00     0.055 A 
ATOM     67  C   UNL     1      -5.699  -8.068   7.354  1.00  0.00     0.041 A 
ATOM     68  F   UNL     1      -6.139  -6.833   5.410  1.00  0.00    -0.206 F 
ATOM     69  C   UNL     1      -4.826  -8.823   8.131  1.00  0.00     0.022 A 
BRANCH  66  70
ATOM     70  S   UNL     1      -2.438 -10.075   8.706  1.00  0.00     0.124 S 
ATOM     71  O   UNL     1      -2.458  -9.370   9.986  1.00  0.00    -0.237 OA
ATOM     72  O   UNL     1      -3.145 -11.352   8.685  1.00  0.00    -0.237 OA
ATOM     73  O   UNL     1      -1.159 -10.050   8.005  1.00  0.00    -0.744 OA
ENDBRANCH  66  70
ENDBRANCH  49  63
BRANCH  50  74
ATOM     74  C   UNL     1      -0.765  -4.012  -2.982  1.00  0.00     0.023 A 
ATOM     75  C   UNL     1       0.461  -3.328  -3.039  1.00  0.00     0.031 A 
ATOM     76  C   UNL     1      -1.541  -4.086  -4.150  1.00  0.00     0.131 A 
ATOM     77  C   UNL     1       0.848  -2.696  -4.228  1.00  0.00     0.055 A 
ATOM     78  C   UNL     1      -1.125  -3.502  -5.347  1.00  0.00     0.041 A 
ATOM     79  F   UNL     1      -2.718  -4.730  -4.137  1.00  0.00    -0.206 F 
ATOM     80  C   UNL     1       0.071  -2.792  -5.387  1.00  0.00     0.022 A 
BRANCH  77  81
ATOM     81  S   UNL     1       2.346  -1.675  -4.289  1.00  0.00     0.124 S 
ATOM     82  O   UNL     1       2.984  -2.128  -5.521  1.00  0.00    -0.237 OA
ATOM     83  O   UNL     1       1.779  -0.330  -4.329  1.00  0.00    -0.237 OA
ATOM     84  O   UNL     1       3.047  -2.025  -3.058  1.00  0.00    -0.744 OA
ENDBRANCH  77  81
ENDBRANCH  50  74
BRANCH  62  85
ATOM     85  C   UNL     1      -2.018 -10.517  -0.630  1.00  0.00     0.023 A 
ATOM     86  C   UNL     1      -3.191 -11.269  -0.838  1.00  0.00     0.031 A 
ATOM     87  C   UNL     1      -0.778 -11.150  -0.816  1.00  0.00     0.131 A 
ATOM     88  C   UNL     1      -3.100 -12.626  -1.171  1.00  0.00     0.055 A 
ATOM     89  C   UNL     1      -0.693 -12.493  -1.188  1.00  0.00     0.041 A 
ATOM     90  F   UNL     1       0.366 -10.477  -0.620  1.00  0.00    -0.206 F 
ATOM     91  C   UNL     1      -1.857 -13.241  -1.353  1.00  0.00     0.022 A 
BRANCH  88  92
ATOM     92  S   UNL     1      -4.585 -13.659  -1.305  1.00  0.00     0.124 S 
ATOM     93  O   UNL     1      -4.437 -14.236  -2.639  1.00  0.00    -0.237 OA
ATOM     94  O   UNL     1      -4.409 -14.593  -0.198  1.00  0.00    -0.237 OA
ATOM     95  O   UNL     1      -5.686 -12.711  -1.161  1.00  0.00    -0.744 OA
ENDBRANCH  88  92
ENDBRANCH  62  85
ENDBRANCH  36  37
ENDBRANCH  29  31
ENDBRANCH  28  29
ENDBRANCH  27  28
ENDBRANCH   1  27
TORSDOF 18
