REMARK SMILES O=C(N[C@@H](Cc1ccc(O)cc1)C(=O)N[C@@H](CO)C(=O)OCCOCCOC(=O)c1ccc(-c2c3nc(c(-c4cc(S(=O)(=O)[O-])ccc4F)c4ccc([nH]4)c(-c4cc(S(=O)(=O)[O-])ccc4F)c4nc(c(-c5cc(S(=O)(=O)[O-])ccc5F)c5ccc2[nH]5)C=C4)C=C3)cc1)c1ccc(F)cc1
REMARK SMILES IDX 23 1 22 2 21 3 19 4 20 5 16 6 15 7 13 8 14 9 4 11 3 12 1 13
REMARK SMILES IDX 2 14 93 16 94 17 99 18 95 19 98 20 96 21 97 22 5 23 6 24
REMARK SMILES IDX 7 25 12 26 8 27 11 28 9 29 10 30 17 32 18 33 24 35 25 36
REMARK SMILES IDX 26 37 27 38 28 39 29 40 30 41 31 42 92 43 32 44 91 45 33 46
REMARK SMILES IDX 34 47 35 48 85 49 36 50 90 51 84 52 86 53 37 54 89 55 83 56
REMARK SMILES IDX 82 57 38 59 70 60 50 61 69 62 51 63 54 64 68 65 87 66 52 67
REMARK SMILES IDX 53 68 67 70 88 71 55 72 39 73 40 74 48 75 41 76 47 77 49 78
REMARK SMILES IDX 46 79 42 80 43 81 44 82 45 83 71 84 72 85 80 86 73 87 79 88
REMARK SMILES IDX 81 89 78 90 74 91 75 92 76 93 77 94 56 95 57 96 65 97 58 98
REMARK SMILES IDX 64 99 66 100 63 101 59 102 60 103 61 104 62 105
REMARK H PARENT 15 10 3 15 10 31 18 34 86 58 54 69
REMARK Flexibility Score: inf
ROOT
ATOM      1  C   UNL     1       6.769   7.083  -1.133  1.00  0.00     0.202 C 
ENDROOT
BRANCH   1   2
ATOM      2  C   UNL     1       5.242   7.110  -1.090  1.00  0.00     0.261 C 
BRANCH   2   3
ATOM      3  O   UNL     1       4.784   5.976  -0.334  1.00  0.00    -0.462 OA
BRANCH   3   4
ATOM      4  C   UNL     1       3.452   5.712  -0.407  1.00  0.00     0.331 C 
ATOM      5  O   UNL     1       2.630   6.441  -0.950  1.00  0.00    -0.250 OA
BRANCH   4   6
ATOM      6  C   UNL     1       3.122   4.359   0.259  1.00  0.00     0.218 C 
BRANCH   6   7
ATOM      7  N   UNL     1       4.328   3.635   0.699  1.00  0.00    -0.339 N 
ATOM      8  C   UNL     1       4.861   2.438   0.342  1.00  0.00     0.243 C 
ATOM      9  O   UNL     1       6.057   2.274   0.613  1.00  0.00    -0.273 OA
ATOM     10  H   UNL     1       4.849   4.112   1.384  1.00  0.00     0.164 HD
BRANCH   8  11
ATOM     11  C   UNL     1       4.115   1.326  -0.429  1.00  0.00     0.176 C 
BRANCH  11  12
ATOM     12  N   UNL     1       2.740   1.084   0.009  1.00  0.00    -0.340 N 
ATOM     13  O   UNL     1       0.919  -0.176   0.421  1.00  0.00    -0.269 OA
ATOM     14  C   UNL     1       2.138  -0.118   0.292  1.00  0.00     0.251 C 
ATOM     15  H   UNL     1       2.174   1.883   0.115  1.00  0.00     0.164 HD
BRANCH  14  16
ATOM     16  C   UNL     1       2.943  -1.356   0.401  1.00  0.00     0.040 A 
ATOM     17  C   UNL     1       3.996  -1.460   1.321  1.00  0.00     0.017 A 
ATOM     18  C   UNL     1       2.605  -2.447  -0.410  1.00  0.00     0.017 A 
ATOM     19  C   UNL     1       4.748  -2.634   1.382  1.00  0.00     0.040 A 
ATOM     20  C   UNL     1       3.355  -3.623  -0.337  1.00  0.00     0.040 A 
ATOM     21  C   UNL     1       4.424  -3.702   0.551  1.00  0.00     0.123 A 
ATOM     22  F   UNL     1       5.147  -4.828   0.611  1.00  0.00    -0.207 F 
ENDBRANCH  14  16
ENDBRANCH  11  12
BRANCH  11  23
ATOM     23  C   UNL     1       4.278   1.359  -1.966  1.00  0.00     0.070 C 
BRANCH  23  24
ATOM     24  C   UNL     1       3.686   2.542  -2.688  1.00  0.00    -0.045 A 
ATOM     25  C   UNL     1       4.536   3.521  -3.216  1.00  0.00     0.007 A 
ATOM     26  C   UNL     1       2.303   2.705  -2.832  1.00  0.00     0.007 A 
ATOM     27  C   UNL     1       4.030   4.712  -3.731  1.00  0.00     0.046 A 
ATOM     28  C   UNL     1       1.789   3.891  -3.362  1.00  0.00     0.046 A 
ATOM     29  C   UNL     1       2.658   4.898  -3.759  1.00  0.00     0.115 A 
BRANCH  29  30
ATOM     30  O   UNL     1       2.140   6.103  -4.122  1.00  0.00    -0.508 OA
ATOM     31  H   UNL     1       2.711   6.796  -4.393  1.00  0.00     0.293 HD
ENDBRANCH  29  30
ENDBRANCH  23  24
ENDBRANCH  11  23
ENDBRANCH   8  11
ENDBRANCH   6   7
BRANCH   6  32
ATOM     32  C   UNL     1       2.159   4.593   1.423  1.00  0.00     0.193 C 
BRANCH  32  33
ATOM     33  O   UNL     1       2.788   5.292   2.494  1.00  0.00    -0.394 OA
ATOM     34  H   UNL     1       3.531   4.768   2.830  1.00  0.00     0.210 HD
ENDBRANCH  32  33
ENDBRANCH   6  32
ENDBRANCH   4   6
ENDBRANCH   3   4
ENDBRANCH   2   3
ENDBRANCH   1   2
BRANCH   1  35
ATOM     35  O   UNL     1       7.328   6.104  -2.019  1.00  0.00    -0.374 OA
BRANCH  35  36
ATOM     36  C   UNL     1       7.315   4.747  -1.574  1.00  0.00     0.202 C 
BRANCH  36  37
ATOM     37  C   UNL     1       8.475   4.278  -0.692  1.00  0.00     0.261 C 
BRANCH  37  38
ATOM     38  O   UNL     1       8.712   5.179   0.384  1.00  0.00    -0.460 OA
BRANCH  38  39
ATOM     39  C   UNL     1       9.689   6.077   0.095  1.00  0.00     0.338 C 
ATOM     40  O   UNL     1      10.455   6.053  -0.844  1.00  0.00    -0.246 OA
BRANCH  39  41
ATOM     41  C   UNL     1       9.542   7.236   0.994  1.00  0.00     0.060 A 
ATOM     42  C   UNL     1       9.768   8.492   0.424  1.00  0.00     0.016 A 
ATOM     43  C   UNL     1       9.205   7.103   2.346  1.00  0.00     0.016 A 
ATOM     44  C   UNL     1       9.769   9.618   1.230  1.00  0.00     0.010 A 
ATOM     45  C   UNL     1       9.209   8.235   3.159  1.00  0.00     0.010 A 
ATOM     46  C   UNL     1       9.566   9.476   2.609  1.00  0.00    -0.014 A 
BRANCH  46  47
ATOM     47  C   UNL     1      10.066  10.565   3.471  1.00  0.00     0.031 A 
ATOM     48  C   UNL     1      11.494  10.466   3.938  1.00  0.00     0.074 A 
ATOM     49  C   UNL     1       9.314  11.651   3.711  1.00  0.00     0.049 A 
ATOM     50  N   UNL     1      12.221  11.336   4.585  1.00  0.00    -0.248 NA
ATOM     51  C   UNL     1      12.200   9.213   3.618  1.00  0.00     0.031 C 
ATOM     52  C   UNL     1       7.938  11.842   3.253  1.00  0.00     0.029 A 
ATOM     53  N   UNL     1       9.614  12.807   4.378  1.00  0.00    -0.354 N 
ATOM     54  C   UNL     1      13.471  10.742   4.733  1.00  0.00     0.074 A 
ATOM     55  C   UNL     1      13.388   9.420   4.158  1.00  0.00     0.031 C 
ATOM     56  C   UNL     1       7.514  13.055   3.649  1.00  0.00     0.029 A 
ATOM     57  C   UNL     1       8.583  13.714   4.397  1.00  0.00     0.049 A 
ATOM     58  H   UNL     1      10.486  12.973   4.804  1.00  0.00     0.167 HD
ATOM     59  C   UNL     1      14.593  11.264   5.284  1.00  0.00     0.034 A 
ATOM     60  C   UNL     1       8.524  14.938   4.957  1.00  0.00     0.034 A 
ATOM     61  C   UNL     1      14.633  12.574   5.880  1.00  0.00     0.049 A 
ATOM     62  C   UNL     1       9.767  15.476   5.622  1.00  0.00     0.074 A 
ATOM     63  C   UNL     1      15.683  13.206   6.518  1.00  0.00     0.029 A 
ATOM     64  N   UNL     1      13.555  13.452   5.917  1.00  0.00    -0.354 N 
ATOM     65  N   UNL     1      10.946  14.908   5.757  1.00  0.00    -0.248 NA
ATOM     66  C   UNL     1       9.681  16.828   6.185  1.00  0.00     0.031 C 
ATOM     67  C   UNL     1      15.224  14.442   6.990  1.00  0.00     0.029 A 
ATOM     68  C   UNL     1      13.909  14.613   6.583  1.00  0.00     0.049 A 
ATOM     69  H   UNL     1      12.669  13.274   5.527  1.00  0.00     0.167 HD
ATOM     70  C   UNL     1      11.751  15.849   6.392  1.00  0.00     0.074 A 
ATOM     71  C   UNL     1      10.925  17.023   6.597  1.00  0.00     0.031 C 
ATOM     72  C   UNL     1      13.053  15.761   6.771  1.00  0.00     0.034 A 
BRANCH  59  73
ATOM     73  C   UNL     1      15.815  10.378   5.317  1.00  0.00     0.023 A 
ATOM     74  C   UNL     1      16.446   9.941   4.136  1.00  0.00     0.031 A 
ATOM     75  C   UNL     1      16.307   9.895   6.541  1.00  0.00     0.131 A 
ATOM     76  C   UNL     1      17.479   8.993   4.203  1.00  0.00     0.055 A 
ATOM     77  C   UNL     1      17.387   9.012   6.604  1.00  0.00     0.041 A 
ATOM     78  F   UNL     1      15.726  10.250   7.698  1.00  0.00    -0.206 F 
ATOM     79  C   UNL     1      17.969   8.543   5.431  1.00  0.00     0.022 A 
BRANCH  76  80
ATOM     80  S   UNL     1      18.070   8.238   2.662  1.00  0.00     0.124 S 
ATOM     81  O   UNL     1      16.852   7.612   2.154  1.00  0.00    -0.237 OA
ATOM     82  O   UNL     1      18.559   9.389   1.913  1.00  0.00    -0.237 OA
ATOM     83  O   UNL     1      19.100   7.303   3.111  1.00  0.00    -0.744 OA
ENDBRANCH  76  80
ENDBRANCH  59  73
BRANCH  60  84
ATOM     84  C   UNL     1       7.258  15.725   4.922  1.00  0.00     0.023 A 
ATOM     85  C   UNL     1       7.171  16.949   4.240  1.00  0.00     0.031 A 
ATOM     86  C   UNL     1       6.117  15.271   5.609  1.00  0.00     0.131 A 
ATOM     87  C   UNL     1       5.984  17.697   4.295  1.00  0.00     0.055 A 
ATOM     88  C   UNL     1       4.924  15.997   5.621  1.00  0.00     0.041 A 
ATOM     89  F   UNL     1       6.143  14.104   6.272  1.00  0.00    -0.206 F 
ATOM     90  C   UNL     1       4.857  17.224   4.971  1.00  0.00     0.022 A 
BRANCH  87  91
ATOM     91  S   UNL     1       5.954  19.341   3.527  1.00  0.00     0.124 S 
ATOM     92  O   UNL     1       7.057  20.009   4.209  1.00  0.00    -0.237 OA
ATOM     93  O   UNL     1       6.168  19.020   2.120  1.00  0.00    -0.237 OA
ATOM     94  O   UNL     1       4.621  19.845   3.853  1.00  0.00    -0.744 OA
ENDBRANCH  87  91
ENDBRANCH  60  84
BRANCH  72  95
ATOM     95  C   UNL     1      13.660  16.990   7.399  1.00  0.00     0.023 A 
ATOM     96  C   UNL     1      13.244  17.457   8.657  1.00  0.00     0.031 A 
ATOM     97  C   UNL     1      14.656  17.709   6.716  1.00  0.00     0.131 A 
ATOM     98  C   UNL     1      13.775  18.650   9.165  1.00  0.00     0.055 A 
ATOM     99  C   UNL     1      15.225  18.862   7.255  1.00  0.00     0.041 A 
ATOM    100  F   UNL     1      15.090  17.303   5.512  1.00  0.00    -0.206 F 
ATOM    101  C   UNL     1      14.774  19.348   8.479  1.00  0.00     0.022 A 
BRANCH  98 102
ATOM    102  S   UNL     1      13.065  19.336  10.685  1.00  0.00     0.124 S 
ATOM    103  O   UNL     1      11.651  19.445  10.338  1.00  0.00    -0.237 OA
ATOM    104  O   UNL     1      13.402  18.317  11.674  1.00  0.00    -0.237 OA
ATOM    105  O   UNL     1      13.763  20.610  10.845  1.00  0.00    -0.744 OA
ENDBRANCH  98 102
ENDBRANCH  72  95
ENDBRANCH  46  47
ENDBRANCH  39  41
ENDBRANCH  38  39
ENDBRANCH  37  38
ENDBRANCH  36  37
ENDBRANCH  35  36
ENDBRANCH   1  35
TORSDOF 26
