REMARK SMILES CC[NH2+]C(C)(C)C(=O)N[C@@](C)(C(=O)OCCOCCOC(=O)c1ccc(-c2c3nc(c(-c4cc(S(=O)(=O)[O-])ccc4F)c4ccc([nH]4)c(-c4cc(S(=O)(=O)[O-])ccc4F)c4nc(c(-c5cc(S(=O)(=O)[O-])ccc5F)c5ccc2[nH]5)C=C4)C=C3)cc1)C(F)(F)F
REMARK SMILES IDX 16 1 15 2 14 3 12 4 13 5 10 6 11 7 9 8 7 9 8 10 4 12 5 13
REMARK SMILES IDX 6 14 3 15 2 18 1 19 86 20 87 21 88 22 89 23 17 24 18 25
REMARK SMILES IDX 19 26 20 27 21 28 22 29 23 30 24 31 85 32 25 33 84 34 26 35
REMARK SMILES IDX 27 36 28 37 78 38 29 39 83 40 77 41 79 42 30 43 82 44 76 45
REMARK SMILES IDX 75 46 31 48 63 49 43 50 62 51 44 52 47 53 61 54 80 55 45 56
REMARK SMILES IDX 46 57 60 59 81 60 48 61 32 62 33 63 41 64 34 65 40 66 42 67
REMARK SMILES IDX 39 68 35 69 36 70 37 71 38 72 64 73 65 74 73 75 66 76 72 77
REMARK SMILES IDX 74 78 71 79 67 80 68 81 69 82 70 83 49 84 50 85 58 86 51 87
REMARK SMILES IDX 57 88 59 89 56 90 52 91 53 92 54 93 55 94
REMARK H PARENT 9 11 3 16 3 17 79 47 47 58
REMARK Flexibility Score: inf
ROOT
ATOM      1  C   UNL     1      -2.417  -3.608   7.315  1.00  0.00     0.202 C 
ENDROOT
BRANCH   1   2
ATOM      2  C   UNL     1      -2.646  -2.259   8.012  1.00  0.00     0.261 C 
BRANCH   2   3
ATOM      3  O   UNL     1      -2.254  -1.138   7.202  1.00  0.00    -0.461 OA
BRANCH   3   4
ATOM      4  C   UNL     1      -1.415  -0.245   7.803  1.00  0.00     0.341 C 
ATOM      5  O   UNL     1      -1.192  -0.228   9.008  1.00  0.00    -0.249 OA
BRANCH   4   6
ATOM      6  C   UNL     1      -0.788   0.747   6.798  1.00  0.00     0.231 C 
ATOM      7  C   UNL     1      -1.341   2.129   7.166  1.00  0.00     0.058 C 
BRANCH   6   8
ATOM      8  N   UNL     1      -1.276   0.420   5.387  1.00  0.00    -0.328 N 
ATOM      9  C   UNL     1      -0.957   0.556   4.069  1.00  0.00     0.281 C 
ATOM     10  O   UNL     1      -1.915   0.325   3.319  1.00  0.00    -0.268 OA
ATOM     11  H   UNL     1      -2.131  -0.063   5.455  1.00  0.00     0.165 HD
BRANCH   9  12
ATOM     12  C   UNL     1       0.470   0.852   3.503  1.00  0.00     0.169 C 
ATOM     13  C   UNL     1       1.430  -0.275   3.913  1.00  0.00     0.090 C 
ATOM     14  C   UNL     1       0.938   2.242   3.969  1.00  0.00     0.090 C 
BRANCH  12  15
ATOM     15  N   UNL     1       0.534   0.988   2.011  1.00  0.00    -0.334 N 
ATOM     16  H   UNL     1      -0.016   1.810   1.762  1.00  0.00     0.347 HD
ATOM     17  H   UNL     1       1.533   1.032   1.811  1.00  0.00     0.347 HD
BRANCH  15  18
ATOM     18  C   UNL     1       0.056  -0.115   1.181  1.00  0.00     0.257 C 
ATOM     19  C   UNL     1       0.559   0.094  -0.247  1.00  0.00     0.071 C 
ENDBRANCH  15  18
ENDBRANCH  12  15
ENDBRANCH   9  12
ENDBRANCH   6   8
BRANCH   6  20
ATOM     20  C   UNL     1       0.704   0.629   7.165  1.00  0.00     0.422 C 
ATOM     21  F   UNL     1       1.152  -0.645   7.089  1.00  0.00    -0.168 F 
ATOM     22  F   UNL     1       1.494   1.369   6.356  1.00  0.00    -0.168 F 
ATOM     23  F   UNL     1       0.974   1.074   8.416  1.00  0.00    -0.168 F 
ENDBRANCH   6  20
ENDBRANCH   4   6
ENDBRANCH   3   4
ENDBRANCH   2   3
ENDBRANCH   1   2
BRANCH   1  24
ATOM     24  O   UNL     1      -1.204  -3.787   6.591  1.00  0.00    -0.374 OA
BRANCH  24  25
ATOM     25  C   UNL     1      -1.031  -3.060   5.374  1.00  0.00     0.202 C 
BRANCH  25  26
ATOM     26  C   UNL     1      -2.006  -3.304   4.212  1.00  0.00     0.261 C 
BRANCH  26  27
ATOM     27  O   UNL     1      -3.379  -3.025   4.538  1.00  0.00    -0.460 OA
BRANCH  27  28
ATOM     28  C   UNL     1      -4.208  -4.097   4.421  1.00  0.00     0.338 C 
ATOM     29  O   UNL     1      -3.907  -5.219   4.051  1.00  0.00    -0.246 OA
BRANCH  28  30
ATOM     30  C   UNL     1      -5.530  -3.790   4.997  1.00  0.00     0.060 A 
ATOM     31  C   UNL     1      -5.970  -4.581   6.067  1.00  0.00     0.016 A 
ATOM     32  C   UNL     1      -6.371  -2.830   4.431  1.00  0.00     0.016 A 
ATOM     33  C   UNL     1      -7.270  -4.443   6.550  1.00  0.00     0.010 A 
ATOM     34  C   UNL     1      -7.681  -2.703   4.910  1.00  0.00     0.010 A 
ATOM     35  C   UNL     1      -8.146  -3.531   5.949  1.00  0.00    -0.014 A 
BRANCH  35  36
ATOM     36  C   UNL     1      -9.586  -3.559   6.311  1.00  0.00     0.031 A 
ATOM     37  C   UNL     1     -10.541  -4.324   5.434  1.00  0.00     0.074 A 
ATOM     38  C   UNL     1     -10.027  -2.946   7.425  1.00  0.00     0.049 A 
ATOM     39  N   UNL     1     -11.836  -4.468   5.545  1.00  0.00    -0.248 NA
ATOM     40  C   UNL     1      -9.955  -5.022   4.278  1.00  0.00     0.031 C 
ATOM     41  C   UNL     1      -9.186  -2.220   8.377  1.00  0.00     0.029 A 
ATOM     42  N   UNL     1     -11.293  -2.833   7.943  1.00  0.00    -0.354 N 
ATOM     43  C   UNL     1     -12.224  -5.263   4.470  1.00  0.00     0.074 A 
ATOM     44  C   UNL     1     -11.028  -5.551   3.708  1.00  0.00     0.031 C 
ATOM     45  C   UNL     1      -9.963  -1.728   9.358  1.00  0.00     0.029 A 
ATOM     46  C   UNL     1     -11.357  -2.070   9.087  1.00  0.00     0.049 A 
ATOM     47  H   UNL     1     -12.082  -3.258   7.535  1.00  0.00     0.167 HD
ATOM     48  C   UNL     1     -13.463  -5.710   4.152  1.00  0.00     0.034 A 
ATOM     49  C   UNL     1     -12.423  -1.674   9.813  1.00  0.00     0.034 A 
ATOM     50  C   UNL     1     -14.646  -5.415   4.922  1.00  0.00     0.049 A 
ATOM     51  C   UNL     1     -13.803  -2.124   9.389  1.00  0.00     0.074 A 
ATOM     52  C   UNL     1     -15.944  -5.845   4.706  1.00  0.00     0.029 A 
ATOM     53  N   UNL     1     -14.680  -4.603   6.048  1.00  0.00    -0.354 N 
ATOM     54  N   UNL     1     -14.150  -2.897   8.385  1.00  0.00    -0.248 NA
ATOM     55  C   UNL     1     -14.934  -1.653  10.201  1.00  0.00     0.031 C 
ATOM     56  C   UNL     1     -16.771  -5.238   5.656  1.00  0.00     0.029 A 
ATOM     57  C   UNL     1     -15.980  -4.489   6.513  1.00  0.00     0.049 A 
ATOM     58  H   UNL     1     -13.895  -4.172   6.456  1.00  0.00     0.167 HD
ATOM     59  C   UNL     1     -15.534  -3.035   8.473  1.00  0.00     0.074 A 
ATOM     60  C   UNL     1     -15.954  -2.276   9.632  1.00  0.00     0.031 C 
ATOM     61  C   UNL     1     -16.382  -3.729   7.672  1.00  0.00     0.034 A 
BRANCH  48  62
ATOM     62  C   UNL     1     -13.612  -6.518   2.887  1.00  0.00     0.023 A 
ATOM     63  C   UNL     1     -13.062  -7.804   2.754  1.00  0.00     0.031 A 
ATOM     64  C   UNL     1     -14.325  -5.988   1.797  1.00  0.00     0.131 A 
ATOM     65  C   UNL     1     -13.194  -8.498   1.541  1.00  0.00     0.055 A 
ATOM     66  C   UNL     1     -14.509  -6.709   0.617  1.00  0.00     0.041 A 
ATOM     67  F   UNL     1     -14.854  -4.756   1.862  1.00  0.00    -0.206 F 
ATOM     68  C   UNL     1     -13.934  -7.969   0.480  1.00  0.00     0.022 A 
BRANCH  65  69
ATOM     69  S   UNL     1     -12.302 -10.063   1.329  1.00  0.00     0.124 S 
ATOM     70  O   UNL     1     -10.914  -9.636   1.482  1.00  0.00    -0.237 OA
ATOM     71  O   UNL     1     -12.841 -10.883   2.409  1.00  0.00    -0.237 OA
ATOM     72  O   UNL     1     -12.671 -10.489  -0.019  1.00  0.00    -0.744 OA
ENDBRANCH  65  69
ENDBRANCH  48  62
BRANCH  49  73
ATOM     73  C   UNL     1     -12.256  -0.768  10.988  1.00  0.00     0.023 A 
ATOM     74  C   UNL     1     -12.651  -1.166  12.275  1.00  0.00     0.031 A 
ATOM     75  C   UNL     1     -11.783   0.547  10.823  1.00  0.00     0.131 A 
ATOM     76  C   UNL     1     -12.627  -0.243  13.332  1.00  0.00     0.055 A 
ATOM     77  C   UNL     1     -11.704   1.443  11.890  1.00  0.00     0.041 A 
ATOM     78  F   UNL     1     -11.395   0.983   9.614  1.00  0.00    -0.206 F 
ATOM     79  C   UNL     1     -12.145   1.056  13.151  1.00  0.00     0.022 A 
BRANCH  76  80
ATOM     80  S   UNL     1     -13.349  -0.727  14.925  1.00  0.00     0.124 S 
ATOM     81  O   UNL     1     -14.694  -1.130  14.531  1.00  0.00    -0.237 OA
ATOM     82  O   UNL     1     -12.455  -1.800  15.346  1.00  0.00    -0.237 OA
ATOM     83  O   UNL     1     -13.271   0.496  15.720  1.00  0.00    -0.744 OA
ENDBRANCH  76  80
ENDBRANCH  49  73
BRANCH  61  84
ATOM     84  C   UNL     1     -17.840  -3.742   8.063  1.00  0.00     0.023 A 
ATOM     85  C   UNL     1     -18.634  -2.584   8.007  1.00  0.00     0.031 A 
ATOM     86  C   UNL     1     -18.438  -4.934   8.508  1.00  0.00     0.131 A 
ATOM     87  C   UNL     1     -19.966  -2.629   8.442  1.00  0.00     0.055 A 
ATOM     88  C   UNL     1     -19.781  -4.987   8.884  1.00  0.00     0.041 A 
ATOM     89  F   UNL     1     -17.726  -6.071   8.582  1.00  0.00    -0.206 F 
ATOM     90  C   UNL     1     -20.549  -3.827   8.865  1.00  0.00     0.022 A 
BRANCH  87  91
ATOM     91  S   UNL     1     -20.907  -1.081   8.533  1.00  0.00     0.124 S 
ATOM     92  O   UNL     1     -20.094  -0.284   9.446  1.00  0.00    -0.237 OA
ATOM     93  O   UNL     1     -20.919  -0.641   7.141  1.00  0.00    -0.237 OA
ATOM     94  O   UNL     1     -22.205  -1.498   9.060  1.00  0.00    -0.744 OA
ENDBRANCH  87  91
ENDBRANCH  61  84
ENDBRANCH  35  36
ENDBRANCH  28  30
ENDBRANCH  27  28
ENDBRANCH  26  27
ENDBRANCH  25  26
ENDBRANCH  24  25
ENDBRANCH   1  24
TORSDOF 22
