REMARK SMILES COc1ccccc1-c1nnc(S[C@@H](C)C(=O)OCCOCCOC(=O)c2ccc(-c3c4nc(c(-c5cc(S(=O)(=O)[O-])ccc5F)c5ccc([nH]5)c(-c5cc(S(=O)(=O)[O-])ccc5F)c5nc(c(-c6cc(S(=O)(=O)[O-])ccc6F)c6ccc3[nH]6)C=C5)C=C4)cc2)n1-c1ccccc1
REMARK SMILES IDX 20 1 19 2 18 3 16 4 17 5 14 6 15 7 13 8 12 9 9 10 10 11
REMARK SMILES IDX 90 12 11 13 8 14 3 15 4 16 5 17 7 18 6 19 2 20 1 21 91 22
REMARK SMILES IDX 92 23 96 24 93 25 95 26 94 27 21 28 22 29 23 30 24 31 25 32
REMARK SMILES IDX 26 33 27 34 28 35 89 36 29 37 88 38 30 39 31 40 32 41 82 42
REMARK SMILES IDX 33 43 87 44 81 45 83 46 34 47 86 48 80 49 79 50 35 52 67 53
REMARK SMILES IDX 47 54 66 55 48 56 51 57 65 58 84 59 49 60 50 61 64 63 85 64
REMARK SMILES IDX 52 65 36 66 37 67 45 68 38 69 44 70 46 71 43 72 39 73 40 74
REMARK SMILES IDX 41 75 42 76 68 77 69 78 77 79 70 80 76 81 78 82 75 83 71 84
REMARK SMILES IDX 72 85 73 86 74 87 53 88 54 89 62 90 55 91 61 92 63 93 60 94
REMARK SMILES IDX 56 95 57 96 58 97 59 98
REMARK H PARENT 83 51 51 62
REMARK Flexibility Score: inf
ROOT
ATOM      1  C   UNL     1       6.042   5.887   0.436  1.00  0.00     0.202 C 
ENDROOT
BRANCH   1   2
ATOM      2  C   UNL     1       4.697   5.339  -0.031  1.00  0.00     0.261 C 
BRANCH   2   3
ATOM      3  O   UNL     1       4.799   4.058  -0.685  1.00  0.00    -0.462 OA
BRANCH   3   4
ATOM      4  C   UNL     1       4.178   3.966  -1.896  1.00  0.00     0.319 C 
ATOM      5  O   UNL     1       3.547   4.888  -2.409  1.00  0.00    -0.251 OA
BRANCH   4   6
ATOM      6  C   UNL     1       4.487   2.688  -2.653  1.00  0.00     0.161 C 
ATOM      7  C   UNL     1       3.525   2.369  -3.799  1.00  0.00     0.032 C 
BRANCH   6   8
ATOM      8  S   UNL     1       4.955   1.208  -1.774  1.00  0.00    -0.071 SA
BRANCH   8   9
ATOM      9  C   UNL     1       3.928   0.690  -0.483  1.00  0.00     0.196 A 
ATOM     10  C   UNL     1       2.785   0.570   1.393  1.00  0.00     0.173 A 
ATOM     11  N   UNL     1       3.578  -0.478   1.329  1.00  0.00    -0.129 NA
ATOM     12  N   UNL     1       2.926   1.329   0.229  1.00  0.00    -0.270 N 
ATOM     13  N   UNL     1       4.258  -0.419   0.149  1.00  0.00    -0.122 NA
BRANCH  10  14
ATOM     14  C   UNL     1       1.835   0.821   2.473  1.00  0.00     0.062 A 
ATOM     15  C   UNL     1       0.446   0.869   2.268  1.00  0.00     0.129 A 
ATOM     16  C   UNL     1      -0.393   1.315   3.292  1.00  0.00     0.047 A 
ATOM     17  C   UNL     1       0.133   1.645   4.542  1.00  0.00     0.004 A 
ATOM     18  C   UNL     1       2.348   1.107   3.748  1.00  0.00     0.016 A 
ATOM     19  C   UNL     1       1.501   1.522   4.776  1.00  0.00     0.001 A 
BRANCH  15  20
ATOM     20  O   UNL     1      -0.169   0.617   1.066  1.00  0.00    -0.496 OA
ATOM     21  C   UNL     1       0.018  -0.723   0.608  1.00  0.00     0.278 C 
ENDBRANCH  15  20
ENDBRANCH  10  14
BRANCH  12  22
ATOM     22  C   UNL     1       2.118   2.431  -0.119  1.00  0.00     0.050 A 
ATOM     23  C   UNL     1       1.411   2.416  -1.321  1.00  0.00     0.027 A 
ATOM     24  C   UNL     1       1.959   3.492   0.780  1.00  0.00     0.027 A 
ATOM     25  C   UNL     1       0.628   3.516  -1.673  1.00  0.00     0.002 A 
ATOM     26  C   UNL     1       1.177   4.589   0.422  1.00  0.00     0.002 A 
ATOM     27  C   UNL     1       0.530   4.609  -0.812  1.00  0.00     0.000 A 
ENDBRANCH  12  22
ENDBRANCH   8   9
ENDBRANCH   6   8
ENDBRANCH   4   6
ENDBRANCH   3   4
ENDBRANCH   2   3
ENDBRANCH   1   2
BRANCH   1  28
ATOM     28  O   UNL     1       7.008   6.192  -0.565  1.00  0.00    -0.374 OA
BRANCH  28  29
ATOM     29  C   UNL     1       7.466   5.152  -1.422  1.00  0.00     0.202 C 
BRANCH  29  30
ATOM     30  C   UNL     1       8.273   4.016  -0.805  1.00  0.00     0.261 C 
BRANCH  30  31
ATOM     31  O   UNL     1       7.535   3.267   0.155  1.00  0.00    -0.460 OA
BRANCH  31  32
ATOM     32  C   UNL     1       7.917   3.473   1.433  1.00  0.00     0.338 C 
ATOM     33  O   UNL     1       8.518   4.455   1.869  1.00  0.00    -0.246 OA
BRANCH  32  34
ATOM     34  C   UNL     1       7.658   2.268   2.223  1.00  0.00     0.060 A 
ATOM     35  C   UNL     1       8.249   2.227   3.487  1.00  0.00     0.016 A 
ATOM     36  C   UNL     1       7.161   1.114   1.602  1.00  0.00     0.016 A 
ATOM     37  C   UNL     1       8.581   0.998   4.006  1.00  0.00     0.010 A 
ATOM     38  C   UNL     1       7.488  -0.115   2.124  1.00  0.00     0.010 A 
ATOM     39  C   UNL     1       8.291  -0.147   3.259  1.00  0.00    -0.014 A 
BRANCH  39  40
ATOM     40  C   UNL     1       8.923  -1.379   3.672  1.00  0.00     0.031 A 
ATOM     41  C   UNL     1       8.309  -2.033   4.835  1.00  0.00     0.074 A 
ATOM     42  C   UNL     1       9.956  -1.916   2.998  1.00  0.00     0.049 A 
ATOM     43  N   UNL     1       8.836  -2.230   5.996  1.00  0.00    -0.248 NA
ATOM     44  C   UNL     1       6.891  -2.397   4.736  1.00  0.00     0.031 C 
ATOM     45  C   UNL     1      10.468  -1.523   1.683  1.00  0.00     0.029 A 
ATOM     46  N   UNL     1      10.683  -3.025   3.304  1.00  0.00    -0.354 N 
ATOM     47  C   UNL     1       7.889  -2.945   6.715  1.00  0.00     0.074 A 
ATOM     48  C   UNL     1       6.663  -2.852   5.967  1.00  0.00     0.031 C 
ATOM     49  C   UNL     1      11.248  -2.517   1.206  1.00  0.00     0.029 A 
ATOM     50  C   UNL     1      11.373  -3.551   2.222  1.00  0.00     0.049 A 
ATOM     51  H   UNL     1      10.717  -3.416   4.207  1.00  0.00     0.167 HD
ATOM     52  C   UNL     1       8.251  -3.743   7.753  1.00  0.00     0.034 A 
ATOM     53  C   UNL     1      11.897  -4.799   2.134  1.00  0.00     0.034 A 
ATOM     54  C   UNL     1       9.565  -3.400   8.251  1.00  0.00     0.049 A 
ATOM     55  C   UNL     1      12.126  -5.280   3.522  1.00  0.00     0.074 A 
ATOM     56  C   UNL     1      10.138  -2.236   8.732  1.00  0.00     0.029 A 
ATOM     57  N   UNL     1      10.622  -4.239   7.974  1.00  0.00    -0.354 N 
ATOM     58  N   UNL     1      12.987  -4.742   4.344  1.00  0.00    -0.248 NA
ATOM     59  C   UNL     1      11.097  -6.089   4.160  1.00  0.00     0.031 C 
ATOM     60  C   UNL     1      11.483  -2.257   8.260  1.00  0.00     0.029 A 
ATOM     61  C   UNL     1      11.670  -3.451   7.562  1.00  0.00     0.049 A 
ATOM     62  H   UNL     1      10.626  -5.220   8.056  1.00  0.00     0.167 HD
ATOM     63  C   UNL     1      12.373  -4.777   5.587  1.00  0.00     0.074 A 
ATOM     64  C   UNL     1      11.273  -5.724   5.433  1.00  0.00     0.031 C 
ATOM     65  C   UNL     1      12.629  -3.829   6.538  1.00  0.00     0.034 A 
BRANCH  52  66
ATOM     66  C   UNL     1       7.556  -5.038   8.103  1.00  0.00     0.023 A 
ATOM     67  C   UNL     1       8.032  -5.739   9.225  1.00  0.00     0.031 A 
ATOM     68  C   UNL     1       6.661  -5.749   7.269  1.00  0.00     0.131 A 
ATOM     69  C   UNL     1       7.706  -7.091   9.423  1.00  0.00     0.055 A 
ATOM     70  C   UNL     1       6.274  -7.068   7.516  1.00  0.00     0.041 A 
ATOM     71  F   UNL     1       6.186  -5.255   6.120  1.00  0.00    -0.206 F 
ATOM     72  C   UNL     1       6.824  -7.760   8.580  1.00  0.00     0.022 A 
BRANCH  69  73
ATOM     73  S   UNL     1       8.618  -8.011  10.686  1.00  0.00     0.124 S 
ATOM     74  O   UNL     1       9.999  -7.672  10.358  1.00  0.00    -0.237 OA
ATOM     75  O   UNL     1       8.088  -7.433  11.916  1.00  0.00    -0.237 OA
ATOM     76  O   UNL     1       8.239  -9.398  10.433  1.00  0.00    -0.744 OA
ENDBRANCH  69  73
ENDBRANCH  52  66
BRANCH  53  77
ATOM     77  C   UNL     1      11.890  -5.670   0.927  1.00  0.00     0.023 A 
ATOM     78  C   UNL     1      12.685  -6.828   0.836  1.00  0.00     0.031 A 
ATOM     79  C   UNL     1      10.924  -5.488  -0.092  1.00  0.00     0.131 A 
ATOM     80  C   UNL     1      12.513  -7.727  -0.241  1.00  0.00     0.055 A 
ATOM     81  C   UNL     1      10.777  -6.363  -1.169  1.00  0.00     0.041 A 
ATOM     82  F   UNL     1      10.021  -4.497  -0.036  1.00  0.00    -0.206 F 
ATOM     83  C   UNL     1      11.569  -7.494  -1.245  1.00  0.00     0.022 A 
BRANCH  80  84
ATOM     84  S   UNL     1      13.433  -9.296  -0.282  1.00  0.00     0.124 S 
ATOM     85  O   UNL     1      14.757  -8.865  -0.715  1.00  0.00    -0.237 OA
ATOM     86  O   UNL     1      13.320  -9.765   1.095  1.00  0.00    -0.237 OA
ATOM     87  O   UNL     1      12.694 -10.096  -1.260  1.00  0.00    -0.744 OA
ENDBRANCH  80  84
ENDBRANCH  53  77
BRANCH  65  88
ATOM     88  C   UNL     1      13.839  -2.931   6.372  1.00  0.00     0.023 A 
ATOM     89  C   UNL     1      14.084  -2.119   5.243  1.00  0.00     0.031 A 
ATOM     90  C   UNL     1      14.710  -2.796   7.470  1.00  0.00     0.131 A 
ATOM     91  C   UNL     1      15.172  -1.224   5.237  1.00  0.00     0.055 A 
ATOM     92  C   UNL     1      15.775  -1.895   7.468  1.00  0.00     0.041 A 
ATOM     93  F   UNL     1      14.515  -3.515   8.588  1.00  0.00    -0.206 F 
ATOM     94  C   UNL     1      16.014  -1.109   6.348  1.00  0.00     0.022 A 
BRANCH  91  95
ATOM     95  S   UNL     1      15.516  -0.196   3.774  1.00  0.00     0.124 S 
ATOM     96  O   UNL     1      15.429  -1.138   2.664  1.00  0.00    -0.237 OA
ATOM     97  O   UNL     1      14.463   0.813   3.844  1.00  0.00    -0.237 OA
ATOM     98  O   UNL     1      16.864   0.316   4.029  1.00  0.00    -0.744 OA
ENDBRANCH  91  95
ENDBRANCH  65  88
ENDBRANCH  39  40
ENDBRANCH  32  34
ENDBRANCH  31  32
ENDBRANCH  30  31
ENDBRANCH  29  30
ENDBRANCH  28  29
ENDBRANCH   1  28
TORSDOF 22
