REMARK SMILES Cc1cc(NCc2ccco2)cc(C(=O)OCCOCCOC(=O)c2ccc(-c3c4nc(c(-c5cc(S(=O)(=O)[O-])ccc5F)c5ccc([nH]5)c(-c5cc(S(=O)(=O)[O-])ccc5F)c5nc(c(-c6cc(S(=O)(=O)[O-])ccc6F)c6ccc3[nH]6)C=C5)C=C4)cc2)c1N
REMARK SMILES IDX 19 1 18 2 17 3 16 4 14 5 15 6 13 7 1 8 2 9 3 10 88 11 4 12
REMARK SMILES IDX 12 13 89 14 5 17 6 19 7 20 8 21 11 22 9 23 10 24 20 25 21 26
REMARK SMILES IDX 22 27 23 28 24 29 25 30 26 31 87 32 27 33 86 34 28 35 29 36
REMARK SMILES IDX 30 37 80 38 31 39 85 40 79 41 81 42 32 43 84 44 78 45 77 46
REMARK SMILES IDX 33 48 65 49 45 50 64 51 46 52 49 53 63 54 82 55 47 56 48 57
REMARK SMILES IDX 62 59 83 60 50 61 34 62 35 63 43 64 36 65 42 66 44 67 41 68
REMARK SMILES IDX 37 69 38 70 39 71 40 72 66 73 67 74 75 75 68 76 74 77 76 78
REMARK SMILES IDX 73 79 69 80 70 81 71 82 72 83 51 84 52 85 60 86 53 87 59 88
REMARK SMILES IDX 61 89 58 90 54 91 55 92 56 93 57 94
REMARK H PARENT 89 15 89 16 5 18 81 47 49 58
REMARK Flexibility Score: inf
ROOT
ATOM      1  O   UNL     1       0.235  -4.939  -1.170  1.00  0.00    -0.374 OA
ENDROOT
BRANCH   1   2
ATOM      2  C   UNL     1      -0.941  -5.418  -0.515  1.00  0.00     0.202 C 
BRANCH   2   3
ATOM      3  C   UNL     1      -1.210  -4.832   0.874  1.00  0.00     0.261 C 
BRANCH   3   4
ATOM      4  O   UNL     1      -1.435  -3.413   0.799  1.00  0.00    -0.460 OA
BRANCH   4   5
ATOM      5  C   UNL     1      -0.452  -2.649   1.336  1.00  0.00     0.340 C 
ATOM      6  O   UNL     1       0.489  -3.050   2.007  1.00  0.00    -0.246 OA
BRANCH   5   7
ATOM      7  C   UNL     1      -0.565  -1.242   0.864  1.00  0.00     0.085 A 
ATOM      8  C   UNL     1       1.726   1.641  -0.139  1.00  0.00     0.047 C 
ATOM      9  C   UNL     1       0.513   0.810   0.179  1.00  0.00    -0.025 A 
ATOM     10  C   UNL     1      -0.763   1.383   0.021  1.00  0.00     0.031 A 
ATOM     11  C   UNL     1       0.624  -0.523   0.602  1.00  0.00     0.049 A 
ATOM     12  C   UNL     1      -1.949   0.674   0.265  1.00  0.00     0.036 A 
ATOM     13  C   UNL     1      -1.831  -0.652   0.683  1.00  0.00     0.043 A 
BRANCH  11  14
ATOM     14  N   UNL     1       1.867  -1.166   0.570  1.00  0.00    -0.398 N 
ATOM     15  H   UNL     1       2.684  -0.648   0.387  1.00  0.00     0.156 HD
ATOM     16  H   UNL     1       1.924  -2.135   0.732  1.00  0.00     0.156 HD
ENDBRANCH  11  14
BRANCH  12  17
ATOM     17  N   UNL     1      -3.143   1.300  -0.024  1.00  0.00    -0.378 N 
ATOM     18  H   UNL     1      -3.091   2.239  -0.314  1.00  0.00     0.161 HD
BRANCH  17  19
ATOM     19  C   UNL     1      -4.472   0.715   0.054  1.00  0.00     0.188 C 
BRANCH  19  20
ATOM     20  C   UNL     1      -5.164   0.908   1.357  1.00  0.00     0.122 A 
ATOM     21  C   UNL     1      -5.772   0.043   2.244  1.00  0.00     0.047 A 
ATOM     22  O   UNL     1      -5.285   2.194   1.805  1.00  0.00    -0.467 OA
ATOM     23  C   UNL     1      -6.289   0.843   3.292  1.00  0.00     0.042 A 
ATOM     24  C   UNL     1      -5.964   2.142   2.980  1.00  0.00     0.195 A 
ENDBRANCH  19  20
ENDBRANCH  17  19
ENDBRANCH  12  17
ENDBRANCH   5   7
ENDBRANCH   4   5
ENDBRANCH   3   4
ENDBRANCH   2   3
ENDBRANCH   1   2
BRANCH   1  25
ATOM     25  C   UNL     1       0.112  -3.704  -1.881  1.00  0.00     0.202 C 
BRANCH  25  26
ATOM     26  C   UNL     1      -0.521  -3.790  -3.275  1.00  0.00     0.261 C 
BRANCH  26  27
ATOM     27  O   UNL     1      -1.925  -4.104  -3.207  1.00  0.00    -0.460 OA
BRANCH  27  28
ATOM     28  C   UNL     1      -2.251  -5.351  -3.622  1.00  0.00     0.338 C 
ATOM     29  O   UNL     1      -1.500  -6.178  -4.122  1.00  0.00    -0.246 OA
BRANCH  28  30
ATOM     30  C   UNL     1      -3.633  -5.674  -3.213  1.00  0.00     0.060 A 
ATOM     31  C   UNL     1      -3.843  -6.895  -2.559  1.00  0.00     0.016 A 
ATOM     32  C   UNL     1      -4.710  -4.833  -3.503  1.00  0.00     0.016 A 
ATOM     33  C   UNL     1      -5.136  -7.302  -2.236  1.00  0.00     0.010 A 
ATOM     34  C   UNL     1      -6.009  -5.248  -3.186  1.00  0.00     0.010 A 
ATOM     35  C   UNL     1      -6.231  -6.499  -2.581  1.00  0.00    -0.014 A 
BRANCH  35  36
ATOM     36  C   UNL     1      -7.607  -7.040  -2.446  1.00  0.00     0.031 A 
ATOM     37  C   UNL     1      -8.291  -7.596  -3.666  1.00  0.00     0.074 A 
ATOM     38  C   UNL     1      -8.223  -7.068  -1.250  1.00  0.00     0.049 A 
ATOM     39  N   UNL     1      -9.499  -8.082  -3.793  1.00  0.00    -0.248 NA
ATOM     40  C   UNL     1      -7.505  -7.599  -4.909  1.00  0.00     0.031 C 
ATOM     41  C   UNL     1      -7.643  -6.603   0.009  1.00  0.00     0.029 A 
ATOM     42  N   UNL     1      -9.478  -7.504  -0.902  1.00  0.00    -0.354 N 
ATOM     43  C   UNL     1      -9.619  -8.451  -5.129  1.00  0.00     0.074 A 
ATOM     44  C   UNL     1      -8.375  -8.092  -5.777  1.00  0.00     0.031 C 
ATOM     45  C   UNL     1      -8.546  -6.766   0.991  1.00  0.00     0.029 A 
ATOM     46  C   UNL     1      -9.779  -7.312   0.426  1.00  0.00     0.049 A 
ATOM     47  H   UNL     1     -10.102  -7.914  -1.542  1.00  0.00     0.167 HD
ATOM     48  C   UNL     1     -10.666  -9.044  -5.754  1.00  0.00     0.034 A 
ATOM     49  C   UNL     1     -10.927  -7.528   1.101  1.00  0.00     0.034 A 
ATOM     50  C   UNL     1     -11.906  -9.382  -5.098  1.00  0.00     0.049 A 
ATOM     51  C   UNL     1     -12.112  -8.107   0.365  1.00  0.00     0.074 A 
ATOM     52  C   UNL     1     -13.030  -9.986  -5.635  1.00  0.00     0.029 A 
ATOM     53  N   UNL     1     -12.191  -9.134  -3.761  1.00  0.00    -0.354 N 
ATOM     54  N   UNL     1     -12.213  -8.453  -0.898  1.00  0.00    -0.248 NA
ATOM     55  C   UNL     1     -13.335  -8.332   1.148  1.00  0.00     0.031 C 
ATOM     56  C   UNL     1     -14.016 -10.041  -4.643  1.00  0.00     0.029 A 
ATOM     57  C   UNL     1     -13.483  -9.543  -3.465  1.00  0.00     0.049 A 
ATOM     58  H   UNL     1     -11.568  -8.726  -3.118  1.00  0.00     0.167 HD
ATOM     59  C   UNL     1     -13.499  -8.966  -1.051  1.00  0.00     0.074 A 
ATOM     60  C   UNL     1     -14.130  -8.895   0.251  1.00  0.00     0.031 C 
ATOM     61  C   UNL     1     -14.104  -9.456  -2.164  1.00  0.00     0.034 A 
BRANCH  48  62
ATOM     62  C   UNL     1     -10.526  -9.314  -7.233  1.00  0.00     0.023 A 
ATOM     63  C   UNL     1      -9.572 -10.218  -7.733  1.00  0.00     0.031 A 
ATOM     64  C   UNL     1     -11.339  -8.636  -8.159  1.00  0.00     0.131 A 
ATOM     65  C   UNL     1      -9.409 -10.368  -9.119  1.00  0.00     0.055 A 
ATOM     66  C   UNL     1     -11.224  -8.847  -9.534  1.00  0.00     0.041 A 
ATOM     67  F   UNL     1     -12.251  -7.743  -7.742  1.00  0.00    -0.206 F 
ATOM     68  C   UNL     1     -10.245  -9.707 -10.022  1.00  0.00     0.022 A 
BRANCH  65  69
ATOM     69  S   UNL     1      -7.999 -11.333  -9.727  1.00  0.00     0.124 S 
ATOM     70  O   UNL     1      -6.872 -10.607  -9.147  1.00  0.00    -0.237 OA
ATOM     71  O   UNL     1      -8.261 -12.657  -9.174  1.00  0.00    -0.237 OA
ATOM     72  O   UNL     1      -8.115 -11.230 -11.181  1.00  0.00    -0.744 OA
ENDBRANCH  65  69
ENDBRANCH  48  62
BRANCH  49  73
ATOM     73  C   UNL     1     -11.039  -7.154   2.541  1.00  0.00     0.023 A 
ATOM     74  C   UNL     1     -11.274  -8.121   3.531  1.00  0.00     0.031 A 
ATOM     75  C   UNL     1     -10.972  -5.806   2.939  1.00  0.00     0.131 A 
ATOM     76  C   UNL     1     -11.481  -7.723   4.861  1.00  0.00     0.055 A 
ATOM     77  C   UNL     1     -11.125  -5.421   4.272  1.00  0.00     0.041 A 
ATOM     78  F   UNL     1     -10.750  -4.840   2.034  1.00  0.00    -0.206 F 
ATOM     79  C   UNL     1     -11.395  -6.382   5.240  1.00  0.00     0.022 A 
BRANCH  76  80
ATOM     80  S   UNL     1     -11.954  -8.980   6.081  1.00  0.00     0.124 S 
ATOM     81  O   UNL     1     -13.172  -9.523   5.490  1.00  0.00    -0.237 OA
ATOM     82  O   UNL     1     -10.790  -9.860   6.074  1.00  0.00    -0.237 OA
ATOM     83  O   UNL     1     -12.143  -8.210   7.308  1.00  0.00    -0.744 OA
ENDBRANCH  76  80
ENDBRANCH  49  73
BRANCH  61  84
ATOM     84  C   UNL     1     -15.504  -9.997  -2.005  1.00  0.00     0.023 A 
ATOM     85  C   UNL     1     -16.593  -9.161  -1.700  1.00  0.00     0.031 A 
ATOM     86  C   UNL     1     -15.750 -11.374  -2.153  1.00  0.00     0.131 A 
ATOM     87  C   UNL     1     -17.866  -9.716  -1.499  1.00  0.00     0.055 A 
ATOM     88  C   UNL     1     -17.030 -11.912  -2.012  1.00  0.00     0.041 A 
ATOM     89  F   UNL     1     -14.748 -12.219  -2.443  1.00  0.00    -0.206 F 
ATOM     90  C   UNL     1     -18.094 -11.084  -1.670  1.00  0.00     0.022 A 
BRANCH  87  91
ATOM     91  S   UNL     1     -19.207  -8.638  -0.925  1.00  0.00     0.124 S 
ATOM     92  O   UNL     1     -18.665  -8.119   0.327  1.00  0.00    -0.237 OA
ATOM     93  O   UNL     1     -19.323  -7.676  -2.016  1.00  0.00    -0.237 OA
ATOM     94  O   UNL     1     -20.341  -9.548  -0.779  1.00  0.00    -0.744 OA
ENDBRANCH  87  91
ENDBRANCH  61  84
ENDBRANCH  35  36
ENDBRANCH  28  30
ENDBRANCH  27  28
ENDBRANCH  26  27
ENDBRANCH  25  26
ENDBRANCH   1  25
TORSDOF 21
