REMARK SMILES O=C(/C=C/c1ccc(O)cc1)NC[C@@H]1CC[C@H](C(=O)OCCOCCOC(=O)c2ccc(-c3c4nc(c(-c5cc(S(=O)(=O)[O-])ccc5F)c5ccc([nH]5)c(-c5cc(S(=O)(=O)[O-])ccc5F)c5nc(c(-c6cc(S(=O)(=O)[O-])ccc6F)c6ccc3[nH]6)C=C5)C=C4)cc2)O1
REMARK SMILES IDX 22 1 21 2 20 3 18 4 19 5 17 6 14 7 15 8 92 9 16 10 13 11
REMARK SMILES IDX 12 12 1 13 2 14 3 16 4 17 5 18 6 19 11 20 7 21 10 22 8 23
REMARK SMILES IDX 9 24 23 26 24 27 25 28 26 29 27 30 28 31 29 32 30 33 91 34
REMARK SMILES IDX 31 35 90 36 32 37 33 38 34 39 84 40 35 41 89 42 83 43 85 44
REMARK SMILES IDX 36 45 88 46 82 47 81 48 37 50 69 51 49 52 68 53 50 54 53 55
REMARK SMILES IDX 67 56 86 57 51 58 52 59 66 61 87 62 54 63 38 64 39 65 47 66
REMARK SMILES IDX 40 67 46 68 48 69 45 70 41 71 42 72 43 73 44 74 70 75 71 76
REMARK SMILES IDX 79 77 72 78 78 79 80 80 77 81 73 82 74 83 75 84 76 85 55 86
REMARK SMILES IDX 56 87 64 88 57 89 63 90 65 91 62 92 58 93 59 94 60 95 61 96
REMARK H PARENT 12 15 9 25 85 49 53 60
REMARK Flexibility Score: inf
ROOT
ATOM      1  C   UNL     1       1.858  -4.759  -0.709  1.00  0.00     0.202 C 
ENDROOT
BRANCH   1   2
ATOM      2  C   UNL     1       1.073  -3.576  -0.153  1.00  0.00     0.261 C 
BRANCH   2   3
ATOM      3  O   UNL     1       1.702  -3.111   1.055  1.00  0.00    -0.461 OA
BRANCH   3   4
ATOM      4  C   UNL     1       1.062  -3.428   2.207  1.00  0.00     0.335 C 
ATOM      5  O   UNL     1      -0.004  -4.032   2.280  1.00  0.00    -0.249 OA
BRANCH   4   6
ATOM      6  C   UNL     1       1.840  -2.973   3.445  1.00  0.00     0.228 C 
ATOM      7  C   UNL     1       2.609  -0.766   3.620  1.00  0.00     0.138 C 
ATOM      8  C   UNL     1       3.758  -1.601   3.071  1.00  0.00     0.037 C 
ATOM      9  O   UNL     1       1.480  -1.640   3.802  1.00  0.00    -0.361 OA
ATOM     10  C   UNL     1       3.358  -3.022   3.371  1.00  0.00     0.047 C 
BRANCH   7  11
ATOM     11  C   UNL     1       2.191   0.475   2.800  1.00  0.00     0.148 C 
BRANCH  11  12
ATOM     12  N   UNL     1       2.869   0.609   1.522  1.00  0.00    -0.350 N 
ATOM     13  O   UNL     1       1.145  -0.207   0.252  1.00  0.00    -0.270 OA
ATOM     14  C   UNL     1       2.306   0.172   0.358  1.00  0.00     0.244 C 
ATOM     15  H   UNL     1       3.761   1.026   1.495  1.00  0.00     0.163 HD
BRANCH  14  16
ATOM     16  C   UNL     1       3.186   0.157  -0.838  1.00  0.00     0.072 C 
ATOM     17  C   UNL     1       4.530   0.174  -0.895  1.00  0.00     0.014 C 
BRANCH  17  18
ATOM     18  C   UNL     1       5.259  -0.047  -2.177  1.00  0.00    -0.025 A 
ATOM     19  C   UNL     1       4.309  -0.314  -3.725  1.00  0.00     0.012 A 
ATOM     20  C   UNL     1       7.017  -0.452  -2.119  1.00  0.00     0.012 A 
ATOM     21  C   UNL     1       5.051  -1.084  -5.182  1.00  0.00     0.047 A 
ATOM     22  C   UNL     1       7.709  -1.489  -3.478  1.00  0.00     0.047 A 
ATOM     23  C   UNL     1       6.671  -1.823  -5.003  1.00  0.00     0.115 A 
BRANCH  23  24
ATOM     24  O   UNL     1       7.008  -2.731  -5.966  1.00  0.00    -0.508 OA
ATOM     25  H   UNL     1       6.450  -2.857  -6.708  1.00  0.00     0.293 HD
ENDBRANCH  23  24
ENDBRANCH  17  18
ENDBRANCH  14  16
ENDBRANCH  11  12
ENDBRANCH   7  11
ENDBRANCH   4   6
ENDBRANCH   3   4
ENDBRANCH   2   3
ENDBRANCH   1   2
BRANCH   1  26
ATOM     26  O   UNL     1       1.749  -5.991   0.009  1.00  0.00    -0.374 OA
BRANCH  26  27
ATOM     27  C   UNL     1       2.667  -6.181   1.085  1.00  0.00     0.202 C 
BRANCH  27  28
ATOM     28  C   UNL     1       4.076  -6.669   0.717  1.00  0.00     0.261 C 
BRANCH  28  29
ATOM     29  O   UNL     1       4.759  -5.752  -0.135  1.00  0.00    -0.460 OA
BRANCH  29  30
ATOM     30  C   UNL     1       4.660  -5.970  -1.477  1.00  0.00     0.338 C 
ATOM     31  O   UNL     1       4.172  -6.928  -2.041  1.00  0.00    -0.246 OA
BRANCH  30  32
ATOM     32  C   UNL     1       5.048  -4.694  -2.108  1.00  0.00     0.060 A 
ATOM     33  C   UNL     1       4.274  -4.088  -3.081  1.00  0.00     0.016 A 
ATOM     34  C   UNL     1       6.092  -3.997  -1.578  1.00  0.00     0.016 A 
ATOM     35  C   UNL     1       4.559  -2.760  -3.550  1.00  0.00     0.010 A 
ATOM     36  C   UNL     1       6.363  -2.705  -2.049  1.00  0.00     0.010 A 
ATOM     37  C   UNL     1       5.722  -1.804  -3.197  1.00  0.00    -0.014 A 
BRANCH  37  38
ATOM     38  C   UNL     1       6.441   0.039  -4.060  1.00  0.00     0.031 A 
ATOM     39  C   UNL     1       8.068   0.221  -5.038  1.00  0.00     0.074 A 
ATOM     40  C   UNL     1       6.022   1.475  -4.131  1.00  0.00     0.049 A 
ATOM     41  N   UNL     1       8.768   1.306  -5.433  1.00  0.00    -0.248 NA
ATOM     42  C   UNL     1       8.975  -0.978  -5.420  1.00  0.00     0.031 C 
ATOM     43  C   UNL     1       4.833   2.131  -3.483  1.00  0.00     0.029 A 
ATOM     44  N   UNL     1       6.508   2.637  -4.804  1.00  0.00    -0.354 N 
ATOM     45  C   UNL     1      10.032   0.824  -5.915  1.00  0.00     0.074 A 
ATOM     46  C   UNL     1      10.186  -0.495  -5.440  1.00  0.00     0.031 C 
ATOM     47  C   UNL     1       4.611   3.371  -3.875  1.00  0.00     0.029 A 
ATOM     48  C   UNL     1       5.717   3.801  -4.672  1.00  0.00     0.049 A 
ATOM     49  H   UNL     1       7.342   2.629  -5.327  1.00  0.00     0.167 HD
ATOM     50  C   UNL     1      10.993   1.225  -6.796  1.00  0.00     0.034 A 
ATOM     51  C   UNL     1       5.744   5.113  -5.026  1.00  0.00     0.034 A 
ATOM     52  C   UNL     1      11.073   2.525  -7.349  1.00  0.00     0.049 A 
ATOM     53  C   UNL     1       6.880   5.673  -5.808  1.00  0.00     0.074 A 
ATOM     54  C   UNL     1      12.054   3.064  -8.160  1.00  0.00     0.029 A 
ATOM     55  N   UNL     1      10.151   3.506  -7.088  1.00  0.00    -0.354 N 
ATOM     56  N   UNL     1       7.934   5.056  -6.269  1.00  0.00    -0.248 NA
ATOM     57  C   UNL     1       6.833   7.112  -6.109  1.00  0.00     0.031 C 
ATOM     58  C   UNL     1      11.772   4.421  -8.308  1.00  0.00     0.029 A 
ATOM     59  C   UNL     1      10.569   4.676  -7.675  1.00  0.00     0.049 A 
ATOM     60  H   UNL     1       9.325   3.390  -6.565  1.00  0.00     0.167 HD
ATOM     61  C   UNL     1       8.659   6.030  -6.941  1.00  0.00     0.074 A 
ATOM     62  C   UNL     1       7.928   7.269  -6.835  1.00  0.00     0.031 C 
ATOM     63  C   UNL     1       9.835   5.897  -7.591  1.00  0.00     0.034 A 
BRANCH  50  64
ATOM     64  C   UNL     1      12.073   0.201  -7.218  1.00  0.00     0.023 A 
ATOM     65  C   UNL     1      11.751  -0.960  -7.964  1.00  0.00     0.031 A 
ATOM     66  C   UNL     1      13.399   0.328  -6.766  1.00  0.00     0.131 A 
ATOM     67  C   UNL     1      12.713  -1.971  -8.158  1.00  0.00     0.055 A 
ATOM     68  C   UNL     1      14.369  -0.647  -7.029  1.00  0.00     0.041 A 
ATOM     69  F   UNL     1      13.767   1.383  -6.024  1.00  0.00    -0.206 F 
ATOM     70  C   UNL     1      14.026  -1.811  -7.712  1.00  0.00     0.022 A 
BRANCH  67  71
ATOM     71  S   UNL     1      12.199  -3.572  -8.857  1.00  0.00     0.124 S 
ATOM     72  O   UNL     1      11.230  -4.031  -7.866  1.00  0.00    -0.237 OA
ATOM     73  O   UNL     1      11.655  -3.192 -10.156  1.00  0.00    -0.237 OA
ATOM     74  O   UNL     1      13.441  -4.343  -8.904  1.00  0.00    -0.744 OA
ENDBRANCH  67  71
ENDBRANCH  50  64
BRANCH  51  75
ATOM     75  C   UNL     1       4.636   6.061  -4.574  1.00  0.00     0.023 A 
ATOM     76  C   UNL     1       3.765   6.689  -5.487  1.00  0.00     0.031 A 
ATOM     77  C   UNL     1       4.432   6.338  -3.204  1.00  0.00     0.131 A 
ATOM     78  C   UNL     1       2.749   7.550  -5.022  1.00  0.00     0.055 A 
ATOM     79  C   UNL     1       3.369   7.123  -2.745  1.00  0.00     0.041 A 
ATOM     80  F   UNL     1       5.231   5.786  -2.276  1.00  0.00    -0.206 F 
ATOM     81  C   UNL     1       2.524   7.741  -3.657  1.00  0.00     0.022 A 
BRANCH  78  82
ATOM     82  S   UNL     1       1.777   8.509  -6.223  1.00  0.00     0.124 S 
ATOM     83  O   UNL     1       2.822   9.218  -6.952  1.00  0.00    -0.237 OA
ATOM     84  O   UNL     1       1.079   7.460  -6.957  1.00  0.00    -0.237 OA
ATOM     85  O   UNL     1       0.927   9.350  -5.382  1.00  0.00    -0.744 OA
ENDBRANCH  78  82
ENDBRANCH  51  75
BRANCH  63  86
ATOM     86  C   UNL     1      10.384   7.082  -8.300  1.00  0.00     0.023 A 
ATOM     87  C   UNL     1      10.880   8.180  -7.589  1.00  0.00     0.031 A 
ATOM     88  C   UNL     1      10.453   7.082  -9.701  1.00  0.00     0.131 A 
ATOM     89  C   UNL     1      11.389   9.272  -8.294  1.00  0.00     0.055 A 
ATOM     90  C   UNL     1      11.024   8.142 -10.395  1.00  0.00     0.041 A 
ATOM     91  F   UNL     1       9.988   6.040 -10.409  1.00  0.00    -0.206 F 
ATOM     92  C   UNL     1      11.487   9.251  -9.690  1.00  0.00     0.022 A 
BRANCH  89  93
ATOM     93  S   UNL     1      11.843  10.750  -7.359  1.00  0.00     0.124 S 
ATOM     94  O   UNL     1      10.579  11.101  -6.719  1.00  0.00    -0.237 OA
ATOM     95  O   UNL     1      12.888  10.251  -6.471  1.00  0.00    -0.237 OA
ATOM     96  O   UNL     1      12.297  11.679  -8.391  1.00  0.00    -0.744 OA
ENDBRANCH  89  93
ENDBRANCH  63  86
ENDBRANCH  37  38
ENDBRANCH  30  32
ENDBRANCH  29  30
ENDBRANCH  28  29
ENDBRANCH  27  28
ENDBRANCH  26  27
ENDBRANCH   1  26
TORSDOF 22
