REMARK SMILES COc1nc2c(cc1C(=O)NCc1ccc(C(=O)OCCOCCOC(=O)c3ccc(-c4c5nc(c(-c6cc(S(=O)(=O)[O-])ccc6F)c6ccc([nH]6)c(-c6cc(S(=O)(=O)[O-])ccc6F)c6nc(c(-c7cc(S(=O)(=O)[O-])ccc7F)c7ccc4[nH]7)C=C6)C=C5)cc3)s1)CCC2
REMARK SMILES IDX 21 1 20 2 19 3 17 4 18 5 16 6 13 7 14 8 91 9 15 10 12 11
REMARK SMILES IDX 11 12 9 13 10 14 8 16 3 17 4 18 5 19 7 20 6 21 94 22 92 23
REMARK SMILES IDX 93 24 2 25 1 26 22 27 23 28 24 29 25 30 26 31 27 32 28 33
REMARK SMILES IDX 29 34 90 35 30 36 89 37 31 38 32 39 33 40 83 41 34 42 88 43
REMARK SMILES IDX 82 44 84 45 35 46 87 47 81 48 80 49 36 51 68 52 48 53 67 54
REMARK SMILES IDX 49 55 52 56 66 57 85 58 50 59 51 60 65 62 86 63 53 64 37 65
REMARK SMILES IDX 38 66 46 67 39 68 45 69 47 70 44 71 40 72 41 73 42 74 43 75
REMARK SMILES IDX 69 76 70 77 78 78 71 79 77 80 79 81 76 82 72 83 73 84 74 85
REMARK SMILES IDX 75 86 54 87 55 88 63 89 56 90 62 91 64 92 61 93 57 94 58 95
REMARK SMILES IDX 59 96 60 97
REMARK H PARENT 11 15 84 50 52 61
REMARK Flexibility Score: inf
ROOT
ATOM      1  C   UNL     1       1.371  -2.497   8.226  1.00  0.00     0.202 C 
ENDROOT
BRANCH   1   2
ATOM      2  C   UNL     1       0.095  -2.931   7.496  1.00  0.00     0.261 C 
BRANCH   2   3
ATOM      3  O   UNL     1       0.374  -3.138   6.101  1.00  0.00    -0.459 OA
BRANCH   3   4
ATOM      4  C   UNL     1      -0.293  -2.321   5.234  1.00  0.00     0.348 C 
ATOM      5  O   UNL     1      -1.259  -1.629   5.538  1.00  0.00    -0.245 OA
BRANCH   4   6
ATOM      6  C   UNL     1       0.421  -2.278   3.972  1.00  0.00     0.112 A 
ATOM      7  C   UNL     1       1.552  -1.375   1.955  1.00  0.00     0.025 A 
ATOM      8  C   UNL     1       1.883  -2.695   2.196  1.00  0.00     0.018 A 
ATOM      9  S   UNL     1       0.363  -0.829   3.065  1.00  0.00    -0.131 S 
ATOM     10  C   UNL     1       1.247  -3.209   3.371  1.00  0.00     0.028 A 
BRANCH   7  11
ATOM     11  C   UNL     1       2.067  -0.391   0.960  1.00  0.00     0.163 C 
BRANCH  11  12
ATOM     12  N   UNL     1       3.018  -0.973   0.040  1.00  0.00    -0.347 N 
ATOM     13  C   UNL     1       3.021  -0.865  -1.328  1.00  0.00     0.257 C 
ATOM     14  O   UNL     1       4.043  -0.431  -1.864  1.00  0.00    -0.269 OA
ATOM     15  H   UNL     1       3.743  -1.505   0.439  1.00  0.00     0.164 HD
BRANCH  13  16
ATOM     16  C   UNL     1       1.983  -1.485  -2.190  1.00  0.00     0.102 A 
ATOM     17  C   UNL     1       0.594  -1.382  -2.076  1.00  0.00     0.226 A 
ATOM     18  N   UNL     1      -0.298  -1.986  -2.911  1.00  0.00    -0.218 NA
ATOM     19  C   UNL     1       0.234  -2.707  -3.908  1.00  0.00     0.048 A 
ATOM     20  C   UNL     1       2.482  -2.202  -3.295  1.00  0.00     0.025 A 
ATOM     21  C   UNL     1       1.592  -2.816  -4.154  1.00  0.00    -0.025 A 
ATOM     22  C   UNL     1      -0.561  -3.452  -4.942  1.00  0.00     0.057 C 
ATOM     23  C   UNL     1       1.857  -3.584  -5.405  1.00  0.00     0.038 C 
ATOM     24  C   UNL     1       0.527  -4.334  -5.575  1.00  0.00     0.011 C 
BRANCH  17  25
ATOM     25  O   UNL     1       0.001  -0.603  -1.125  1.00  0.00    -0.480 OA
ATOM     26  C   UNL     1      -0.284   0.680  -1.678  1.00  0.00     0.280 C 
ENDBRANCH  17  25
ENDBRANCH  13  16
ENDBRANCH  11  12
ENDBRANCH   7  11
ENDBRANCH   4   6
ENDBRANCH   3   4
ENDBRANCH   2   3
ENDBRANCH   1   2
BRANCH   1  27
ATOM     27  O   UNL     1       1.831  -1.185   7.890  1.00  0.00    -0.374 OA
BRANCH  27  28
ATOM     28  C   UNL     1       2.670  -1.079   6.736  1.00  0.00     0.202 C 
BRANCH  28  29
ATOM     29  C   UNL     1       4.135  -1.472   6.957  1.00  0.00     0.261 C 
BRANCH  29  30
ATOM     30  O   UNL     1       4.281  -2.904   6.992  1.00  0.00    -0.460 OA
BRANCH  30  31
ATOM     31  C   UNL     1       4.713  -3.414   8.170  1.00  0.00     0.338 C 
ATOM     32  O   UNL     1       5.081  -2.795   9.153  1.00  0.00    -0.246 OA
BRANCH  31  33
ATOM     33  C   UNL     1       4.490  -4.871   8.177  1.00  0.00     0.060 A 
ATOM     34  C   UNL     1       3.660  -5.393   9.177  1.00  0.00     0.016 A 
ATOM     35  C   UNL     1       5.126  -5.717   7.265  1.00  0.00     0.016 A 
ATOM     36  C   UNL     1       3.489  -6.770   9.290  1.00  0.00     0.010 A 
ATOM     37  C   UNL     1       4.970  -7.101   7.394  1.00  0.00     0.010 A 
ATOM     38  C   UNL     1       4.176  -7.631   8.426  1.00  0.00    -0.014 A 
BRANCH  38  39
ATOM     39  C   UNL     1       4.170  -9.085   8.706  1.00  0.00     0.031 A 
ATOM     40  C   UNL     1       5.239  -9.658   9.592  1.00  0.00     0.074 A 
ATOM     41  C   UNL     1       3.200  -9.875   8.213  1.00  0.00     0.049 A 
ATOM     42  N   UNL     1       5.386 -10.884  10.020  1.00  0.00    -0.248 NA
ATOM     43  C   UNL     1       6.276  -8.725  10.064  1.00  0.00     0.031 C 
ATOM     44  C   UNL     1       2.100  -9.423   7.365  1.00  0.00     0.029 A 
ATOM     45  N   UNL     1       2.988 -11.223   8.355  1.00  0.00    -0.354 N 
ATOM     46  C   UNL     1       6.519 -10.868  10.825  1.00  0.00     0.074 A 
ATOM     47  C   UNL     1       7.042  -9.520  10.797  1.00  0.00     0.031 C 
ATOM     48  C   UNL     1       1.331 -10.480   7.053  1.00  0.00     0.029 A 
ATOM     49  C   UNL     1       1.894 -11.685   7.664  1.00  0.00     0.049 A 
ATOM     50  H   UNL     1       3.565 -11.805   8.901  1.00  0.00     0.167 HD
ATOM     51  C   UNL     1       7.062 -11.884  11.534  1.00  0.00     0.034 A 
ATOM     52  C   UNL     1       1.406 -12.936   7.534  1.00  0.00     0.034 A 
ATOM     53  C   UNL     1       6.548 -13.226  11.540  1.00  0.00     0.049 A 
ATOM     54  C   UNL     1       2.070 -14.067   8.278  1.00  0.00     0.074 A 
ATOM     55  C   UNL     1       7.020 -14.319  12.244  1.00  0.00     0.029 A 
ATOM     56  N   UNL     1       5.457 -13.664  10.803  1.00  0.00    -0.354 N 
ATOM     57  N   UNL     1       3.094 -14.024   9.098  1.00  0.00    -0.248 NA
ATOM     58  C   UNL     1       1.512 -15.414   8.092  1.00  0.00     0.031 C 
ATOM     59  C   UNL     1       6.246 -15.428  11.897  1.00  0.00     0.029 A 
ATOM     60  C   UNL     1       5.259 -15.017  11.014  1.00  0.00     0.049 A 
ATOM     61  H   UNL     1       4.906 -13.096  10.218  1.00  0.00     0.167 HD
ATOM     62  C   UNL     1       3.287 -15.330   9.543  1.00  0.00     0.074 A 
ATOM     63  C   UNL     1       2.264 -16.138   8.912  1.00  0.00     0.031 C 
ATOM     64  C   UNL     1       4.226 -15.812  10.394  1.00  0.00     0.034 A 
BRANCH  51  65
ATOM     65  C   UNL     1       8.275 -11.593  12.373  1.00  0.00     0.023 A 
ATOM     66  C   UNL     1       9.520 -12.150  12.033  1.00  0.00     0.031 A 
ATOM     67  C   UNL     1       8.173 -10.851  13.563  1.00  0.00     0.131 A 
ATOM     68  C   UNL     1      10.613 -11.975  12.890  1.00  0.00     0.055 A 
ATOM     69  C   UNL     1       9.272 -10.657  14.399  1.00  0.00     0.041 A 
ATOM     70  F   UNL     1       7.003 -10.296  13.921  1.00  0.00    -0.206 F 
ATOM     71  C   UNL     1      10.498 -11.228  14.068  1.00  0.00     0.022 A 
BRANCH  68  72
ATOM     72  S   UNL     1      12.220 -12.729  12.522  1.00  0.00     0.124 S 
ATOM     73  O   UNL     1      13.117 -11.576  12.589  1.00  0.00    -0.237 OA
ATOM     74  O   UNL     1      12.360 -13.693  13.609  1.00  0.00    -0.237 OA
ATOM     75  O   UNL     1      12.044 -13.296  11.189  1.00  0.00    -0.744 OA
ENDBRANCH  68  72
ENDBRANCH  51  65
BRANCH  52  76
ATOM     76  C   UNL     1       0.199 -13.158   6.690  1.00  0.00     0.023 A 
ATOM     77  C   UNL     1       0.237 -12.929   5.303  1.00  0.00     0.031 A 
ATOM     78  C   UNL     1      -1.028 -13.518   7.271  1.00  0.00     0.131 A 
ATOM     79  C   UNL     1      -0.942 -13.009   4.552  1.00  0.00     0.055 A 
ATOM     80  C   UNL     1      -2.190 -13.652   6.508  1.00  0.00     0.041 A 
ATOM     81  F   UNL     1      -1.112 -13.738   8.592  1.00  0.00    -0.206 F 
ATOM     82  C   UNL     1      -2.152 -13.385   5.143  1.00  0.00     0.022 A 
BRANCH  79  83
ATOM     83  S   UNL     1      -0.960 -12.543   2.799  1.00  0.00     0.124 S 
ATOM     84  O   UNL     1      -1.554 -13.721   2.174  1.00  0.00    -0.237 OA
ATOM     85  O   UNL     1      -1.800 -11.348   2.822  1.00  0.00    -0.237 OA
ATOM     86  O   UNL     1       0.447 -12.311   2.490  1.00  0.00    -0.744 OA
ENDBRANCH  79  83
ENDBRANCH  52  76
BRANCH  64  87
ATOM     87  C   UNL     1       4.220 -17.284  10.722  1.00  0.00     0.023 A 
ATOM     88  C   UNL     1       3.945 -17.711  12.035  1.00  0.00     0.031 A 
ATOM     89  C   UNL     1       4.643 -18.239   9.783  1.00  0.00     0.131 A 
ATOM     90  C   UNL     1       4.136 -19.054  12.383  1.00  0.00     0.055 A 
ATOM     91  C   UNL     1       4.794 -19.583  10.125  1.00  0.00     0.041 A 
ATOM     92  F   UNL     1       4.926 -17.875   8.522  1.00  0.00    -0.206 F 
ATOM     93  C   UNL     1       4.553 -19.993  11.434  1.00  0.00     0.022 A 
BRANCH  90  94
ATOM     94  S   UNL     1       3.919 -19.617  14.094  1.00  0.00     0.124 S 
ATOM     95  O   UNL     1       2.940 -20.691  13.938  1.00  0.00    -0.237 OA
ATOM     96  O   UNL     1       5.268 -20.050  14.447  1.00  0.00    -0.237 OA
ATOM     97  O   UNL     1       3.433 -18.433  14.796  1.00  0.00    -0.744 OA
ENDBRANCH  90  94
ENDBRANCH  64  87
ENDBRANCH  38  39
ENDBRANCH  31  33
ENDBRANCH  30  31
ENDBRANCH  29  30
ENDBRANCH  28  29
ENDBRANCH  27  28
ENDBRANCH   1  27
TORSDOF 21
