REMARK SMILES Cc1cc(/C=C2/C(=O)NC(=S)N=C2OCCOCCOC(=O)c2ccc(-c3c4nc(c(-c5cc(S(=O)(=O)[O-])ccc5F)c5ccc([nH]5)c(-c5cc(S(=O)(=O)[O-])ccc5F)c5nc(c(-c6cc(S(=O)(=O)[O-])ccc6F)c6ccc3[nH]6)C=C5)C=C4)cc2)c(C)n1-c1cccc(C(=O)[O-])c1
REMARK SMILES IDX 18 1 17 2 16 3 15 4 14 5 13 6 5 7 6 8 7 9 8 10 9 11 12 12
REMARK SMILES IDX 10 13 11 15 4 16 1 17 2 18 3 19 88 20 86 21 87 22 89 23
REMARK SMILES IDX 90 24 97 25 91 26 93 27 92 28 94 29 95 30 96 31 19 32 20 33
REMARK SMILES IDX 21 34 22 35 23 36 24 37 85 38 25 39 84 40 26 41 27 42 28 43
REMARK SMILES IDX 78 44 29 45 83 46 77 47 79 48 30 49 82 50 76 51 75 52 31 54
REMARK SMILES IDX 63 55 43 56 62 57 44 58 47 59 61 60 80 61 45 62 46 63 60 65
REMARK SMILES IDX 81 66 48 67 32 68 33 69 41 70 34 71 40 72 42 73 39 74 35 75
REMARK SMILES IDX 36 76 37 77 38 78 64 79 65 80 73 81 66 82 72 83 74 84 71 85
REMARK SMILES IDX 67 86 68 87 69 88 70 89 49 90 50 91 58 92 51 93 57 94 59 95
REMARK SMILES IDX 56 96 52 97 53 98 54 99 55 100
REMARK H PARENT 9 14 79 53 47 64
REMARK Flexibility Score: inf
ROOT
ATOM      1  C   UNL     1      -0.234  -5.043  -4.177  1.00  0.00     0.202 C 
ENDROOT
BRANCH   1   2
ATOM      2  O   UNL     1      -1.564  -5.407  -4.634  1.00  0.00    -0.374 OA
BRANCH   2   3
ATOM      3  C   UNL     1      -2.743  -4.737  -4.156  1.00  0.00     0.202 C 
BRANCH   3   4
ATOM      4  C   UNL     1      -3.372  -5.205  -2.803  1.00  0.00     0.260 C 
BRANCH   4   5
ATOM      5  O   UNL     1      -2.469  -5.123  -1.670  1.00  0.00    -0.475 OA
BRANCH   5   6
ATOM      6  C   UNL     1      -1.749  -6.210  -1.374  1.00  0.00     0.229 C 
ATOM      7  C   UNL     1       0.247  -4.826  -0.337  1.00  0.00     0.029 C 
ATOM      8  C   UNL     1      -0.444  -5.938  -0.711  1.00  0.00     0.103 C 
ATOM      9  C   UNL     1       0.316  -7.221  -0.462  1.00  0.00     0.262 C 
ATOM     10  O   UNL     1       1.402  -7.290   0.108  1.00  0.00    -0.269 OA
ATOM     11  N   UNL     1      -0.271  -8.369  -0.922  1.00  0.00    -0.297 N 
ATOM     12  N   UNL     1      -2.224  -7.361  -1.702  1.00  0.00    -0.184 NA
ATOM     13  C   UNL     1      -1.494  -8.483  -1.513  1.00  0.00     0.203 C 
ATOM     14  H   UNL     1       0.245  -9.200  -0.815  1.00  0.00     0.172 HD
ATOM     15  S   UNL     1      -2.012 -10.007  -1.979  1.00  0.00    -0.038 S 
BRANCH   7  16
ATOM     16  C   UNL     1       0.114  -3.379  -0.352  1.00  0.00    -0.003 A 
ATOM     17  C   UNL     1       1.500   0.071   0.285  1.00  0.00     0.065 C 
ATOM     18  C   UNL     1       0.763  -1.178  -0.030  1.00  0.00     0.020 A 
ATOM     19  C   UNL     1       1.101  -2.503   0.225  1.00  0.00     0.031 A 
ATOM     20  N   UNL     1      -0.489  -1.202  -0.595  1.00  0.00    -0.318 N 
ATOM     21  C   UNL     1      -0.739  -2.506  -0.995  1.00  0.00     0.027 A 
ATOM     22  C   UNL     1      -1.708  -2.669  -2.082  1.00  0.00     0.065 C 
BRANCH  20  23
ATOM     23  C   UNL     1      -1.374  -0.141  -0.957  1.00  0.00     0.046 A 
ATOM     24  C   UNL     1      -2.728  -0.320  -0.602  1.00  0.00     0.026 A 
ATOM     25  C   UNL     1      -1.026   0.729  -1.999  1.00  0.00     0.036 A 
ATOM     26  C   UNL     1      -3.738   0.303  -1.327  1.00  0.00     0.003 A 
ATOM     27  C   UNL     1      -2.053   1.375  -2.713  1.00  0.00    -0.001 A 
ATOM     28  C   UNL     1      -3.401   1.137  -2.388  1.00  0.00     0.010 A 
BRANCH  27  29
ATOM     29  C   UNL     1      -1.784   2.246  -3.874  1.00  0.00     0.072 C 
ATOM     30  O   UNL     1      -2.657   2.739  -4.597  1.00  0.00    -0.545 OA
ATOM     31  O   UNL     1      -0.489   2.506  -4.064  1.00  0.00    -0.545 OA
ENDBRANCH  27  29
ENDBRANCH  20  23
ENDBRANCH   7  16
ENDBRANCH   5   6
ENDBRANCH   4   5
ENDBRANCH   3   4
ENDBRANCH   2   3
ENDBRANCH   1   2
BRANCH   1  32
ATOM     32  C   UNL     1       0.654  -4.077  -5.064  1.00  0.00     0.261 C 
BRANCH  32  33
ATOM     33  O   UNL     1       1.494  -2.982  -4.440  1.00  0.00    -0.460 OA
BRANCH  33  34
ATOM     34  C   UNL     1       1.437  -1.734  -5.056  1.00  0.00     0.338 C 
ATOM     35  O   UNL     1       0.474  -1.473  -5.777  1.00  0.00    -0.246 OA
BRANCH  34  36
ATOM     36  C   UNL     1       2.567  -0.619  -4.889  1.00  0.00     0.060 A 
ATOM     37  C   UNL     1       2.291   0.612  -5.475  1.00  0.00     0.016 A 
ATOM     38  C   UNL     1       3.872  -0.612  -4.340  1.00  0.00     0.016 A 
ATOM     39  C   UNL     1       3.227   1.734  -5.490  1.00  0.00     0.010 A 
ATOM     40  C   UNL     1       4.831   0.605  -4.328  1.00  0.00     0.010 A 
ATOM     41  C   UNL     1       4.538   1.870  -4.888  1.00  0.00    -0.014 A 
BRANCH  41  42
ATOM     42  C   UNL     1       5.282   3.451  -4.825  1.00  0.00     0.031 A 
ATOM     43  C   UNL     1       4.106   4.345  -4.975  1.00  0.00     0.074 A 
ATOM     44  C   UNL     1       6.458   4.284  -4.861  1.00  0.00     0.049 A 
ATOM     45  N   UNL     1       3.690   4.528  -6.180  1.00  0.00    -0.248 NA
ATOM     46  C   UNL     1       3.124   4.686  -3.946  1.00  0.00     0.031 C 
ATOM     47  C   UNL     1       7.883   3.900  -4.968  1.00  0.00     0.029 A 
ATOM     48  N   UNL     1       6.664   5.762  -4.897  1.00  0.00    -0.354 N 
ATOM     49  C   UNL     1       2.376   4.903  -6.129  1.00  0.00     0.074 A 
ATOM     50  C   UNL     1       2.088   5.075  -4.711  1.00  0.00     0.031 C 
ATOM     51  C   UNL     1       8.748   4.970  -4.904  1.00  0.00     0.029 A 
ATOM     52  C   UNL     1       8.059   6.272  -4.832  1.00  0.00     0.049 A 
ATOM     53  H   UNL     1       5.900   6.379  -4.961  1.00  0.00     0.167 HD
ATOM     54  C   UNL     1       1.906   5.484  -7.262  1.00  0.00     0.034 A 
ATOM     55  C   UNL     1       8.638   7.584  -4.846  1.00  0.00     0.034 A 
ATOM     56  C   UNL     1       2.389   6.843  -7.261  1.00  0.00     0.049 A 
ATOM     57  C   UNL     1       7.755   8.437  -5.638  1.00  0.00     0.074 A 
ATOM     58  C   UNL     1       2.402   7.773  -6.237  1.00  0.00     0.029 A 
ATOM     59  N   UNL     1       3.445   7.143  -8.100  1.00  0.00    -0.354 N 
ATOM     60  N   UNL     1       7.769   8.402  -6.933  1.00  0.00    -0.248 NA
ATOM     61  C   UNL     1       6.891   9.451  -5.047  1.00  0.00     0.031 C 
ATOM     62  C   UNL     1       3.743   8.211  -6.198  1.00  0.00     0.029 A 
ATOM     63  C   UNL     1       4.368   7.888  -7.400  1.00  0.00     0.049 A 
ATOM     64  H   UNL     1       3.525   6.870  -9.043  1.00  0.00     0.167 HD
ATOM     65  C   UNL     1       6.529   8.865  -7.226  1.00  0.00     0.074 A 
ATOM     66  C   UNL     1       6.187   9.765  -6.138  1.00  0.00     0.031 C 
ATOM     67  C   UNL     1       5.720   8.007  -7.899  1.00  0.00     0.034 A 
BRANCH  54  68
ATOM     68  C   UNL     1       2.050   4.539  -8.459  1.00  0.00     0.023 A 
ATOM     69  C   UNL     1       0.890   4.112  -9.115  1.00  0.00     0.031 A 
ATOM     70  C   UNL     1       3.269   3.933  -8.866  1.00  0.00     0.131 A 
ATOM     71  C   UNL     1       0.959   3.066 -10.059  1.00  0.00     0.055 A 
ATOM     72  C   UNL     1       3.318   2.838  -9.728  1.00  0.00     0.041 A 
ATOM     73  F   UNL     1       4.457   4.393  -8.446  1.00  0.00    -0.206 F 
ATOM     74  C   UNL     1       2.153   2.391 -10.326  1.00  0.00     0.022 A 
BRANCH  71  75
ATOM     75  S   UNL     1      -0.540   2.616 -10.970  1.00  0.00     0.124 S 
ATOM     76  O   UNL     1      -1.400   2.108  -9.907  1.00  0.00    -0.237 OA
ATOM     77  O   UNL     1      -0.940   3.894 -11.552  1.00  0.00    -0.237 OA
ATOM     78  O   UNL     1      -0.079   1.617 -11.932  1.00  0.00    -0.744 OA
ENDBRANCH  71  75
ENDBRANCH  54  68
BRANCH  55  79
ATOM     79  C   UNL     1       9.939   8.518  -4.554  1.00  0.00     0.023 A 
ATOM     80  C   UNL     1      10.324   9.715  -5.337  1.00  0.00     0.031 A 
ATOM     81  C   UNL     1      10.469   8.534  -3.254  1.00  0.00     0.131 A 
ATOM     82  C   UNL     1      11.141  10.787  -4.807  1.00  0.00     0.055 A 
ATOM     83  C   UNL     1      11.269   9.596  -2.742  1.00  0.00     0.041 A 
ATOM     84  F   UNL     1      10.124   7.577  -2.382  1.00  0.00    -0.206 F 
ATOM     85  C   UNL     1      11.597  10.719  -3.499  1.00  0.00     0.022 A 
BRANCH  82  86
ATOM     86  S   UNL     1      11.541  12.378  -5.713  1.00  0.00     0.124 S 
ATOM     87  O   UNL     1      12.337  11.932  -6.849  1.00  0.00    -0.237 OA
ATOM     88  O   UNL     1      10.223  12.928  -6.011  1.00  0.00    -0.237 OA
ATOM     89  O   UNL     1      12.297  13.161  -4.728  1.00  0.00    -0.744 OA
ENDBRANCH  82  86
ENDBRANCH  55  79
BRANCH  67  90
ATOM     90  C   UNL     1       6.380   7.123  -8.962  1.00  0.00     0.023 A 
ATOM     91  C   UNL     1       7.566   6.351  -8.797  1.00  0.00     0.031 A 
ATOM     92  C   UNL     1       5.835   7.145 -10.253  1.00  0.00     0.131 A 
ATOM     93  C   UNL     1       8.178   5.700  -9.889  1.00  0.00     0.055 A 
ATOM     94  C   UNL     1       6.416   6.465 -11.328  1.00  0.00     0.041 A 
ATOM     95  F   UNL     1       4.718   7.848 -10.500  1.00  0.00    -0.206 F 
ATOM     96  C   UNL     1       7.599   5.755 -11.156  1.00  0.00     0.022 A 
BRANCH  93  97
ATOM     97  S   UNL     1       9.776   4.835  -9.683  1.00  0.00     0.124 S 
ATOM     98  O   UNL     1      10.642   5.855  -9.103  1.00  0.00    -0.237 OA
ATOM     99  O   UNL     1       9.433   3.720  -8.804  1.00  0.00    -0.237 OA
ATOM    100  O   UNL     1      10.132   4.443 -11.049  1.00  0.00    -0.744 OA
ENDBRANCH  93  97
ENDBRANCH  67  90
ENDBRANCH  41  42
ENDBRANCH  34  36
ENDBRANCH  33  34
ENDBRANCH  32  33
ENDBRANCH   1  32
TORSDOF 19
