REMARK SMILES O=C(CCCc1nc(-c2ccc(Cl)c(Cl)c2)c(-c2ccccc2)o1)OCCOCCOC(=O)c1ccc(-c2c3nc(c(-c4cc(S(=O)(=O)[O-])ccc4F)c4ccc([nH]4)c(-c4cc(S(=O)(=O)[O-])ccc4F)c4nc(c(-c5cc(S(=O)(=O)[O-])ccc5F)c5ccc2[nH]5)C=C4)C=C3)cc1
REMARK SMILES IDX 27 1 26 2 25 3 2 4 1 5 3 6 4 7 5 8 6 9 7 10 24 11 8 12 17 13
REMARK SMILES IDX 9 14 10 15 16 16 11 17 14 18 12 19 15 20 13 21 18 22 19 23
REMARK SMILES IDX 23 24 20 25 22 26 21 27 28 28 29 29 30 30 31 31 32 32 33 33
REMARK SMILES IDX 34 34 35 35 96 36 36 37 95 38 37 39 38 40 39 41 89 42 40 43
REMARK SMILES IDX 94 44 88 45 90 46 41 47 93 48 87 49 86 50 42 52 74 53 54 54
REMARK SMILES IDX 73 55 55 56 58 57 72 58 91 59 56 60 57 61 71 63 92 64 59 65
REMARK SMILES IDX 43 66 44 67 52 68 45 69 51 70 53 71 50 72 46 73 47 74 48 75
REMARK SMILES IDX 49 76 75 77 76 78 84 79 77 80 83 81 85 82 82 83 78 84 79 85
REMARK SMILES IDX 80 86 81 87 60 88 61 89 69 90 62 91 68 92 70 93 67 94 63 95
REMARK SMILES IDX 64 96 65 97 66 98
REMARK H PARENT 90 51 58 62
REMARK Flexibility Score: inf
ROOT
ATOM      1  C   UNL     1       2.769   1.322  -0.937  1.00  0.00     0.202 C 
ENDROOT
BRANCH   1   2
ATOM      2  C   UNL     1       3.469   0.339  -1.876  1.00  0.00     0.261 C 
BRANCH   2   3
ATOM      3  O   UNL     1       3.379  -1.067  -1.567  1.00  0.00    -0.463 OA
BRANCH   3   4
ATOM      4  C   UNL     1       2.599  -1.446  -0.534  1.00  0.00     0.305 C 
ATOM      5  O   UNL     1       1.390  -1.258  -0.484  1.00  0.00    -0.252 OA
BRANCH   4   6
ATOM      6  C   UNL     1       3.404  -2.055   0.596  1.00  0.00     0.123 C 
BRANCH   6   7
ATOM      7  C   UNL     1       4.729  -2.717   0.210  1.00  0.00     0.021 C 
BRANCH   7   8
ATOM      8  C   UNL     1       5.887  -1.805  -0.216  1.00  0.00     0.098 C 
BRANCH   8   9
ATOM      9  C   UNL     1       6.436  -0.919   0.847  1.00  0.00     0.195 A 
ATOM     10  N   UNL     1       7.166  -1.275   1.888  1.00  0.00    -0.213 NA
ATOM     11  O   UNL     1       6.356   0.442   0.638  1.00  0.00    -0.440 OA
ATOM     12  C   UNL     1       7.592  -0.077   2.400  1.00  0.00     0.117 A 
ATOM     13  C   UNL     1       7.102   0.975   1.657  1.00  0.00     0.162 A 
BRANCH  12  14
ATOM     14  C   UNL     1       8.575   0.079   3.443  1.00  0.00     0.006 A 
ATOM     15  C   UNL     1       9.912  -0.213   3.160  1.00  0.00     0.012 A 
ATOM     16  C   UNL     1       8.227   0.649   4.671  1.00  0.00     0.032 A 
ATOM     17  C   UNL     1      10.905   0.097   4.088  1.00  0.00     0.023 A 
ATOM     18  C   UNL     1       9.222   0.962   5.601  1.00  0.00     0.060 A 
ATOM     19  C   UNL     1      10.564   0.693   5.306  1.00  0.00     0.059 A 
ATOM     20  Cl  UNL     1       8.728   1.703   7.082  1.00  0.00    -0.083 Cl
ATOM     21  Cl  UNL     1      11.847   1.077   6.398  1.00  0.00    -0.083 Cl
ENDBRANCH  12  14
BRANCH  13  22
ATOM     22  C   UNL     1       7.285   2.413   1.733  1.00  0.00     0.020 A 
ATOM     23  C   UNL     1       6.670   3.132   2.764  1.00  0.00     0.012 A 
ATOM     24  C   UNL     1       8.158   3.088   0.870  1.00  0.00     0.012 A 
ATOM     25  C   UNL     1       6.901   4.502   2.922  1.00  0.00     0.001 A 
ATOM     26  C   UNL     1       8.384   4.462   1.025  1.00  0.00     0.001 A 
ATOM     27  C   UNL     1       7.751   5.168   2.047  1.00  0.00     0.000 A 
ENDBRANCH  13  22
ENDBRANCH   8   9
ENDBRANCH   7   8
ENDBRANCH   6   7
ENDBRANCH   4   6
ENDBRANCH   3   4
ENDBRANCH   2   3
ENDBRANCH   1   2
BRANCH   1  28
ATOM     28  O   UNL     1       3.182   1.138   0.424  1.00  0.00    -0.374 OA
BRANCH  28  29
ATOM     29  C   UNL     1       2.124   1.381   1.361  1.00  0.00     0.202 C 
BRANCH  29  30
ATOM     30  C   UNL     1       1.809   2.855   1.649  1.00  0.00     0.261 C 
BRANCH  30  31
ATOM     31  O   UNL     1       2.255   3.723   0.604  1.00  0.00    -0.460 OA
BRANCH  31  32
ATOM     32  C   UNL     1       3.498   4.224   0.831  1.00  0.00     0.338 C 
ATOM     33  O   UNL     1       4.110   4.180   1.873  1.00  0.00    -0.246 OA
BRANCH  32  34
ATOM     34  C   UNL     1       4.039   4.756  -0.434  1.00  0.00     0.060 A 
ATOM     35  C   UNL     1       5.229   4.225  -0.949  1.00  0.00     0.016 A 
ATOM     36  C   UNL     1       3.375   5.784  -1.096  1.00  0.00     0.016 A 
ATOM     37  C   UNL     1       5.790   4.755  -2.112  1.00  0.00     0.010 A 
ATOM     38  C   UNL     1       3.931   6.309  -2.259  1.00  0.00     0.010 A 
ATOM     39  C   UNL     1       5.151   5.816  -2.760  1.00  0.00    -0.014 A 
BRANCH  39  40
ATOM     40  C   UNL     1       5.761   6.533  -3.903  1.00  0.00     0.031 A 
ATOM     41  C   UNL     1       6.354   7.885  -3.648  1.00  0.00     0.074 A 
ATOM     42  C   UNL     1       5.645   6.054  -5.152  1.00  0.00     0.049 A 
ATOM     43  N   UNL     1       6.599   8.859  -4.481  1.00  0.00    -0.248 NA
ATOM     44  C   UNL     1       6.679   8.181  -2.246  1.00  0.00     0.031 C 
ATOM     45  C   UNL     1       5.139   4.729  -5.502  1.00  0.00     0.029 A 
ATOM     46  N   UNL     1       5.884   6.660  -6.360  1.00  0.00    -0.354 N 
ATOM     47  C   UNL     1       7.066   9.910  -3.700  1.00  0.00     0.074 A 
ATOM     48  C   UNL     1       7.058   9.447  -2.326  1.00  0.00     0.031 C 
ATOM     49  C   UNL     1       5.046   4.641  -6.840  1.00  0.00     0.029 A 
ATOM     50  C   UNL     1       5.419   5.927  -7.427  1.00  0.00     0.049 A 
ATOM     51  H   UNL     1       6.341   7.527  -6.453  1.00  0.00     0.167 HD
ATOM     52  C   UNL     1       7.445  11.150  -4.100  1.00  0.00     0.034 A 
ATOM     53  C   UNL     1       5.238   6.282  -8.715  1.00  0.00     0.034 A 
ATOM     54  C   UNL     1       7.415  11.576  -5.479  1.00  0.00     0.049 A 
ATOM     55  C   UNL     1       5.593   7.684  -9.141  1.00  0.00     0.074 A 
ATOM     56  C   UNL     1       7.785  12.795  -6.019  1.00  0.00     0.029 A 
ATOM     57  N   UNL     1       6.968  10.794  -6.539  1.00  0.00    -0.354 N 
ATOM     58  N   UNL     1       6.017   8.688  -8.405  1.00  0.00    -0.248 NA
ATOM     59  C   UNL     1       5.444   8.004 -10.566  1.00  0.00     0.031 C 
ATOM     60  C   UNL     1       7.495  12.773  -7.388  1.00  0.00     0.029 A 
ATOM     61  C   UNL     1       7.023  11.513  -7.723  1.00  0.00     0.049 A 
ATOM     62  H   UNL     1       6.657   9.863  -6.460  1.00  0.00     0.167 HD
ATOM     63  C   UNL     1       6.214   9.749  -9.284  1.00  0.00     0.074 A 
ATOM     64  C   UNL     1       5.860   9.263 -10.603  1.00  0.00     0.031 C 
ATOM     65  C   UNL     1       6.659  11.007  -9.028  1.00  0.00     0.034 A 
BRANCH  52  66
ATOM     66  C   UNL     1       7.830  12.133  -3.019  1.00  0.00     0.023 A 
ATOM     67  C   UNL     1       8.903  11.891  -2.142  1.00  0.00     0.031 A 
ATOM     68  C   UNL     1       7.058  13.289  -2.802  1.00  0.00     0.131 A 
ATOM     69  C   UNL     1       9.102  12.724  -1.030  1.00  0.00     0.055 A 
ATOM     70  C   UNL     1       7.323  14.168  -1.750  1.00  0.00     0.041 A 
ATOM     71  F   UNL     1       6.006  13.567  -3.588  1.00  0.00    -0.206 F 
ATOM     72  C   UNL     1       8.336  13.876  -0.841  1.00  0.00     0.022 A 
BRANCH  69  73
ATOM     73  S   UNL     1      10.239  12.167   0.271  1.00  0.00     0.124 S 
ATOM     74  O   UNL     1       9.687  10.855   0.604  1.00  0.00    -0.237 OA
ATOM     75  O   UNL     1      11.525  12.162  -0.417  1.00  0.00    -0.237 OA
ATOM     76  O   UNL     1      10.090  13.180   1.313  1.00  0.00    -0.744 OA
ENDBRANCH  69  73
ENDBRANCH  52  66
BRANCH  53  77
ATOM     77  C   UNL     1       4.620   5.317  -9.667  1.00  0.00     0.023 A 
ATOM     78  C   UNL     1       5.360   4.754 -10.716  1.00  0.00     0.031 A 
ATOM     79  C   UNL     1       3.273   4.931  -9.526  1.00  0.00     0.131 A 
ATOM     80  C   UNL     1       4.746   3.847 -11.595  1.00  0.00     0.055 A 
ATOM     81  C   UNL     1       2.679   3.998 -10.377  1.00  0.00     0.041 A 
ATOM     82  F   UNL     1       2.523   5.437  -8.533  1.00  0.00    -0.206 F 
ATOM     83  C   UNL     1       3.416   3.454 -11.424  1.00  0.00     0.022 A 
BRANCH  80  84
ATOM     84  S   UNL     1       5.707   3.205 -12.993  1.00  0.00     0.124 S 
ATOM     85  O   UNL     1       6.005   4.426 -13.734  1.00  0.00    -0.237 OA
ATOM     86  O   UNL     1       6.835   2.571 -12.320  1.00  0.00    -0.237 OA
ATOM     87  O   UNL     1       4.780   2.286 -13.650  1.00  0.00    -0.744 OA
ENDBRANCH  80  84
ENDBRANCH  53  77
BRANCH  65  88
ATOM     88  C   UNL     1       6.851  11.924 -10.210  1.00  0.00     0.023 A 
ATOM     89  C   UNL     1       5.768  12.444 -10.939  1.00  0.00     0.031 A 
ATOM     90  C   UNL     1       8.152  12.299 -10.596  1.00  0.00     0.131 A 
ATOM     91  C   UNL     1       6.008  13.282 -12.039  1.00  0.00     0.055 A 
ATOM     92  C   UNL     1       8.381  13.175 -11.656  1.00  0.00     0.041 A 
ATOM     93  F   UNL     1       9.222  11.828  -9.935  1.00  0.00    -0.206 F 
ATOM     94  C   UNL     1       7.306  13.665 -12.391  1.00  0.00     0.022 A 
BRANCH  91  95
ATOM     95  S   UNL     1       4.602  13.820 -13.053  1.00  0.00     0.124 S 
ATOM     96  O   UNL     1       4.067  12.547 -13.527  1.00  0.00    -0.237 OA
ATOM     97  O   UNL     1       3.777  14.539 -12.088  1.00  0.00    -0.237 OA
ATOM     98  O   UNL     1       5.220  14.654 -14.082  1.00  0.00    -0.744 OA
ENDBRANCH  91  95
ENDBRANCH  65  88
ENDBRANCH  39  40
ENDBRANCH  32  34
ENDBRANCH  31  32
ENDBRANCH  30  31
ENDBRANCH  29  30
ENDBRANCH  28  29
ENDBRANCH   1  28
TORSDOF 22
