REMARK SMILES CC[NH2+][C@@]1(C(=O)OCCOCCOC(=O)c2ccc(-c3c4nc(c(-c5cc(S(=O)(=O)[O-])ccc5F)c5ccc([nH]5)c(-c5cc(S(=O)(=O)[O-])ccc5F)c5nc(c(-c6cc(S(=O)(=O)[O-])ccc6F)c6ccc3[nH]6)C=C5)C=C4)cc2)CCC[C@@H](Sc2ncc(C)cn2)C1
REMARK SMILES IDX 11 1 10 2 9 3 8 4 7 5 5 6 6 7 4 8 79 9 91 10 80 11 82 12
REMARK SMILES IDX 81 13 3 14 2 17 1 18 83 19 84 20 85 21 90 22 86 23 89 24
REMARK SMILES IDX 87 25 88 26 12 27 13 28 14 29 15 30 16 31 17 32 78 33 18 34
REMARK SMILES IDX 77 35 19 36 20 37 21 38 71 39 22 40 76 41 70 42 72 43 23 44
REMARK SMILES IDX 75 45 69 46 68 47 24 49 56 50 36 51 55 52 37 53 40 54 54 55
REMARK SMILES IDX 73 56 38 57 39 58 53 60 74 61 41 62 25 63 26 64 34 65 27 66
REMARK SMILES IDX 33 67 35 68 32 69 28 70 29 71 30 72 31 73 57 74 58 75 66 76
REMARK SMILES IDX 59 77 65 78 67 79 64 80 60 81 61 82 62 83 63 84 42 85 43 86
REMARK SMILES IDX 51 87 44 88 50 89 52 90 49 91 45 92 46 93 47 94 48 95
REMARK H PARENT 3 15 3 16 72 48 40 59
REMARK Flexibility Score: inf
ROOT
ATOM      1  C   UNL     1      -2.435  -2.192  -0.737  1.00  0.00     0.202 C 
ENDROOT
BRANCH   1   2
ATOM      2  O   UNL     1      -2.451  -2.478  -2.134  1.00  0.00    -0.374 OA
BRANCH   2   3
ATOM      3  C   UNL     1      -2.341  -3.847  -2.524  1.00  0.00     0.202 C 
BRANCH   3   4
ATOM      4  C   UNL     1      -0.971  -4.507  -2.348  1.00  0.00     0.261 C 
BRANCH   4   5
ATOM      5  O   UNL     1      -0.522  -4.471  -0.981  1.00  0.00    -0.459 OA
BRANCH   5   6
ATOM      6  C   UNL     1       0.756  -4.053  -0.808  1.00  0.00     0.368 C 
ATOM      7  O   UNL     1       1.549  -3.845  -1.726  1.00  0.00    -0.245 OA
BRANCH   6   8
ATOM      8  C   UNL     1       1.156  -3.839   0.685  1.00  0.00     0.195 C 
ATOM      9  C   UNL     1       2.208  -4.931   0.991  1.00  0.00     0.081 C 
ATOM     10  C   UNL     1       0.053  -3.897   1.770  1.00  0.00     0.096 C 
ATOM     11  C   UNL     1       1.574  -6.322   1.069  1.00  0.00     0.008 C 
ATOM     12  C   UNL     1      -0.521  -5.296   2.050  1.00  0.00     0.061 C 
ATOM     13  C   UNL     1       0.544  -6.386   2.190  1.00  0.00     0.015 C 
BRANCH   8  14
ATOM     14  N   UNL     1       1.853  -2.503   0.785  1.00  0.00    -0.332 N 
ATOM     15  H   UNL     1       2.092  -2.338   1.763  1.00  0.00     0.347 HD
ATOM     16  H   UNL     1       2.677  -2.552   0.185  1.00  0.00     0.347 HD
BRANCH  14  17
ATOM     17  C   UNL     1       1.044  -1.372   0.309  1.00  0.00     0.257 C 
ATOM     18  C   UNL     1       1.765  -0.057   0.560  1.00  0.00     0.071 C 
ENDBRANCH  14  17
ENDBRANCH   8  14
BRANCH  12  19
ATOM     19  S   UNL     1      -1.685  -5.262   3.487  1.00  0.00    -0.083 SA
BRANCH  19  20
ATOM     20  C   UNL     1      -0.558  -5.231   4.860  1.00  0.00     0.187 A 
ATOM     21  N   UNL     1       0.126  -4.099   5.095  1.00  0.00    -0.231 NA
ATOM     22  N   UNL     1      -0.438  -6.357   5.581  1.00  0.00    -0.231 NA
ATOM     23  C   UNL     1       1.002  -4.128   6.118  1.00  0.00     0.119 A 
ATOM     24  C   UNL     1       0.447  -6.330   6.596  1.00  0.00     0.119 A 
ATOM     25  C   UNL     1       1.216  -5.232   6.916  1.00  0.00    -0.014 A 
ATOM     26  C   UNL     1       2.190  -5.244   8.043  1.00  0.00     0.048 C 
ENDBRANCH  19  20
ENDBRANCH  12  19
ENDBRANCH   6   8
ENDBRANCH   5   6
ENDBRANCH   4   5
ENDBRANCH   3   4
ENDBRANCH   2   3
ENDBRANCH   1   2
BRANCH   1  27
ATOM     27  C   UNL     1      -3.667  -2.583   0.091  1.00  0.00     0.261 C 
BRANCH  27  28
ATOM     28  O   UNL     1      -3.895  -4.002   0.118  1.00  0.00    -0.460 OA
BRANCH  28  29
ATOM     29  C   UNL     1      -5.035  -4.398  -0.498  1.00  0.00     0.338 C 
ATOM     30  O   UNL     1      -5.885  -3.673  -1.005  1.00  0.00    -0.246 OA
BRANCH  29  31
ATOM     31  C   UNL     1      -5.043  -5.860  -0.677  1.00  0.00     0.060 A 
ATOM     32  C   UNL     1      -5.221  -6.346  -1.980  1.00  0.00     0.016 A 
ATOM     33  C   UNL     1      -4.969  -6.738   0.406  1.00  0.00     0.016 A 
ATOM     34  C   UNL     1      -5.384  -7.710  -2.199  1.00  0.00     0.010 A 
ATOM     35  C   UNL     1      -5.150  -8.109   0.185  1.00  0.00     0.010 A 
ATOM     36  C   UNL     1      -5.398  -8.594  -1.113  1.00  0.00    -0.014 A 
BRANCH  36  37
ATOM     37  C   UNL     1      -5.863  -9.986  -1.329  1.00  0.00     0.031 A 
ATOM     38  C   UNL     1      -7.310 -10.308  -1.070  1.00  0.00     0.074 A 
ATOM     39  C   UNL     1      -5.029 -10.928  -1.802  1.00  0.00     0.049 A 
ATOM     40  N   UNL     1      -7.944 -11.446  -1.186  1.00  0.00    -0.248 NA
ATOM     41  C   UNL     1      -8.156  -9.190  -0.623  1.00  0.00     0.031 C 
ATOM     42  C   UNL     1      -3.623 -10.714  -2.143  1.00  0.00     0.029 A 
ATOM     43  N   UNL     1      -5.245 -12.254  -2.080  1.00  0.00    -0.354 N 
ATOM     44  C   UNL     1      -9.262 -11.183  -0.829  1.00  0.00     0.074 A 
ATOM     45  C   UNL     1      -9.326  -9.786  -0.457  1.00  0.00     0.031 C 
ATOM     46  C   UNL     1      -3.099 -11.874  -2.575  1.00  0.00     0.029 A 
ATOM     47  C   UNL     1      -4.121 -12.918  -2.511  1.00  0.00     0.049 A 
ATOM     48  H   UNL     1      -6.122 -12.689  -1.981  1.00  0.00     0.167 HD
ATOM     49  C   UNL     1     -10.323 -12.028  -0.821  1.00  0.00     0.034 A 
ATOM     50  C   UNL     1      -3.936 -14.223  -2.797  1.00  0.00     0.034 A 
ATOM     51  C   UNL     1     -10.236 -13.424  -1.173  1.00  0.00     0.049 A 
ATOM     52  C   UNL     1      -5.109 -15.167  -2.686  1.00  0.00     0.074 A 
ATOM     53  C   UNL     1     -11.243 -14.374  -1.197  1.00  0.00     0.029 A 
ATOM     54  N   UNL     1      -9.068 -14.076  -1.548  1.00  0.00    -0.354 N 
ATOM     55  N   UNL     1      -6.352 -14.907  -2.348  1.00  0.00    -0.248 NA
ATOM     56  C   UNL     1      -4.856 -16.579  -3.003  1.00  0.00     0.031 C 
ATOM     57  C   UNL     1     -10.671 -15.610  -1.520  1.00  0.00     0.029 A 
ATOM     58  C   UNL     1      -9.322 -15.420  -1.773  1.00  0.00     0.049 A 
ATOM     59  H   UNL     1      -8.187 -13.645  -1.641  1.00  0.00     0.167 HD
ATOM     60  C   UNL     1      -7.033 -16.118  -2.441  1.00  0.00     0.074 A 
ATOM     61  C   UNL     1      -6.065 -17.105  -2.877  1.00  0.00     0.031 C 
ATOM     62  C   UNL     1      -8.340 -16.392  -2.194  1.00  0.00     0.034 A 
BRANCH  49  63
ATOM     63  C   UNL     1     -11.647 -11.467  -0.358  1.00  0.00     0.023 A 
ATOM     64  C   UNL     1     -12.315 -10.457  -1.075  1.00  0.00     0.031 A 
ATOM     65  C   UNL     1     -12.227 -11.918   0.840  1.00  0.00     0.131 A 
ATOM     66  C   UNL     1     -13.483  -9.883  -0.550  1.00  0.00     0.055 A 
ATOM     67  C   UNL     1     -13.430 -11.395   1.319  1.00  0.00     0.041 A 
ATOM     68  F   UNL     1     -11.623 -12.862   1.579  1.00  0.00    -0.206 F 
ATOM     69  C   UNL     1     -14.058 -10.361   0.630  1.00  0.00     0.022 A 
BRANCH  66  70
ATOM     70  S   UNL     1     -14.165  -8.408  -1.357  1.00  0.00     0.124 S 
ATOM     71  O   UNL     1     -13.040  -7.480  -1.277  1.00  0.00    -0.237 OA
ATOM     72  O   UNL     1     -14.494  -8.902  -2.690  1.00  0.00    -0.237 OA
ATOM     73  O   UNL     1     -15.312  -8.059  -0.521  1.00  0.00    -0.744 OA
ENDBRANCH  66  70
ENDBRANCH  49  63
BRANCH  50  74
ATOM     74  C   UNL     1      -2.584 -14.730  -3.170  1.00  0.00     0.023 A 
ATOM     75  C   UNL     1      -2.336 -15.283  -4.436  1.00  0.00     0.031 A 
ATOM     76  C   UNL     1      -1.530 -14.714  -2.239  1.00  0.00     0.131 A 
ATOM     77  C   UNL     1      -1.077 -15.836  -4.722  1.00  0.00     0.055 A 
ATOM     78  C   UNL     1      -0.266 -15.220  -2.545  1.00  0.00     0.041 A 
ATOM     79  F   UNL     1      -1.715 -14.198  -1.013  1.00  0.00    -0.206 F 
ATOM     80  C   UNL     1      -0.037 -15.797  -3.790  1.00  0.00     0.022 A 
BRANCH  77  81
ATOM     81  S   UNL     1      -0.837 -16.679  -6.310  1.00  0.00     0.124 S 
ATOM     82  O   UNL     1      -1.859 -17.718  -6.253  1.00  0.00    -0.237 OA
ATOM     83  O   UNL     1      -1.070 -15.600  -7.264  1.00  0.00    -0.237 OA
ATOM     84  O   UNL     1       0.543 -17.156  -6.237  1.00  0.00    -0.744 OA
ENDBRANCH  77  81
ENDBRANCH  50  74
BRANCH  62  85
ATOM     85  C   UNL     1      -8.800 -17.809  -2.437  1.00  0.00     0.023 A 
ATOM     86  C   UNL     1      -8.365 -18.877  -1.634  1.00  0.00     0.031 A 
ATOM     87  C   UNL     1      -9.683 -18.092  -3.494  1.00  0.00     0.131 A 
ATOM     88  C   UNL     1      -8.770 -20.187  -1.934  1.00  0.00     0.055 A 
ATOM     89  C   UNL     1     -10.128 -19.389  -3.753  1.00  0.00     0.041 A 
ATOM     90  F   UNL     1     -10.130 -17.110  -4.293  1.00  0.00    -0.206 F 
ATOM     91  C   UNL     1      -9.662 -20.447  -2.978  1.00  0.00     0.022 A 
BRANCH  88  92
ATOM     92  S   UNL     1      -8.049 -21.560  -0.994  1.00  0.00     0.124 S 
ATOM     93  O   UNL     1      -6.623 -21.391  -1.255  1.00  0.00    -0.237 OA
ATOM     94  O   UNL     1      -8.486 -21.271   0.368  1.00  0.00    -0.237 OA
ATOM     95  O   UNL     1      -8.654 -22.746  -1.599  1.00  0.00    -0.744 OA
ENDBRANCH  88  92
ENDBRANCH  62  85
ENDBRANCH  36  37
ENDBRANCH  29  31
ENDBRANCH  28  29
ENDBRANCH  27  28
ENDBRANCH   1  27
TORSDOF 21
