REMARK SMILES O=C(OCCOCCOC(=O)[C@@H](F)Sc1ccccc1O)c1ccc(-c2c3nc(c(-c4cc(S(=O)(=O)[O-])ccc4F)c4ccc([nH]4)c(-c4cc(S(=O)(=O)[O-])ccc4F)c4nc(c(-c5cc(S(=O)(=O)[O-])ccc5F)c5ccc2[nH]5)C=C4)C=C3)cc1
REMARK SMILES IDX 6 1 5 2 4 3 3 4 2 5 1 6 22 7 23 8 84 9 24 10 83 11 25 12
REMARK SMILES IDX 26 13 27 14 77 15 28 16 82 17 76 18 78 19 29 20 81 21 75 22
REMARK SMILES IDX 74 23 30 25 62 26 42 27 61 28 43 29 46 30 60 31 79 32 44 33
REMARK SMILES IDX 45 34 59 36 80 37 47 38 31 39 32 40 40 41 33 42 39 43 41 44
REMARK SMILES IDX 38 45 34 46 35 47 36 48 37 49 63 50 64 51 72 52 65 53 71 54
REMARK SMILES IDX 73 55 70 56 66 57 67 58 68 59 69 60 48 61 49 62 57 63 50 64
REMARK SMILES IDX 56 65 58 66 55 67 51 68 52 69 53 70 54 71 7 72 8 73 9 74
REMARK SMILES IDX 10 75 11 76 12 77 13 78 14 79 15 80 16 81 20 82 17 83 19 84
REMARK SMILES IDX 18 85 21 86
REMARK H PARENT 78 24 46 35 21 87
REMARK Flexibility Score: inf
ROOT
ATOM      1  O   UNL     1       4.264   0.873  -1.309  1.00  0.00    -0.374 OA
ENDROOT
BRANCH   1   2
ATOM      2  C   UNL     1       4.529  -0.532  -1.385  1.00  0.00     0.202 C 
BRANCH   2   3
ATOM      3  C   UNL     1       4.214  -1.344  -0.117  1.00  0.00     0.261 C 
BRANCH   3   4
ATOM      4  O   UNL     1       2.826  -1.231   0.254  1.00  0.00    -0.460 OA
BRANCH   4   5
ATOM      5  C   UNL     1       2.243  -0.382   1.134  1.00  0.00     0.338 C 
ATOM      6  O   UNL     1       1.025  -0.461   1.295  1.00  0.00    -0.246 OA
BRANCH   5   7
ATOM      7  C   UNL     1       2.982   0.673   1.897  1.00  0.00     0.060 A 
ATOM      8  C   UNL     1       4.253   1.146   1.578  1.00  0.00     0.016 A 
ATOM      9  C   UNL     1       2.317   1.278   2.980  1.00  0.00     0.016 A 
ATOM     10  C   UNL     1       4.872   2.138   2.307  1.00  0.00     0.010 A 
ATOM     11  C   UNL     1       2.929   2.293   3.726  1.00  0.00     0.010 A 
ATOM     12  C   UNL     1       4.224   2.701   3.396  1.00  0.00    -0.014 A 
BRANCH  12  13
ATOM     13  C   UNL     1       5.067   3.539   4.258  1.00  0.00     0.031 A 
ATOM     14  C   UNL     1       5.684   2.883   5.454  1.00  0.00     0.074 A 
ATOM     15  C   UNL     1       5.465   4.743   3.809  1.00  0.00     0.049 A 
ATOM     16  N   UNL     1       6.534   3.362   6.317  1.00  0.00    -0.248 NA
ATOM     17  C   UNL     1       5.311   1.476   5.689  1.00  0.00     0.031 C 
ATOM     18  C   UNL     1       5.043   5.347   2.540  1.00  0.00     0.029 A 
ATOM     19  N   UNL     1       6.356   5.641   4.325  1.00  0.00    -0.354 N 
ATOM     20  C   UNL     1       6.778   2.326   7.213  1.00  0.00     0.074 A 
ATOM     21  C   UNL     1       5.982   1.197   6.793  1.00  0.00     0.031 C 
ATOM     22  C   UNL     1       5.702   6.504   2.366  1.00  0.00     0.029 A 
ATOM     23  C   UNL     1       6.530   6.756   3.539  1.00  0.00     0.049 A 
ATOM     24  H   UNL     1       6.829   5.502   5.177  1.00  0.00     0.167 HD
ATOM     25  C   UNL     1       7.592   2.338   8.294  1.00  0.00     0.034 A 
ATOM     26  C   UNL     1       7.258   7.864   3.774  1.00  0.00     0.034 A 
ATOM     27  C   UNL     1       8.352   3.502   8.672  1.00  0.00     0.049 A 
ATOM     28  C   UNL     1       8.046   7.905   5.060  1.00  0.00     0.074 A 
ATOM     29  C   UNL     1       9.140   3.699   9.788  1.00  0.00     0.029 A 
ATOM     30  N   UNL     1       8.405   4.679   7.929  1.00  0.00    -0.354 N 
ATOM     31  N   UNL     1       8.192   6.965   5.970  1.00  0.00    -0.248 NA
ATOM     32  C   UNL     1       8.762   9.148   5.356  1.00  0.00     0.031 C 
ATOM     33  C   UNL     1       9.605   5.019   9.760  1.00  0.00     0.029 A 
ATOM     34  C   UNL     1       9.188   5.617   8.578  1.00  0.00     0.049 A 
ATOM     35  H   UNL     1       7.952   4.823   7.067  1.00  0.00     0.167 HD
ATOM     36  C   UNL     1       9.046   7.494   6.931  1.00  0.00     0.074 A 
ATOM     37  C   UNL     1       9.393   8.828   6.475  1.00  0.00     0.031 C 
ATOM     38  C   UNL     1       9.506   6.939   8.083  1.00  0.00     0.034 A 
BRANCH  25  39
ATOM     39  C   UNL     1       7.569   1.114   9.176  1.00  0.00     0.023 A 
ATOM     40  C   UNL     1       7.991  -0.150   8.723  1.00  0.00     0.031 A 
ATOM     41  C   UNL     1       7.000   1.194  10.459  1.00  0.00     0.131 A 
ATOM     42  C   UNL     1       7.752  -1.290   9.509  1.00  0.00     0.055 A 
ATOM     43  C   UNL     1       6.847   0.070  11.272  1.00  0.00     0.041 A 
ATOM     44  F   UNL     1       6.542   2.365  10.931  1.00  0.00    -0.206 F 
ATOM     45  C   UNL     1       7.207  -1.185  10.790  1.00  0.00     0.022 A 
BRANCH  42  46
ATOM     46  S   UNL     1       7.990  -2.928   8.762  1.00  0.00     0.124 S 
ATOM     47  O   UNL     1       7.064  -2.875   7.633  1.00  0.00    -0.237 OA
ATOM     48  O   UNL     1       9.409  -2.919   8.425  1.00  0.00    -0.237 OA
ATOM     49  O   UNL     1       7.608  -3.851   9.829  1.00  0.00    -0.744 OA
ENDBRANCH  42  46
ENDBRANCH  25  39
BRANCH  26  50
ATOM     50  C   UNL     1       7.219   9.027   2.838  1.00  0.00     0.023 A 
ATOM     51  C   UNL     1       8.387   9.541   2.253  1.00  0.00     0.031 A 
ATOM     52  C   UNL     1       6.006   9.690   2.564  1.00  0.00     0.131 A 
ATOM     53  C   UNL     1       8.325  10.707   1.470  1.00  0.00     0.055 A 
ATOM     54  C   UNL     1       5.941  10.811   1.735  1.00  0.00     0.041 A 
ATOM     55  F   UNL     1       4.855   9.255   3.101  1.00  0.00    -0.206 F 
ATOM     56  C   UNL     1       7.109  11.336   1.195  1.00  0.00     0.022 A 
BRANCH  53  57
ATOM     57  S   UNL     1       9.877  11.459   0.903  1.00  0.00     0.124 S 
ATOM     58  O   UNL     1      10.585  11.663   2.161  1.00  0.00    -0.237 OA
ATOM     59  O   UNL     1      10.411  10.423   0.025  1.00  0.00    -0.237 OA
ATOM     60  O   UNL     1       9.437  12.679   0.229  1.00  0.00    -0.744 OA
ENDBRANCH  53  57
ENDBRANCH  26  50
BRANCH  38  61
ATOM     61  C   UNL     1      10.482   7.762   8.883  1.00  0.00     0.023 A 
ATOM     62  C   UNL     1      10.108   8.973   9.489  1.00  0.00     0.031 A 
ATOM     63  C   UNL     1      11.812   7.329   9.024  1.00  0.00     0.131 A 
ATOM     64  C   UNL     1      11.074   9.746  10.147  1.00  0.00     0.055 A 
ATOM     65  C   UNL     1      12.749   8.065   9.747  1.00  0.00     0.041 A 
ATOM     66  F   UNL     1      12.221   6.180   8.462  1.00  0.00    -0.206 F 
ATOM     67  C   UNL     1      12.386   9.290  10.298  1.00  0.00     0.022 A 
BRANCH  64  68
ATOM     68  S   UNL     1      10.621  11.415  10.691  1.00  0.00     0.124 S 
ATOM     69  O   UNL     1      10.166  12.025   9.446  1.00  0.00    -0.237 OA
ATOM     70  O   UNL     1       9.586  11.148  11.685  1.00  0.00    -0.237 OA
ATOM     71  O   UNL     1      11.871  11.951  11.225  1.00  0.00    -0.744 OA
ENDBRANCH  64  68
ENDBRANCH  38  61
ENDBRANCH  12  13
ENDBRANCH   5   7
ENDBRANCH   4   5
ENDBRANCH   3   4
ENDBRANCH   2   3
ENDBRANCH   1   2
BRANCH   1  72
ATOM     72  C   UNL     1       2.906   1.264  -1.548  1.00  0.00     0.202 C 
BRANCH  72  73
ATOM     73  C   UNL     1       2.793   1.929  -2.909  1.00  0.00     0.261 C 
BRANCH  73  74
ATOM     74  O   UNL     1       3.142   0.927  -3.870  1.00  0.00    -0.460 OA
BRANCH  74  75
ATOM     75  C   UNL     1       4.373   1.012  -4.446  1.00  0.00     0.351 C 
ATOM     76  O   UNL     1       5.100   2.001  -4.414  1.00  0.00    -0.248 OA
BRANCH  75  77
ATOM     77  C   UNL     1       4.723  -0.291  -5.149  1.00  0.00     0.338 C 
ATOM     78  F   UNL     1       4.354  -1.394  -4.427  1.00  0.00    -0.222 F 
BRANCH  77  79
ATOM     79  S   UNL     1       3.976  -0.357  -6.814  1.00  0.00    -0.073 SA
BRANCH  79  80
ATOM     80  C   UNL     1       2.248  -0.418  -6.347  1.00  0.00     0.052 A 
ATOM     81  C   UNL     1       1.518   0.779  -6.349  1.00  0.00     0.019 A 
ATOM     82  C   UNL     1       1.622  -1.592  -5.904  1.00  0.00     0.129 A 
ATOM     83  C   UNL     1       0.204   0.808  -5.875  1.00  0.00     0.001 A 
ATOM     84  C   UNL     1       0.301  -1.568  -5.452  1.00  0.00     0.047 A 
ATOM     85  C   UNL     1      -0.402  -0.364  -5.428  1.00  0.00     0.004 A 
BRANCH  82  86
ATOM     86  O   UNL     1       2.310  -2.775  -5.903  1.00  0.00    -0.507 OA
ATOM     87  H   UNL     1       3.197  -2.801  -6.205  1.00  0.00     0.293 HD
ENDBRANCH  82  86
ENDBRANCH  79  80
ENDBRANCH  77  79
ENDBRANCH  75  77
ENDBRANCH  74  75
ENDBRANCH  73  74
ENDBRANCH  72  73
ENDBRANCH   1  72
TORSDOF 20
