REMARK SMILES CSc1ccc(/C=C2\C(C)=C(CC(=O)OCCOCCOC(=O)c3ccc(-c4c5nc(c(-c6cc(S(=O)(=O)[O-])ccc6F)c6ccc([nH]6)c(-c6cc(S(=O)(=O)[O-])ccc6F)c6nc(c(-c7cc(S(=O)(=O)[O-])ccc7F)c7ccc4[nH]7)C=C6)C=C5)cc3)c3cc(F)ccc32)cc1
REMARK SMILES IDX 18 1 17 2 16 3 15 4 13 5 14 6 12 7 11 8 7 9 8 10 9 11 93 12
REMARK SMILES IDX 10 13 87 14 92 15 88 16 91 17 89 18 90 19 6 20 3 21 4 22
REMARK SMILES IDX 95 23 5 24 94 25 2 26 1 27 19 28 20 29 21 30 22 31 23 32
REMARK SMILES IDX 24 33 25 34 86 35 26 36 85 37 27 38 28 39 29 40 79 41 30 42
REMARK SMILES IDX 84 43 78 44 80 45 31 46 83 47 77 48 76 49 32 51 64 52 44 53
REMARK SMILES IDX 63 54 45 55 48 56 62 57 81 58 46 59 47 60 61 62 82 63 49 64
REMARK SMILES IDX 33 65 34 66 42 67 35 68 41 69 43 70 40 71 36 72 37 73 38 74
REMARK SMILES IDX 39 75 65 76 66 77 74 78 67 79 73 80 75 81 72 82 68 83 69 84
REMARK SMILES IDX 70 85 71 86 50 87 51 88 59 89 52 90 58 91 60 92 57 93 53 94
REMARK SMILES IDX 54 95 55 96 56 97
REMARK H PARENT 80 50 48 61
REMARK Flexibility Score: inf
ROOT
ATOM      1  O   UNL     1      -2.363 -12.156   1.719  1.00  0.00    -0.374 OA
ENDROOT
BRANCH   1   2
ATOM      2  C   UNL     1      -2.949 -11.554   2.873  1.00  0.00     0.202 C 
BRANCH   2   3
ATOM      3  C   UNL     1      -1.965 -10.936   3.865  1.00  0.00     0.261 C 
BRANCH   3   4
ATOM      4  O   UNL     1      -1.273  -9.808   3.309  1.00  0.00    -0.463 OA
BRANCH   4   5
ATOM      5  C   UNL     1       0.051  -9.992   3.078  1.00  0.00     0.310 C 
ATOM      6  O   UNL     1       0.675 -11.023   3.312  1.00  0.00    -0.252 OA
BRANCH   5   7
ATOM      7  C   UNL     1       0.733  -8.761   2.528  1.00  0.00     0.159 C 
BRANCH   7   8
ATOM      8  C   UNL     1      -0.130  -7.819   1.679  1.00  0.00    -0.025 C 
ATOM      9  C   UNL     1       2.118  -5.269   1.931  1.00  0.00     0.017 C 
ATOM     10  C   UNL     1       1.234  -6.094   1.337  1.00  0.00    -0.014 C 
ATOM     11  C   UNL     1      -0.113  -6.467   1.862  1.00  0.00    -0.039 C 
ATOM     12  C   UNL     1       1.336  -6.896   0.072  1.00  0.00    -0.010 A 
ATOM     13  C   UNL     1      -1.195  -5.595   1.179  1.00  0.00     0.045 C 
ATOM     14  C   UNL     1       0.313  -7.857   0.257  1.00  0.00    -0.011 A 
ATOM     15  C   UNL     1       1.595  -6.407  -1.207  1.00  0.00     0.012 A 
ATOM     16  C   UNL     1      -0.536  -8.219  -0.777  1.00  0.00     0.048 A 
ATOM     17  C   UNL     1       0.749  -6.807  -2.260  1.00  0.00     0.040 A 
ATOM     18  C   UNL     1      -0.323  -7.673  -2.028  1.00  0.00     0.123 A 
ATOM     19  F   UNL     1      -1.249  -7.859  -2.979  1.00  0.00    -0.207 F 
BRANCH   9  20
ATOM     20  C   UNL     1       1.795  -4.133   2.860  1.00  0.00    -0.025 A 
ATOM     21  C   UNL     1       1.362  -1.377   2.782  1.00  0.00     0.007 A 
ATOM     22  C   UNL     1       0.284  -2.244   2.732  1.00  0.00     0.015 A 
ATOM     23  C   UNL     1       2.602  -1.874   3.186  1.00  0.00     0.015 A 
ATOM     24  C   UNL     1       0.503  -3.607   2.896  1.00  0.00     0.009 A 
ATOM     25  C   UNL     1       2.827  -3.259   3.210  1.00  0.00     0.009 A 
BRANCH  21  26
ATOM     26  S   UNL     1       1.168   0.302   2.230  1.00  0.00    -0.130 SA
ATOM     27  C   UNL     1       1.218  -0.002   0.431  1.00  0.00     0.091 C 
ENDBRANCH  21  26
ENDBRANCH   9  20
ENDBRANCH   7   8
ENDBRANCH   5   7
ENDBRANCH   4   5
ENDBRANCH   3   4
ENDBRANCH   2   3
ENDBRANCH   1   2
BRANCH   1  28
ATOM     28  C   UNL     1      -2.013 -11.287   0.638  1.00  0.00     0.202 C 
BRANCH  28  29
ATOM     29  C   UNL     1      -3.191 -10.528   0.017  1.00  0.00     0.261 C 
BRANCH  29  30
ATOM     30  O   UNL     1      -3.531  -9.397   0.850  1.00  0.00    -0.460 OA
BRANCH  30  31
ATOM     31  C   UNL     1      -4.851  -9.087   0.824  1.00  0.00     0.338 C 
ATOM     32  O   UNL     1      -5.669  -9.489   0.018  1.00  0.00    -0.246 OA
BRANCH  31  33
ATOM     33  C   UNL     1      -5.236  -8.376   2.060  1.00  0.00     0.060 A 
ATOM     34  C   UNL     1      -5.941  -9.114   3.015  1.00  0.00     0.016 A 
ATOM     35  C   UNL     1      -5.075  -6.997   2.211  1.00  0.00     0.016 A 
ATOM     36  C   UNL     1      -6.558  -8.464   4.082  1.00  0.00     0.010 A 
ATOM     37  C   UNL     1      -5.688  -6.347   3.297  1.00  0.00     0.010 A 
ATOM     38  C   UNL     1      -6.479  -7.069   4.212  1.00  0.00    -0.014 A 
BRANCH  38  39
ATOM     39  C   UNL     1      -7.343  -6.406   5.235  1.00  0.00     0.031 A 
ATOM     40  C   UNL     1      -8.576  -5.647   4.805  1.00  0.00     0.074 A 
ATOM     41  C   UNL     1      -7.108  -6.597   6.549  1.00  0.00     0.049 A 
ATOM     42  N   UNL     1      -9.512  -5.100   5.541  1.00  0.00    -0.248 NA
ATOM     43  C   UNL     1      -8.788  -5.491   3.359  1.00  0.00     0.031 C 
ATOM     44  C   UNL     1      -5.981  -7.351   7.098  1.00  0.00     0.029 A 
ATOM     45  N   UNL     1      -7.816  -6.202   7.658  1.00  0.00    -0.354 N 
ATOM     46  C   UNL     1     -10.428  -4.545   4.651  1.00  0.00     0.074 A 
ATOM     47  C   UNL     1      -9.905  -4.779   3.321  1.00  0.00     0.031 C 
ATOM     48  C   UNL     1      -6.092  -7.392   8.436  1.00  0.00     0.029 A 
ATOM     49  C   UNL     1      -7.267  -6.627   8.848  1.00  0.00     0.049 A 
ATOM     50  H   UNL     1      -8.640  -5.666   7.608  1.00  0.00     0.167 HD
ATOM     51  C   UNL     1     -11.602  -3.916   4.914  1.00  0.00     0.034 A 
ATOM     52  C   UNL     1      -7.653  -6.414  10.123  1.00  0.00     0.034 A 
ATOM     53  C   UNL     1     -12.116  -3.680   6.243  1.00  0.00     0.049 A 
ATOM     54  C   UNL     1      -8.911  -5.619  10.388  1.00  0.00     0.074 A 
ATOM     55  C   UNL     1     -13.298  -3.056   6.610  1.00  0.00     0.029 A 
ATOM     56  N   UNL     1     -11.483  -4.043   7.424  1.00  0.00    -0.354 N 
ATOM     57  N   UNL     1      -9.768  -5.113   9.531  1.00  0.00    -0.248 NA
ATOM     58  C   UNL     1      -9.260  -5.380  11.795  1.00  0.00     0.031 C 
ATOM     59  C   UNL     1     -13.335  -2.963   8.004  1.00  0.00     0.029 A 
ATOM     60  C   UNL     1     -12.228  -3.619   8.516  1.00  0.00     0.049 A 
ATOM     61  H   UNL     1     -10.629  -4.530   7.479  1.00  0.00     0.167 HD
ATOM     62  C   UNL     1     -10.773  -4.529  10.301  1.00  0.00     0.074 A 
ATOM     63  C   UNL     1     -10.430  -4.771  11.685  1.00  0.00     0.031 C 
ATOM     64  C   UNL     1     -11.880  -3.853   9.898  1.00  0.00     0.034 A 
BRANCH  51  65
ATOM     65  C   UNL     1     -12.400  -3.396   3.739  1.00  0.00     0.023 A 
ATOM     66  C   UNL     1     -12.958  -4.258   2.779  1.00  0.00     0.031 A 
ATOM     67  C   UNL     1     -12.621  -2.014   3.588  1.00  0.00     0.131 A 
ATOM     68  C   UNL     1     -13.660  -3.727   1.685  1.00  0.00     0.055 A 
ATOM     69  C   UNL     1     -13.389  -1.499   2.542  1.00  0.00     0.041 A 
ATOM     70  F   UNL     1     -12.095  -1.139   4.459  1.00  0.00    -0.206 F 
ATOM     71  C   UNL     1     -13.904  -2.356   1.575  1.00  0.00     0.022 A 
BRANCH  68  72
ATOM     72  S   UNL     1     -14.135  -4.841   0.334  1.00  0.00     0.124 S 
ATOM     73  O   UNL     1     -12.841  -5.385  -0.069  1.00  0.00    -0.237 OA
ATOM     74  O   UNL     1     -15.042  -5.771   0.997  1.00  0.00    -0.237 OA
ATOM     75  O   UNL     1     -14.759  -3.950  -0.642  1.00  0.00    -0.744 OA
ENDBRANCH  68  72
ENDBRANCH  51  65
BRANCH  52  76
ATOM     76  C   UNL     1      -6.827  -6.914  11.265  1.00  0.00     0.023 A 
ATOM     77  C   UNL     1      -7.363  -7.778  12.233  1.00  0.00     0.031 A 
ATOM     78  C   UNL     1      -5.512  -6.450  11.457  1.00  0.00     0.131 A 
ATOM     79  C   UNL     1      -6.617  -8.093  13.380  1.00  0.00     0.055 A 
ATOM     80  C   UNL     1      -4.747  -6.829  12.561  1.00  0.00     0.041 A 
ATOM     81  F   UNL     1      -4.950  -5.611  10.572  1.00  0.00    -0.206 F 
ATOM     82  C   UNL     1      -5.307  -7.640  13.542  1.00  0.00     0.022 A 
BRANCH  79  83
ATOM     83  S   UNL     1      -7.437  -8.989  14.730  1.00  0.00     0.124 S 
ATOM     84  O   UNL     1      -8.572  -8.119  15.013  1.00  0.00    -0.237 OA
ATOM     85  O   UNL     1      -7.748 -10.267  14.099  1.00  0.00    -0.237 OA
ATOM     86  O   UNL     1      -6.414  -9.042  15.772  1.00  0.00    -0.744 OA
ENDBRANCH  79  83
ENDBRANCH  52  76
BRANCH  64  87
ATOM     87  C   UNL     1     -12.829  -3.373  10.976  1.00  0.00     0.023 A 
ATOM     88  C   UNL     1     -12.435  -2.437  11.949  1.00  0.00     0.031 A 
ATOM     89  C   UNL     1     -14.136  -3.888  11.052  1.00  0.00     0.131 A 
ATOM     90  C   UNL     1     -13.307  -2.109  12.999  1.00  0.00     0.055 A 
ATOM     91  C   UNL     1     -15.027  -3.495  12.052  1.00  0.00     0.041 A 
ATOM     92  F   UNL     1     -14.570  -4.789  10.156  1.00  0.00    -0.206 F 
ATOM     93  C   UNL     1     -14.608  -2.615  13.045  1.00  0.00     0.022 A 
BRANCH  90  94
ATOM     94  S   UNL     1     -12.670  -1.118  14.379  1.00  0.00     0.124 S 
ATOM     95  O   UNL     1     -11.533  -1.916  14.825  1.00  0.00    -0.237 OA
ATOM     96  O   UNL     1     -12.346   0.148  13.731  1.00  0.00    -0.237 OA
ATOM     97  O   UNL     1     -13.795  -1.066  15.312  1.00  0.00    -0.744 OA
ENDBRANCH  90  94
ENDBRANCH  64  87
ENDBRANCH  38  39
ENDBRANCH  31  33
ENDBRANCH  30  31
ENDBRANCH  29  30
ENDBRANCH  28  29
ENDBRANCH   1  28
TORSDOF 20
