REMARK SMILES [NH3+][C@]1(C(=O)OCCOCCOC(=O)c2ccc(-c3c4nc(c(-c5cc(S(=O)(=O)[O-])ccc5F)c5ccc([nH]5)c(-c5cc(S(=O)(=O)[O-])ccc5F)c5nc(c(-c6cc(S(=O)(=O)[O-])ccc6F)c6ccc3[nH]6)C=C5)C=C4)cc2)CC[C@@H](Sc2ccc(Cl)c(Cl)c2)C1
REMARK SMILES IDX 9 1 8 2 7 3 6 4 5 5 3 6 4 7 2 8 77 9 89 10 78 11 79 12 1 13
REMARK SMILES IDX 80 17 81 18 82 19 88 20 83 21 86 22 84 23 87 24 85 25 10 26
REMARK SMILES IDX 11 27 12 28 13 29 14 30 15 31 76 32 16 33 75 34 17 35 18 36
REMARK SMILES IDX 19 37 69 38 20 39 74 40 68 41 70 42 21 43 73 44 67 45 66 46
REMARK SMILES IDX 22 48 54 49 34 50 53 51 35 52 38 53 52 54 71 55 36 56 37 57
REMARK SMILES IDX 51 59 72 60 39 61 23 62 24 63 32 64 25 65 31 66 33 67 30 68
REMARK SMILES IDX 26 69 27 70 28 71 29 72 55 73 56 74 64 75 57 76 63 77 65 78
REMARK SMILES IDX 62 79 58 80 59 81 60 82 61 83 40 84 41 85 49 86 42 87 48 88
REMARK SMILES IDX 50 89 47 90 43 91 44 92 45 93 46 94
REMARK H PARENT 1 14 1 15 1 16 70 47 38 58
REMARK Flexibility Score: inf
ROOT
ATOM      1  C   UNL     1      -0.703  -1.921  -0.444  1.00  0.00     0.202 C 
ENDROOT
BRANCH   1   2
ATOM      2  O   UNL     1       0.061  -2.327  -1.577  1.00  0.00    -0.374 OA
BRANCH   2   3
ATOM      3  C   UNL     1       1.482  -2.343  -1.407  1.00  0.00     0.202 C 
BRANCH   3   4
ATOM      4  C   UNL     1       2.181  -0.980  -1.456  1.00  0.00     0.261 C 
BRANCH   4   5
ATOM      5  O   UNL     1       1.903  -0.194  -0.279  1.00  0.00    -0.459 OA
BRANCH   5   6
ATOM      6  C   UNL     1       1.127   0.910  -0.462  1.00  0.00     0.368 C 
ATOM      7  O   UNL     1       0.700   1.295  -1.546  1.00  0.00    -0.245 OA
BRANCH   6   8
ATOM      8  C   UNL     1       0.730   1.579   0.879  1.00  0.00     0.193 C 
ATOM      9  C   UNL     1       1.801   1.460   1.973  1.00  0.00     0.082 C 
ATOM     10  C   UNL     1       0.535   3.098   0.656  1.00  0.00     0.095 C 
ATOM     11  C   UNL     1       1.696   2.751   2.774  1.00  0.00     0.022 C 
ATOM     12  C   UNL     1       1.316   3.818   1.754  1.00  0.00     0.059 C 
BRANCH   8  13
ATOM     13  N   UNL     1      -0.547   0.996   1.367  1.00  0.00    -0.343 N 
ATOM     14  H   UNL     1      -0.807   1.437   2.249  1.00  0.00     0.345 HD
ATOM     15  H   UNL     1      -0.430  -0.007   1.510  1.00  0.00     0.345 HD
ATOM     16  H   UNL     1      -1.280   1.157   0.677  1.00  0.00     0.345 HD
ENDBRANCH   8  13
BRANCH  12  17
ATOM     17  S   UNL     1       2.688   4.862   1.109  1.00  0.00    -0.122 SA
BRANCH  17  18
ATOM     18  C   UNL     1       3.910   3.688   0.562  1.00  0.00     0.009 A 
ATOM     19  C   UNL     1       5.036   3.464   1.360  1.00  0.00     0.017 A 
ATOM     20  C   UNL     1       3.823   3.062  -0.686  1.00  0.00     0.037 A 
ATOM     21  C   UNL     1       6.048   2.600   0.934  1.00  0.00     0.023 A 
ATOM     22  C   UNL     1       4.834   2.192  -1.115  1.00  0.00     0.060 A 
ATOM     23  C   UNL     1       5.949   1.959  -0.302  1.00  0.00     0.059 A 
ATOM     24  Cl  UNL     1       4.655   1.456  -2.668  1.00  0.00    -0.083 Cl
ATOM     25  Cl  UNL     1       7.238   0.913  -0.772  1.00  0.00    -0.083 Cl
ENDBRANCH  17  18
ENDBRANCH  12  17
ENDBRANCH   6   8
ENDBRANCH   5   6
ENDBRANCH   4   5
ENDBRANCH   3   4
ENDBRANCH   2   3
ENDBRANCH   1   2
BRANCH   1  26
ATOM     26  C   UNL     1      -1.029  -2.996   0.597  1.00  0.00     0.261 C 
BRANCH  26  27
ATOM     27  O   UNL     1       0.155  -3.607   1.132  1.00  0.00    -0.460 OA
BRANCH  27  28
ATOM     28  C   UNL     1       0.423  -4.826   0.608  1.00  0.00     0.338 C 
ATOM     29  O   UNL     1      -0.291  -5.468  -0.153  1.00  0.00    -0.246 OA
BRANCH  28  30
ATOM     30  C   UNL     1       1.799  -5.238   0.936  1.00  0.00     0.060 A 
ATOM     31  C   UNL     1       2.569  -5.749  -0.115  1.00  0.00     0.016 A 
ATOM     32  C   UNL     1       2.310  -5.196   2.237  1.00  0.00     0.016 A 
ATOM     33  C   UNL     1       3.822  -6.293   0.143  1.00  0.00     0.010 A 
ATOM     34  C   UNL     1       3.572  -5.748   2.495  1.00  0.00     0.010 A 
ATOM     35  C   UNL     1       4.311  -6.341   1.455  1.00  0.00    -0.014 A 
BRANCH  35  36
ATOM     36  C   UNL     1       5.511  -7.171   1.725  1.00  0.00     0.031 A 
ATOM     37  C   UNL     1       5.322  -8.572   2.245  1.00  0.00     0.074 A 
ATOM     38  C   UNL     1       6.737  -6.724   1.397  1.00  0.00     0.049 A 
ATOM     39  N   UNL     1       6.211  -9.508   2.455  1.00  0.00    -0.248 NA
ATOM     40  C   UNL     1       3.942  -8.972   2.565  1.00  0.00     0.031 C 
ATOM     41  C   UNL     1       7.031  -5.403   0.842  1.00  0.00     0.029 A 
ATOM     42  N   UNL     1       7.961  -7.340   1.461  1.00  0.00    -0.354 N 
ATOM     43  C   UNL     1       5.498 -10.613   2.911  1.00  0.00     0.074 A 
ATOM     44  C   UNL     1       4.111 -10.211   3.000  1.00  0.00     0.031 C 
ATOM     45  C   UNL     1       8.350  -5.314   0.601  1.00  0.00     0.029 A 
ATOM     46  C   UNL     1       8.998  -6.559   1.007  1.00  0.00     0.049 A 
ATOM     47  H   UNL     1       8.085  -8.257   1.799  1.00  0.00     0.167 HD
ATOM     48  C   UNL     1       5.956 -11.854   3.210  1.00  0.00     0.034 A 
ATOM     49  C   UNL     1      10.319  -6.822   0.933  1.00  0.00     0.034 A 
ATOM     50  C   UNL     1       7.345 -12.236   3.133  1.00  0.00     0.049 A 
ATOM     51  C   UNL     1      10.812  -8.187   1.353  1.00  0.00     0.074 A 
ATOM     52  C   UNL     1       7.923 -13.458   3.431  1.00  0.00     0.029 A 
ATOM     53  N   UNL     1       8.378 -11.397   2.734  1.00  0.00    -0.354 N 
ATOM     54  N   UNL     1      10.124  -9.223   1.779  1.00  0.00    -0.248 NA
ATOM     55  C   UNL     1      12.259  -8.422   1.264  1.00  0.00     0.031 C 
ATOM     56  C   UNL     1       9.309 -13.339   3.273  1.00  0.00     0.029 A 
ATOM     57  C   UNL     1       9.591 -12.066   2.803  1.00  0.00     0.049 A 
ATOM     58  H   UNL     1       8.265 -10.463   2.444  1.00  0.00     0.167 HD
ATOM     59  C   UNL     1      11.056 -10.240   1.976  1.00  0.00     0.074 A 
ATOM     60  C   UNL     1      12.344  -9.700   1.595  1.00  0.00     0.031 C 
ATOM     61  C   UNL     1      10.868 -11.506   2.432  1.00  0.00     0.034 A 
BRANCH  48  62
ATOM     62  C   UNL     1       4.946 -12.870   3.686  1.00  0.00     0.023 A 
ATOM     63  C   UNL     1       3.925 -13.348   2.845  1.00  0.00     0.031 A 
ATOM     64  C   UNL     1       4.994 -13.356   5.005  1.00  0.00     0.131 A 
ATOM     65  C   UNL     1       2.963 -14.239   3.347  1.00  0.00     0.055 A 
ATOM     66  C   UNL     1       4.077 -14.297   5.477  1.00  0.00     0.041 A 
ATOM     67  F   UNL     1       5.931 -12.917   5.860  1.00  0.00    -0.206 F 
ATOM     68  C   UNL     1       3.047 -14.736   4.650  1.00  0.00     0.022 A 
BRANCH  65  69
ATOM     69  S   UNL     1       1.533 -14.653   2.312  1.00  0.00     0.124 S 
ATOM     70  O   UNL     1       0.919 -13.341   2.119  1.00  0.00    -0.237 OA
ATOM     71  O   UNL     1       2.155 -15.248   1.135  1.00  0.00    -0.237 OA
ATOM     72  O   UNL     1       0.763 -15.576   3.143  1.00  0.00    -0.744 OA
ENDBRANCH  65  69
ENDBRANCH  48  62
BRANCH  49  73
ATOM     73  C   UNL     1      11.282  -5.780   0.470  1.00  0.00     0.023 A 
ATOM     74  C   UNL     1      12.089  -5.983  -0.662  1.00  0.00     0.031 A 
ATOM     75  C   UNL     1      11.474  -4.598   1.210  1.00  0.00     0.131 A 
ATOM     76  C   UNL     1      13.091  -5.054  -0.983  1.00  0.00     0.055 A 
ATOM     77  C   UNL     1      12.430  -3.648   0.849  1.00  0.00     0.041 A 
ATOM     78  F   UNL     1      10.734  -4.353   2.303  1.00  0.00    -0.206 F 
ATOM     79  C   UNL     1      13.259  -3.882  -0.243  1.00  0.00     0.022 A 
BRANCH  76  80
ATOM     80  S   UNL     1      14.258  -5.460  -2.313  1.00  0.00     0.124 S 
ATOM     81  O   UNL     1      14.775  -6.750  -1.872  1.00  0.00    -0.237 OA
ATOM     82  O   UNL     1      13.385  -5.484  -3.482  1.00  0.00    -0.237 OA
ATOM     83  O   UNL     1      15.215  -4.357  -2.274  1.00  0.00    -0.744 OA
ENDBRANCH  76  80
ENDBRANCH  49  73
BRANCH  61  84
ATOM     84  C   UNL     1      12.091 -12.391   2.501  1.00  0.00     0.023 A 
ATOM     85  C   UNL     1      13.160 -12.104   3.369  1.00  0.00     0.031 A 
ATOM     86  C   UNL     1      12.209 -13.508   1.655  1.00  0.00     0.131 A 
ATOM     87  C   UNL     1      14.331 -12.874   3.314  1.00  0.00     0.055 A 
ATOM     88  C   UNL     1      13.350 -14.312   1.654  1.00  0.00     0.041 A 
ATOM     89  F   UNL     1      11.220 -13.831   0.806  1.00  0.00    -0.206 F 
ATOM     90  C   UNL     1      14.427 -13.985   2.473  1.00  0.00     0.022 A 
BRANCH  87  91
ATOM     91  S   UNL     1      15.775 -12.326   4.265  1.00  0.00     0.124 S 
ATOM     92  O   UNL     1      15.963 -10.964   3.776  1.00  0.00    -0.237 OA
ATOM     93  O   UNL     1      15.306 -12.449   5.641  1.00  0.00    -0.237 OA
ATOM     94  O   UNL     1      16.820 -13.273   3.880  1.00  0.00    -0.744 OA
ENDBRANCH  87  91
ENDBRANCH  61  84
ENDBRANCH  35  36
ENDBRANCH  28  30
ENDBRANCH  27  28
ENDBRANCH  26  27
ENDBRANCH   1  26
TORSDOF 20
