REMARK SMILES CC(C)(C[NH2+]Cc1ccc2c(c1)OCO2)C(=O)OCCOCCOC(=O)c1ccc(-c2c3nc(c(-c4cc(S(=O)(=O)[O-])ccc4F)c4ccc([nH]4)c(-c4cc(S(=O)(=O)[O-])ccc4F)c4nc(c(-c5cc(S(=O)(=O)[O-])ccc5F)c5ccc2[nH]5)C=C4)C=C3)cc1
REMARK SMILES IDX 20 1 19 2 18 3 16 4 17 5 2 6 1 7 3 8 4 9 5 10 6 13 7 14 8 15
REMARK SMILES IDX 12 16 9 17 11 18 10 19 13 20 15 21 14 22 21 23 22 24 23 25
REMARK SMILES IDX 24 26 25 27 26 28 27 29 28 30 89 31 29 32 88 33 30 34 31 35
REMARK SMILES IDX 32 36 82 37 33 38 87 39 81 40 83 41 34 42 86 43 80 44 79 45
REMARK SMILES IDX 35 47 67 48 47 49 66 50 48 51 51 52 65 53 84 54 49 55 50 56
REMARK SMILES IDX 64 58 85 59 52 60 36 61 37 62 45 63 38 64 44 65 46 66 43 67
REMARK SMILES IDX 39 68 40 69 41 70 42 71 68 72 69 73 77 74 70 75 76 76 78 77
REMARK SMILES IDX 75 78 71 79 72 80 73 81 74 82 53 83 54 84 62 85 55 86 61 87
REMARK SMILES IDX 63 88 60 89 56 90 57 91 58 92 59 93
REMARK H PARENT 5 11 5 12 83 46 51 57
REMARK Flexibility Score: inf
ROOT
ATOM      1  C   UNL     1       1.430  -4.559   2.444  1.00  0.00     0.202 C 
ENDROOT
BRANCH   1   2
ATOM      2  C   UNL     1       2.061  -3.317   3.080  1.00  0.00     0.261 C 
BRANCH   2   3
ATOM      3  O   UNL     1       1.317  -2.123   2.778  1.00  0.00    -0.463 OA
BRANCH   3   4
ATOM      4  C   UNL     1       1.881  -1.292   1.863  1.00  0.00     0.317 C 
ATOM      5  O   UNL     1       3.004  -1.444   1.392  1.00  0.00    -0.251 OA
BRANCH   4   6
ATOM      6  C   UNL     1       1.001  -0.082   1.528  1.00  0.00     0.111 C 
ATOM      7  C   UNL     1       1.344   0.369   0.096  1.00  0.00     0.029 C 
ATOM      8  C   UNL     1       1.439   1.023   2.512  1.00  0.00     0.029 C 
BRANCH   6   9
ATOM      9  C   UNL     1      -0.534  -0.296   1.707  1.00  0.00     0.279 C 
BRANCH   9  10
ATOM     10  N   UNL     1      -1.280  -0.819   0.550  1.00  0.00    -0.342 N 
ATOM     11  H   UNL     1      -0.972  -1.775   0.369  1.00  0.00     0.346 HD
ATOM     12  H   UNL     1      -1.090  -0.204  -0.241  1.00  0.00     0.346 HD
BRANCH  10  13
ATOM     13  C   UNL     1      -2.737  -0.827   0.767  1.00  0.00     0.297 C 
BRANCH  13  14
ATOM     14  C   UNL     1      -3.419   0.447   0.296  1.00  0.00     0.010 A 
ATOM     15  C   UNL     1      -3.279   1.658   1.015  1.00  0.00     0.013 A 
ATOM     16  C   UNL     1      -4.204   0.441  -0.872  1.00  0.00     0.060 A 
ATOM     17  C   UNL     1      -3.850   2.851   0.562  1.00  0.00     0.051 A 
ATOM     18  C   UNL     1      -4.789   1.627  -1.276  1.00  0.00     0.166 A 
ATOM     19  C   UNL     1      -4.604   2.800  -0.585  1.00  0.00     0.165 A 
ATOM     20  O   UNL     1      -5.593   1.792  -2.361  1.00  0.00    -0.454 OA
ATOM     21  O   UNL     1      -5.250   3.852  -1.155  1.00  0.00    -0.454 OA
ATOM     22  C   UNL     1      -5.933   3.189  -2.238  1.00  0.00     0.468 C 
ENDBRANCH  13  14
ENDBRANCH  10  13
ENDBRANCH   9  10
ENDBRANCH   6   9
ENDBRANCH   4   6
ENDBRANCH   3   4
ENDBRANCH   2   3
ENDBRANCH   1   2
BRANCH   1  23
ATOM     23  O   UNL     1       1.414  -4.593   1.017  1.00  0.00    -0.374 OA
BRANCH  23  24
ATOM     24  C   UNL     1       0.368  -3.862   0.372  1.00  0.00     0.202 C 
BRANCH  24  25
ATOM     25  C   UNL     1      -1.010  -4.530   0.359  1.00  0.00     0.261 C 
BRANCH  25  26
ATOM     26  O   UNL     1      -1.599  -4.552   1.674  1.00  0.00    -0.460 OA
BRANCH  26  27
ATOM     27  C   UNL     1      -1.788  -5.791   2.182  1.00  0.00     0.338 C 
ATOM     28  O   UNL     1      -1.633  -6.855   1.593  1.00  0.00    -0.246 OA
BRANCH  27  29
ATOM     29  C   UNL     1      -2.033  -5.729   3.635  1.00  0.00     0.060 A 
ATOM     30  C   UNL     1      -1.255  -6.569   4.441  1.00  0.00     0.016 A 
ATOM     31  C   UNL     1      -3.050  -4.951   4.197  1.00  0.00     0.016 A 
ATOM     32  C   UNL     1      -1.545  -6.702   5.795  1.00  0.00     0.010 A 
ATOM     33  C   UNL     1      -3.342  -5.090   5.561  1.00  0.00     0.010 A 
ATOM     34  C   UNL     1      -2.625  -6.006   6.353  1.00  0.00    -0.014 A 
BRANCH  34  35
ATOM     35  C   UNL     1      -3.100  -6.410   7.703  1.00  0.00     0.031 A 
ATOM     36  C   UNL     1      -4.275  -7.349   7.805  1.00  0.00     0.074 A 
ATOM     37  C   UNL     1      -2.438  -6.030   8.811  1.00  0.00     0.049 A 
ATOM     38  N   UNL     1      -4.819  -7.889   8.866  1.00  0.00    -0.248 NA
ATOM     39  C   UNL     1      -4.921  -7.730   6.540  1.00  0.00     0.031 C 
ATOM     40  C   UNL     1      -1.265  -5.158   8.834  1.00  0.00     0.029 A 
ATOM     41  N   UNL     1      -2.652  -6.340  10.131  1.00  0.00    -0.354 N 
ATOM     42  C   UNL     1      -5.870  -8.672   8.397  1.00  0.00     0.074 A 
ATOM     43  C   UNL     1      -5.911  -8.503   6.960  1.00  0.00     0.031 C 
ATOM     44  C   UNL     1      -0.862  -5.003  10.108  1.00  0.00     0.029 A 
ATOM     45  C   UNL     1      -1.762  -5.742  10.992  1.00  0.00     0.049 A 
ATOM     46  H   UNL     1      -3.376  -6.935  10.433  1.00  0.00     0.167 HD
ATOM     47  C   UNL     1      -6.715  -9.468   9.098  1.00  0.00     0.034 A 
ATOM     48  C   UNL     1      -1.688  -5.780  12.338  1.00  0.00     0.034 A 
ATOM     49  C   UNL     1      -6.664  -9.628  10.531  1.00  0.00     0.049 A 
ATOM     50  C   UNL     1      -2.671  -6.636  13.101  1.00  0.00     0.074 A 
ATOM     51  C   UNL     1      -7.463 -10.418  11.339  1.00  0.00     0.029 A 
ATOM     52  N   UNL     1      -5.770  -8.979  11.373  1.00  0.00    -0.354 N 
ATOM     53  N   UNL     1      -3.648  -7.385  12.642  1.00  0.00    -0.248 NA
ATOM     54  C   UNL     1      -2.527  -6.666  14.562  1.00  0.00     0.031 C 
ATOM     55  C   UNL     1      -7.098 -10.195  12.672  1.00  0.00     0.029 A 
ATOM     56  C   UNL     1      -6.018  -9.328  12.692  1.00  0.00     0.049 A 
ATOM     57  H   UNL     1      -5.063  -8.361  11.076  1.00  0.00     0.167 HD
ATOM     58  C   UNL     1      -4.212  -8.000  13.758  1.00  0.00     0.074 A 
ATOM     59  C   UNL     1      -3.453  -7.548  14.906  1.00  0.00     0.031 C 
ATOM     60  C   UNL     1      -5.259  -8.862  13.829  1.00  0.00     0.034 A 
BRANCH  47  61
ATOM     61  C   UNL     1      -7.800 -10.180   8.325  1.00  0.00     0.023 A 
ATOM     62  C   UNL     1      -7.510 -11.173   7.373  1.00  0.00     0.031 A 
ATOM     63  C   UNL     1      -9.149  -9.840   8.532  1.00  0.00     0.131 A 
ATOM     64  C   UNL     1      -8.547 -11.746   6.621  1.00  0.00     0.055 A 
ATOM     65  C   UNL     1     -10.183 -10.467   7.833  1.00  0.00     0.041 A 
ATOM     66  F   UNL     1      -9.486  -8.882   9.410  1.00  0.00    -0.206 F 
ATOM     67  C   UNL     1      -9.884 -11.418   6.862  1.00  0.00     0.022 A 
BRANCH  64  68
ATOM     68  S   UNL     1      -8.120 -12.836   5.235  1.00  0.00     0.124 S 
ATOM     69  O   UNL     1      -7.319 -11.946   4.398  1.00  0.00    -0.237 OA
ATOM     70  O   UNL     1      -7.397 -13.917   5.894  1.00  0.00    -0.237 OA
ATOM     71  O   UNL     1      -9.419 -13.204   4.675  1.00  0.00    -0.744 OA
ENDBRANCH  64  68
ENDBRANCH  47  61
BRANCH  48  72
ATOM     72  C   UNL     1      -0.674  -4.960  13.063  1.00  0.00     0.023 A 
ATOM     73  C   UNL     1       0.326  -5.554  13.850  1.00  0.00     0.031 A 
ATOM     74  C   UNL     1      -0.737  -3.555  13.030  1.00  0.00     0.131 A 
ATOM     75  C   UNL     1       1.187  -4.748  14.612  1.00  0.00     0.055 A 
ATOM     76  C   UNL     1       0.157  -2.757  13.746  1.00  0.00     0.041 A 
ATOM     77  F   UNL     1      -1.673  -2.934  12.294  1.00  0.00    -0.206 F 
ATOM     78  C   UNL     1       1.117  -3.354  14.556  1.00  0.00     0.022 A 
BRANCH  75  79
ATOM     79  S   UNL     1       2.345  -5.550  15.757  1.00  0.00     0.124 S 
ATOM     80  O   UNL     1       1.442  -6.332  16.594  1.00  0.00    -0.237 OA
ATOM     81  O   UNL     1       3.194  -6.308  14.845  1.00  0.00    -0.237 OA
ATOM     82  O   UNL     1       2.998  -4.425  16.423  1.00  0.00    -0.744 OA
ENDBRANCH  75  79
ENDBRANCH  48  72
BRANCH  60  83
ATOM     83  C   UNL     1      -5.607  -9.406  15.195  1.00  0.00     0.023 A 
ATOM     84  C   UNL     1      -6.089  -8.576  16.224  1.00  0.00     0.031 A 
ATOM     85  C   UNL     1      -5.426 -10.771  15.479  1.00  0.00     0.131 A 
ATOM     86  C   UNL     1      -6.306  -9.105  17.505  1.00  0.00     0.055 A 
ATOM     87  C   UNL     1      -5.706 -11.305  16.738  1.00  0.00     0.041 A 
ATOM     88  F   UNL     1      -4.969 -11.611  14.536  1.00  0.00    -0.206 F 
ATOM     89  C   UNL     1      -6.132 -10.467  17.765  1.00  0.00     0.022 A 
BRANCH  86  90
ATOM     90  S   UNL     1      -6.706  -7.968  18.860  1.00  0.00     0.124 S 
ATOM     91  O   UNL     1      -5.592  -7.027  18.807  1.00  0.00    -0.237 OA
ATOM     92  O   UNL     1      -8.004  -7.442  18.451  1.00  0.00    -0.237 OA
ATOM     93  O   UNL     1      -6.731  -8.832  20.039  1.00  0.00    -0.744 OA
ENDBRANCH  86  90
ENDBRANCH  60  83
ENDBRANCH  34  35
ENDBRANCH  27  29
ENDBRANCH  26  27
ENDBRANCH  25  26
ENDBRANCH  24  25
ENDBRANCH  23  24
ENDBRANCH   1  23
TORSDOF 21
