REMARK SMILES O=C(CCN1C(=O)/C(=C\c2ccc(-c3cccc(Cl)c3)o2)SC1=S)OCCOCCOC(=O)c1ccc(-c2c3nc(c(-c4cc(S(=O)(=O)[O-])ccc4F)c4ccc([nH]4)c(-c4cc(S(=O)(=O)[O-])ccc4F)c4nc(c(-c5cc(S(=O)(=O)[O-])ccc5F)c5ccc2[nH]5)C=C4)C=C3)cc1
REMARK SMILES IDX 27 1 26 2 25 3 2 4 1 5 3 6 4 7 5 8 6 9 23 10 7 11 8 12 22 13
REMARK SMILES IDX 24 14 9 15 10 16 11 17 21 18 12 19 13 20 14 21 15 22 20 23
REMARK SMILES IDX 16 24 18 25 17 26 19 27 28 28 29 29 30 30 31 31 32 32 33 33
REMARK SMILES IDX 34 34 35 35 96 36 36 37 95 38 37 39 38 40 39 41 89 42 40 43
REMARK SMILES IDX 94 44 88 45 90 46 41 47 93 48 87 49 86 50 42 52 74 53 54 54
REMARK SMILES IDX 73 55 55 56 58 57 72 58 91 59 56 60 57 61 71 63 92 64 59 65
REMARK SMILES IDX 43 66 44 67 52 68 45 69 51 70 53 71 50 72 46 73 47 74 48 75
REMARK SMILES IDX 49 76 75 77 76 78 84 79 77 80 83 81 85 82 82 83 78 84 79 85
REMARK SMILES IDX 80 86 81 87 60 88 61 89 69 90 62 91 68 92 70 93 67 94 63 95
REMARK SMILES IDX 64 96 65 97 66 98
REMARK H PARENT 90 51 58 62
REMARK Flexibility Score: inf
ROOT
ATOM      1  C   UNL     1       2.946   1.373   0.930  1.00  0.00     0.202 C 
ENDROOT
BRANCH   1   2
ATOM      2  C   UNL     1       2.246   0.513  -0.128  1.00  0.00     0.261 C 
BRANCH   2   3
ATOM      3  O   UNL     1       1.670  -0.699   0.356  1.00  0.00    -0.463 OA
BRANCH   3   4
ATOM      4  C   UNL     1       2.228  -1.837  -0.129  1.00  0.00     0.307 C 
ATOM      5  O   UNL     1       1.560  -2.690  -0.704  1.00  0.00    -0.252 OA
BRANCH   4   6
ATOM      6  C   UNL     1       3.667  -2.055   0.267  1.00  0.00     0.144 C 
BRANCH   6   7
ATOM      7  C   UNL     1       4.528  -2.647  -0.854  1.00  0.00     0.139 C 
BRANCH   7   8
ATOM      8  N   UNL     1       4.958  -1.787  -1.976  1.00  0.00    -0.292 N 
ATOM      9  C   UNL     1       5.164  -0.431  -1.842  1.00  0.00     0.266 C 
ATOM     10  C   UNL     1       5.463  -2.299  -3.159  1.00  0.00     0.148 C 
ATOM     11  O   UNL     1       5.361   0.144  -0.783  1.00  0.00    -0.268 OA
ATOM     12  C   UNL     1       5.245   0.212  -3.190  1.00  0.00     0.084 C 
ATOM     13  S   UNL     1       5.872  -0.987  -4.266  1.00  0.00    -0.054 SA
ATOM     14  S   UNL     1       5.712  -3.900  -3.562  1.00  0.00    -0.052 S 
ATOM     15  C   UNL     1       4.782   1.397  -3.628  1.00  0.00     0.068 C 
BRANCH  15  16
ATOM     16  C   UNL     1       4.107   2.360  -2.826  1.00  0.00     0.128 A 
ATOM     17  C   UNL     1       4.436   2.794  -1.557  1.00  0.00     0.051 A 
ATOM     18  O   UNL     1       2.989   3.101  -3.230  1.00  0.00    -0.457 OA
ATOM     19  C   UNL     1       3.459   3.699  -1.137  1.00  0.00     0.051 A 
ATOM     20  C   UNL     1       2.637   3.934  -2.202  1.00  0.00     0.134 A 
BRANCH  20  21
ATOM     21  C   UNL     1       1.533   4.882  -2.299  1.00  0.00     0.019 A 
ATOM     22  C   UNL     1       1.648   6.110  -1.612  1.00  0.00     0.012 A 
ATOM     23  C   UNL     1       0.309   4.567  -2.881  1.00  0.00     0.032 A 
ATOM     24  C   UNL     1       0.579   6.993  -1.478  1.00  0.00     0.002 A 
ATOM     25  C   UNL     1      -0.771   5.449  -2.734  1.00  0.00     0.041 A 
ATOM     26  C   UNL     1      -0.644   6.652  -2.033  1.00  0.00     0.020 A 
ATOM     27  Cl  UNL     1      -2.312   5.020  -3.373  1.00  0.00    -0.084 Cl
ENDBRANCH  20  21
ENDBRANCH  15  16
ENDBRANCH   7   8
ENDBRANCH   6   7
ENDBRANCH   4   6
ENDBRANCH   3   4
ENDBRANCH   2   3
ENDBRANCH   1   2
BRANCH   1  28
ATOM     28  O   UNL     1       2.960   0.862   2.253  1.00  0.00    -0.374 OA
BRANCH  28  29
ATOM     29  C   UNL     1       2.728   1.904   3.208  1.00  0.00     0.202 C 
BRANCH  29  30
ATOM     30  C   UNL     1       3.834   2.977   3.396  1.00  0.00     0.261 C 
BRANCH  30  31
ATOM     31  O   UNL     1       4.224   3.718   2.211  1.00  0.00    -0.460 OA
BRANCH  31  32
ATOM     32  C   UNL     1       5.573   3.947   2.056  1.00  0.00     0.338 C 
ATOM     33  O   UNL     1       6.455   3.490   2.748  1.00  0.00    -0.246 OA
BRANCH  32  34
ATOM     34  C   UNL     1       5.841   4.789   0.844  1.00  0.00     0.060 A 
ATOM     35  C   UNL     1       6.863   4.426  -0.052  1.00  0.00     0.016 A 
ATOM     36  C   UNL     1       5.052   5.899   0.542  1.00  0.00     0.016 A 
ATOM     37  C   UNL     1       7.012   5.086  -1.296  1.00  0.00     0.010 A 
ATOM     38  C   UNL     1       5.201   6.546  -0.698  1.00  0.00     0.010 A 
ATOM     39  C   UNL     1       6.158   6.137  -1.654  1.00  0.00    -0.014 A 
BRANCH  39  40
ATOM     40  C   UNL     1       6.353   6.998  -2.874  1.00  0.00     0.031 A 
ATOM     41  C   UNL     1       6.821   8.409  -2.631  1.00  0.00     0.074 A 
ATOM     42  C   UNL     1       6.028   6.654  -4.141  1.00  0.00     0.049 A 
ATOM     43  N   UNL     1       6.823   9.448  -3.426  1.00  0.00    -0.248 NA
ATOM     44  C   UNL     1       7.267   8.689  -1.260  1.00  0.00     0.031 C 
ATOM     45  C   UNL     1       5.538   5.353  -4.577  1.00  0.00     0.029 A 
ATOM     46  N   UNL     1       6.028   7.404  -5.304  1.00  0.00    -0.354 N 
ATOM     47  C   UNL     1       7.217  10.516  -2.630  1.00  0.00     0.074 A 
ATOM     48  C   UNL     1       7.333  10.006  -1.280  1.00  0.00     0.031 C 
ATOM     49  C   UNL     1       5.261   5.397  -5.896  1.00  0.00     0.029 A 
ATOM     50  C   UNL     1       5.533   6.740  -6.409  1.00  0.00     0.049 A 
ATOM     51  H   UNL     1       6.353   8.333  -5.340  1.00  0.00     0.167 HD
ATOM     52  C   UNL     1       7.500  11.796  -2.980  1.00  0.00     0.034 A 
ATOM     53  C   UNL     1       5.308   7.164  -7.676  1.00  0.00     0.034 A 
ATOM     54  C   UNL     1       7.418  12.305  -4.321  1.00  0.00     0.049 A 
ATOM     55  C   UNL     1       5.611   8.601  -8.063  1.00  0.00     0.074 A 
ATOM     56  C   UNL     1       7.738  13.569  -4.784  1.00  0.00     0.029 A 
ATOM     57  N   UNL     1       6.979  11.579  -5.419  1.00  0.00    -0.354 N 
ATOM     58  N   UNL     1       6.040   9.588  -7.312  1.00  0.00    -0.248 NA
ATOM     59  C   UNL     1       5.404   8.978  -9.473  1.00  0.00     0.031 C 
ATOM     60  C   UNL     1       7.439  13.626  -6.149  1.00  0.00     0.029 A 
ATOM     61  C   UNL     1       7.002  12.375  -6.553  1.00  0.00     0.049 A 
ATOM     62  H   UNL     1       6.693  10.638  -5.396  1.00  0.00     0.167 HD
ATOM     63  C   UNL     1       6.197  10.682  -8.167  1.00  0.00     0.074 A 
ATOM     64  C   UNL     1       5.808  10.241  -9.487  1.00  0.00     0.031 C 
ATOM     65  C   UNL     1       6.637  11.933  -7.879  1.00  0.00     0.034 A 
BRANCH  52  66
ATOM     66  C   UNL     1       7.898  12.717  -1.852  1.00  0.00     0.023 A 
ATOM     67  C   UNL     1       9.010  12.427  -1.041  1.00  0.00     0.031 A 
ATOM     68  C   UNL     1       7.075  13.793  -1.486  1.00  0.00     0.131 A 
ATOM     69  C   UNL     1       9.160  13.084   0.186  1.00  0.00     0.055 A 
ATOM     70  C   UNL     1       7.313  14.534  -0.327  1.00  0.00     0.041 A 
ATOM     71  F   UNL     1       5.992  14.108  -2.215  1.00  0.00    -0.206 F 
ATOM     72  C   UNL     1       8.339  14.157   0.537  1.00  0.00     0.022 A 
BRANCH  69  73
ATOM     73  S   UNL     1      10.253  12.329   1.424  1.00  0.00     0.124 S 
ATOM     74  O   UNL     1       9.654  11.003   1.571  1.00  0.00    -0.237 OA
ATOM     75  O   UNL     1      11.553  12.372   0.766  1.00  0.00    -0.237 OA
ATOM     76  O   UNL     1      10.108  13.201   2.587  1.00  0.00    -0.744 OA
ENDBRANCH  69  73
ENDBRANCH  52  66
BRANCH  53  77
ATOM     77  C   UNL     1       4.728   6.245  -8.707  1.00  0.00     0.023 A 
ATOM     78  C   UNL     1       5.476   5.836  -9.827  1.00  0.00     0.031 A 
ATOM     79  C   UNL     1       3.382   5.845  -8.639  1.00  0.00     0.131 A 
ATOM     80  C   UNL     1       4.861   5.098 -10.854  1.00  0.00     0.055 A 
ATOM     81  C   UNL     1       2.787   5.072  -9.641  1.00  0.00     0.041 A 
ATOM     82  F   UNL     1       2.618   6.213  -7.599  1.00  0.00    -0.206 F 
ATOM     83  C   UNL     1       3.525   4.704 -10.763  1.00  0.00     0.022 A 
BRANCH  80  84
ATOM     84  S   UNL     1       5.813   4.716 -12.353  1.00  0.00     0.124 S 
ATOM     85  O   UNL     1       6.048   6.047 -12.902  1.00  0.00    -0.237 OA
ATOM     86  O   UNL     1       6.980   4.031 -11.807  1.00  0.00    -0.237 OA
ATOM     87  O   UNL     1       4.906   3.871 -13.128  1.00  0.00    -0.744 OA
ENDBRANCH  80  84
ENDBRANCH  53  77
BRANCH  65  88
ATOM     88  C   UNL     1       6.822  12.911  -9.017  1.00  0.00     0.023 A 
ATOM     89  C   UNL     1       5.741  13.487  -9.706  1.00  0.00     0.031 A 
ATOM     90  C   UNL     1       8.123  13.327  -9.363  1.00  0.00     0.131 A 
ATOM     91  C   UNL     1       5.982  14.436 -10.715  1.00  0.00     0.055 A 
ATOM     92  C   UNL     1       8.354  14.302 -10.334  1.00  0.00     0.041 A 
ATOM     93  F   UNL     1       9.193  12.811  -8.736  1.00  0.00    -0.206 F 
ATOM     94  C   UNL     1       7.280  14.860 -11.019  1.00  0.00     0.022 A 
BRANCH  91  95
ATOM     95  S   UNL     1       4.579  15.100 -11.657  1.00  0.00     0.124 S 
ATOM     96  O   UNL     1       4.029  13.896 -12.272  1.00  0.00    -0.237 OA
ATOM     97  O   UNL     1       3.764  15.714 -10.614  1.00  0.00    -0.237 OA
ATOM     98  O   UNL     1       5.203  16.041 -12.587  1.00  0.00    -0.744 OA
ENDBRANCH  91  95
ENDBRANCH  65  88
ENDBRANCH  39  40
ENDBRANCH  32  34
ENDBRANCH  31  32
ENDBRANCH  30  31
ENDBRANCH  29  30
ENDBRANCH  28  29
ENDBRANCH   1  28
TORSDOF 21
