REMARK SMILES COc1cccc([C@H](CC(=O)OCCOCCOC(=O)c2ccc(-c3c4nc(c(-c5cc(S(=O)(=O)[O-])ccc5F)c5ccc([nH]5)c(-c5cc(S(=O)(=O)[O-])ccc5F)c5nc(c(-c6cc(S(=O)(=O)[O-])ccc6F)c6ccc3[nH]6)C=C5)C=C4)cc2)NS(=O)(=O)c2ccc3c(c2)C[C@@H](C)N3C(C)=O)c1
REMARK SMILES IDX 14 1 13 2 12 3 10 4 11 5 9 6 8 7 7 8 3 9 4 10 101 11 5 12
REMARK SMILES IDX 6 13 2 14 1 15 84 16 85 18 86 19 87 20 88 21 89 22 93 23
REMARK SMILES IDX 90 24 92 25 91 26 94 27 97 28 95 29 96 30 98 31 99 32 100 33
REMARK SMILES IDX 15 34 16 35 17 36 18 37 19 38 20 39 21 40 22 41 83 42 23 43
REMARK SMILES IDX 82 44 24 45 25 46 26 47 76 48 27 49 81 50 75 51 77 52 28 53
REMARK SMILES IDX 80 54 74 55 73 56 29 58 61 59 41 60 60 61 42 62 45 63 59 64
REMARK SMILES IDX 78 65 43 66 44 67 58 69 79 70 46 71 30 72 31 73 39 74 32 75
REMARK SMILES IDX 38 76 40 77 37 78 33 79 34 80 35 81 36 82 62 83 63 84 71 85
REMARK SMILES IDX 64 86 70 87 72 88 69 89 65 90 66 91 67 92 68 93 47 94 48 95
REMARK SMILES IDX 56 96 49 97 55 98 57 99 54 100 50 101 51 102 52 103 53 104
REMARK H PARENT 84 17 77 57 45 68
REMARK Flexibility Score: inf
ROOT
ATOM      1  C   UNL     1       0.567   1.378  -6.683  1.00  0.00     0.202 C 
ENDROOT
BRANCH   1   2
ATOM      2  C   UNL     1       0.739   1.419  -5.159  1.00  0.00     0.261 C 
BRANCH   2   3
ATOM      3  O   UNL     1       1.917   0.748  -4.662  1.00  0.00    -0.463 OA
BRANCH   3   4
ATOM      4  C   UNL     1       1.688  -0.457  -4.064  1.00  0.00     0.307 C 
ATOM      5  O   UNL     1       0.598  -1.014  -4.011  1.00  0.00    -0.252 OA
BRANCH   4   6
ATOM      6  C   UNL     1       2.900  -0.988  -3.345  1.00  0.00     0.147 C 
BRANCH   6   7
ATOM      7  C   UNL     1       4.239  -1.221  -4.065  1.00  0.00     0.111 C 
BRANCH   7   8
ATOM      8  C   UNL     1       4.470  -2.663  -4.502  1.00  0.00    -0.026 A 
ATOM      9  C   UNL     1       6.131  -4.437  -4.740  1.00  0.00     0.119 A 
ATOM     10  C   UNL     1       5.366  -4.995  -5.763  1.00  0.00     0.046 A 
ATOM     11  C   UNL     1       5.654  -3.304  -4.082  1.00  0.00     0.051 A 
ATOM     12  C   UNL     1       4.134  -4.440  -6.111  1.00  0.00     0.004 A 
ATOM     13  C   UNL     1       3.684  -3.280  -5.481  1.00  0.00     0.005 A 
BRANCH   9  14
ATOM     14  O   UNL     1       7.339  -5.041  -4.519  1.00  0.00    -0.497 OA
ATOM     15  C   UNL     1       8.192  -4.439  -3.552  1.00  0.00     0.278 C 
ENDBRANCH   9  14
ENDBRANCH   7   8
BRANCH   7  16
ATOM     16  N   UNL     1       4.558  -0.304  -5.173  1.00  0.00    -0.203 NA
ATOM     17  H   UNL     1       4.230   0.618  -4.886  1.00  0.00     0.142 HD
BRANCH  16  18
ATOM     18  S   UNL     1       6.148  -0.094  -5.729  1.00  0.00     0.241 S 
ATOM     19  O   UNL     1       6.843  -1.357  -5.823  1.00  0.00    -0.207 OA
ATOM     20  O   UNL     1       6.096   0.802  -6.856  1.00  0.00    -0.207 OA
BRANCH  18  21
ATOM     21  C   UNL     1       6.854   0.802  -4.376  1.00  0.00     0.082 A 
ATOM     22  C   UNL     1       7.566   0.136  -3.355  1.00  0.00     0.024 A 
ATOM     23  C   UNL     1       6.571   2.165  -4.316  1.00  0.00     0.027 A 
ATOM     24  C   UNL     1       7.899   0.816  -2.181  1.00  0.00     0.028 A 
ATOM     25  C   UNL     1       6.861   2.803  -3.141  1.00  0.00    -0.021 A 
ATOM     26  C   UNL     1       7.470   2.124  -2.076  1.00  0.00     0.047 A 
ATOM     27  C   UNL     1       6.564   4.225  -2.767  1.00  0.00     0.063 C 
ATOM     28  N   UNL     1       7.502   2.986  -0.963  1.00  0.00    -0.309 N 
ATOM     29  C   UNL     1       6.488   4.043  -1.246  1.00  0.00     0.092 C 
ATOM     30  C   UNL     1       5.079   3.537  -0.852  1.00  0.00     0.032 C 
BRANCH  28  31
ATOM     31  C   UNL     1       8.684   3.130  -0.260  1.00  0.00     0.224 C 
ATOM     32  C   UNL     1       9.356   4.471  -0.461  1.00  0.00     0.115 C 
ATOM     33  O   UNL     1       9.250   2.209   0.327  1.00  0.00    -0.275 OA
ENDBRANCH  28  31
ENDBRANCH  18  21
ENDBRANCH  16  18
ENDBRANCH   7  16
ENDBRANCH   6   7
ENDBRANCH   4   6
ENDBRANCH   3   4
ENDBRANCH   2   3
ENDBRANCH   1   2
BRANCH   1  34
ATOM     34  O   UNL     1       0.530   0.107  -7.321  1.00  0.00    -0.374 OA
BRANCH  34  35
ATOM     35  C   UNL     1       1.732  -0.655  -7.367  1.00  0.00     0.202 C 
BRANCH  35  36
ATOM     36  C   UNL     1       2.917  -0.105  -8.167  1.00  0.00     0.261 C 
BRANCH  36  37
ATOM     37  O   UNL     1       3.370   1.166  -7.667  1.00  0.00    -0.460 OA
BRANCH  37  38
ATOM     38  C   UNL     1       3.341   2.169  -8.583  1.00  0.00     0.338 C 
ATOM     39  O   UNL     1       2.958   2.098  -9.738  1.00  0.00    -0.246 OA
BRANCH  38  40
ATOM     40  C   UNL     1       3.638   3.456  -7.930  1.00  0.00     0.060 A 
ATOM     41  C   UNL     1       2.618   4.411  -7.868  1.00  0.00     0.016 A 
ATOM     42  C   UNL     1       4.926   3.773  -7.502  1.00  0.00     0.016 A 
ATOM     43  C   UNL     1       2.896   5.700  -7.417  1.00  0.00     0.010 A 
ATOM     44  C   UNL     1       5.199   5.057  -7.021  1.00  0.00     0.010 A 
ATOM     45  C   UNL     1       4.197   6.043  -7.020  1.00  0.00    -0.014 A 
BRANCH  45  46
ATOM     46  C   UNL     1       4.543   7.469  -6.776  1.00  0.00     0.031 A 
ATOM     47  C   UNL     1       5.391   8.198  -7.789  1.00  0.00     0.074 A 
ATOM     48  C   UNL     1       4.074   8.119  -5.695  1.00  0.00     0.049 A 
ATOM     49  N   UNL     1       5.857   9.420  -7.755  1.00  0.00    -0.248 NA
ATOM     50  C   UNL     1       5.768   7.444  -8.995  1.00  0.00     0.031 C 
ATOM     51  C   UNL     1       3.205   7.538  -4.671  1.00  0.00     0.029 A 
ATOM     52  N   UNL     1       4.260   9.414  -5.278  1.00  0.00    -0.354 N 
ATOM     53  C   UNL     1       6.578   9.583  -8.935  1.00  0.00     0.074 A 
ATOM     54  C   UNL     1       6.540   8.313  -9.628  1.00  0.00     0.031 C 
ATOM     55  C   UNL     1       2.931   8.475  -3.748  1.00  0.00     0.029 A 
ATOM     56  C   UNL     1       3.642   9.706  -4.085  1.00  0.00     0.049 A 
ATOM     57  H   UNL     1       4.787  10.072  -5.787  1.00  0.00     0.167 HD
ATOM     58  C   UNL     1       7.193  10.694  -9.410  1.00  0.00     0.034 A 
ATOM     59  C   UNL     1       3.669  10.829  -3.337  1.00  0.00     0.034 A 
ATOM     60  C   UNL     1       7.227  11.954  -8.710  1.00  0.00     0.049 A 
ATOM     61  C   UNL     1       4.454  12.023  -3.837  1.00  0.00     0.074 A 
ATOM     62  C   UNL     1       7.832  13.138  -9.095  1.00  0.00     0.029 A 
ATOM     63  N   UNL     1       6.632  12.197  -7.479  1.00  0.00    -0.354 N 
ATOM     64  N   UNL     1       5.137  12.156  -4.951  1.00  0.00    -0.248 NA
ATOM     65  C   UNL     1       4.461  13.219  -2.984  1.00  0.00     0.031 C 
ATOM     66  C   UNL     1       7.667  14.071  -8.067  1.00  0.00     0.029 A 
ATOM     67  C   UNL     1       6.881  13.500  -7.080  1.00  0.00     0.049 A 
ATOM     68  H   UNL     1       6.110  11.539  -6.966  1.00  0.00     0.167 HD
ATOM     69  C   UNL     1       5.615  13.466  -4.948  1.00  0.00     0.074 A 
ATOM     70  C   UNL     1       5.129  14.083  -3.733  1.00  0.00     0.031 C 
ATOM     71  C   UNL     1       6.385  14.105  -5.866  1.00  0.00     0.034 A 
BRANCH  58  72
ATOM     72  C   UNL     1       7.901  10.585 -10.739  1.00  0.00     0.023 A 
ATOM     73  C   UNL     1       7.199  10.313 -11.926  1.00  0.00     0.031 A 
ATOM     74  C   UNL     1       9.296  10.748 -10.822  1.00  0.00     0.131 A 
ATOM     75  C   UNL     1       7.898  10.151 -13.132  1.00  0.00     0.055 A 
ATOM     76  C   UNL     1       9.975  10.668 -12.039  1.00  0.00     0.041 A 
ATOM     77  F   UNL     1      10.023  10.985  -9.719  1.00  0.00    -0.206 F 
ATOM     78  C   UNL     1       9.278  10.355 -13.202  1.00  0.00     0.022 A 
BRANCH  75  79
ATOM     79  S   UNL     1       6.994   9.538 -14.579  1.00  0.00     0.124 S 
ATOM     80  O   UNL     1       6.495   8.255 -14.091  1.00  0.00    -0.237 OA
ATOM     81  O   UNL     1       5.992  10.576 -14.788  1.00  0.00    -0.237 OA
ATOM     82  O   UNL     1       8.024   9.447 -15.612  1.00  0.00    -0.744 OA
ENDBRANCH  75  79
ENDBRANCH  58  72
BRANCH  59  83
ATOM     83  C   UNL     1       2.978  10.884  -2.014  1.00  0.00     0.023 A 
ATOM     84  C   UNL     1       1.984  11.841  -1.754  1.00  0.00     0.031 A 
ATOM     85  C   UNL     1       3.370  10.042  -0.957  1.00  0.00     0.131 A 
ATOM     86  C   UNL     1       1.476  11.987  -0.454  1.00  0.00     0.055 A 
ATOM     87  C   UNL     1       2.806  10.142   0.317  1.00  0.00     0.041 A 
ATOM     88  F   UNL     1       4.317   9.109  -1.144  1.00  0.00    -0.206 F 
ATOM     89  C   UNL     1       1.867  11.134   0.579  1.00  0.00     0.022 A 
BRANCH  86  90
ATOM     90  S   UNL     1       0.403  13.407  -0.100  1.00  0.00     0.124 S 
ATOM     91  O   UNL     1       1.241  14.521  -0.529  1.00  0.00    -0.237 OA
ATOM     92  O   UNL     1      -0.760  13.119  -0.932  1.00  0.00    -0.237 OA
ATOM     93  O   UNL     1       0.179  13.310   1.341  1.00  0.00    -0.744 OA
ENDBRANCH  86  90
ENDBRANCH  59  83
BRANCH  71  94
ATOM     94  C   UNL     1       6.694  15.563  -5.619  1.00  0.00     0.023 A 
ATOM     95  C   UNL     1       7.472  15.984  -4.527  1.00  0.00     0.031 A 
ATOM     96  C   UNL     1       6.194  16.548  -6.491  1.00  0.00     0.131 A 
ATOM     97  C   UNL     1       7.672  17.354  -4.297  1.00  0.00     0.055 A 
ATOM     98  C   UNL     1       6.457  17.905  -6.298  1.00  0.00     0.041 A 
ATOM     99  F   UNL     1       5.443  16.206  -7.550  1.00  0.00    -0.206 F 
ATOM    100  C   UNL     1       7.188  18.316  -5.187  1.00  0.00     0.022 A 
BRANCH  97 101
ATOM    101  S   UNL     1       8.485  17.868  -2.759  1.00  0.00     0.124 S 
ATOM    102  O   UNL     1       7.616  17.277  -1.746  1.00  0.00    -0.237 OA
ATOM    103  O   UNL     1       9.809  17.269  -2.891  1.00  0.00    -0.237 OA
ATOM    104  O   UNL     1       8.455  19.328  -2.827  1.00  0.00    -0.744 OA
ENDBRANCH  97 101
ENDBRANCH  71  94
ENDBRANCH  45  46
ENDBRANCH  38  40
ENDBRANCH  37  38
ENDBRANCH  36  37
ENDBRANCH  35  36
ENDBRANCH  34  35
ENDBRANCH   1  34
TORSDOF 24
