REMARK SMILES O=C(OCCOCCOC(=O)c1ccc([C@H]2CCCN(C(=O)c3ccc4[nH]ccc4c3)C2)cc1)c1ccc(-c2c3nc(c(-c4cc(S(=O)(=O)[O-])ccc4F)c4ccc([nH]4)c(-c4cc(S(=O)(=O)[O-])ccc4F)c4nc(c(-c5cc(S(=O)(=O)[O-])ccc5F)c5ccc2[nH]5)C=C4)C=C3)cc1
REMARK SMILES IDX 6 1 5 2 4 3 3 4 2 5 1 6 35 7 36 8 97 9 37 10 96 11 38 12
REMARK SMILES IDX 39 13 40 14 90 15 41 16 95 17 89 18 91 19 42 20 94 21 88 22
REMARK SMILES IDX 87 23 43 25 75 26 55 27 74 28 56 29 59 30 73 31 92 32 57 33
REMARK SMILES IDX 58 34 72 36 93 37 60 38 44 39 45 40 53 41 46 42 52 43 54 44
REMARK SMILES IDX 51 45 47 46 48 47 49 48 50 49 76 50 77 51 85 52 78 53 84 54
REMARK SMILES IDX 86 55 83 56 79 57 80 58 81 59 82 60 61 61 62 62 70 63 63 64
REMARK SMILES IDX 69 65 71 66 68 67 64 68 65 69 66 70 67 71 7 72 8 73 9 74
REMARK SMILES IDX 10 75 11 76 12 77 13 78 34 79 14 80 33 81 15 82 16 83 17 84
REMARK SMILES IDX 32 85 18 86 20 87 19 88 21 89 22 90 23 91 24 92 31 93 25 94
REMARK SMILES IDX 30 95 26 96 29 97 27 98 28 99
REMARK H PARENT 91 24 59 35 27 100
REMARK Flexibility Score: inf
ROOT
ATOM      1  O   UNL     1      12.756   3.582   7.396  1.00  0.00    -0.374 OA
ENDROOT
BRANCH   1   2
ATOM      2  C   UNL     1      12.560   2.303   7.991  1.00  0.00     0.202 C 
BRANCH   2   3
ATOM      3  C   UNL     1      13.821   1.672   8.584  1.00  0.00     0.261 C 
BRANCH   3   4
ATOM      4  O   UNL     1      14.368   2.518   9.608  1.00  0.00    -0.460 OA
BRANCH   4   5
ATOM      5  C   UNL     1      15.493   3.270   9.546  1.00  0.00     0.338 C 
ATOM      6  O   UNL     1      15.863   3.857  10.561  1.00  0.00    -0.246 OA
BRANCH   5   7
ATOM      7  C   UNL     1      16.295   3.449   8.297  1.00  0.00     0.060 A 
ATOM      8  C   UNL     1      15.768   3.408   7.005  1.00  0.00     0.016 A 
ATOM      9  C   UNL     1      17.645   3.802   8.447  1.00  0.00     0.016 A 
ATOM     10  C   UNL     1      16.543   3.677   5.890  1.00  0.00     0.010 A 
ATOM     11  C   UNL     1      18.428   4.115   7.331  1.00  0.00     0.010 A 
ATOM     12  C   UNL     1      17.867   4.059   6.050  1.00  0.00    -0.014 A 
BRANCH  12  13
ATOM     13  C   UNL     1      18.643   4.356   4.837  1.00  0.00     0.031 A 
ATOM     14  C   UNL     1      19.622   3.336   4.357  1.00  0.00     0.074 A 
ATOM     15  C   UNL     1      18.372   5.480   4.148  1.00  0.00     0.049 A 
ATOM     16  N   UNL     1      20.485   3.418   3.386  1.00  0.00    -0.248 NA
ATOM     17  C   UNL     1      19.619   2.043   5.062  1.00  0.00     0.031 C 
ATOM     18  C   UNL     1      17.320   6.444   4.491  1.00  0.00     0.029 A 
ATOM     19  N   UNL     1      18.937   5.999   3.015  1.00  0.00    -0.354 N 
ATOM     20  C   UNL     1      21.163   2.205   3.388  1.00  0.00     0.074 A 
ATOM     21  C   UNL     1      20.598   1.398   4.446  1.00  0.00     0.031 C 
ATOM     22  C   UNL     1      17.320   7.435   3.586  1.00  0.00     0.029 A 
ATOM     23  C   UNL     1      18.425   7.227   2.661  1.00  0.00     0.049 A 
ATOM     24  H   UNL     1      19.641   5.539   2.503  1.00  0.00     0.167 HD
ATOM     25  C   UNL     1      22.183   1.831   2.583  1.00  0.00     0.034 A 
ATOM     26  C   UNL     1      18.858   8.106   1.735  1.00  0.00     0.034 A 
ATOM     27  C   UNL     1      22.703   2.685   1.547  1.00  0.00     0.049 A 
ATOM     28  C   UNL     1      20.072   7.707   0.930  1.00  0.00     0.074 A 
ATOM     29  C   UNL     1      23.749   2.449   0.675  1.00  0.00     0.029 A 
ATOM     30  N   UNL     1      22.217   3.957   1.257  1.00  0.00    -0.354 N 
ATOM     31  N   UNL     1      20.744   6.576   0.960  1.00  0.00    -0.248 NA
ATOM     32  C   UNL     1      20.602   8.698  -0.013  1.00  0.00     0.031 C 
ATOM     33  C   UNL     1      23.945   3.607  -0.084  1.00  0.00     0.029 A 
ATOM     34  C   UNL     1      22.972   4.538   0.255  1.00  0.00     0.049 A 
ATOM     35  H   UNL     1      21.447   4.381   1.700  1.00  0.00     0.167 HD
ATOM     36  C   UNL     1      21.770   6.718   0.033  1.00  0.00     0.074 A 
ATOM     37  C   UNL     1      21.607   8.031  -0.561  1.00  0.00     0.031 C 
ATOM     38  C   UNL     1      22.765   5.856  -0.298  1.00  0.00     0.034 A 
BRANCH  25  39
ATOM     39  C   UNL     1      22.858   0.519   2.882  1.00  0.00     0.023 A 
ATOM     40  C   UNL     1      22.210  -0.718   2.725  1.00  0.00     0.031 A 
ATOM     41  C   UNL     1      24.168   0.519   3.395  1.00  0.00     0.131 A 
ATOM     42  C   UNL     1      22.854  -1.898   3.130  1.00  0.00     0.055 A 
ATOM     43  C   UNL     1      24.829  -0.664   3.729  1.00  0.00     0.041 A 
ATOM     44  F   UNL     1      24.820   1.674   3.602  1.00  0.00    -0.206 F 
ATOM     45  C   UNL     1      24.168  -1.881   3.608  1.00  0.00     0.022 A 
BRANCH  42  46
ATOM     46  S   UNL     1      21.910  -3.448   3.145  1.00  0.00     0.124 S 
ATOM     47  O   UNL     1      20.857  -3.143   4.111  1.00  0.00    -0.237 OA
ATOM     48  O   UNL     1      21.485  -3.574   1.756  1.00  0.00    -0.237 OA
ATOM     49  O   UNL     1      22.886  -4.441   3.590  1.00  0.00    -0.744 OA
ENDBRANCH  42  46
ENDBRANCH  25  39
BRANCH  26  50
ATOM     50  C   UNL     1      18.243   9.462   1.603  1.00  0.00     0.023 A 
ATOM     51  C   UNL     1      17.738   9.922   0.376  1.00  0.00     0.031 A 
ATOM     52  C   UNL     1      18.227  10.360   2.689  1.00  0.00     0.131 A 
ATOM     53  C   UNL     1      17.300  11.252   0.250  1.00  0.00     0.055 A 
ATOM     54  C   UNL     1      17.723  11.657   2.577  1.00  0.00     0.041 A 
ATOM     55  F   UNL     1      18.711   9.991   3.886  1.00  0.00    -0.206 F 
ATOM     56  C   UNL     1      17.273  12.117   1.346  1.00  0.00     0.022 A 
BRANCH  53  57
ATOM     57  S   UNL     1      16.897  11.882  -1.404  1.00  0.00     0.124 S 
ATOM     58  O   UNL     1      18.109  11.557  -2.148  1.00  0.00    -0.237 OA
ATOM     59  O   UNL     1      15.709  11.105  -1.742  1.00  0.00    -0.237 OA
ATOM     60  O   UNL     1      16.666  13.307  -1.179  1.00  0.00    -0.744 OA
ENDBRANCH  53  57
ENDBRANCH  26  50
BRANCH  38  61
ATOM     61  C   UNL     1      23.724   6.314  -1.363  1.00  0.00     0.023 A 
ATOM     62  C   UNL     1      24.638   7.353  -1.124  1.00  0.00     0.031 A 
ATOM     63  C   UNL     1      23.739   5.683  -2.618  1.00  0.00     0.131 A 
ATOM     64  C   UNL     1      25.506   7.759  -2.145  1.00  0.00     0.055 A 
ATOM     65  C   UNL     1      24.648   6.050  -3.608  1.00  0.00     0.041 A 
ATOM     66  F   UNL     1      22.882   4.685  -2.892  1.00  0.00    -0.206 F 
ATOM     67  C   UNL     1      25.532   7.100  -3.377  1.00  0.00     0.022 A 
BRANCH  64  68
ATOM     68  S   UNL     1      26.560   9.206  -1.862  1.00  0.00     0.124 S 
ATOM     69  O   UNL     1      25.574  10.262  -1.658  1.00  0.00    -0.237 OA
ATOM     70  O   UNL     1      27.326   8.812  -0.684  1.00  0.00    -0.237 OA
ATOM     71  O   UNL     1      27.335   9.311  -3.097  1.00  0.00    -0.744 OA
ENDBRANCH  64  68
ENDBRANCH  38  61
ENDBRANCH  12  13
ENDBRANCH   5   7
ENDBRANCH   4   5
ENDBRANCH   3   4
ENDBRANCH   2   3
ENDBRANCH   1   2
BRANCH   1  72
ATOM     72  C   UNL     1      12.715   4.719   8.264  1.00  0.00     0.202 C 
BRANCH  72  73
ATOM     73  C   UNL     1      12.122   5.905   7.491  1.00  0.00     0.261 C 
BRANCH  73  74
ATOM     74  O   UNL     1      10.758   5.595   7.177  1.00  0.00    -0.460 OA
BRANCH  74  75
ATOM     75  C   UNL     1      10.603   4.747   6.120  1.00  0.00     0.338 C 
ATOM     76  O   UNL     1      11.291   4.671   5.130  1.00  0.00    -0.246 OA
BRANCH  75  77
ATOM     77  C   UNL     1       9.553   3.768   6.502  1.00  0.00     0.060 A 
ATOM     78  C   UNL     1       9.588   2.471   5.978  1.00  0.00     0.016 A 
ATOM     79  C   UNL     1       8.589   4.109   7.445  1.00  0.00     0.016 A 
ATOM     80  C   UNL     1       8.630   1.529   6.373  1.00  0.00     0.005 A 
ATOM     81  C   UNL     1       7.652   3.169   7.846  1.00  0.00     0.005 A 
ATOM     82  C   UNL     1       7.623   1.880   7.286  1.00  0.00    -0.043 A 
BRANCH  82  83
ATOM     83  C   UNL     1       6.472   0.925   7.568  1.00  0.00     0.039 C 
ATOM     84  C   UNL     1       6.825  -0.204   8.553  1.00  0.00     0.012 C 
ATOM     85  C   UNL     1       5.228   1.686   8.059  1.00  0.00     0.128 C 
ATOM     86  C   UNL     1       5.598  -1.075   8.870  1.00  0.00     0.022 C 
ATOM     87  N   UNL     1       4.115   0.807   8.329  1.00  0.00    -0.338 N 
ATOM     88  C   UNL     1       4.388  -0.246   9.305  1.00  0.00     0.120 C 
BRANCH  87  89
ATOM     89  C   UNL     1       2.905   1.096   7.721  1.00  0.00     0.253 C 
ATOM     90  O   UNL     1       2.735   1.969   6.875  1.00  0.00    -0.269 OA
BRANCH  89  91
ATOM     91  C   UNL     1       1.732   0.324   8.126  1.00  0.00     0.040 A 
ATOM     92  C   UNL     1       1.308  -0.726   7.314  1.00  0.00     0.016 A 
ATOM     93  C   UNL     1       1.049   0.704   9.288  1.00  0.00     0.024 A 
ATOM     94  C   UNL     1       0.189  -1.475   7.675  1.00  0.00     0.027 A 
ATOM     95  C   UNL     1      -0.095  -0.026   9.645  1.00  0.00     0.000 A 
ATOM     96  C   UNL     1      -0.486  -1.103   8.845  1.00  0.00     0.045 A 
ATOM     97  C   UNL     1      -1.043   0.084  10.697  1.00  0.00     0.028 A 
ATOM     98  N   UNL     1      -1.606  -1.649   9.431  1.00  0.00    -0.361 N 
ATOM     99  C   UNL     1      -1.966  -0.922  10.534  1.00  0.00     0.083 A 
ATOM    100  H   UNL     1      -2.079  -2.447   9.104  1.00  0.00     0.166 HD
ENDBRANCH  89  91
ENDBRANCH  87  89
ENDBRANCH  82  83
ENDBRANCH  75  77
ENDBRANCH  74  75
ENDBRANCH  73  74
ENDBRANCH  72  73
ENDBRANCH   1  72
TORSDOF 20
