REMARK SMILES CCCc1sc(C(=O)NCCC(=O)OCCOCCOC(=O)c2ccc(-c3c4nc(c(-c5cc(S(=O)(=O)[O-])ccc5F)c5ccc([nH]5)c(-c5cc(S(=O)(=O)[O-])ccc5F)c5nc(c(-c6cc(S(=O)(=O)[O-])ccc6F)c6ccc3[nH]6)C=C5)C=C4)cc2)cc1CC
REMARK SMILES IDX 16 1 15 2 14 3 12 4 13 5 11 6 10 7 9 8 7 9 8 10 6 12 4 13
REMARK SMILES IDX 5 14 87 15 86 16 3 17 2 18 1 19 88 20 89 21 17 22 18 23
REMARK SMILES IDX 19 24 20 25 21 26 22 27 23 28 24 29 85 30 25 31 84 32 26 33
REMARK SMILES IDX 27 34 28 35 78 36 29 37 83 38 77 39 79 40 30 41 82 42 76 43
REMARK SMILES IDX 75 44 31 46 63 47 43 48 62 49 44 50 47 51 61 52 80 53 45 54
REMARK SMILES IDX 46 55 60 57 81 58 48 59 32 60 33 61 41 62 34 63 40 64 42 65
REMARK SMILES IDX 39 66 35 67 36 68 37 69 38 70 64 71 65 72 73 73 66 74 72 75
REMARK SMILES IDX 74 76 71 77 67 78 68 79 69 80 70 81 49 82 50 83 58 84 51 85
REMARK SMILES IDX 57 86 59 87 56 88 52 89 53 90 54 91 55 92
REMARK H PARENT 9 11 79 45 47 56
REMARK Flexibility Score: inf
ROOT
ATOM      1  C   UNL     1      -2.375   7.963  -7.443  1.00  0.00     0.202 C 
ENDROOT
BRANCH   1   2
ATOM      2  C   UNL     1      -3.390   7.886  -6.302  1.00  0.00     0.261 C 
BRANCH   2   3
ATOM      3  O   UNL     1      -2.927   7.040  -5.230  1.00  0.00    -0.463 OA
BRANCH   3   4
ATOM      4  C   UNL     1      -3.732   5.995  -4.915  1.00  0.00     0.307 C 
ATOM      5  O   UNL     1      -4.795   5.725  -5.461  1.00  0.00    -0.252 OA
BRANCH   4   6
ATOM      6  C   UNL     1      -3.200   5.192  -3.760  1.00  0.00     0.144 C 
BRANCH   6   7
ATOM      7  C   UNL     1      -1.725   4.840  -3.848  1.00  0.00     0.128 C 
BRANCH   7   8
ATOM      8  N   UNL     1      -0.843   5.768  -3.162  1.00  0.00    -0.351 N 
ATOM      9  C   UNL     1       0.002   5.612  -2.079  1.00  0.00     0.261 C 
ATOM     10  O   UNL     1       0.578   6.632  -1.698  1.00  0.00    -0.268 OA
ATOM     11  H   UNL     1      -0.848   6.678  -3.538  1.00  0.00     0.163 HD
BRANCH   9  12
ATOM     12  C   UNL     1       0.148   4.316  -1.430  1.00  0.00     0.092 A 
ATOM     13  C   UNL     1       0.406   2.525   0.304  1.00  0.00     0.009 A 
ATOM     14  S   UNL     1       0.612   4.247   0.215  1.00  0.00    -0.135 S 
ATOM     15  C   UNL     1      -0.134   2.050  -0.884  1.00  0.00    -0.034 A 
ATOM     16  C   UNL     1       0.035   3.033  -1.917  1.00  0.00     0.029 A 
BRANCH  13  17
ATOM     17  C   UNL     1       0.795   1.894   1.623  1.00  0.00     0.047 C 
BRANCH  17  18
ATOM     18  C   UNL     1       0.784   0.372   1.725  1.00  0.00     0.002 C 
ATOM     19  C   UNL     1       1.776  -0.332   0.805  1.00  0.00     0.004 C 
ENDBRANCH  17  18
ENDBRANCH  13  17
BRANCH  15  20
ATOM     20  C   UNL     1      -0.761   0.722  -1.207  1.00  0.00     0.033 C 
ATOM     21  C   UNL     1      -2.244   0.876  -1.546  1.00  0.00     0.009 C 
ENDBRANCH  15  20
ENDBRANCH   9  12
ENDBRANCH   7   8
ENDBRANCH   6   7
ENDBRANCH   4   6
ENDBRANCH   3   4
ENDBRANCH   2   3
ENDBRANCH   1   2
BRANCH   1  22
ATOM     22  O   UNL     1      -2.221   6.786  -8.237  1.00  0.00    -0.374 OA
BRANCH  22  23
ATOM     23  C   UNL     1      -1.498   5.700  -7.666  1.00  0.00     0.202 C 
BRANCH  23  24
ATOM     24  C   UNL     1       0.031   5.833  -7.601  1.00  0.00     0.261 C 
BRANCH  24  25
ATOM     25  O   UNL     1       0.468   6.929  -6.776  1.00  0.00    -0.460 OA
BRANCH  25  26
ATOM     26  C   UNL     1       1.009   7.961  -7.470  1.00  0.00     0.338 C 
ATOM     27  O   UNL     1       1.206   8.001  -8.681  1.00  0.00    -0.246 OA
BRANCH  26  28
ATOM     28  C   UNL     1       1.167   9.152  -6.616  1.00  0.00     0.060 A 
ATOM     29  C   UNL     1       0.615  10.350  -7.089  1.00  0.00     0.016 A 
ATOM     30  C   UNL     1       1.925   9.137  -5.443  1.00  0.00     0.016 A 
ATOM     31  C   UNL     1       0.882  11.550  -6.437  1.00  0.00     0.010 A 
ATOM     32  C   UNL     1       2.201  10.349  -4.793  1.00  0.00     0.010 A 
ATOM     33  C   UNL     1       1.724  11.565  -5.317  1.00  0.00    -0.014 A 
BRANCH  33  34
ATOM     34  C   UNL     1       2.264  12.870  -4.853  1.00  0.00     0.031 A 
ATOM     35  C   UNL     1       3.639  13.283  -5.312  1.00  0.00     0.074 A 
ATOM     36  C   UNL     1       1.517  13.712  -4.116  1.00  0.00     0.049 A 
ATOM     37  N   UNL     1       4.307  14.380  -5.064  1.00  0.00    -0.248 NA
ATOM     38  C   UNL     1       4.355  12.325  -6.170  1.00  0.00     0.031 C 
ATOM     39  C   UNL     1       0.153  13.450  -3.660  1.00  0.00     0.029 A 
ATOM     40  N   UNL     1       1.800  14.963  -3.628  1.00  0.00    -0.354 N 
ATOM     41  C   UNL     1       5.519  14.246  -5.734  1.00  0.00     0.074 A 
ATOM     42  C   UNL     1       5.510  12.942  -6.362  1.00  0.00     0.031 C 
ATOM     43  C   UNL     1      -0.282  14.510  -2.956  1.00  0.00     0.029 A 
ATOM     44  C   UNL     1       0.782  15.511  -2.884  1.00  0.00     0.049 A 
ATOM     45  H   UNL     1       2.653  15.426  -3.796  1.00  0.00     0.167 HD
ATOM     46  C   UNL     1       6.542  15.132  -5.828  1.00  0.00     0.034 A 
ATOM     47  C   UNL     1       0.723  16.677  -2.208  1.00  0.00     0.034 A 
ATOM     48  C   UNL     1       6.544  16.425  -5.188  1.00  0.00     0.049 A 
ATOM     49  C   UNL     1       1.909  17.613  -2.256  1.00  0.00     0.074 A 
ATOM     50  C   UNL     1       7.528  17.399  -5.213  1.00  0.00     0.029 A 
ATOM     51  N   UNL     1       5.516  16.922  -4.398  1.00  0.00    -0.354 N 
ATOM     52  N   UNL     1       3.050  17.474  -2.892  1.00  0.00    -0.248 NA
ATOM     53  C   UNL     1       1.792  18.870  -1.504  1.00  0.00     0.031 C 
ATOM     54  C   UNL     1       7.124  18.453  -4.385  1.00  0.00     0.029 A 
ATOM     55  C   UNL     1       5.853  18.175  -3.908  1.00  0.00     0.049 A 
ATOM     56  H   UNL     1       4.670  16.454  -4.212  1.00  0.00     0.167 HD
ATOM     57  C   UNL     1       3.768  18.642  -2.646  1.00  0.00     0.074 A 
ATOM     58  C   UNL     1       2.927  19.478  -1.813  1.00  0.00     0.031 C 
ATOM     59  C   UNL     1       5.006  18.998  -3.075  1.00  0.00     0.034 A 
BRANCH  46  60
ATOM     60  C   UNL     1       7.761  14.700  -6.608  1.00  0.00     0.023 A 
ATOM     61  C   UNL     1       7.706  14.443  -7.989  1.00  0.00     0.031 A 
ATOM     62  C   UNL     1       8.990  14.508  -5.951  1.00  0.00     0.131 A 
ATOM     63  C   UNL     1       8.836  13.941  -8.654  1.00  0.00     0.055 A 
ATOM     64  C   UNL     1      10.132  14.084  -6.634  1.00  0.00     0.041 A 
ATOM     65  F   UNL     1       9.098  14.715  -4.629  1.00  0.00    -0.206 F 
ATOM     66  C   UNL     1      10.055  13.783  -7.990  1.00  0.00     0.022 A 
BRANCH  63  67
ATOM     67  S   UNL     1       8.654  13.361 -10.363  1.00  0.00     0.124 S 
ATOM     68  O   UNL     1       7.632  12.327 -10.217  1.00  0.00    -0.237 OA
ATOM     69  O   UNL     1       8.243  14.572 -11.065  1.00  0.00    -0.237 OA
ATOM     70  O   UNL     1       9.987  12.866 -10.701  1.00  0.00    -0.744 OA
ENDBRANCH  63  67
ENDBRANCH  46  60
BRANCH  47  71
ATOM     71  C   UNL     1      -0.480  17.022  -1.395  1.00  0.00     0.023 A 
ATOM     72  C   UNL     1      -1.268  18.145  -1.694  1.00  0.00     0.031 A 
ATOM     73  C   UNL     1      -0.819  16.264  -0.260  1.00  0.00     0.131 A 
ATOM     74  C   UNL     1      -2.323  18.507  -0.842  1.00  0.00     0.055 A 
ATOM     75  C   UNL     1      -1.903  16.596   0.554  1.00  0.00     0.041 A 
ATOM     76  F   UNL     1      -0.098  15.182   0.074  1.00  0.00    -0.206 F 
ATOM     77  C   UNL     1      -2.654  17.732   0.273  1.00  0.00     0.022 A 
BRANCH  74  78
ATOM     78  S   UNL     1      -3.205  20.061  -1.158  1.00  0.00     0.124 S 
ATOM     79  O   UNL     1      -2.121  21.034  -1.103  1.00  0.00    -0.237 OA
ATOM     80  O   UNL     1      -3.784  19.817  -2.476  1.00  0.00    -0.237 OA
ATOM     81  O   UNL     1      -4.168  20.135  -0.062  1.00  0.00    -0.744 OA
ENDBRANCH  74  78
ENDBRANCH  47  71
BRANCH  59  82
ATOM     82  C   UNL     1       5.498  20.376  -2.701  1.00  0.00     0.023 A 
ATOM     83  C   UNL     1       5.778  20.732  -1.371  1.00  0.00     0.031 A 
ATOM     84  C   UNL     1       5.679  21.352  -3.699  1.00  0.00     0.131 A 
ATOM     85  C   UNL     1       6.170  22.046  -1.066  1.00  0.00     0.055 A 
ATOM     86  C   UNL     1       6.127  22.639  -3.397  1.00  0.00     0.041 A 
ATOM     87  F   UNL     1       5.426  21.068  -4.987  1.00  0.00    -0.206 F 
ATOM     88  C   UNL     1       6.361  22.996  -2.073  1.00  0.00     0.022 A 
BRANCH  85  89
ATOM     89  S   UNL     1       6.334  22.526   0.675  1.00  0.00     0.124 S 
ATOM     90  O   UNL     1       5.006  22.226   1.201  1.00  0.00    -0.237 OA
ATOM     91  O   UNL     1       7.414  21.661   1.137  1.00  0.00    -0.237 OA
ATOM     92  O   UNL     1       6.666  23.949   0.609  1.00  0.00    -0.744 OA
ENDBRANCH  85  89
ENDBRANCH  59  82
ENDBRANCH  33  34
ENDBRANCH  26  28
ENDBRANCH  25  26
ENDBRANCH  24  25
ENDBRANCH  23  24
ENDBRANCH  22  23
ENDBRANCH   1  22
TORSDOF 23
