REMARK SMILES O=C(OCCOCCOC(=O)c1oc2cccc3c2c1CCC3)c1ccc(-c2c3nc(c(-c4cc(S(=O)(=O)[O-])ccc4F)c4ccc([nH]4)c(-c4cc(S(=O)(=O)[O-])ccc4F)c4nc(c(-c5cc(S(=O)(=O)[O-])ccc5F)c5ccc2[nH]5)C=C4)C=C3)cc1
REMARK SMILES IDX 4 1 3 2 2 3 1 4 24 5 25 6 86 7 26 8 85 9 27 10 28 11 29 12
REMARK SMILES IDX 79 13 30 14 84 15 78 16 80 17 31 18 83 19 77 20 76 21 32 23
REMARK SMILES IDX 64 24 44 25 63 26 45 27 48 28 62 29 81 30 46 31 47 32 61 34
REMARK SMILES IDX 82 35 49 36 33 37 34 38 42 39 35 40 41 41 43 42 40 43 36 44
REMARK SMILES IDX 37 45 38 46 39 47 65 48 66 49 74 50 67 51 73 52 75 53 72 54
REMARK SMILES IDX 68 55 69 56 70 57 71 58 50 59 51 60 59 61 52 62 58 63 60 64
REMARK SMILES IDX 57 65 53 66 54 67 55 68 56 69 5 70 6 71 7 72 8 73 9 74 10 75
REMARK SMILES IDX 11 76 12 77 13 78 20 79 14 80 19 81 21 82 15 83 18 84 22 85
REMARK SMILES IDX 16 86 17 87 23 88
REMARK H PARENT 80 22 48 33
REMARK Flexibility Score: inf
ROOT
ATOM      1  C   UNL     1       4.607  -1.304  -0.621  1.00  0.00     0.261 C 
ENDROOT
BRANCH   1   2
ATOM      2  O   UNL     1       3.283  -1.812  -0.359  1.00  0.00    -0.460 OA
BRANCH   2   3
ATOM      3  C   UNL     1       2.287  -1.001   0.077  1.00  0.00     0.338 C 
ATOM      4  O   UNL     1       1.233  -0.886  -0.538  1.00  0.00    -0.246 OA
BRANCH   3   5
ATOM      5  C   UNL     1       2.408  -0.563   1.489  1.00  0.00     0.060 A 
ATOM      6  C   UNL     1       3.624  -0.243   2.093  1.00  0.00     0.016 A 
ATOM      7  C   UNL     1       1.233  -0.572   2.254  1.00  0.00     0.016 A 
ATOM      8  C   UNL     1       3.713  -0.177   3.465  1.00  0.00     0.010 A 
ATOM      9  C   UNL     1       1.307  -0.447   3.634  1.00  0.00     0.010 A 
ATOM     10  C   UNL     1       2.561  -0.346   4.230  1.00  0.00    -0.014 A 
BRANCH  10  11
ATOM     11  C   UNL     1       2.772  -0.456   5.661  1.00  0.00     0.031 A 
ATOM     12  C   UNL     1       3.270   0.760   6.346  1.00  0.00     0.074 A 
ATOM     13  C   UNL     1       2.548  -1.607   6.317  1.00  0.00     0.049 A 
ATOM     14  N   UNL     1       4.411   0.955   6.926  1.00  0.00    -0.248 NA
ATOM     15  C   UNL     1       2.411   1.948   6.277  1.00  0.00     0.031 C 
ATOM     16  C   UNL     1       1.798  -2.776   5.853  1.00  0.00     0.029 A 
ATOM     17  N   UNL     1       2.863  -1.918   7.601  1.00  0.00    -0.354 N 
ATOM     18  C   UNL     1       4.349   2.242   7.456  1.00  0.00     0.074 A 
ATOM     19  C   UNL     1       3.163   2.850   6.905  1.00  0.00     0.031 C 
ATOM     20  C   UNL     1       1.511  -3.558   6.917  1.00  0.00     0.029 A 
ATOM     21  C   UNL     1       2.179  -3.015   8.089  1.00  0.00     0.049 A 
ATOM     22  H   UNL     1       3.516  -1.410   8.135  1.00  0.00     0.167 HD
ATOM     23  C   UNL     1       5.167   2.664   8.462  1.00  0.00     0.034 A 
ATOM     24  C   UNL     1       2.071  -3.371   9.389  1.00  0.00     0.034 A 
ATOM     25  C   UNL     1       6.302   1.805   8.639  1.00  0.00     0.049 A 
ATOM     26  C   UNL     1       3.169  -2.719  10.145  1.00  0.00     0.074 A 
ATOM     27  C   UNL     1       7.406   1.468   7.885  1.00  0.00     0.029 A 
ATOM     28  N   UNL     1       6.255   0.902   9.670  1.00  0.00    -0.354 N 
ATOM     29  N   UNL     1       4.433  -3.025  10.032  1.00  0.00    -0.248 NA
ATOM     30  C   UNL     1       2.896  -1.438  10.779  1.00  0.00     0.031 C 
ATOM     31  C   UNL     1       7.723   0.131   8.257  1.00  0.00     0.029 A 
ATOM     32  C   UNL     1       6.793  -0.274   9.218  1.00  0.00     0.049 A 
ATOM     33  H   UNL     1       5.899   1.069  10.573  1.00  0.00     0.167 HD
ATOM     34  C   UNL     1       5.107  -1.822  10.194  1.00  0.00     0.074 A 
ATOM     35  C   UNL     1       4.125  -0.916  10.780  1.00  0.00     0.031 C 
ATOM     36  C   UNL     1       6.310  -1.589   9.589  1.00  0.00     0.034 A 
BRANCH  23  37
ATOM     37  C   UNL     1       4.756   3.680   9.501  1.00  0.00     0.023 A 
ATOM     38  C   UNL     1       3.411   4.031   9.717  1.00  0.00     0.031 A 
ATOM     39  C   UNL     1       5.675   4.144  10.465  1.00  0.00     0.131 A 
ATOM     40  C   UNL     1       3.019   4.818  10.805  1.00  0.00     0.055 A 
ATOM     41  C   UNL     1       5.275   4.873  11.593  1.00  0.00     0.041 A 
ATOM     42  F   UNL     1       6.981   3.851  10.372  1.00  0.00    -0.206 F 
ATOM     43  C   UNL     1       3.940   5.218  11.767  1.00  0.00     0.022 A 
BRANCH  40  44
ATOM     44  S   UNL     1       1.287   5.325  10.980  1.00  0.00     0.124 S 
ATOM     45  O   UNL     1       0.887   4.604  12.183  1.00  0.00    -0.237 OA
ATOM     46  O   UNL     1       1.412   6.774  11.118  1.00  0.00    -0.237 OA
ATOM     47  O   UNL     1       0.675   4.877   9.732  1.00  0.00    -0.744 OA
ENDBRANCH  40  44
ENDBRANCH  23  37
BRANCH  24  48
ATOM     48  C   UNL     1       0.827  -3.852  10.029  1.00  0.00     0.023 A 
ATOM     49  C   UNL     1      -0.429  -3.495   9.498  1.00  0.00     0.031 A 
ATOM     50  C   UNL     1       0.844  -4.444  11.300  1.00  0.00     0.131 A 
ATOM     51  C   UNL     1      -1.604  -3.705  10.229  1.00  0.00     0.055 A 
ATOM     52  C   UNL     1      -0.331  -4.656  12.030  1.00  0.00     0.041 A 
ATOM     53  F   UNL     1       2.008  -4.778  11.879  1.00  0.00    -0.206 F 
ATOM     54  C   UNL     1      -1.563  -4.280  11.498  1.00  0.00     0.022 A 
BRANCH  51  55
ATOM     55  S   UNL     1      -3.203  -3.206   9.533  1.00  0.00     0.124 S 
ATOM     56  O   UNL     1      -4.092  -4.277   9.980  1.00  0.00    -0.237 OA
ATOM     57  O   UNL     1      -3.413  -1.909  10.165  1.00  0.00    -0.237 OA
ATOM     58  O   UNL     1      -2.951  -3.182   8.094  1.00  0.00    -0.744 OA
ENDBRANCH  51  55
ENDBRANCH  24  48
BRANCH  36  59
ATOM     59  C   UNL     1       7.061  -2.754   8.992  1.00  0.00     0.023 A 
ATOM     60  C   UNL     1       8.407  -2.927   9.364  1.00  0.00     0.031 A 
ATOM     61  C   UNL     1       6.571  -3.527   7.924  1.00  0.00     0.131 A 
ATOM     62  C   UNL     1       9.221  -3.826   8.664  1.00  0.00     0.055 A 
ATOM     63  C   UNL     1       7.370  -4.468   7.269  1.00  0.00     0.041 A 
ATOM     64  F   UNL     1       5.342  -3.331   7.428  1.00  0.00    -0.206 F 
ATOM     65  C   UNL     1       8.706  -4.613   7.630  1.00  0.00     0.022 A 
BRANCH  62  66
ATOM     66  S   UNL     1      11.002  -3.901   8.987  1.00  0.00     0.124 S 
ATOM     67  O   UNL     1      11.189  -5.296   9.379  1.00  0.00    -0.237 OA
ATOM     68  O   UNL     1      11.566  -3.537   7.689  1.00  0.00    -0.237 OA
ATOM     69  O   UNL     1      11.213  -2.922  10.049  1.00  0.00    -0.744 OA
ENDBRANCH  62  66
ENDBRANCH  36  59
ENDBRANCH  10  11
ENDBRANCH   3   5
ENDBRANCH   2   3
ENDBRANCH   1   2
BRANCH   1  70
ATOM     70  C   UNL     1       4.618   0.011  -1.397  1.00  0.00     0.202 C 
BRANCH  70  71
ATOM     71  O   UNL     1       4.098   1.147  -0.707  1.00  0.00    -0.374 OA
BRANCH  71  72
ATOM     72  C   UNL     1       2.966   1.772  -1.331  1.00  0.00     0.202 C 
BRANCH  72  73
ATOM     73  C   UNL     1       3.259   2.591  -2.598  1.00  0.00     0.261 C 
BRANCH  73  74
ATOM     74  O   UNL     1       3.528   1.731  -3.725  1.00  0.00    -0.457 OA
BRANCH  74  75
ATOM     75  C   UNL     1       4.850   1.539  -4.015  1.00  0.00     0.374 C 
ATOM     76  O   UNL     1       5.764   2.225  -3.593  1.00  0.00    -0.242 OA
BRANCH  75  77
ATOM     77  C   UNL     1       4.996   0.296  -4.738  1.00  0.00     0.216 A 
ATOM     78  O   UNL     1       5.915  -0.620  -4.242  1.00  0.00    -0.449 OA
ATOM     79  C   UNL     1       4.357  -0.254  -5.831  1.00  0.00     0.014 A 
ATOM     80  C   UNL     1       5.860  -1.732  -5.031  1.00  0.00     0.135 A 
ATOM     81  C   UNL     1       4.958  -1.508  -6.039  1.00  0.00     0.028 A 
ATOM     82  C   UNL     1       3.294   0.188  -6.770  1.00  0.00     0.041 C 
ATOM     83  C   UNL     1       6.570  -2.919  -4.913  1.00  0.00     0.048 A 
ATOM     84  C   UNL     1       4.740  -2.418  -7.072  1.00  0.00    -0.037 A 
ATOM     85  C   UNL     1       3.530  -0.470  -8.164  1.00  0.00     0.010 C 
ATOM     86  C   UNL     1       6.332  -3.869  -5.927  1.00  0.00     0.004 A 
ATOM     87  C   UNL     1       5.444  -3.625  -6.993  1.00  0.00     0.004 A 
ATOM     88  C   UNL     1       3.752  -2.020  -8.135  1.00  0.00     0.036 C 
ENDBRANCH  75  77
ENDBRANCH  74  75
ENDBRANCH  73  74
ENDBRANCH  72  73
ENDBRANCH  71  72
ENDBRANCH  70  71
ENDBRANCH   1  70
TORSDOF 17
