REMARK SMILES CO[C@H]1C[C@H](C(=O)OCCOCCOC(=O)c2ccc(-c3c4nc(c(-c5cc(S(=O)(=O)[O-])ccc5F)c5ccc([nH]5)c(-c5cc(S(=O)(=O)[O-])ccc5F)c5nc(c(-c6cc(S(=O)(=O)[O-])ccc6F)c6ccc3[nH]6)C=C5)C=C4)cc2)N(C(=O)c2cc(Cl)c(Cl)n2C)C1
REMARK SMILES IDX 12 1 11 2 10 3 9 4 8 5 6 6 7 7 5 8 3 9 4 10 91 11 80 12 2 13
REMARK SMILES IDX 1 14 81 15 82 16 83 17 84 18 89 19 85 20 87 21 90 22 86 23
REMARK SMILES IDX 88 24 13 25 14 26 15 27 16 28 17 29 18 30 79 31 19 32 78 33
REMARK SMILES IDX 20 34 21 35 22 36 72 37 23 38 77 39 71 40 73 41 24 42 76 43
REMARK SMILES IDX 70 44 69 45 25 47 57 48 37 49 56 50 38 51 41 52 55 53 74 54
REMARK SMILES IDX 39 55 40 56 54 58 75 59 42 60 26 61 27 62 35 63 28 64 34 65
REMARK SMILES IDX 36 66 33 67 29 68 30 69 31 70 32 71 58 72 59 73 67 74 60 75
REMARK SMILES IDX 66 76 68 77 65 78 61 79 62 80 63 81 64 82 43 83 44 84 52 85
REMARK SMILES IDX 45 86 51 87 53 88 50 89 46 90 47 91 48 92 49 93
REMARK H PARENT 73 46 41 57
REMARK Flexibility Score: inf
ROOT
ATOM      1  C   UNL     1      -3.383  -0.081  -1.780  1.00  0.00     0.202 C 
ENDROOT
BRANCH   1   2
ATOM      2  O   UNL     1      -4.332  -0.698  -0.912  1.00  0.00    -0.374 OA
BRANCH   2   3
ATOM      3  C   UNL     1      -3.883  -1.222   0.335  1.00  0.00     0.202 C 
BRANCH   3   4
ATOM      4  C   UNL     1      -3.061  -2.511   0.297  1.00  0.00     0.261 C 
BRANCH   4   5
ATOM      5  O   UNL     1      -1.935  -2.395  -0.585  1.00  0.00    -0.462 OA
BRANCH   5   6
ATOM      6  C   UNL     1      -1.986  -3.199  -1.678  1.00  0.00     0.329 C 
ATOM      7  O   UNL     1      -2.827  -4.075  -1.852  1.00  0.00    -0.250 OA
BRANCH   6   8
ATOM      8  C   UNL     1      -0.854  -2.922  -2.681  1.00  0.00     0.198 C 
ATOM      9  C   UNL     1       1.142  -2.326  -1.464  1.00  0.00     0.140 C 
ATOM     10  C   UNL     1       0.070  -1.752  -2.391  1.00  0.00     0.071 C 
ATOM     11  C   UNL     1       1.205  -3.816  -1.848  1.00  0.00     0.153 C 
ATOM     12  N   UNL     1       0.043  -4.069  -2.691  1.00  0.00    -0.321 N 
BRANCH   9  13
ATOM     13  O   UNL     1       2.405  -1.698  -1.686  1.00  0.00    -0.380 OA
ATOM     14  C   UNL     1       2.429  -0.324  -1.311  1.00  0.00     0.195 C 
ENDBRANCH   9  13
BRANCH  12  15
ATOM     15  C   UNL     1      -0.191  -5.303  -3.265  1.00  0.00     0.271 C 
ATOM     16  O   UNL     1       0.524  -6.273  -3.022  1.00  0.00    -0.267 OA
BRANCH  15  17
ATOM     17  C   UNL     1      -1.333  -5.403  -4.151  1.00  0.00     0.109 A 
ATOM     18  C   UNL     1      -1.541  -4.746  -5.359  1.00  0.00     0.055 A 
ATOM     19  N   UNL     1      -2.446  -6.203  -3.933  1.00  0.00    -0.329 N 
ATOM     20  C   UNL     1      -2.813  -5.114  -5.850  1.00  0.00     0.078 A 
ATOM     21  C   UNL     1      -3.335  -6.013  -4.959  1.00  0.00     0.128 A 
ATOM     22  C   UNL     1      -2.672  -7.022  -2.759  1.00  0.00     0.151 C 
ATOM     23  Cl  UNL     1      -3.507  -4.511  -7.277  1.00  0.00    -0.081 Cl
ATOM     24  Cl  UNL     1      -4.833  -6.835  -4.977  1.00  0.00    -0.063 Cl
ENDBRANCH  15  17
ENDBRANCH  12  15
ENDBRANCH   6   8
ENDBRANCH   5   6
ENDBRANCH   4   5
ENDBRANCH   3   4
ENDBRANCH   2   3
ENDBRANCH   1   2
BRANCH   1  25
ATOM     25  C   UNL     1      -2.682   1.202  -1.311  1.00  0.00     0.261 C 
BRANCH  25  26
ATOM     26  O   UNL     1      -1.848   1.011  -0.152  1.00  0.00    -0.460 OA
BRANCH  26  27
ATOM     27  C   UNL     1      -2.249   1.712   0.941  1.00  0.00     0.338 C 
ATOM     28  O   UNL     1      -3.192   2.489   1.003  1.00  0.00    -0.246 OA
BRANCH  27  29
ATOM     29  C   UNL     1      -1.518   1.274   2.143  1.00  0.00     0.060 A 
ATOM     30  C   UNL     1      -2.273   0.774   3.211  1.00  0.00     0.016 A 
ATOM     31  C   UNL     1      -0.141   1.464   2.274  1.00  0.00     0.016 A 
ATOM     32  C   UNL     1      -1.663   0.506   4.434  1.00  0.00     0.010 A 
ATOM     33  C   UNL     1       0.469   1.202   3.508  1.00  0.00     0.010 A 
ATOM     34  C   UNL     1      -0.295   0.757   4.604  1.00  0.00    -0.014 A 
BRANCH  34  35
ATOM     35  C   UNL     1       0.289   0.698   5.968  1.00  0.00     0.031 A 
ATOM     36  C   UNL     1       0.511   1.981   6.725  1.00  0.00     0.074 A 
ATOM     37  C   UNL     1       0.571  -0.484   6.545  1.00  0.00     0.049 A 
ATOM     38  N   UNL     1       1.039   2.167   7.907  1.00  0.00    -0.248 NA
ATOM     39  C   UNL     1       0.079   3.217   6.056  1.00  0.00     0.031 C 
ATOM     40  C   UNL     1       0.349  -1.793   5.932  1.00  0.00     0.029 A 
ATOM     41  N   UNL     1       1.108  -0.774   7.774  1.00  0.00    -0.354 N 
ATOM     42  C   UNL     1       1.008   3.541   8.124  1.00  0.00     0.074 A 
ATOM     43  C   UNL     1       0.442   4.141   6.934  1.00  0.00     0.031 C 
ATOM     44  C   UNL     1       0.759  -2.748   6.785  1.00  0.00     0.029 A 
ATOM     45  C   UNL     1       1.309  -2.118   7.984  1.00  0.00     0.049 A 
ATOM     46  H   UNL     1       1.329  -0.085   8.441  1.00  0.00     0.167 HD
ATOM     47  C   UNL     1       1.408   4.236   9.218  1.00  0.00     0.034 A 
ATOM     48  C   UNL     1       1.896  -2.765   9.012  1.00  0.00     0.034 A 
ATOM     49  C   UNL     1       1.978   3.624  10.395  1.00  0.00     0.049 A 
ATOM     50  C   UNL     1       2.408  -1.965  10.185  1.00  0.00     0.074 A 
ATOM     51  C   UNL     1       2.407   4.234  11.560  1.00  0.00     0.029 A 
ATOM     52  N   UNL     1       2.207   2.263  10.554  1.00  0.00    -0.354 N 
ATOM     53  N   UNL     1       2.380  -0.666  10.375  1.00  0.00    -0.248 NA
ATOM     54  C   UNL     1       3.022  -2.720  11.286  1.00  0.00     0.031 C 
ATOM     55  C   UNL     1       2.963   3.255  12.391  1.00  0.00     0.029 A 
ATOM     56  C   UNL     1       2.803   2.020  11.783  1.00  0.00     0.049 A 
ATOM     57  H   UNL     1       1.980   1.572   9.891  1.00  0.00     0.167 HD
ATOM     58  C   UNL     1       2.948  -0.453  11.630  1.00  0.00     0.074 A 
ATOM     59  C   UNL     1       3.295  -1.757  12.155  1.00  0.00     0.031 C 
ATOM     60  C   UNL     1       3.158   0.715  12.290  1.00  0.00     0.034 A 
BRANCH  47  61
ATOM     61  C   UNL     1       1.293   5.740   9.168  1.00  0.00     0.023 A 
ATOM     62  C   UNL     1       0.048   6.389   9.091  1.00  0.00     0.031 A 
ATOM     63  C   UNL     1       2.451   6.539   9.183  1.00  0.00     0.131 A 
ATOM     64  C   UNL     1      -0.007   7.786   8.971  1.00  0.00     0.055 A 
ATOM     65  C   UNL     1       2.386   7.933   9.140  1.00  0.00     0.041 A 
ATOM     66  F   UNL     1       3.668   5.975   9.230  1.00  0.00    -0.206 F 
ATOM     67  C   UNL     1       1.152   8.564   9.021  1.00  0.00     0.022 A 
BRANCH  64  68
ATOM     68  S   UNL     1      -1.607   8.565   8.618  1.00  0.00     0.124 S 
ATOM     69  O   UNL     1      -1.976   7.923   7.359  1.00  0.00    -0.237 OA
ATOM     70  O   UNL     1      -2.403   8.194   9.782  1.00  0.00    -0.237 OA
ATOM     71  O   UNL     1      -1.280   9.986   8.512  1.00  0.00    -0.744 OA
ENDBRANCH  64  68
ENDBRANCH  47  61
BRANCH  48  72
ATOM     72  C   UNL     1       2.082  -4.244   8.959  1.00  0.00     0.023 A 
ATOM     73  C   UNL     1       1.454  -5.095   9.880  1.00  0.00     0.031 A 
ATOM     74  C   UNL     1       2.935  -4.823   8.001  1.00  0.00     0.131 A 
ATOM     75  C   UNL     1       1.718  -6.474   9.850  1.00  0.00     0.055 A 
ATOM     76  C   UNL     1       3.154  -6.199   7.942  1.00  0.00     0.041 A 
ATOM     77  F   UNL     1       3.562  -4.053   7.097  1.00  0.00    -0.206 F 
ATOM     78  C   UNL     1       2.552  -7.033   8.879  1.00  0.00     0.022 A 
BRANCH  75  79
ATOM     79  S   UNL     1       1.012  -7.523  11.151  1.00  0.00     0.124 S 
ATOM     80  O   UNL     1       1.574  -6.922  12.355  1.00  0.00    -0.237 OA
ATOM     81  O   UNL     1      -0.420  -7.334  10.947  1.00  0.00    -0.237 OA
ATOM     82  O   UNL     1       1.515  -8.855  10.823  1.00  0.00    -0.744 OA
ENDBRANCH  75  79
ENDBRANCH  48  72
BRANCH  60  83
ATOM     83  C   UNL     1       3.754   0.628  13.676  1.00  0.00     0.023 A 
ATOM     84  C   UNL     1       5.069   0.182  13.892  1.00  0.00     0.031 A 
ATOM     85  C   UNL     1       2.989   0.995  14.797  1.00  0.00     0.131 A 
ATOM     86  C   UNL     1       5.561   0.063  15.201  1.00  0.00     0.055 A 
ATOM     87  C   UNL     1       3.505   0.934  16.093  1.00  0.00     0.041 A 
ATOM     88  F   UNL     1       1.726   1.426  14.652  1.00  0.00    -0.206 F 
ATOM     89  C   UNL     1       4.794   0.453  16.301  1.00  0.00     0.022 A 
BRANCH  86  90
ATOM     90  S   UNL     1       7.189  -0.696  15.455  1.00  0.00     0.124 S 
ATOM     91  O   UNL     1       7.012  -2.007  14.839  1.00  0.00    -0.237 OA
ATOM     92  O   UNL     1       8.076   0.224  14.751  1.00  0.00    -0.237 OA
ATOM     93  O   UNL     1       7.338  -0.710  16.909  1.00  0.00    -0.744 OA
ENDBRANCH  86  90
ENDBRANCH  60  83
ENDBRANCH  34  35
ENDBRANCH  27  29
ENDBRANCH  26  27
ENDBRANCH  25  26
ENDBRANCH   1  25
TORSDOF 20
