REMARK SMILES CC[NH2+][C@]1(C(=O)OCCOCCOC(=O)c2ccc(-c3c4nc(c(-c5cc(S(=O)(=O)[O-])ccc5F)c5ccc([nH]5)c(-c5cc(S(=O)(=O)[O-])ccc5F)c5nc(c(-c6cc(S(=O)(=O)[O-])ccc6F)c6ccc3[nH]6)C=C5)C=C4)cc2)CCC[C@H]1CCSc1ccc(Cl)cc1
REMARK SMILES IDX 9 1 8 2 7 3 5 4 6 5 4 6 79 7 82 8 80 9 81 10 3 11 2 14 1 15
REMARK SMILES IDX 83 16 84 17 85 18 86 19 87 20 92 21 88 22 91 23 89 24 90 25
REMARK SMILES IDX 10 26 11 27 12 28 13 29 14 30 15 31 16 32 17 33 78 34 18 35
REMARK SMILES IDX 77 36 19 37 20 38 21 39 71 40 22 41 76 42 70 43 72 44 23 45
REMARK SMILES IDX 75 46 69 47 68 48 24 50 56 51 36 52 55 53 37 54 40 55 54 56
REMARK SMILES IDX 73 57 38 58 39 59 53 61 74 62 41 63 25 64 26 65 34 66 27 67
REMARK SMILES IDX 33 68 35 69 32 70 28 71 29 72 30 73 31 74 57 75 58 76 66 77
REMARK SMILES IDX 59 78 65 79 67 80 64 81 60 82 61 83 62 84 63 85 42 86 43 87
REMARK SMILES IDX 51 88 44 89 50 90 52 91 49 92 45 93 46 94 47 95 48 96
REMARK H PARENT 3 12 3 13 72 49 40 60
REMARK Flexibility Score: inf
ROOT
ATOM      1  C   UNL     1       3.212   0.129   1.743  1.00  0.00     0.202 C 
ENDROOT
BRANCH   1   2
ATOM      2  C   UNL     1       1.885  -0.433   2.286  1.00  0.00     0.261 C 
BRANCH   2   3
ATOM      3  O   UNL     1       1.644  -1.861   2.155  1.00  0.00    -0.459 OA
BRANCH   3   4
ATOM      4  C   UNL     1       0.646  -2.176   1.274  1.00  0.00     0.368 C 
ATOM      5  O   UNL     1       0.207  -1.367   0.457  1.00  0.00    -0.245 OA
BRANCH   4   6
ATOM      6  C   UNL     1      -0.046  -3.561   1.512  1.00  0.00     0.197 C 
ATOM      7  C   UNL     1      -0.845  -3.832   0.210  1.00  0.00     0.081 C 
ATOM      8  C   UNL     1       0.718  -4.908   1.673  1.00  0.00     0.063 C 
ATOM      9  C   UNL     1      -1.130  -5.319   0.113  1.00  0.00     0.008 C 
ATOM     10  C   UNL     1      -0.308  -5.971   1.206  1.00  0.00     0.011 C 
BRANCH   6  11
ATOM     11  N   UNL     1      -0.808  -3.443   2.783  1.00  0.00    -0.332 N 
ATOM     12  H   UNL     1      -0.453  -4.170   3.405  1.00  0.00     0.347 HD
ATOM     13  H   UNL     1      -0.656  -2.472   3.054  1.00  0.00     0.347 HD
BRANCH  11  14
ATOM     14  C   UNL     1      -2.247  -3.562   2.786  1.00  0.00     0.257 C 
ATOM     15  C   UNL     1      -2.727  -3.543   4.232  1.00  0.00     0.071 C 
ENDBRANCH  11  14
ENDBRANCH   6  11
BRANCH   8  16
ATOM     16  C   UNL     1       2.063  -5.124   0.967  1.00  0.00     0.022 C 
BRANCH  16  17
ATOM     17  C   UNL     1       3.282  -5.209   1.905  1.00  0.00     0.075 C 
BRANCH  17  18
ATOM     18  S   UNL     1       3.216  -6.409   3.300  1.00  0.00    -0.126 SA
BRANCH  18  19
ATOM     19  C   UNL     1       2.328  -5.532   4.593  1.00  0.00     0.007 A 
ATOM     20  C   UNL     1       2.281  -4.136   4.713  1.00  0.00     0.016 A 
ATOM     21  C   UNL     1       1.579  -6.300   5.495  1.00  0.00     0.016 A 
ATOM     22  C   UNL     1       1.468  -3.518   5.666  1.00  0.00     0.021 A 
ATOM     23  C   UNL     1       0.759  -5.685   6.448  1.00  0.00     0.021 A 
ATOM     24  C   UNL     1       0.695  -4.296   6.518  1.00  0.00     0.041 A 
ATOM     25  Cl  UNL     1      -0.364  -3.536   7.639  1.00  0.00    -0.084 Cl
ENDBRANCH  18  19
ENDBRANCH  17  18
ENDBRANCH  16  17
ENDBRANCH   8  16
ENDBRANCH   4   6
ENDBRANCH   3   4
ENDBRANCH   2   3
ENDBRANCH   1   2
BRANCH   1  26
ATOM     26  O   UNL     1       3.478   0.006   0.348  1.00  0.00    -0.374 OA
BRANCH  26  27
ATOM     27  C   UNL     1       3.577  -1.305  -0.194  1.00  0.00     0.202 C 
BRANCH  27  28
ATOM     28  C   UNL     1       4.697  -2.198   0.350  1.00  0.00     0.261 C 
BRANCH  28  29
ATOM     29  O   UNL     1       4.723  -2.230   1.784  1.00  0.00    -0.460 OA
BRANCH  29  30
ATOM     30  C   UNL     1       5.909  -2.622   2.310  1.00  0.00     0.338 C 
ATOM     31  O   UNL     1       6.850  -3.088   1.699  1.00  0.00    -0.246 OA
BRANCH  30  32
ATOM     32  C   UNL     1       5.904  -2.386   3.766  1.00  0.00     0.060 A 
ATOM     33  C   UNL     1       6.349  -1.166   4.277  1.00  0.00     0.016 A 
ATOM     34  C   UNL     1       5.576  -3.428   4.632  1.00  0.00     0.016 A 
ATOM     35  C   UNL     1       6.540  -1.025   5.658  1.00  0.00     0.010 A 
ATOM     36  C   UNL     1       5.683  -3.253   6.016  1.00  0.00     0.010 A 
ATOM     37  C   UNL     1       6.243  -2.079   6.542  1.00  0.00    -0.014 A 
BRANCH  37  38
ATOM     38  C   UNL     1       6.662  -2.003   7.977  1.00  0.00     0.031 A 
ATOM     39  C   UNL     1       7.722  -2.948   8.506  1.00  0.00     0.074 A 
ATOM     40  C   UNL     1       6.134  -1.079   8.805  1.00  0.00     0.049 A 
ATOM     41  N   UNL     1       8.284  -2.992   9.690  1.00  0.00    -0.248 NA
ATOM     42  C   UNL     1       8.193  -3.998   7.590  1.00  0.00     0.031 C 
ATOM     43  C   UNL     1       5.070  -0.139   8.453  1.00  0.00     0.029 A 
ATOM     44  N   UNL     1       6.430  -0.770  10.112  1.00  0.00    -0.354 N 
ATOM     45  C   UNL     1       9.160  -4.076   9.661  1.00  0.00     0.074 A 
ATOM     46  C   UNL     1       8.998  -4.704   8.369  1.00  0.00     0.031 C 
ATOM     47  C   UNL     1       4.829   0.665   9.502  1.00  0.00     0.029 A 
ATOM     48  C   UNL     1       5.704   0.288  10.611  1.00  0.00     0.049 A 
ATOM     49  H   UNL     1       7.099  -1.260  10.642  1.00  0.00     0.167 HD
ATOM     50  C   UNL     1      10.044  -4.495  10.603  1.00  0.00     0.034 A 
ATOM     51  C   UNL     1       5.746   0.896  11.814  1.00  0.00     0.034 A 
ATOM     52  C   UNL     1      10.219  -3.853  11.883  1.00  0.00     0.049 A 
ATOM     53  C   UNL     1       6.752   0.435  12.841  1.00  0.00     0.074 A 
ATOM     54  C   UNL     1      11.121  -4.161  12.888  1.00  0.00     0.029 A 
ATOM     55  N   UNL     1       9.475  -2.774  12.340  1.00  0.00    -0.354 N 
ATOM     56  N   UNL     1       7.621  -0.546  12.766  1.00  0.00    -0.248 NA
ATOM     57  C   UNL     1       6.799   1.184  14.104  1.00  0.00     0.031 C 
ATOM     58  C   UNL     1      10.882  -3.309  13.973  1.00  0.00     0.029 A 
ATOM     59  C   UNL     1       9.882  -2.419  13.617  1.00  0.00     0.049 A 
ATOM     60  H   UNL     1       8.761  -2.325  11.831  1.00  0.00     0.167 HD
ATOM     61  C   UNL     1       8.340  -0.508  13.959  1.00  0.00     0.074 A 
ATOM     62  C   UNL     1       7.814   0.601  14.726  1.00  0.00     0.031 C 
ATOM     63  C   UNL     1       9.349  -1.314  14.379  1.00  0.00     0.034 A 
BRANCH  50  64
ATOM     64  C   UNL     1      10.876  -5.719  10.283  1.00  0.00     0.023 A 
ATOM     65  C   UNL     1      11.779  -5.739   9.205  1.00  0.00     0.031 A 
ATOM     66  C   UNL     1      10.747  -6.891  11.049  1.00  0.00     0.131 A 
ATOM     67  C   UNL     1      12.451  -6.925   8.872  1.00  0.00     0.055 A 
ATOM     68  C   UNL     1      11.484  -8.043  10.765  1.00  0.00     0.041 A 
ATOM     69  F   UNL     1       9.890  -6.942  12.082  1.00  0.00    -0.206 F 
ATOM     70  C   UNL     1      12.329  -8.071   9.660  1.00  0.00     0.022 A 
BRANCH  67  71
ATOM     71  S   UNL     1      13.369  -6.992   7.308  1.00  0.00     0.124 S 
ATOM     72  O   UNL     1      12.318  -6.697   6.337  1.00  0.00    -0.237 OA
ATOM     73  O   UNL     1      14.380  -5.957   7.491  1.00  0.00    -0.237 OA
ATOM     74  O   UNL     1      13.878  -8.362   7.267  1.00  0.00    -0.744 OA
ENDBRANCH  67  71
ENDBRANCH  50  64
BRANCH  51  75
ATOM     75  C   UNL     1       4.822   2.029  12.117  1.00  0.00     0.023 A 
ATOM     76  C   UNL     1       5.308   3.330  12.323  1.00  0.00     0.031 A 
ATOM     77  C   UNL     1       3.438   1.815  12.240  1.00  0.00     0.131 A 
ATOM     78  C   UNL     1       4.424   4.360  12.682  1.00  0.00     0.055 A 
ATOM     79  C   UNL     1       2.556   2.852  12.550  1.00  0.00     0.041 A 
ATOM     80  F   UNL     1       2.921   0.591  12.047  1.00  0.00    -0.206 F 
ATOM     81  C   UNL     1       3.050   4.131  12.785  1.00  0.00     0.022 A 
BRANCH  78  82
ATOM     82  S   UNL     1       5.104   5.993  13.082  1.00  0.00     0.124 S 
ATOM     83  O   UNL     1       6.013   5.678  14.179  1.00  0.00    -0.237 OA
ATOM     84  O   UNL     1       5.729   6.377  11.821  1.00  0.00    -0.237 OA
ATOM     85  O   UNL     1       3.924   6.772  13.453  1.00  0.00    -0.744 OA
ENDBRANCH  78  82
ENDBRANCH  51  75
BRANCH  63  86
ATOM     86  C   UNL     1       9.983  -0.988  15.710  1.00  0.00     0.023 A 
ATOM     87  C   UNL     1       9.275  -1.103  16.919  1.00  0.00     0.031 A 
ATOM     88  C   UNL     1      11.313  -0.533  15.764  1.00  0.00     0.131 A 
ATOM     89  C   UNL     1       9.878  -0.706  18.123  1.00  0.00     0.055 A 
ATOM     90  C   UNL     1      11.928  -0.197  16.971  1.00  0.00     0.041 A 
ATOM     91  F   UNL     1      12.038  -0.404  14.641  1.00  0.00    -0.206 F 
ATOM     92  C   UNL     1      11.205  -0.267  18.159  1.00  0.00     0.022 A 
BRANCH  89  93
ATOM     93  S   UNL     1       8.871  -0.669  19.632  1.00  0.00     0.124 S 
ATOM     94  O   UNL     1       7.772   0.209  19.243  1.00  0.00    -0.237 OA
ATOM     95  O   UNL     1       8.529  -2.076  19.812  1.00  0.00    -0.237 OA
ATOM     96  O   UNL     1       9.778  -0.119  20.637  1.00  0.00    -0.744 OA
ENDBRANCH  89  93
ENDBRANCH  63  86
ENDBRANCH  37  38
ENDBRANCH  30  32
ENDBRANCH  29  30
ENDBRANCH  28  29
ENDBRANCH  27  28
ENDBRANCH  26  27
ENDBRANCH   1  26
TORSDOF 23
