REMARK SMILES Cc1cc(C)c2c(c1)C=C(C(=O)OCCOCCOC(=O)c1ccc(-c3c4nc(c(-c5cc(S(=O)(=O)[O-])ccc5F)c5ccc([nH]5)c(-c5cc(S(=O)(=O)[O-])ccc5F)c5nc(c(-c6cc(S(=O)(=O)[O-])ccc6F)c6ccc3[nH]6)C=C5)C=C4)cc1)[C@@H](C(F)(F)F)O2
REMARK SMILES IDX 17 1 16 2 15 3 14 4 13 5 11 6 12 7 10 8 1 9 2 10 3 11 8 12
REMARK SMILES IDX 4 13 7 14 5 15 6 16 9 17 90 18 85 19 86 20 87 21 88 22 89 23
REMARK SMILES IDX 18 24 19 25 20 26 21 27 22 28 23 29 84 30 24 31 83 32 25 33
REMARK SMILES IDX 26 34 27 35 77 36 28 37 82 38 76 39 78 40 29 41 81 42 75 43
REMARK SMILES IDX 74 44 30 46 62 47 42 48 61 49 43 50 46 51 60 52 79 53 44 54
REMARK SMILES IDX 45 55 59 57 80 58 47 59 31 60 32 61 40 62 33 63 39 64 41 65
REMARK SMILES IDX 38 66 34 67 35 68 36 69 37 70 63 71 64 72 72 73 65 74 71 75
REMARK SMILES IDX 73 76 70 77 66 78 67 79 68 80 69 81 48 82 49 83 57 84 50 85
REMARK SMILES IDX 56 86 58 87 55 88 51 89 52 90 53 91 54 92
REMARK H PARENT 78 45 46 56
REMARK Flexibility Score: inf
ROOT
ATOM      1  C   UNL     1       3.785   7.505   0.410  1.00  0.00     0.202 C 
ENDROOT
BRANCH   1   2
ATOM      2  O   UNL     1       3.718   8.584  -0.522  1.00  0.00    -0.374 OA
BRANCH   2   3
ATOM      3  C   UNL     1       2.847   9.674  -0.230  1.00  0.00     0.202 C 
BRANCH   3   4
ATOM      4  C   UNL     1       1.345   9.459  -0.447  1.00  0.00     0.261 C 
BRANCH   4   5
ATOM      5  O   UNL     1       0.850   8.329   0.287  1.00  0.00    -0.460 OA
BRANCH   5   6
ATOM      6  C   UNL     1       0.503   7.271  -0.481  1.00  0.00     0.338 C 
ATOM      7  O   UNL     1       0.479   7.224  -1.701  1.00  0.00    -0.246 OA
BRANCH   6   8
ATOM      8  C   UNL     1       0.282   6.088   0.371  1.00  0.00     0.087 C 
ATOM      9  C   UNL     1       0.887  -0.015   0.082  1.00  0.00     0.044 C 
ATOM     10  C   UNL     1       0.485   1.293   0.695  1.00  0.00    -0.050 A 
ATOM     11  C   UNL     1      -0.314   1.347   1.842  1.00  0.00     0.010 A 
ATOM     12  C   UNL     1       0.881   2.489   0.088  1.00  0.00     0.015 A 
ATOM     13  C   UNL     1      -0.704   2.578   2.395  1.00  0.00    -0.008 A 
ATOM     14  C   UNL     1       0.478   3.720   0.615  1.00  0.00     0.018 A 
ATOM     15  C   UNL     1      -1.589   2.610   3.610  1.00  0.00     0.048 C 
ATOM     16  C   UNL     1      -0.288   3.769   1.781  1.00  0.00     0.130 A 
ATOM     17  C   UNL     1       0.785   4.941  -0.103  1.00  0.00     0.027 C 
ATOM     18  O   UNL     1      -0.665   4.943   2.374  1.00  0.00    -0.475 OA
ATOM     19  C   UNL     1      -0.487   6.198   1.657  1.00  0.00     0.316 C 
BRANCH  19  20
ATOM     20  C   UNL     1      -1.869   6.839   1.468  1.00  0.00     0.430 C 
ATOM     21  F   UNL     1      -2.559   6.866   2.634  1.00  0.00    -0.167 F 
ATOM     22  F   UNL     1      -1.778   8.117   1.038  1.00  0.00    -0.167 F 
ATOM     23  F   UNL     1      -2.619   6.160   0.569  1.00  0.00    -0.167 F 
ENDBRANCH  19  20
ENDBRANCH   6   8
ENDBRANCH   5   6
ENDBRANCH   4   5
ENDBRANCH   3   4
ENDBRANCH   2   3
ENDBRANCH   1   2
BRANCH   1  24
ATOM     24  C   UNL     1       4.452   7.751   1.770  1.00  0.00     0.261 C 
BRANCH  24  25
ATOM     25  O   UNL     1       3.736   8.690   2.590  1.00  0.00    -0.460 OA
BRANCH  25  26
ATOM     26  C   UNL     1       4.373   9.871   2.789  1.00  0.00     0.338 C 
ATOM     27  O   UNL     1       5.476  10.193   2.369  1.00  0.00    -0.246 OA
BRANCH  26  28
ATOM     28  C   UNL     1       3.456  10.821   3.441  1.00  0.00     0.060 A 
ATOM     29  C   UNL     1       3.131  11.999   2.757  1.00  0.00     0.016 A 
ATOM     30  C   UNL     1       2.967  10.586   4.727  1.00  0.00     0.016 A 
ATOM     31  C   UNL     1       2.323  12.956   3.367  1.00  0.00     0.010 A 
ATOM     32  C   UNL     1       2.164  11.553   5.341  1.00  0.00     0.010 A 
ATOM     33  C   UNL     1       1.854  12.751   4.672  1.00  0.00    -0.014 A 
BRANCH  33  34
ATOM     34  C   UNL     1       1.117  13.839   5.361  1.00  0.00     0.031 A 
ATOM     35  C   UNL     1       1.833  14.691   6.372  1.00  0.00     0.074 A 
ATOM     36  C   UNL     1      -0.164  14.098   5.039  1.00  0.00     0.049 A 
ATOM     37  N   UNL     1       1.381  15.703   7.066  1.00  0.00    -0.248 NA
ATOM     38  C   UNL     1       3.243  14.362   6.636  1.00  0.00     0.031 C 
ATOM     39  C   UNL     1      -0.945  13.365   4.042  1.00  0.00     0.029 A 
ATOM     40  N   UNL     1      -1.030  15.056   5.504  1.00  0.00    -0.354 N 
ATOM     41  C   UNL     1       2.450  16.141   7.838  1.00  0.00     0.074 A 
ATOM     42  C   UNL     1       3.561  15.254   7.563  1.00  0.00     0.031 C 
ATOM     43  C   UNL     1      -2.167  13.915   3.954  1.00  0.00     0.029 A 
ATOM     44  C   UNL     1      -2.272  15.014   4.913  1.00  0.00     0.049 A 
ATOM     45  H   UNL     1      -0.786  15.713   6.196  1.00  0.00     0.167 HD
ATOM     46  C   UNL     1       2.505  17.198   8.683  1.00  0.00     0.034 A 
ATOM     47  C   UNL     1      -3.369  15.770   5.123  1.00  0.00     0.034 A 
ATOM     48  C   UNL     1       1.393  18.072   8.950  1.00  0.00     0.049 A 
ATOM     49  C   UNL     1      -3.312  16.881   6.141  1.00  0.00     0.074 A 
ATOM     50  C   UNL     1       1.349  19.173   9.788  1.00  0.00     0.029 A 
ATOM     51  N   UNL     1       0.129  17.947   8.391  1.00  0.00    -0.354 N 
ATOM     52  N   UNL     1      -2.297  17.270   6.877  1.00  0.00    -0.248 NA
ATOM     53  C   UNL     1      -4.543  17.654   6.361  1.00  0.00     0.031 C 
ATOM     54  C   UNL     1       0.044  19.671   9.788  1.00  0.00     0.029 A 
ATOM     55  C   UNL     1      -0.708  18.931   8.890  1.00  0.00     0.049 A 
ATOM     56  H   UNL     1      -0.134  17.260   7.737  1.00  0.00     0.167 HD
ATOM     57  C   UNL     1      -2.758  18.353   7.620  1.00  0.00     0.074 A 
ATOM     58  C   UNL     1      -4.144  18.553   7.251  1.00  0.00     0.031 C 
ATOM     59  C   UNL     1      -2.088  19.119   8.516  1.00  0.00     0.034 A 
BRANCH  46  60
ATOM     60  C   UNL     1       3.803  17.460   9.399  1.00  0.00     0.023 A 
ATOM     61  C   UNL     1       4.943  17.904   8.709  1.00  0.00     0.031 A 
ATOM     62  C   UNL     1       3.889  17.308  10.794  1.00  0.00     0.131 A 
ATOM     63  C   UNL     1       6.132  18.151   9.412  1.00  0.00     0.055 A 
ATOM     64  C   UNL     1       5.056  17.614  11.495  1.00  0.00     0.041 A 
ATOM     65  F   UNL     1       2.834  16.870  11.499  1.00  0.00    -0.206 F 
ATOM     66  C   UNL     1       6.188  18.033  10.803  1.00  0.00     0.022 A 
BRANCH  63  67
ATOM     67  S   UNL     1       7.627  18.561   8.473  1.00  0.00     0.124 S 
ATOM     68  O   UNL     1       7.830  17.340   7.696  1.00  0.00    -0.237 OA
ATOM     69  O   UNL     1       7.215  19.738   7.717  1.00  0.00    -0.237 OA
ATOM     70  O   UNL     1       8.627  18.805   9.511  1.00  0.00    -0.744 OA
ENDBRANCH  63  67
ENDBRANCH  46  60
BRANCH  47  71
ATOM     71  C   UNL     1      -4.618  15.497   4.359  1.00  0.00     0.023 A 
ATOM     72  C   UNL     1      -5.110  16.420   3.423  1.00  0.00     0.031 A 
ATOM     73  C   UNL     1      -5.339  14.305   4.554  1.00  0.00     0.131 A 
ATOM     74  C   UNL     1      -6.300  16.145   2.731  1.00  0.00     0.055 A 
ATOM     75  C   UNL     1      -6.498  14.018   3.833  1.00  0.00     0.041 A 
ATOM     76  F   UNL     1      -4.908  13.388   5.436  1.00  0.00    -0.206 F 
ATOM     77  C   UNL     1      -6.989  14.945   2.918  1.00  0.00     0.022 A 
BRANCH  74  78
ATOM     78  S   UNL     1      -6.959  17.402   1.601  1.00  0.00     0.124 S 
ATOM     79  O   UNL     1      -7.234  18.506   2.514  1.00  0.00    -0.237 OA
ATOM     80  O   UNL     1      -5.848  17.593   0.676  1.00  0.00    -0.237 OA
ATOM     81  O   UNL     1      -8.139  16.758   1.028  1.00  0.00    -0.744 OA
ENDBRANCH  74  78
ENDBRANCH  47  71
BRANCH  59  82
ATOM     82  C   UNL     1      -2.817  20.277   9.145  1.00  0.00     0.023 A 
ATOM     83  C   UNL     1      -3.797  20.084  10.131  1.00  0.00     0.031 A 
ATOM     84  C   UNL     1      -2.448  21.596   8.820  1.00  0.00     0.131 A 
ATOM     85  C   UNL     1      -4.382  21.195  10.757  1.00  0.00     0.055 A 
ATOM     86  C   UNL     1      -3.002  22.695   9.475  1.00  0.00     0.041 A 
ATOM     87  F   UNL     1      -1.510  21.831   7.888  1.00  0.00    -0.206 F 
ATOM     88  C   UNL     1      -3.976  22.497  10.449  1.00  0.00     0.022 A 
BRANCH  85  89
ATOM     89  S   UNL     1      -5.689  20.921  11.984  1.00  0.00     0.124 S 
ATOM     90  O   UNL     1      -6.758  20.356  11.165  1.00  0.00    -0.237 OA
ATOM     91  O   UNL     1      -5.054  20.004  12.924  1.00  0.00    -0.237 OA
ATOM     92  O   UNL     1      -5.953  22.259  12.510  1.00  0.00    -0.744 OA
ENDBRANCH  85  89
ENDBRANCH  59  82
ENDBRANCH  33  34
ENDBRANCH  26  28
ENDBRANCH  25  26
ENDBRANCH  24  25
ENDBRANCH   1  24
TORSDOF 18
