REMARK SMILES CC[C@H](C)Nc1ncnc(N2CCC(C(=O)OCCOCCOC(=O)c3ccc(-c4c5nc(c(-c6cc(S(=O)(=O)[O-])ccc6F)c6ccc([nH]6)c(-c6cc(S(=O)(=O)[O-])ccc6F)c6nc(c(-c7cc(S(=O)(=O)[O-])ccc7F)c7ccc4[nH]7)C=C6)C=C5)cc3)CC2)c1[N+](=O)[O-]
REMARK SMILES IDX 19 1 18 2 17 3 15 4 16 5 14 6 11 7 12 8 90 9 13 10 89 11
REMARK SMILES IDX 10 12 6 13 7 14 91 15 8 16 9 17 5 18 3 20 4 21 2 22 1 23
REMARK SMILES IDX 92 24 93 25 94 26 20 27 21 28 22 29 23 30 24 31 25 32 26 33
REMARK SMILES IDX 27 34 88 35 28 36 87 37 29 38 30 39 31 40 81 41 32 42 86 43
REMARK SMILES IDX 80 44 82 45 33 46 85 47 79 48 78 49 34 51 66 52 46 53 65 54
REMARK SMILES IDX 47 55 50 56 64 57 83 58 48 59 49 60 63 62 84 63 51 64 35 65
REMARK SMILES IDX 36 66 44 67 37 68 43 69 45 70 42 71 38 72 39 73 40 74 41 75
REMARK SMILES IDX 67 76 68 77 76 78 69 79 75 80 77 81 74 82 70 83 71 84 72 85
REMARK SMILES IDX 73 86 52 87 53 88 61 89 54 90 60 91 62 92 59 93 55 94 56 95
REMARK SMILES IDX 57 96 58 97
REMARK H PARENT 5 19 82 50 50 61
REMARK Flexibility Score: inf
ROOT
ATOM      1  C   UNL     1       8.342  11.966   2.318  1.00  0.00     0.202 C 
ENDROOT
BRANCH   1   2
ATOM      2  C   UNL     1       7.109  11.894   1.415  1.00  0.00     0.261 C 
BRANCH   2   3
ATOM      3  O   UNL     1       6.561  10.566   1.390  1.00  0.00    -0.463 OA
BRANCH   3   4
ATOM      4  C   UNL     1       6.665   9.902   0.213  1.00  0.00     0.309 C 
ATOM      5  O   UNL     1       7.106  10.367  -0.832  1.00  0.00    -0.252 OA
BRANCH   4   6
ATOM      6  C   UNL     1       6.134   8.491   0.300  1.00  0.00     0.103 C 
ATOM      7  N   UNL     1       4.373   6.399   1.055  1.00  0.00    -0.351 N 
ATOM      8  C   UNL     1       5.712   6.387   1.624  1.00  0.00     0.119 C 
ATOM      9  C   UNL     1       4.127   7.103  -0.197  1.00  0.00     0.119 C 
ATOM     10  C   UNL     1       6.291   7.799   1.660  1.00  0.00     0.037 C 
ATOM     11  C   UNL     1       4.668   8.517  -0.113  1.00  0.00     0.037 C 
BRANCH   7  12
ATOM     12  C   UNL     1       3.366   5.708   1.695  1.00  0.00     0.213 A 
ATOM     13  C   UNL     1       1.482   4.223   1.771  1.00  0.00     0.211 A 
ATOM     14  N   UNL     1       1.246   4.610   3.039  1.00  0.00    -0.213 NA
ATOM     15  C   UNL     1       2.546   4.772   1.079  1.00  0.00     0.353 A 
ATOM     16  C   UNL     1       2.108   5.476   3.594  1.00  0.00     0.227 A 
ATOM     17  N   UNL     1       3.168   6.023   2.988  1.00  0.00    -0.212 NA
BRANCH  13  18
ATOM     18  N   UNL     1       0.564   3.297   1.339  1.00  0.00    -0.362 N 
ATOM     19  H   UNL     1      -0.367   3.418   1.635  1.00  0.00     0.162 HD
BRANCH  18  20
ATOM     20  C   UNL     1       0.842   2.152   0.483  1.00  0.00     0.077 C 
ATOM     21  C   UNL     1       0.266   0.898   1.146  1.00  0.00     0.031 C 
BRANCH  20  22
ATOM     22  C   UNL     1       0.217   2.369  -0.905  1.00  0.00     0.021 C 
ATOM     23  C   UNL     1       1.019   1.679  -2.003  1.00  0.00     0.006 C 
ENDBRANCH  20  22
ENDBRANCH  18  20
ENDBRANCH  13  18
BRANCH  15  24
ATOM     24  N   UNL     1       2.858   4.368  -0.250  1.00  0.00     0.070 N 
ATOM     25  O   UNL     1       3.770   3.539  -0.394  1.00  0.00    -0.258 OA
ATOM     26  O   UNL     1       2.218   4.886  -1.177  1.00  0.00    -0.258 OA
ENDBRANCH  15  24
ENDBRANCH   7  12
ENDBRANCH   4   6
ENDBRANCH   3   4
ENDBRANCH   2   3
ENDBRANCH   1   2
BRANCH   1  27
ATOM     27  O   UNL     1       9.502  11.265   1.866  1.00  0.00    -0.374 OA
BRANCH  27  28
ATOM     28  C   UNL     1       9.519   9.849   2.025  1.00  0.00     0.202 C 
BRANCH  28  29
ATOM     29  C   UNL     1       9.787   9.305   3.434  1.00  0.00     0.261 C 
BRANCH  29  30
ATOM     30  O   UNL     1       8.762   9.668   4.376  1.00  0.00    -0.460 OA
BRANCH  30  31
ATOM     31  C   UNL     1       9.164  10.556   5.317  1.00  0.00     0.338 C 
ATOM     32  O   UNL     1      10.299  10.989   5.474  1.00  0.00    -0.246 OA
BRANCH  31  33
ATOM     33  C   UNL     1       8.008  11.107   6.048  1.00  0.00     0.060 A 
ATOM     34  C   UNL     1       7.903  12.502   6.108  1.00  0.00     0.016 A 
ATOM     35  C   UNL     1       7.102  10.298   6.739  1.00  0.00     0.016 A 
ATOM     36  C   UNL     1       6.931  13.096   6.907  1.00  0.00     0.010 A 
ATOM     37  C   UNL     1       6.127  10.899   7.548  1.00  0.00     0.010 A 
ATOM     38  C   UNL     1       6.064  12.299   7.668  1.00  0.00    -0.014 A 
BRANCH  38  39
ATOM     39  C   UNL     1       5.214  12.957   8.693  1.00  0.00     0.031 A 
ATOM     40  C   UNL     1       5.669  12.964  10.128  1.00  0.00     0.074 A 
ATOM     41  C   UNL     1       4.098  13.618   8.334  1.00  0.00     0.049 A 
ATOM     42  N   UNL     1       5.127  13.541  11.170  1.00  0.00    -0.248 NA
ATOM     43  C   UNL     1       6.902  12.220  10.424  1.00  0.00     0.031 C 
ATOM     44  C   UNL     1       3.579  13.714   6.970  1.00  0.00     0.029 A 
ATOM     45  N   UNL     1       3.211  14.347   9.085  1.00  0.00    -0.354 N 
ATOM     46  C   UNL     1       5.957  13.239  12.246  1.00  0.00     0.074 A 
ATOM     47  C   UNL     1       7.008  12.384  11.734  1.00  0.00     0.031 C 
ATOM     48  C   UNL     1       2.466  14.468   6.981  1.00  0.00     0.029 A 
ATOM     49  C   UNL     1       2.180  14.885   8.351  1.00  0.00     0.049 A 
ATOM     50  H   UNL     1       3.303  14.472  10.057  1.00  0.00     0.167 HD
ATOM     51  C   UNL     1       5.861  13.648  13.536  1.00  0.00     0.034 A 
ATOM     52  C   UNL     1       1.123  15.624   8.743  1.00  0.00     0.034 A 
ATOM     53  C   UNL     1       4.796  14.485  14.037  1.00  0.00     0.049 A 
ATOM     54  C   UNL     1       0.994  16.003  10.198  1.00  0.00     0.074 A 
ATOM     55  C   UNL     1       4.603  14.963  15.321  1.00  0.00     0.029 A 
ATOM     56  N   UNL     1       3.732  14.958  13.278  1.00  0.00    -0.354 N 
ATOM     57  N   UNL     1       1.793  15.723  11.203  1.00  0.00    -0.248 NA
ATOM     58  C   UNL     1      -0.175  16.812  10.566  1.00  0.00     0.031 C 
ATOM     59  C   UNL     1       3.390  15.662  15.355  1.00  0.00     0.029 A 
ATOM     60  C   UNL     1       2.863  15.691  14.074  1.00  0.00     0.049 A 
ATOM     61  H   UNL     1       3.611  14.796  12.314  1.00  0.00     0.167 HD
ATOM     62  C   UNL     1       1.234  16.343  12.317  1.00  0.00     0.074 A 
ATOM     63  C   UNL     1       0.045  17.031  11.854  1.00  0.00     0.031 C 
ATOM     64  C   UNL     1       1.663  16.348  13.607  1.00  0.00     0.034 A 
BRANCH  51  65
ATOM     65  C   UNL     1       6.912  13.145  14.498  1.00  0.00     0.023 A 
ATOM     66  C   UNL     1       8.271  13.480  14.354  1.00  0.00     0.031 A 
ATOM     67  C   UNL     1       6.558  12.281  15.550  1.00  0.00     0.131 A 
ATOM     68  C   UNL     1       9.231  12.895  15.194  1.00  0.00     0.055 A 
ATOM     69  C   UNL     1       7.509  11.766  16.433  1.00  0.00     0.041 A 
ATOM     70  F   UNL     1       5.281  11.906  15.725  1.00  0.00    -0.206 F 
ATOM     71  C   UNL     1       8.857  12.059  16.248  1.00  0.00     0.022 A 
BRANCH  68  72
ATOM     72  S   UNL     1      10.987  13.117  14.794  1.00  0.00     0.124 S 
ATOM     73  O   UNL     1      11.050  12.584  13.435  1.00  0.00    -0.237 OA
ATOM     74  O   UNL     1      11.160  14.558  14.925  1.00  0.00    -0.237 OA
ATOM     75  O   UNL     1      11.673  12.311  15.803  1.00  0.00    -0.744 OA
ENDBRANCH  68  72
ENDBRANCH  51  65
BRANCH  52  76
ATOM     76  C   UNL     1       0.085  16.037   7.756  1.00  0.00     0.023 A 
ATOM     77  C   UNL     1      -0.139  17.390   7.453  1.00  0.00     0.031 A 
ATOM     78  C   UNL     1      -0.736  15.078   7.137  1.00  0.00     0.131 A 
ATOM     79  C   UNL     1      -1.184  17.748   6.588  1.00  0.00     0.055 A 
ATOM     80  C   UNL     1      -1.743  15.436   6.239  1.00  0.00     0.041 A 
ATOM     81  F   UNL     1      -0.564  13.771   7.393  1.00  0.00    -0.206 F 
ATOM     82  C   UNL     1      -1.979  16.780   5.970  1.00  0.00     0.022 A 
BRANCH  79  83
ATOM     83  S   UNL     1      -1.541  19.509   6.336  1.00  0.00     0.124 S 
ATOM     84  O   UNL     1      -1.838  19.950   7.694  1.00  0.00    -0.237 OA
ATOM     85  O   UNL     1      -0.288  19.992   5.764  1.00  0.00    -0.237 OA
ATOM     86  O   UNL     1      -2.678  19.498   5.419  1.00  0.00    -0.744 OA
ENDBRANCH  79  83
ENDBRANCH  52  76
BRANCH  64  87
ATOM     87  C   UNL     1       0.845  17.149  14.593  1.00  0.00     0.023 A 
ATOM     88  C   UNL     1      -0.481  16.800  14.908  1.00  0.00     0.031 A 
ATOM     89  C   UNL     1       1.382  18.302  15.193  1.00  0.00     0.131 A 
ATOM     90  C   UNL     1      -1.248  17.634  15.735  1.00  0.00     0.055 A 
ATOM     91  C   UNL     1       0.635  19.091  16.070  1.00  0.00     0.041 A 
ATOM     92  F   UNL     1       2.641  18.687  14.930  1.00  0.00    -0.206 F 
ATOM     93  C   UNL     1      -0.694  18.770  16.330  1.00  0.00     0.022 A 
BRANCH  90  94
ATOM     94  S   UNL     1      -3.019  17.286  15.920  1.00  0.00     0.124 S 
ATOM     95  O   UNL     1      -3.474  17.277  14.534  1.00  0.00    -0.237 OA
ATOM     96  O   UNL     1      -3.013  15.993  16.597  1.00  0.00    -0.237 OA
ATOM     97  O   UNL     1      -3.507  18.404  16.725  1.00  0.00    -0.744 OA
ENDBRANCH  90  94
ENDBRANCH  64  87
ENDBRANCH  38  39
ENDBRANCH  31  33
ENDBRANCH  30  31
ENDBRANCH  29  30
ENDBRANCH  28  29
ENDBRANCH  27  28
ENDBRANCH   1  27
TORSDOF 22
