REMARK SMILES O=C(OCCOCCOC(=O)c1csc(C[NH2+][C@H]2CCSc3ccc(F)cc32)c1)c1ccc(-c2c3nc(c(-c4cc(S(=O)(=O)[O-])ccc4F)c4ccc([nH]4)c(-c4cc(S(=O)(=O)[O-])ccc4F)c4nc(c(-c5cc(S(=O)(=O)[O-])ccc5F)c5ccc2[nH]5)C=C4)C=C3)cc1
REMARK SMILES IDX 6 1 5 2 4 3 3 4 2 5 1 6 30 7 31 8 92 9 32 10 91 11 33 12
REMARK SMILES IDX 34 13 35 14 85 15 36 16 90 17 84 18 86 19 37 20 89 21 83 22
REMARK SMILES IDX 82 23 38 25 70 26 50 27 69 28 51 29 54 30 68 31 87 32 52 33
REMARK SMILES IDX 53 34 67 36 88 37 55 38 39 39 40 40 48 41 41 42 47 43 49 44
REMARK SMILES IDX 46 45 42 46 43 47 44 48 45 49 71 50 72 51 80 52 73 53 79 54
REMARK SMILES IDX 81 55 78 56 74 57 75 58 76 59 77 60 56 61 57 62 65 63 58 64
REMARK SMILES IDX 64 65 66 66 63 67 59 68 60 69 61 70 62 71 7 72 8 73 9 74
REMARK SMILES IDX 10 75 11 76 12 77 13 78 29 79 14 80 15 81 16 82 17 83 18 86
REMARK SMILES IDX 19 87 28 88 20 89 22 90 27 91 21 92 23 93 25 94 24 95 26 96
REMARK H PARENT 86 24 54 35 17 84 17 85
REMARK Flexibility Score: inf
ROOT
ATOM      1  O   UNL     1      13.817  -5.062 -12.295  1.00  0.00    -0.374 OA
ENDROOT
BRANCH   1   2
ATOM      2  C   UNL     1      13.148  -4.348 -11.258  1.00  0.00     0.202 C 
BRANCH   2   3
ATOM      3  C   UNL     1      14.081  -3.508 -10.392  1.00  0.00     0.261 C 
BRANCH   3   4
ATOM      4  O   UNL     1      14.771  -2.499 -11.144  1.00  0.00    -0.460 OA
BRANCH   4   5
ATOM      5  C   UNL     1      15.871  -2.571 -11.925  1.00  0.00     0.338 C 
ATOM      6  O   UNL     1      16.198  -1.542 -12.521  1.00  0.00    -0.246 OA
BRANCH   5   7
ATOM      7  C   UNL     1      16.706  -3.800 -12.161  1.00  0.00     0.060 A 
ATOM      8  C   UNL     1      17.646  -3.711 -13.209  1.00  0.00     0.016 A 
ATOM      9  C   UNL     1      16.661  -4.998 -11.442  1.00  0.00     0.016 A 
ATOM     10  C   UNL     1      18.498  -4.775 -13.524  1.00  0.00     0.010 A 
ATOM     11  C   UNL     1      17.502  -6.071 -11.759  1.00  0.00     0.010 A 
ATOM     12  C   UNL     1      18.431  -5.962 -12.793  1.00  0.00    -0.014 A 
BRANCH  12  13
ATOM     13  C   UNL     1      19.421  -7.037 -13.002  1.00  0.00     0.031 A 
ATOM     14  C   UNL     1      19.113  -8.219 -13.864  1.00  0.00     0.074 A 
ATOM     15  C   UNL     1      20.591  -6.944 -12.344  1.00  0.00     0.049 A 
ATOM     16  N   UNL     1      19.910  -9.181 -14.245  1.00  0.00    -0.248 NA
ATOM     17  C   UNL     1      17.733  -8.345 -14.356  1.00  0.00     0.031 C 
ATOM     18  C   UNL     1      20.942  -5.860 -11.424  1.00  0.00     0.029 A 
ATOM     19  N   UNL     1      21.689  -7.762 -12.333  1.00  0.00    -0.354 N 
ATOM     20  C   UNL     1      19.142 -10.015 -15.047  1.00  0.00     0.074 A 
ATOM     21  C   UNL     1      17.800  -9.473 -15.054  1.00  0.00     0.031 C 
ATOM     22  C   UNL     1      22.173  -6.078 -10.941  1.00  0.00     0.029 A 
ATOM     23  C   UNL     1      22.701  -7.310 -11.521  1.00  0.00     0.049 A 
ATOM     24  H   UNL     1      21.747  -8.594 -12.857  1.00  0.00     0.167 HD
ATOM     25  C   UNL     1      19.540 -11.118 -15.725  1.00  0.00     0.034 A 
ATOM     26  C   UNL     1      23.930  -7.815 -11.294  1.00  0.00     0.034 A 
ATOM     27  C   UNL     1      20.881 -11.646 -15.663  1.00  0.00     0.049 A 
ATOM     28  C   UNL     1      24.361  -9.021 -12.085  1.00  0.00     0.074 A 
ATOM     29  C   UNL     1      21.410 -12.730 -16.341  1.00  0.00     0.029 A 
ATOM     30  N   UNL     1      21.902 -11.135 -14.872  1.00  0.00    -0.354 N 
ATOM     31  N   UNL     1      23.672  -9.720 -12.957  1.00  0.00    -0.248 NA
ATOM     32  C   UNL     1      25.741  -9.486 -11.900  1.00  0.00     0.031 C 
ATOM     33  C   UNL     1      22.731 -12.904 -15.923  1.00  0.00     0.029 A 
ATOM     34  C   UNL     1      23.050 -11.891 -15.031  1.00  0.00     0.049 A 
ATOM     35  H   UNL     1      21.821 -10.350 -14.283  1.00  0.00     0.167 HD
ATOM     36  C   UNL     1      24.546 -10.679 -13.458  1.00  0.00     0.074 A 
ATOM     37  C   UNL     1      25.817 -10.463 -12.796  1.00  0.00     0.031 C 
ATOM     38  C   UNL     1      24.317 -11.645 -14.383  1.00  0.00     0.034 A 
BRANCH  25  39
ATOM     39  C   UNL     1      18.548 -11.817 -16.622  1.00  0.00     0.023 A 
ATOM     40  C   UNL     1      18.179 -13.153 -16.376  1.00  0.00     0.031 A 
ATOM     41  C   UNL     1      18.080 -11.205 -17.799  1.00  0.00     0.131 A 
ATOM     42  C   UNL     1      17.395 -13.842 -17.311  1.00  0.00     0.055 A 
ATOM     43  C   UNL     1      17.270 -11.885 -18.709  1.00  0.00     0.041 A 
ATOM     44  F   UNL     1      18.407  -9.933 -18.082  1.00  0.00    -0.206 F 
ATOM     45  C   UNL     1      16.934 -13.214 -18.473  1.00  0.00     0.022 A 
BRANCH  42  46
ATOM     46  S   UNL     1      16.984 -15.595 -17.086  1.00  0.00     0.124 S 
ATOM     47  O   UNL     1      15.524 -15.574 -17.158  1.00  0.00    -0.237 OA
ATOM     48  O   UNL     1      17.655 -16.214 -18.224  1.00  0.00    -0.237 OA
ATOM     49  O   UNL     1      17.534 -15.918 -15.774  1.00  0.00    -0.744 OA
ENDBRANCH  42  46
ENDBRANCH  25  39
BRANCH  26  50
ATOM     50  C   UNL     1      24.852  -7.074 -10.388  1.00  0.00     0.023 A 
ATOM     51  C   UNL     1      24.561  -6.921  -9.019  1.00  0.00     0.031 A 
ATOM     52  C   UNL     1      25.959  -6.384 -10.910  1.00  0.00     0.131 A 
ATOM     53  C   UNL     1      25.334  -6.053  -8.236  1.00  0.00     0.055 A 
ATOM     54  C   UNL     1      26.761  -5.566 -10.114  1.00  0.00     0.041 A 
ATOM     55  F   UNL     1      26.260  -6.480 -12.215  1.00  0.00    -0.206 F 
ATOM     56  C   UNL     1      26.439  -5.384  -8.772  1.00  0.00     0.022 A 
BRANCH  53  57
ATOM     57  S   UNL     1      24.845  -5.649  -6.535  1.00  0.00     0.124 S 
ATOM     58  O   UNL     1      25.950  -6.207  -5.762  1.00  0.00    -0.237 OA
ATOM     59  O   UNL     1      24.779  -4.190  -6.577  1.00  0.00    -0.237 OA
ATOM     60  O   UNL     1      23.560  -6.321  -6.377  1.00  0.00    -0.744 OA
ENDBRANCH  53  57
ENDBRANCH  26  50
BRANCH  38  61
ATOM     61  C   UNL     1      25.462 -12.546 -14.773  1.00  0.00     0.023 A 
ATOM     62  C   UNL     1      25.950 -12.524 -16.093  1.00  0.00     0.031 A 
ATOM     63  C   UNL     1      25.968 -13.514 -13.889  1.00  0.00     0.131 A 
ATOM     64  C   UNL     1      26.896 -13.472 -16.501  1.00  0.00     0.055 A 
ATOM     65  C   UNL     1      26.938 -14.433 -14.290  1.00  0.00     0.041 A 
ATOM     66  F   UNL     1      25.522 -13.581 -12.624  1.00  0.00    -0.206 F 
ATOM     67  C   UNL     1      27.397 -14.422 -15.605  1.00  0.00     0.022 A 
BRANCH  64  68
ATOM     68  S   UNL     1      27.446 -13.562 -18.227  1.00  0.00     0.124 S 
ATOM     69  O   UNL     1      28.858 -13.207 -18.111  1.00  0.00    -0.237 OA
ATOM     70  O   UNL     1      27.180 -14.959 -18.564  1.00  0.00    -0.237 OA
ATOM     71  O   UNL     1      26.611 -12.583 -18.916  1.00  0.00    -0.744 OA
ENDBRANCH  64  68
ENDBRANCH  38  61
ENDBRANCH  12  13
ENDBRANCH   5   7
ENDBRANCH   4   5
ENDBRANCH   3   4
ENDBRANCH   2   3
ENDBRANCH   1   2
BRANCH   1  72
ATOM     72  C   UNL     1      13.592  -4.549 -13.615  1.00  0.00     0.202 C 
BRANCH  72  73
ATOM     73  C   UNL     1      12.475  -5.304 -14.346  1.00  0.00     0.261 C 
BRANCH  73  74
ATOM     74  O   UNL     1      11.217  -5.061 -13.694  1.00  0.00    -0.460 OA
BRANCH  74  75
ATOM     75  C   UNL     1      10.834  -6.028 -12.806  1.00  0.00     0.339 C 
ATOM     76  O   UNL     1      11.251  -7.171 -12.785  1.00  0.00    -0.246 OA
BRANCH  75  77
ATOM     77  C   UNL     1      10.002  -5.471 -11.741  1.00  0.00     0.071 A 
ATOM     78  C   UNL     1       9.202  -4.352 -11.848  1.00  0.00     0.081 A 
ATOM     79  C   UNL     1       9.993  -5.970 -10.397  1.00  0.00     0.037 A 
ATOM     80  S   UNL     1       8.524  -3.885 -10.348  1.00  0.00    -0.142 S 
ATOM     81  C   UNL     1       9.290  -5.170  -9.515  1.00  0.00     0.060 A 
BRANCH  81  82
ATOM     82  C   UNL     1       9.175  -5.406  -8.027  1.00  0.00     0.308 C 
BRANCH  82  83
ATOM     83  N   UNL     1       8.317  -4.452  -7.335  1.00  0.00    -0.336 N 
ATOM     84  H   UNL     1       7.437  -4.403  -7.848  1.00  0.00     0.347 HD
ATOM     85  H   UNL     1       8.853  -3.585  -7.312  1.00  0.00     0.347 HD
BRANCH  83  86
ATOM     86  C   UNL     1       7.993  -4.737  -5.923  1.00  0.00     0.215 C 
ATOM     87  C   UNL     1       7.683  -6.231  -5.705  1.00  0.00     0.081 C 
ATOM     88  C   UNL     1       8.930  -4.112  -4.888  1.00  0.00     0.026 A 
ATOM     89  C   UNL     1       7.267  -6.530  -4.283  1.00  0.00     0.081 C 
ATOM     90  C   UNL     1       9.285  -4.764  -3.686  1.00  0.00     0.017 A 
ATOM     91  C   UNL     1       9.332  -2.766  -5.035  1.00  0.00     0.050 A 
ATOM     92  S   UNL     1       8.721  -6.394  -3.218  1.00  0.00    -0.125 SA
ATOM     93  C   UNL     1      10.082  -4.112  -2.725  1.00  0.00     0.018 A 
ATOM     94  C   UNL     1      10.095  -2.128  -4.057  1.00  0.00     0.123 A 
ATOM     95  C   UNL     1      10.485  -2.793  -2.908  1.00  0.00     0.040 A 
ATOM     96  F   UNL     1      10.428  -0.840  -4.217  1.00  0.00    -0.207 F 
ENDBRANCH  83  86
ENDBRANCH  82  83
ENDBRANCH  81  82
ENDBRANCH  75  77
ENDBRANCH  74  75
ENDBRANCH  73  74
ENDBRANCH  72  73
ENDBRANCH   1  72
TORSDOF 20
