REMARK SMILES C[C@H](NC(=O)c1c(C(=O)OCCOCCOC(=O)c2ccc(-c3c4nc(c(-c5cc(S(=O)(=O)[O-])ccc5F)c5ccc([nH]5)c(-c5cc(S(=O)(=O)[O-])ccc5F)c5nc(c(-c6cc(S(=O)(=O)[O-])ccc6F)c6ccc3[nH]6)C=C5)C=C4)cc2)cnn1C)[C@]12C[C@H]3C[C@H](C[C@H](C3)C1)C2
REMARK SMILES IDX 13 1 12 2 11 3 10 4 8 5 9 6 7 7 6 8 84 9 82 10 83 11 85 12
REMARK SMILES IDX 4 13 3 14 5 16 2 17 1 18 86 19 87 20 94 21 95 22 88 23 92 24
REMARK SMILES IDX 90 25 89 26 93 27 91 28 14 29 15 30 16 31 17 32 18 33 19 34
REMARK SMILES IDX 20 35 81 36 21 37 80 38 22 39 23 40 24 41 74 42 25 43 79 44
REMARK SMILES IDX 73 45 75 46 26 47 78 48 72 49 71 50 27 52 59 53 39 54 58 55
REMARK SMILES IDX 40 56 43 57 57 58 76 59 41 60 42 61 56 63 77 64 44 65 28 66
REMARK SMILES IDX 29 67 37 68 30 69 36 70 38 71 35 72 31 73 32 74 33 75 34 76
REMARK SMILES IDX 60 77 61 78 69 79 62 80 68 81 70 82 67 83 63 84 64 85 65 86
REMARK SMILES IDX 66 87 45 88 46 89 54 90 47 91 53 92 55 93 52 94 48 95 49 96
REMARK SMILES IDX 50 97 51 98
REMARK H PARENT 3 15 75 51 43 62
REMARK Flexibility Score: inf
ROOT
ATOM      1  O   UNL     1       5.149   3.808   2.594  1.00  0.00    -0.374 OA
ENDROOT
BRANCH   1   2
ATOM      2  C   UNL     1       4.796   4.209   1.267  1.00  0.00     0.202 C 
BRANCH   2   3
ATOM      3  C   UNL     1       5.297   3.269   0.169  1.00  0.00     0.261 C 
BRANCH   3   4
ATOM      4  O   UNL     1       4.691   1.972   0.303  1.00  0.00    -0.460 OA
BRANCH   4   5
ATOM      5  C   UNL     1       5.524   0.975   0.701  1.00  0.00     0.342 C 
ATOM      6  O   UNL     1       6.739   1.094   0.829  1.00  0.00    -0.246 OA
BRANCH   5   7
ATOM      7  C   UNL     1       4.848  -0.248   1.095  1.00  0.00     0.111 A 
ATOM      8  C   UNL     1       3.590  -0.764   0.771  1.00  0.00     0.140 A 
ATOM      9  N   UNL     1       3.607  -2.035   1.298  1.00  0.00    -0.262 N 
ATOM     10  C   UNL     1       5.405  -1.196   1.980  1.00  0.00     0.151 A 
ATOM     11  N   UNL     1       4.621  -2.256   2.158  1.00  0.00    -0.180 NA
ATOM     12  C   UNL     1       2.801  -3.176   0.928  1.00  0.00     0.174 C 
BRANCH   8  13
ATOM     13  C   UNL     1       2.578  -0.200  -0.088  1.00  0.00     0.270 C 
ATOM     14  N   UNL     1       1.256  -0.173   0.298  1.00  0.00    -0.348 N 
ATOM     15  H   UNL     1       0.658   0.240  -0.366  1.00  0.00     0.164 HD
ATOM     16  O   UNL     1       2.855   0.298  -1.177  1.00  0.00    -0.267 OA
BRANCH  14  17
ATOM     17  C   UNL     1       0.565  -0.641   1.508  1.00  0.00     0.085 C 
ATOM     18  C   UNL     1       1.012   0.180   2.723  1.00  0.00     0.031 C 
BRANCH  17  19
ATOM     19  C   UNL     1      -1.004  -0.709   1.335  1.00  0.00    -0.009 C 
ATOM     20  C   UNL     1      -1.616  -1.615   2.450  1.00  0.00     0.012 C 
ATOM     21  C   UNL     1      -1.417  -1.346  -0.029  1.00  0.00     0.012 C 
ATOM     22  C   UNL     1      -1.672   0.690   1.431  1.00  0.00     0.012 C 
ATOM     23  C   UNL     1      -3.147  -1.714   2.324  1.00  0.00    -0.010 C 
ATOM     24  C   UNL     1      -2.950  -1.441  -0.164  1.00  0.00    -0.010 C 
ATOM     25  C   UNL     1      -3.203   0.587   1.304  1.00  0.00    -0.010 C 
ATOM     26  C   UNL     1      -3.751  -0.305   2.430  1.00  0.00     0.007 C 
ATOM     27  C   UNL     1      -3.509  -2.322   0.962  1.00  0.00     0.007 C 
ATOM     28  C   UNL     1      -3.561  -0.035  -0.054  1.00  0.00     0.007 C 
ENDBRANCH  17  19
ENDBRANCH  14  17
ENDBRANCH   8  13
ENDBRANCH   5   7
ENDBRANCH   4   5
ENDBRANCH   3   4
ENDBRANCH   2   3
ENDBRANCH   1   2
BRANCH   1  29
ATOM     29  C   UNL     1       4.253   2.895   3.236  1.00  0.00     0.202 C 
BRANCH  29  30
ATOM     30  C   UNL     1       3.018   3.539   3.873  1.00  0.00     0.261 C 
BRANCH  30  31
ATOM     31  O   UNL     1       2.076   3.956   2.866  1.00  0.00    -0.460 OA
BRANCH  31  32
ATOM     32  C   UNL     1       1.930   5.299   2.741  1.00  0.00     0.338 C 
ATOM     33  O   UNL     1       2.415   6.155   3.461  1.00  0.00    -0.246 OA
BRANCH  32  34
ATOM     34  C   UNL     1       1.233   5.616   1.475  1.00  0.00     0.060 A 
ATOM     35  C   UNL     1       1.755   6.661   0.701  1.00  0.00     0.016 A 
ATOM     36  C   UNL     1       0.075   4.947   1.067  1.00  0.00     0.016 A 
ATOM     37  C   UNL     1       1.095   7.075  -0.454  1.00  0.00     0.010 A 
ATOM     38  C   UNL     1      -0.592   5.372  -0.089  1.00  0.00     0.010 A 
ATOM     39  C   UNL     1      -0.104   6.459  -0.837  1.00  0.00    -0.014 A 
BRANCH  39  40
ATOM     40  C   UNL     1      -0.914   7.056  -1.928  1.00  0.00     0.031 A 
ATOM     41  C   UNL     1      -2.047   7.980  -1.568  1.00  0.00     0.074 A 
ATOM     42  C   UNL     1      -0.624   6.811  -3.219  1.00  0.00     0.049 A 
ATOM     43  N   UNL     1      -2.894   8.600  -2.349  1.00  0.00    -0.248 NA
ATOM     44  C   UNL     1      -2.252   8.235  -0.134  1.00  0.00     0.031 C 
ATOM     45  C   UNL     1       0.476   5.972  -3.693  1.00  0.00     0.029 A 
ATOM     46  N   UNL     1      -1.234   7.245  -4.370  1.00  0.00    -0.354 N 
ATOM     47  C   UNL     1      -3.736   9.315  -1.504  1.00  0.00     0.074 A 
ATOM     48  C   UNL     1      -3.313   9.029  -0.149  1.00  0.00     0.031 C 
ATOM     49  C   UNL     1       0.458   5.947  -5.037  1.00  0.00     0.029 A 
ATOM     50  C   UNL     1      -0.673   6.739  -5.519  1.00  0.00     0.049 A 
ATOM     51  H   UNL     1      -2.001   7.862  -4.372  1.00  0.00     0.167 HD
ATOM     52  C   UNL     1      -4.763  10.138  -1.827  1.00  0.00     0.034 A 
ATOM     53  C   UNL     1      -1.044   6.882  -6.808  1.00  0.00     0.034 A 
ATOM     54  C   UNL     1      -5.176  10.418  -3.180  1.00  0.00     0.049 A 
ATOM     55  C   UNL     1      -2.242   7.742  -7.137  1.00  0.00     0.074 A 
ATOM     56  C   UNL     1      -6.182  11.262  -3.617  1.00  0.00     0.029 A 
ATOM     57  N   UNL     1      -4.615   9.849  -4.315  1.00  0.00    -0.354 N 
ATOM     58  N   UNL     1      -3.015   8.429  -6.327  1.00  0.00    -0.248 NA
ATOM     59  C   UNL     1      -2.614   7.848  -8.555  1.00  0.00     0.031 C 
ATOM     60  C   UNL     1      -6.272  11.154  -5.010  1.00  0.00     0.029 A 
ATOM     61  C   UNL     1      -5.278  10.295  -5.448  1.00  0.00     0.049 A 
ATOM     62  H   UNL     1      -3.857   9.221  -4.316  1.00  0.00     0.167 HD
ATOM     63  C   UNL     1      -3.939   9.076  -7.144  1.00  0.00     0.074 A 
ATOM     64  C   UNL     1      -3.624   8.704  -8.507  1.00  0.00     0.031 C 
ATOM     65  C   UNL     1      -4.954   9.910  -6.801  1.00  0.00     0.034 A 
BRANCH  52  66
ATOM     66  C   UNL     1      -5.545  10.752  -0.694  1.00  0.00     0.023 A 
ATOM     67  C   UNL     1      -4.979  11.706   0.169  1.00  0.00     0.031 A 
ATOM     68  C   UNL     1      -6.877  10.363  -0.468  1.00  0.00     0.131 A 
ATOM     69  C   UNL     1      -5.726  12.199   1.250  1.00  0.00     0.055 A 
ATOM     70  C   UNL     1      -7.636  10.906   0.569  1.00  0.00     0.041 A 
ATOM     71  F   UNL     1      -7.459   9.438  -1.248  1.00  0.00    -0.206 F 
ATOM     72  C   UNL     1      -7.058  11.822   1.442  1.00  0.00     0.022 A 
BRANCH  69  73
ATOM     73  S   UNL     1      -4.899  13.256   2.470  1.00  0.00     0.124 S 
ATOM     74  O   UNL     1      -3.852  12.368   2.969  1.00  0.00    -0.237 OA
ATOM     75  O   UNL     1      -4.449  14.382   1.659  1.00  0.00    -0.237 OA
ATOM     76  O   UNL     1      -5.957  13.563   3.430  1.00  0.00    -0.744 OA
ENDBRANCH  69  73
ENDBRANCH  52  66
BRANCH  53  77
ATOM     77  C   UNL     1      -0.314   6.167  -7.895  1.00  0.00     0.023 A 
ATOM     78  C   UNL     1       0.355   6.873  -8.908  1.00  0.00     0.031 A 
ATOM     79  C   UNL     1      -0.348   4.764  -7.983  1.00  0.00     0.131 A 
ATOM     80  C   UNL     1       0.915   6.180  -9.992  1.00  0.00     0.055 A 
ATOM     81  C   UNL     1       0.257   4.075  -9.035  1.00  0.00     0.041 A 
ATOM     82  F   UNL     1      -0.979   4.040  -7.045  1.00  0.00    -0.206 F 
ATOM     83  C   UNL     1       0.880   4.785 -10.057  1.00  0.00     0.022 A 
BRANCH  80  84
ATOM     84  S   UNL     1       1.599   7.135 -11.374  1.00  0.00     0.124 S 
ATOM     85  O   UNL     1       0.459   7.960 -11.759  1.00  0.00    -0.237 OA
ATOM     86  O   UNL     1       2.711   7.833 -10.737  1.00  0.00    -0.237 OA
ATOM     87  O   UNL     1       1.982   6.108 -12.341  1.00  0.00    -0.744 OA
ENDBRANCH  80  84
ENDBRANCH  53  77
BRANCH  65  88
ATOM     88  C   UNL     1      -5.756  10.514  -7.926  1.00  0.00     0.023 A 
ATOM     89  C   UNL     1      -6.610   9.736  -8.727  1.00  0.00     0.031 A 
ATOM     90  C   UNL     1      -5.654  11.888  -8.207  1.00  0.00     0.131 A 
ATOM     91  C   UNL     1      -7.290  10.328  -9.802  1.00  0.00     0.055 A 
ATOM     92  C   UNL     1      -6.373  12.481  -9.244  1.00  0.00     0.041 A 
ATOM     93  F   UNL     1      -4.853  12.677  -7.472  1.00  0.00    -0.206 F 
ATOM     94  C   UNL     1      -7.188  11.698 -10.057  1.00  0.00     0.022 A 
BRANCH  91  95
ATOM     95  S   UNL     1      -8.252   9.267 -10.916  1.00  0.00     0.124 S 
ATOM     96  O   UNL     1      -7.237   8.341 -11.408  1.00  0.00    -0.237 OA
ATOM     97  O   UNL     1      -9.252   8.698 -10.019  1.00  0.00    -0.237 OA
ATOM     98  O   UNL     1      -8.775  10.200 -11.913  1.00  0.00    -0.744 OA
ENDBRANCH  91  95
ENDBRANCH  65  88
ENDBRANCH  39  40
ENDBRANCH  32  34
ENDBRANCH  31  32
ENDBRANCH  30  31
ENDBRANCH  29  30
ENDBRANCH   1  29
TORSDOF 20
