REMARK SMILES COCC[C@]1(C(=O)OCCOCCOC(=O)c2ccc(-c3c4nc(c(-c5cc(S(=O)(=O)[O-])ccc5F)c5ccc([nH]5)c(-c5cc(S(=O)(=O)[O-])ccc5F)c5nc(c(-c6cc(S(=O)(=O)[O-])ccc6F)c6ccc3[nH]6)C=C5)C=C4)cc2)CCCN(C(=O)c2ccc(=O)[nH]c2)C1
REMARK SMILES IDX 11 1 10 2 9 3 8 4 6 5 7 6 5 7 80 8 93 9 81 10 83 11 82 12
REMARK SMILES IDX 4 13 3 14 2 15 1 16 84 17 85 18 86 19 87 20 92 21 88 22
REMARK SMILES IDX 91 23 89 24 90 26 12 27 13 28 14 29 15 30 16 31 17 32 18 33
REMARK SMILES IDX 79 34 19 35 78 36 20 37 21 38 22 39 72 40 23 41 77 42 71 43
REMARK SMILES IDX 73 44 24 45 76 46 70 47 69 48 25 50 57 51 37 52 56 53 38 54
REMARK SMILES IDX 41 55 55 56 74 57 39 58 40 59 54 61 75 62 42 63 26 64 27 65
REMARK SMILES IDX 35 66 28 67 34 68 36 69 33 70 29 71 30 72 31 73 32 74 58 75
REMARK SMILES IDX 59 76 67 77 60 78 66 79 68 80 65 81 61 82 62 83 63 84 64 85
REMARK SMILES IDX 43 86 44 87 52 88 45 89 51 90 53 91 50 92 46 93 47 94 48 95
REMARK SMILES IDX 49 96
REMARK H PARENT 91 25 73 49 41 60
REMARK Flexibility Score: inf
ROOT
ATOM      1  O   UNL     1      -2.379  -2.548  -0.708  1.00  0.00    -0.374 OA
ENDROOT
BRANCH   1   2
ATOM      2  C   UNL     1      -1.464  -3.021  -1.690  1.00  0.00     0.202 C 
BRANCH   2   3
ATOM      3  C   UNL     1      -0.026  -2.473  -1.765  1.00  0.00     0.261 C 
BRANCH   3   4
ATOM      4  O   UNL     1       0.746  -2.562  -0.551  1.00  0.00    -0.463 OA
BRANCH   4   5
ATOM      5  C   UNL     1       0.554  -1.488   0.259  1.00  0.00     0.314 C 
ATOM      6  O   UNL     1      -0.263  -0.619  -0.012  1.00  0.00    -0.252 OA
BRANCH   5   7
ATOM      7  C   UNL     1       1.359  -1.532   1.568  1.00  0.00     0.088 C 
ATOM      8  C   UNL     1       1.163  -2.928   2.249  1.00  0.00     0.022 C 
ATOM      9  C   UNL     1       2.869  -1.370   1.311  1.00  0.00     0.138 C 
ATOM     10  C   UNL     1       2.047  -3.154   3.482  1.00  0.00     0.023 C 
ATOM     11  N   UNL     1       3.625  -1.499   2.569  1.00  0.00    -0.337 N 
ATOM     12  C   UNL     1       3.507  -2.802   3.224  1.00  0.00     0.120 C 
BRANCH   7  13
ATOM     13  C   UNL     1       0.786  -0.411   2.502  1.00  0.00     0.049 C 
BRANCH  13  14
ATOM     14  C   UNL     1       1.117   1.066   2.194  1.00  0.00     0.161 C 
BRANCH  14  15
ATOM     15  O   UNL     1       0.498   1.602   1.036  1.00  0.00    -0.385 OA
ATOM     16  C   UNL     1       1.373   1.768  -0.074  1.00  0.00     0.194 C 
ENDBRANCH  14  15
ENDBRANCH  13  14
ENDBRANCH   7  13
BRANCH  11  17
ATOM     17  C   UNL     1       4.331  -0.407   3.051  1.00  0.00     0.255 C 
ATOM     18  O   UNL     1       4.432   0.657   2.444  1.00  0.00    -0.269 OA
BRANCH  17  19
ATOM     19  C   UNL     1       4.942  -0.504   4.403  1.00  0.00     0.056 A 
ATOM     20  C   UNL     1       6.170  -1.231   4.645  1.00  0.00     0.021 A 
ATOM     21  C   UNL     1       4.377   0.202   5.396  1.00  0.00     0.099 A 
ATOM     22  C   UNL     1       6.734  -1.228   5.863  1.00  0.00     0.072 A 
ATOM     23  N   UNL     1       4.943   0.208   6.650  1.00  0.00    -0.328 N 
ATOM     24  C   UNL     1       6.100  -0.464   6.971  1.00  0.00     0.247 A 
ATOM     25  H   UNL     1       4.494   0.723   7.359  1.00  0.00     0.169 HD
ATOM     26  O   UNL     1       6.592  -0.441   8.093  1.00  0.00    -0.270 OA
ENDBRANCH  17  19
ENDBRANCH  11  17
ENDBRANCH   5   7
ENDBRANCH   4   5
ENDBRANCH   3   4
ENDBRANCH   2   3
ENDBRANCH   1   2
BRANCH   1  27
ATOM     27  C   UNL     1      -2.241  -3.013   0.631  1.00  0.00     0.202 C 
BRANCH  27  28
ATOM     28  C   UNL     1      -2.595  -4.471   0.947  1.00  0.00     0.261 C 
BRANCH  28  29
ATOM     29  O   UNL     1      -1.760  -5.407   0.245  1.00  0.00    -0.460 OA
BRANCH  29  30
ATOM     30  C   UNL     1      -2.399  -6.117  -0.718  1.00  0.00     0.338 C 
ATOM     31  O   UNL     1      -3.599  -6.117  -0.958  1.00  0.00    -0.246 OA
BRANCH  30  32
ATOM     32  C   UNL     1      -1.406  -6.735  -1.615  1.00  0.00     0.060 A 
ATOM     33  C   UNL     1      -1.471  -6.409  -2.978  1.00  0.00     0.016 A 
ATOM     34  C   UNL     1      -0.446  -7.630  -1.143  1.00  0.00     0.016 A 
ATOM     35  C   UNL     1      -0.589  -6.996  -3.880  1.00  0.00     0.010 A 
ATOM     36  C   UNL     1       0.423  -8.237  -2.054  1.00  0.00     0.010 A 
ATOM     37  C   UNL     1       0.341  -7.939  -3.427  1.00  0.00    -0.014 A 
BRANCH  37  38
ATOM     38  C   UNL     1       1.141  -8.711  -4.406  1.00  0.00     0.031 A 
ATOM     39  C   UNL     1       0.690 -10.095  -4.777  1.00  0.00     0.074 A 
ATOM     40  C   UNL     1       2.243  -8.177  -4.962  1.00  0.00     0.049 A 
ATOM     41  N   UNL     1       1.279 -10.984  -5.532  1.00  0.00    -0.248 NA
ATOM     42  C   UNL     1      -0.597 -10.533  -4.217  1.00  0.00     0.031 C 
ATOM     43  C   UNL     1       2.731  -6.819  -4.725  1.00  0.00     0.029 A 
ATOM     44  N   UNL     1       3.155  -8.717  -5.831  1.00  0.00    -0.354 N 
ATOM     45  C   UNL     1       0.438 -12.092  -5.536  1.00  0.00     0.074 A 
ATOM     46  C   UNL     1      -0.685 -11.771  -4.680  1.00  0.00     0.031 C 
ATOM     47  C   UNL     1       3.868  -6.639  -5.419  1.00  0.00     0.029 A 
ATOM     48  C   UNL     1       4.213  -7.882  -6.105  1.00  0.00     0.049 A 
ATOM     49  H   UNL     1       3.063  -9.616  -6.221  1.00  0.00     0.167 HD
ATOM     50  C   UNL     1       0.591 -13.266  -6.197  1.00  0.00     0.034 A 
ATOM     51  C   UNL     1       5.348  -8.113  -6.796  1.00  0.00     0.034 A 
ATOM     52  C   UNL     1       1.728 -13.569  -7.032  1.00  0.00     0.049 A 
ATOM     53  C   UNL     1       5.556  -9.472  -7.421  1.00  0.00     0.074 A 
ATOM     54  C   UNL     1       1.980 -14.716  -7.763  1.00  0.00     0.029 A 
ATOM     55  N   UNL     1       2.815 -12.726  -7.232  1.00  0.00    -0.354 N 
ATOM     56  N   UNL     1       4.755 -10.513  -7.423  1.00  0.00    -0.248 NA
ATOM     57  C   UNL     1       6.822  -9.688  -8.134  1.00  0.00     0.031 C 
ATOM     58  C   UNL     1       3.252 -14.602  -8.333  1.00  0.00     0.029 A 
ATOM     59  C   UNL     1       3.760 -13.349  -8.032  1.00  0.00     0.049 A 
ATOM     60  H   UNL     1       2.901 -11.819  -6.860  1.00  0.00     0.167 HD
ATOM     61  C   UNL     1       5.412 -11.498  -8.156  1.00  0.00     0.074 A 
ATOM     62  C   UNL     1       6.665 -10.920  -8.596  1.00  0.00     0.031 C 
ATOM     63  C   UNL     1       5.016 -12.765  -8.443  1.00  0.00     0.034 A 
BRANCH  50  64
ATOM     64  C   UNL     1      -0.464 -14.325  -5.990  1.00  0.00     0.023 A 
ATOM     65  C   UNL     1      -1.795 -14.138  -6.402  1.00  0.00     0.031 A 
ATOM     66  C   UNL     1      -0.137 -15.534  -5.351  1.00  0.00     0.131 A 
ATOM     67  C   UNL     1      -2.761 -15.113  -6.111  1.00  0.00     0.055 A 
ATOM     68  C   UNL     1      -1.086 -16.535  -5.136  1.00  0.00     0.041 A 
ATOM     69  F   UNL     1       1.112 -15.758  -4.912  1.00  0.00    -0.206 F 
ATOM     70  C   UNL     1      -2.410 -16.322  -5.504  1.00  0.00     0.022 A 
BRANCH  67  71
ATOM     71  S   UNL     1      -4.507 -14.722  -6.409  1.00  0.00     0.124 S 
ATOM     72  O   UNL     1      -4.683 -13.522  -5.594  1.00  0.00    -0.237 OA
ATOM     73  O   UNL     1      -4.544 -14.524  -7.853  1.00  0.00    -0.237 OA
ATOM     74  O   UNL     1      -5.212 -15.906  -5.922  1.00  0.00    -0.744 OA
ENDBRANCH  67  71
ENDBRANCH  50  64
BRANCH  51  75
ATOM     75  C   UNL     1       6.406  -7.065  -6.884  1.00  0.00     0.023 A 
ATOM     76  C   UNL     1       6.795  -6.528  -8.120  1.00  0.00     0.031 A 
ATOM     77  C   UNL     1       7.083  -6.624  -5.731  1.00  0.00     0.131 A 
ATOM     78  C   UNL     1       7.861  -5.616  -8.181  1.00  0.00     0.055 A 
ATOM     79  C   UNL     1       8.103  -5.673  -5.792  1.00  0.00     0.041 A 
ATOM     80  F   UNL     1       6.756  -7.109  -4.522  1.00  0.00    -0.206 F 
ATOM     81  C   UNL     1       8.507  -5.173  -7.025  1.00  0.00     0.022 A 
BRANCH  78  82
ATOM     82  S   UNL     1       8.454  -5.085  -9.811  1.00  0.00     0.124 S 
ATOM     83  O   UNL     1       8.811  -6.358 -10.425  1.00  0.00    -0.237 OA
ATOM     84  O   UNL     1       7.278  -4.415 -10.357  1.00  0.00    -0.237 OA
ATOM     85  O   UNL     1       9.578  -4.206  -9.493  1.00  0.00    -0.744 OA
ENDBRANCH  78  82
ENDBRANCH  51  75
BRANCH  63  86
ATOM     86  C   UNL     1       5.943 -13.599  -9.295  1.00  0.00     0.023 A 
ATOM     87  C   UNL     1       7.200 -14.017  -8.825  1.00  0.00     0.031 A 
ATOM     88  C   UNL     1       5.562 -13.981 -10.594  1.00  0.00     0.131 A 
ATOM     89  C   UNL     1       8.051 -14.751  -9.664  1.00  0.00     0.055 A 
ATOM     90  C   UNL     1       6.388 -14.765 -11.402  1.00  0.00     0.041 A 
ATOM     91  F   UNL     1       4.375 -13.607 -11.097  1.00  0.00    -0.206 F 
ATOM     92  C   UNL     1       7.645 -15.145 -10.942  1.00  0.00     0.022 A 
BRANCH  89  93
ATOM     93  S   UNL     1       9.734 -15.116  -9.094  1.00  0.00     0.124 S 
ATOM     94  O   UNL     1      10.280 -13.778  -8.890  1.00  0.00    -0.237 OA
ATOM     95  O   UNL     1       9.493 -15.897  -7.885  1.00  0.00    -0.237 OA
ATOM     96  O   UNL     1      10.319 -15.862 -10.206  1.00  0.00    -0.744 OA
ENDBRANCH  89  93
ENDBRANCH  63  86
ENDBRANCH  37  38
ENDBRANCH  30  32
ENDBRANCH  29  30
ENDBRANCH  28  29
ENDBRANCH  27  28
ENDBRANCH   1  27
TORSDOF 22
