REMARK SMILES CCCOc1ccc(C[N@H+]2CC[C@H](C(=O)OCCOCCOC(=O)c3ccc(-c4c5nc(c(-c6cc(S(=O)(=O)[O-])ccc6F)c6ccc([nH]6)c(-c6cc(S(=O)(=O)[O-])ccc6F)c6nc(c(-c7cc(S(=O)(=O)[O-])ccc7F)c7ccc4[nH]7)C=C6)C=C5)cc3)[C@@H]2C)cc1
REMARK SMILES IDX 18 1 17 2 16 3 14 4 15 5 13 6 10 7 11 8 88 9 12 11 89 12
REMARK SMILES IDX 9 13 8 14 5 15 6 16 91 17 7 18 90 19 4 20 3 21 2 22 1 23
REMARK SMILES IDX 19 24 20 25 21 26 22 27 23 28 24 29 25 30 26 31 87 32 27 33
REMARK SMILES IDX 86 34 28 35 29 36 30 37 80 38 31 39 85 40 79 41 81 42 32 43
REMARK SMILES IDX 84 44 78 45 77 46 33 48 65 49 45 50 64 51 46 52 49 53 63 54
REMARK SMILES IDX 82 55 47 56 48 57 62 59 83 60 50 61 34 62 35 63 43 64 36 65
REMARK SMILES IDX 42 66 44 67 41 68 37 69 38 70 39 71 40 72 66 73 67 74 75 75
REMARK SMILES IDX 68 76 74 77 76 78 73 79 69 80 70 81 71 82 72 83 51 84 52 85
REMARK SMILES IDX 60 86 53 87 59 88 61 89 58 90 54 91 55 92 56 93 57 94
REMARK H PARENT 10 10 81 47 49 58
REMARK Flexibility Score: inf
ROOT
ATOM      1  C   UNL     1      -2.993   5.435   9.089  1.00  0.00     0.202 C 
ENDROOT
BRANCH   1   2
ATOM      2  C   UNL     1      -3.214   5.947   7.659  1.00  0.00     0.261 C 
BRANCH   2   3
ATOM      3  O   UNL     1      -2.615   5.099   6.677  1.00  0.00    -0.463 OA
BRANCH   3   4
ATOM      4  C   UNL     1      -1.567   5.643   5.990  1.00  0.00     0.315 C 
ATOM      5  O   UNL     1      -1.258   6.824   5.997  1.00  0.00    -0.252 OA
BRANCH   4   6
ATOM      6  C   UNL     1      -0.863   4.550   5.213  1.00  0.00     0.162 C 
ATOM      7  N   UNL     1       0.919   5.053   3.665  1.00  0.00    -0.328 N 
ATOM      8  C   UNL     1      -0.372   5.324   3.028  1.00  0.00     0.263 C 
ATOM      9  C   UNL     1       0.662   4.685   5.069  1.00  0.00     0.195 C 
ATOM     10  H   UNL     1       1.478   5.906   3.639  1.00  0.00     0.348 HD
ATOM     11  C   UNL     1      -1.394   4.506   3.793  1.00  0.00     0.083 C 
ATOM     12  C   UNL     1       1.391   5.648   6.002  1.00  0.00     0.076 C 
BRANCH   7  13
ATOM     13  C   UNL     1       1.808   4.142   2.936  1.00  0.00     0.299 C 
BRANCH  13  14
ATOM     14  C   UNL     1       1.344   2.708   2.782  1.00  0.00     0.006 A 
ATOM     15  C   UNL     1       0.461   0.073   2.497  1.00  0.00     0.119 A 
ATOM     16  C   UNL     1       1.358   0.386   3.512  1.00  0.00     0.047 A 
ATOM     17  C   UNL     1      -0.049   1.065   1.668  1.00  0.00     0.047 A 
ATOM     18  C   UNL     1       1.801   1.702   3.652  1.00  0.00     0.013 A 
ATOM     19  C   UNL     1       0.428   2.366   1.778  1.00  0.00     0.013 A 
BRANCH  15  20
ATOM     20  O   UNL     1       0.049  -1.217   2.317  1.00  0.00    -0.494 OA
BRANCH  20  21
ATOM     21  C   UNL     1       0.930  -1.925   1.427  1.00  0.00     0.229 C 
BRANCH  21  22
ATOM     22  C   UNL     1       0.581  -1.681  -0.045  1.00  0.00     0.038 C 
ATOM     23  C   UNL     1       1.539  -0.711  -0.730  1.00  0.00     0.007 C 
ENDBRANCH  21  22
ENDBRANCH  20  21
ENDBRANCH  15  20
ENDBRANCH  13  14
ENDBRANCH   7  13
ENDBRANCH   4   6
ENDBRANCH   3   4
ENDBRANCH   2   3
ENDBRANCH   1   2
BRANCH   1  24
ATOM     24  O   UNL     1      -1.723   4.884   9.426  1.00  0.00    -0.374 OA
BRANCH  24  25
ATOM     25  C   UNL     1      -1.344   3.636   8.848  1.00  0.00     0.202 C 
BRANCH  25  26
ATOM     26  C   UNL     1      -2.247   2.406   9.027  1.00  0.00     0.261 C 
BRANCH  26  27
ATOM     27  O   UNL     1      -3.559   2.564   8.459  1.00  0.00    -0.460 OA
BRANCH  27  28
ATOM     28  C   UNL     1      -4.581   2.392   9.339  1.00  0.00     0.338 C 
ATOM     29  O   UNL     1      -4.499   2.105  10.519  1.00  0.00    -0.246 OA
BRANCH  28  30
ATOM     30  C   UNL     1      -5.851   2.766   8.696  1.00  0.00     0.060 A 
ATOM     31  C   UNL     1      -6.483   3.949   9.102  1.00  0.00     0.016 A 
ATOM     32  C   UNL     1      -6.459   1.911   7.777  1.00  0.00     0.016 A 
ATOM     33  C   UNL     1      -7.732   4.284   8.582  1.00  0.00     0.010 A 
ATOM     34  C   UNL     1      -7.719   2.241   7.271  1.00  0.00     0.010 A 
ATOM     35  C   UNL     1      -8.366   3.421   7.680  1.00  0.00    -0.014 A 
BRANCH  35  36
ATOM     36  C   UNL     1      -9.751   3.700   7.233  1.00  0.00     0.031 A 
ATOM     37  C   UNL     1     -10.893   2.989   7.899  1.00  0.00     0.074 A 
ATOM     38  C   UNL     1      -9.976   4.575   6.237  1.00  0.00     0.049 A 
ATOM     39  N   UNL     1     -12.165   2.999   7.598  1.00  0.00    -0.248 NA
ATOM     40  C   UNL     1     -10.552   2.152   9.060  1.00  0.00     0.031 C 
ATOM     41  C   UNL     1      -8.945   5.363   5.562  1.00  0.00     0.029 A 
ATOM     42  N   UNL     1     -11.141   4.934   5.609  1.00  0.00    -0.354 N 
ATOM     43  C   UNL     1     -12.780   2.168   8.528  1.00  0.00     0.074 A 
ATOM     44  C   UNL     1     -11.733   1.649   9.384  1.00  0.00     0.031 C 
ATOM     45  C   UNL     1      -9.523   6.099   4.597  1.00  0.00     0.029 A 
ATOM     46  C   UNL     1     -10.952   5.795   4.553  1.00  0.00     0.049 A 
ATOM     47  H   UNL     1     -12.027   4.607   5.887  1.00  0.00     0.167 HD
ATOM     48  C   UNL     1     -14.097   1.871   8.652  1.00  0.00     0.034 A 
ATOM     49  C   UNL     1     -11.825   6.250   3.632  1.00  0.00     0.034 A 
ATOM     50  C   UNL     1     -15.119   2.385   7.772  1.00  0.00     0.049 A 
ATOM     51  C   UNL     1     -13.266   5.808   3.716  1.00  0.00     0.074 A 
ATOM     52  C   UNL     1     -16.485   2.166   7.815  1.00  0.00     0.029 A 
ATOM     53  N   UNL     1     -14.884   3.205   6.675  1.00  0.00    -0.354 N 
ATOM     54  N   UNL     1     -13.841   5.025   4.601  1.00  0.00    -0.248 NA
ATOM     55  C   UNL     1     -14.175   6.306   2.675  1.00  0.00     0.031 C 
ATOM     56  C   UNL     1     -17.063   2.787   6.702  1.00  0.00     0.029 A 
ATOM     57  C   UNL     1     -16.072   3.462   6.008  1.00  0.00     0.049 A 
ATOM     58  H   UNL     1     -14.002   3.553   6.410  1.00  0.00     0.167 HD
ATOM     59  C   UNL     1     -15.183   4.959   4.236  1.00  0.00     0.074 A 
ATOM     60  C   UNL     1     -15.334   5.790   3.059  1.00  0.00     0.031 C 
ATOM     61  C   UNL     1     -16.201   4.278   4.823  1.00  0.00     0.034 A 
BRANCH  48  62
ATOM     62  C   UNL     1     -14.490   0.900   9.739  1.00  0.00     0.023 A 
ATOM     63  C   UNL     1     -14.315   1.201  11.102  1.00  0.00     0.031 A 
ATOM     64  C   UNL     1     -15.023  -0.358   9.407  1.00  0.00     0.131 A 
ATOM     65  C   UNL     1     -14.604   0.232  12.075  1.00  0.00     0.055 A 
ATOM     66  C   UNL     1     -15.381  -1.289  10.384  1.00  0.00     0.041 A 
ATOM     67  F   UNL     1     -15.191  -0.711   8.123  1.00  0.00    -0.206 F 
ATOM     68  C   UNL     1     -15.158  -1.002  11.727  1.00  0.00     0.022 A 
BRANCH  65  69
ATOM     69  S   UNL     1     -14.113   0.554  13.792  1.00  0.00     0.124 S 
ATOM     70  O   UNL     1     -12.675   0.771  13.653  1.00  0.00    -0.237 OA
ATOM     71  O   UNL     1     -14.907   1.729  14.131  1.00  0.00    -0.237 OA
ATOM     72  O   UNL     1     -14.486  -0.674  14.491  1.00  0.00    -0.744 OA
ENDBRANCH  65  69
ENDBRANCH  48  62
BRANCH  49  73
ATOM     73  C   UNL     1     -11.359   7.120   2.515  1.00  0.00     0.023 A 
ATOM     74  C   UNL     1     -11.834   8.432   2.369  1.00  0.00     0.031 A 
ATOM     75  C   UNL     1     -10.463   6.631   1.546  1.00  0.00     0.131 A 
ATOM     76  C   UNL     1     -11.444   9.197   1.258  1.00  0.00     0.055 A 
ATOM     77  C   UNL     1     -10.036   7.414   0.472  1.00  0.00     0.041 A 
ATOM     78  F   UNL     1      -9.980   5.381   1.635  1.00  0.00    -0.206 F 
ATOM     79  C   UNL     1     -10.537   8.702   0.317  1.00  0.00     0.022 A 
BRANCH  76  80
ATOM     80  S   UNL     1     -12.207  10.824   1.013  1.00  0.00     0.124 S 
ATOM     81  O   UNL     1     -13.622  10.479   0.938  1.00  0.00    -0.237 OA
ATOM     82  O   UNL     1     -11.783  11.540   2.211  1.00  0.00    -0.237 OA
ATOM     83  O   UNL     1     -11.611  11.294  -0.236  1.00  0.00    -0.744 OA
ENDBRANCH  76  80
ENDBRANCH  49  73
BRANCH  61  84
ATOM     84  C   UNL     1     -17.573   4.434   4.214  1.00  0.00     0.023 A 
ATOM     85  C   UNL     1     -17.884   3.907   2.949  1.00  0.00     0.031 A 
ATOM     86  C   UNL     1     -18.584   5.114   4.917  1.00  0.00     0.131 A 
ATOM     87  C   UNL     1     -19.163   4.105   2.406  1.00  0.00     0.055 A 
ATOM     88  C   UNL     1     -19.871   5.258   4.396  1.00  0.00     0.041 A 
ATOM     89  F   UNL     1     -18.340   5.639   6.128  1.00  0.00    -0.206 F 
ATOM     90  C   UNL     1     -20.163   4.761   3.129  1.00  0.00     0.022 A 
BRANCH  87  91
ATOM     91  S   UNL     1     -19.485   3.554   0.708  1.00  0.00     0.124 S 
ATOM     92  O   UNL     1     -18.523   4.344  -0.054  1.00  0.00    -0.237 OA
ATOM     93  O   UNL     1     -19.216   2.123   0.786  1.00  0.00    -0.237 OA
ATOM     94  O   UNL     1     -20.887   3.909   0.493  1.00  0.00    -0.744 OA
ENDBRANCH  87  91
ENDBRANCH  61  84
ENDBRANCH  35  36
ENDBRANCH  28  30
ENDBRANCH  27  28
ENDBRANCH  26  27
ENDBRANCH  25  26
ENDBRANCH  24  25
ENDBRANCH   1  24
TORSDOF 22
