REMARK SMILES O=C(OCCOCCOC(=O)c1cc([C@@H]2C=NN=C2c2ccc(F)cc2)c2c(ccc3ccccc32)n1)c1ccc(-c2c3nc(c(-c4cc(S(=O)(=O)[O-])ccc4F)c4ccc([nH]4)c(-c4cc(S(=O)(=O)[O-])ccc4F)c4nc(c(-c5cc(S(=O)(=O)[O-])ccc5F)c5ccc2[nH]5)C=C4)C=C3)cc1
REMARK SMILES IDX 5 1 4 2 3 3 2 4 1 5 38 6 39 7 100 8 40 9 99 10 41 11 42 12
REMARK SMILES IDX 43 13 93 14 44 15 98 16 92 17 94 18 45 19 97 20 91 21 90 22
REMARK SMILES IDX 46 24 78 25 58 26 77 27 59 28 62 29 76 30 95 31 60 32 61 33
REMARK SMILES IDX 75 35 96 36 63 37 47 38 48 39 56 40 49 41 55 42 57 43 54 44
REMARK SMILES IDX 50 45 51 46 52 47 53 48 79 49 80 50 88 51 81 52 87 53 89 54
REMARK SMILES IDX 86 55 82 56 83 57 84 58 85 59 64 60 65 61 73 62 66 63 72 64
REMARK SMILES IDX 74 65 71 66 67 67 68 68 69 69 70 70 6 71 7 72 8 73 9 74
REMARK SMILES IDX 10 75 11 76 12 77 13 78 37 79 14 80 28 81 27 82 29 83 36 84
REMARK SMILES IDX 30 85 31 86 35 87 32 88 34 89 33 90 15 91 16 92 19 93 17 94
REMARK SMILES IDX 18 95 20 96 21 97 26 98 22 99 25 100 23 101 24 102
REMARK H PARENT 94 23 62 34
REMARK Flexibility Score: inf
ROOT
ATOM      1  C   UNL     1       4.800   0.837  -0.375  1.00  0.00     0.202 C 
ENDROOT
BRANCH   1   2
ATOM      2  C   UNL     1       4.522  -0.308  -1.350  1.00  0.00     0.261 C 
BRANCH   2   3
ATOM      3  O   UNL     1       3.142  -0.350  -1.760  1.00  0.00    -0.460 OA
BRANCH   3   4
ATOM      4  C   UNL     1       2.100  -0.422  -0.903  1.00  0.00     0.338 C 
ATOM      5  O   UNL     1       1.090   0.250  -1.095  1.00  0.00    -0.246 OA
BRANCH   4   6
ATOM      6  C   UNL     1       2.105  -1.479   0.141  1.00  0.00     0.060 A 
ATOM      7  C   UNL     1       3.247  -2.131   0.612  1.00  0.00     0.016 A 
ATOM      8  C   UNL     1       0.843  -1.925   0.548  1.00  0.00     0.016 A 
ATOM      9  C   UNL     1       3.145  -3.402   1.115  1.00  0.00     0.010 A 
ATOM     10  C   UNL     1       0.730  -3.155   1.153  1.00  0.00     0.010 A 
ATOM     11  C   UNL     1       1.877  -3.933   1.284  1.00  0.00    -0.014 A 
BRANCH  11  12
ATOM     12  C   UNL     1       1.782  -5.321   1.675  1.00  0.00     0.031 A 
ATOM     13  C   UNL     1       2.371  -5.600   3.014  1.00  0.00     0.074 A 
ATOM     14  C   UNL     1       1.094  -6.170   0.885  1.00  0.00     0.049 A 
ATOM     15  N   UNL     1       3.257  -6.482   3.338  1.00  0.00    -0.248 NA
ATOM     16  C   UNL     1       2.055  -4.652   4.104  1.00  0.00     0.031 C 
ATOM     17  C   UNL     1       0.348  -5.867  -0.344  1.00  0.00     0.029 A 
ATOM     18  N   UNL     1       0.782  -7.469   1.095  1.00  0.00    -0.354 N 
ATOM     19  C   UNL     1       3.439  -6.347   4.712  1.00  0.00     0.074 A 
ATOM     20  C   UNL     1       2.819  -5.108   5.095  1.00  0.00     0.031 C 
ATOM     21  C   UNL     1      -0.542  -6.856  -0.582  1.00  0.00     0.029 A 
ATOM     22  C   UNL     1      -0.336  -7.911   0.393  1.00  0.00     0.049 A 
ATOM     23  H   UNL     1       1.302  -8.053   1.693  1.00  0.00     0.167 HD
ATOM     24  C   UNL     1       3.883  -7.374   5.484  1.00  0.00     0.034 A 
ATOM     25  C   UNL     1      -1.092  -8.997   0.715  1.00  0.00     0.034 A 
ATOM     26  C   UNL     1       4.564  -8.372   4.705  1.00  0.00     0.049 A 
ATOM     27  C   UNL     1      -0.226  -9.851   1.579  1.00  0.00     0.074 A 
ATOM     28  C   UNL     1       5.718  -8.358   3.945  1.00  0.00     0.029 A 
ATOM     29  N   UNL     1       3.841  -9.457   4.266  1.00  0.00    -0.354 N 
ATOM     30  N   UNL     1       0.887 -10.393   1.156  1.00  0.00    -0.248 NA
ATOM     31  C   UNL     1      -0.305  -9.645   3.020  1.00  0.00     0.031 C 
ATOM     32  C   UNL     1       5.389  -9.098   2.771  1.00  0.00     0.029 A 
ATOM     33  C   UNL     1       4.095  -9.602   2.921  1.00  0.00     0.049 A 
ATOM     34  H   UNL     1       3.252 -10.026   4.813  1.00  0.00     0.167 HD
ATOM     35  C   UNL     1       1.794 -10.216   2.192  1.00  0.00     0.074 A 
ATOM     36  C   UNL     1       0.986  -9.793   3.336  1.00  0.00     0.031 C 
ATOM     37  C   UNL     1       3.139 -10.125   1.962  1.00  0.00     0.034 A 
BRANCH  24  38
ATOM     38  C   UNL     1       3.409  -7.596   6.892  1.00  0.00     0.023 A 
ATOM     39  C   UNL     1       4.115  -8.474   7.730  1.00  0.00     0.031 A 
ATOM     40  C   UNL     1       2.143  -7.164   7.357  1.00  0.00     0.131 A 
ATOM     41  C   UNL     1       3.554  -8.896   8.951  1.00  0.00     0.055 A 
ATOM     42  C   UNL     1       1.617  -7.539   8.592  1.00  0.00     0.041 A 
ATOM     43  F   UNL     1       1.316  -6.433   6.596  1.00  0.00    -0.206 F 
ATOM     44  C   UNL     1       2.316  -8.426   9.391  1.00  0.00     0.022 A 
BRANCH  41  45
ATOM     45  S   UNL     1       4.415 -10.165   9.916  1.00  0.00     0.124 S 
ATOM     46  O   UNL     1       4.491 -11.268   8.966  1.00  0.00    -0.237 OA
ATOM     47  O   UNL     1       5.675  -9.500  10.234  1.00  0.00    -0.237 OA
ATOM     48  O   UNL     1       3.527 -10.386  11.056  1.00  0.00    -0.744 OA
ENDBRANCH  41  45
ENDBRANCH  24  38
BRANCH  25  49
ATOM     49  C   UNL     1      -2.587  -9.066   0.716  1.00  0.00     0.023 A 
ATOM     50  C   UNL     1      -3.287 -10.287   0.836  1.00  0.00     0.031 A 
ATOM     51  C   UNL     1      -3.363  -7.888   0.841  1.00  0.00     0.131 A 
ATOM     52  C   UNL     1      -4.686 -10.295   1.066  1.00  0.00     0.055 A 
ATOM     53  C   UNL     1      -4.743  -7.902   1.063  1.00  0.00     0.041 A 
ATOM     54  F   UNL     1      -2.797  -6.672   0.843  1.00  0.00    -0.206 F 
ATOM     55  C   UNL     1      -5.410  -9.107   1.187  1.00  0.00     0.022 A 
BRANCH  52  56
ATOM     56  S   UNL     1      -5.579 -11.863   1.327  1.00  0.00     0.124 S 
ATOM     57  O   UNL     1      -5.687 -12.382  -0.032  1.00  0.00    -0.237 OA
ATOM     58  O   UNL     1      -4.692 -12.588   2.229  1.00  0.00    -0.237 OA
ATOM     59  O   UNL     1      -6.844 -11.438   1.927  1.00  0.00    -0.744 OA
ENDBRANCH  52  56
ENDBRANCH  25  49
BRANCH  37  60
ATOM     60  C   UNL     1       3.664 -10.413   0.565  1.00  0.00     0.023 A 
ATOM     61  C   UNL     1       3.369  -9.656  -0.597  1.00  0.00     0.031 A 
ATOM     62  C   UNL     1       4.643 -11.414   0.456  1.00  0.00     0.131 A 
ATOM     63  C   UNL     1       4.052  -9.924  -1.806  1.00  0.00     0.055 A 
ATOM     64  C   UNL     1       5.327 -11.662  -0.733  1.00  0.00     0.041 A 
ATOM     65  F   UNL     1       4.990 -12.142   1.531  1.00  0.00    -0.206 F 
ATOM     66  C   UNL     1       5.032 -10.919  -1.870  1.00  0.00     0.022 A 
BRANCH  63  67
ATOM     67  S   UNL     1       3.692  -8.970  -3.322  1.00  0.00     0.124 S 
ATOM     68  O   UNL     1       2.251  -9.124  -3.481  1.00  0.00    -0.237 OA
ATOM     69  O   UNL     1       4.161  -7.631  -2.977  1.00  0.00    -0.237 OA
ATOM     70  O   UNL     1       4.492  -9.643  -4.349  1.00  0.00    -0.744 OA
ENDBRANCH  63  67
ENDBRANCH  37  60
ENDBRANCH  11  12
ENDBRANCH   4   6
ENDBRANCH   3   4
ENDBRANCH   2   3
ENDBRANCH   1   2
BRANCH   1  71
ATOM     71  O   UNL     1       4.315   0.776   0.966  1.00  0.00    -0.374 OA
BRANCH  71  72
ATOM     72  C   UNL     1       3.148   1.540   1.308  1.00  0.00     0.202 C 
BRANCH  72  73
ATOM     73  C   UNL     1       3.188   3.076   1.262  1.00  0.00     0.261 C 
BRANCH  73  74
ATOM     74  O   UNL     1       3.446   3.577  -0.056  1.00  0.00    -0.459 OA
BRANCH  74  75
ATOM     75  C   UNL     1       4.754   3.857  -0.303  1.00  0.00     0.357 C 
ATOM     76  O   UNL     1       5.649   3.960   0.510  1.00  0.00    -0.244 OA
BRANCH  75  77
ATOM     77  C   UNL     1       4.948   3.878  -1.780  1.00  0.00     0.149 A 
ATOM     78  C   UNL     1       4.179   4.710  -2.539  1.00  0.00     0.041 A 
ATOM     79  N   UNL     1       5.992   3.193  -2.276  1.00  0.00    -0.241 NA
ATOM     80  C   UNL     1       4.654   5.088  -3.815  1.00  0.00    -0.021 A 
ATOM     81  C   UNL     1       6.368   3.414  -3.537  1.00  0.00     0.072 A 
ATOM     82  C   UNL     1       5.833   4.431  -4.382  1.00  0.00     0.012 A 
ATOM     83  C   UNL     1       7.431   2.630  -3.927  1.00  0.00     0.029 A 
ATOM     84  C   UNL     1       6.617   4.712  -5.604  1.00  0.00    -0.009 A 
ATOM     85  C   UNL     1       8.106   2.847  -5.116  1.00  0.00     0.011 A 
ATOM     86  C   UNL     1       7.745   3.905  -5.933  1.00  0.00    -0.018 A 
ATOM     87  C   UNL     1       6.406   5.779  -6.503  1.00  0.00     0.009 A 
ATOM     88  C   UNL     1       8.554   4.168  -7.055  1.00  0.00     0.009 A 
ATOM     89  C   UNL     1       7.218   6.056  -7.610  1.00  0.00     0.001 A 
ATOM     90  C   UNL     1       8.299   5.247  -7.888  1.00  0.00     0.001 A 
BRANCH  80  91
ATOM     91  C   UNL     1       3.981   6.372  -4.233  1.00  0.00     0.115 C 
ATOM     92  C   UNL     1       3.408   6.559  -5.580  1.00  0.00     0.123 C 
ATOM     93  C   UNL     1       4.773   7.642  -4.130  1.00  0.00     0.083 C 
ATOM     94  N   UNL     1       3.643   7.743  -6.052  1.00  0.00    -0.162 NA
ATOM     95  N   UNL     1       4.513   8.439  -5.127  1.00  0.00    -0.154 NA
BRANCH  93  96
ATOM     96  C   UNL     1       5.606   8.008  -2.954  1.00  0.00    -0.001 A 
ATOM     97  C   UNL     1       5.462   9.290  -2.416  1.00  0.00     0.013 A 
ATOM     98  C   UNL     1       6.501   7.119  -2.340  1.00  0.00     0.013 A 
ATOM     99  C   UNL     1       6.155   9.645  -1.253  1.00  0.00     0.040 A 
ATOM    100  C   UNL     1       7.169   7.460  -1.163  1.00  0.00     0.040 A 
ATOM    101  C   UNL     1       6.987   8.722  -0.627  1.00  0.00     0.123 A 
ATOM    102  F   UNL     1       7.630   9.061   0.497  1.00  0.00    -0.207 F 
ENDBRANCH  93  96
ENDBRANCH  80  91
ENDBRANCH  75  77
ENDBRANCH  74  75
ENDBRANCH  73  74
ENDBRANCH  72  73
ENDBRANCH  71  72
ENDBRANCH   1  71
TORSDOF 19
