REMARK SMILES O=C(CN(Cc1ccccc1Cl)S(=O)(=O)c1ccc(Cl)cc1)OCCOCCOC(=O)c1ccc(-c2c3nc(c(-c4cc(S(=O)(=O)[O-])ccc4F)c4ccc([nH]4)c(-c4cc(S(=O)(=O)[O-])ccc4F)c4nc(c(-c5cc(S(=O)(=O)[O-])ccc5F)c5ccc2[nH]5)C=C4)C=C3)cc1
REMARK SMILES IDX 26 1 25 2 24 3 23 4 2 5 1 6 3 7 4 8 5 9 6 10 7 11 11 12 8 13
REMARK SMILES IDX 10 14 12 15 9 16 13 17 14 18 15 19 16 20 17 21 22 22 18 23
REMARK SMILES IDX 21 24 19 25 20 26 27 27 28 28 29 29 30 30 31 31 32 32 33 33
REMARK SMILES IDX 94 34 34 35 93 36 35 37 36 38 37 39 87 40 38 41 92 42 86 43
REMARK SMILES IDX 88 44 39 45 91 46 85 47 84 48 40 50 72 51 52 52 71 53 53 54
REMARK SMILES IDX 56 55 70 56 89 57 54 58 55 59 69 61 90 62 57 63 41 64 42 65
REMARK SMILES IDX 50 66 43 67 49 68 51 69 48 70 44 71 45 72 46 73 47 74 73 75
REMARK SMILES IDX 74 76 82 77 75 78 81 79 83 80 80 81 76 82 77 83 78 84 79 85
REMARK SMILES IDX 58 86 59 87 67 88 60 89 66 90 68 91 65 92 61 93 62 94 63 95
REMARK SMILES IDX 64 96
REMARK H PARENT 88 49 56 60
REMARK Flexibility Score: inf
ROOT
ATOM      1  O   UNL     1       4.175  -0.371  -1.680  1.00  0.00    -0.374 OA
ENDROOT
BRANCH   1   2
ATOM      2  C   UNL     1       4.705  -1.178  -0.622  1.00  0.00     0.202 C 
BRANCH   2   3
ATOM      3  C   UNL     1       4.477  -0.564   0.759  1.00  0.00     0.261 C 
BRANCH   3   4
ATOM      4  O   UNL     1       3.140  -0.826   1.239  1.00  0.00    -0.462 OA
BRANCH   4   5
ATOM      5  C   UNL     1       2.056  -0.052   1.001  1.00  0.00     0.321 C 
ATOM      6  O   UNL     1       0.927  -0.504   1.190  1.00  0.00    -0.251 OA
BRANCH   5   7
ATOM      7  C   UNL     1       2.251   1.308   0.383  1.00  0.00     0.225 C 
BRANCH   7   8
ATOM      8  N   UNL     1       3.145   2.275   1.063  1.00  0.00    -0.182 NA
BRANCH   8   9
ATOM      9  C   UNL     1       3.913   3.134   0.118  1.00  0.00     0.140 C 
BRANCH   9  10
ATOM     10  C   UNL     1       3.253   4.359  -0.480  1.00  0.00    -0.014 A 
ATOM     11  C   UNL     1       3.644   5.621   0.011  1.00  0.00     0.006 A 
ATOM     12  C   UNL     1       2.315   4.340  -1.528  1.00  0.00     0.045 A 
ATOM     13  C   UNL     1       3.081   6.803  -0.477  1.00  0.00     0.000 A 
ATOM     14  C   UNL     1       1.729   5.525  -1.993  1.00  0.00     0.021 A 
ATOM     15  Cl  UNL     1       1.875   2.919  -2.398  1.00  0.00    -0.084 Cl
ATOM     16  C   UNL     1       2.106   6.754  -1.466  1.00  0.00     0.002 A 
ENDBRANCH   9  10
ENDBRANCH   8   9
BRANCH   8  17
ATOM     17  S   UNL     1       2.467   2.912   2.473  1.00  0.00     0.243 S 
ATOM     18  O   UNL     1       1.668   4.064   2.116  1.00  0.00    -0.207 OA
ATOM     19  O   UNL     1       1.882   1.818   3.215  1.00  0.00    -0.207 OA
BRANCH  17  20
ATOM     20  C   UNL     1       3.851   3.467   3.441  1.00  0.00     0.082 A 
ATOM     21  C   UNL     1       4.637   2.522   4.113  1.00  0.00     0.023 A 
ATOM     22  C   UNL     1       4.023   4.833   3.679  1.00  0.00     0.023 A 
ATOM     23  C   UNL     1       5.602   2.953   5.028  1.00  0.00     0.022 A 
ATOM     24  C   UNL     1       4.991   5.258   4.592  1.00  0.00     0.022 A 
ATOM     25  C   UNL     1       5.769   4.317   5.268  1.00  0.00     0.041 A 
ATOM     26  Cl  UNL     1       6.916   4.849   6.436  1.00  0.00    -0.084 Cl
ENDBRANCH  17  20
ENDBRANCH   8  17
ENDBRANCH   7   8
ENDBRANCH   5   7
ENDBRANCH   4   5
ENDBRANCH   3   4
ENDBRANCH   2   3
ENDBRANCH   1   2
BRANCH   1  27
ATOM     27  C   UNL     1       2.951  -0.846  -2.256  1.00  0.00     0.202 C 
BRANCH  27  28
ATOM     28  C   UNL     1       3.112  -1.873  -3.377  1.00  0.00     0.261 C 
BRANCH  28  29
ATOM     29  O   UNL     1       3.548  -3.127  -2.840  1.00  0.00    -0.460 OA
BRANCH  29  30
ATOM     30  C   UNL     1       4.873  -3.368  -2.976  1.00  0.00     0.338 C 
ATOM     31  O   UNL     1       5.669  -2.720  -3.634  1.00  0.00    -0.246 OA
BRANCH  30  32
ATOM     32  C   UNL     1       5.270  -4.420  -2.017  1.00  0.00     0.060 A 
ATOM     33  C   UNL     1       6.538  -4.302  -1.435  1.00  0.00     0.016 A 
ATOM     34  C   UNL     1       4.427  -5.484  -1.674  1.00  0.00     0.016 A 
ATOM     35  C   UNL     1       6.992  -5.278  -0.557  1.00  0.00     0.010 A 
ATOM     36  C   UNL     1       4.885  -6.466  -0.793  1.00  0.00     0.010 A 
ATOM     37  C   UNL     1       6.185  -6.385  -0.268  1.00  0.00    -0.014 A 
BRANCH  37  38
ATOM     38  C   UNL     1       6.795  -7.543   0.421  1.00  0.00     0.031 A 
ATOM     39  C   UNL     1       7.319  -8.671  -0.424  1.00  0.00     0.074 A 
ATOM     40  C   UNL     1       6.942  -7.544   1.757  1.00  0.00     0.049 A 
ATOM     41  N   UNL     1       7.929  -9.767  -0.060  1.00  0.00    -0.248 NA
ATOM     42  C   UNL     1       7.131  -8.540  -1.879  1.00  0.00     0.031 C 
ATOM     43  C   UNL     1       6.497  -6.479   2.656  1.00  0.00     0.029 A 
ATOM     44  N   UNL     1       7.514  -8.470   2.589  1.00  0.00    -0.354 N 
ATOM     45  C   UNL     1       8.211 -10.450  -1.239  1.00  0.00     0.074 A 
ATOM     46  C   UNL     1       7.662  -9.668  -2.324  1.00  0.00     0.031 C 
ATOM     47  C   UNL     1       6.810  -6.817   3.919  1.00  0.00     0.029 A 
ATOM     48  C   UNL     1       7.452  -8.129   3.920  1.00  0.00     0.049 A 
ATOM     49  H   UNL     1       7.930  -9.301   2.265  1.00  0.00     0.167 HD
ATOM     50  C   UNL     1       8.881 -11.616  -1.399  1.00  0.00     0.034 A 
ATOM     51  C   UNL     1       7.856  -8.813   5.008  1.00  0.00     0.034 A 
ATOM     52  C   UNL     1       9.395 -12.392  -0.299  1.00  0.00     0.049 A 
ATOM     53  C   UNL     1       8.536 -10.147   4.807  1.00  0.00     0.074 A 
ATOM     54  C   UNL     1      10.069 -13.600  -0.333  1.00  0.00     0.029 A 
ATOM     55  N   UNL     1       9.282 -12.037   1.040  1.00  0.00    -0.354 N 
ATOM     56  N   UNL     1       8.805 -10.778   3.685  1.00  0.00    -0.248 NA
ATOM     57  C   UNL     1       8.983 -10.850   6.015  1.00  0.00     0.031 C 
ATOM     58  C   UNL     1      10.311 -14.002   0.986  1.00  0.00     0.029 A 
ATOM     59  C   UNL     1       9.853 -13.012   1.842  1.00  0.00     0.049 A 
ATOM     60  H   UNL     1       8.858 -11.212   1.370  1.00  0.00     0.167 HD
ATOM     61  C   UNL     1       9.472 -11.943   4.056  1.00  0.00     0.074 A 
ATOM     62  C   UNL     1       9.591 -11.907   5.500  1.00  0.00     0.031 C 
ATOM     63  C   UNL     1       9.941 -12.956   3.282  1.00  0.00     0.034 A 
BRANCH  50  64
ATOM     64  C   UNL     1       9.046 -12.129  -2.808  1.00  0.00     0.023 A 
ATOM     65  C   UNL     1       9.822 -11.441  -3.757  1.00  0.00     0.031 A 
ATOM     66  C   UNL     1       8.393 -13.304  -3.217  1.00  0.00     0.131 A 
ATOM     67  C   UNL     1       9.879 -11.902  -5.082  1.00  0.00     0.055 A 
ATOM     68  C   UNL     1       8.510 -13.796  -4.519  1.00  0.00     0.041 A 
ATOM     69  F   UNL     1       7.616 -13.987  -2.361  1.00  0.00    -0.206 F 
ATOM     70  C   UNL     1       9.248 -13.088  -5.463  1.00  0.00     0.022 A 
BRANCH  67  71
ATOM     71  S   UNL     1      10.695 -10.868  -6.330  1.00  0.00     0.124 S 
ATOM     72  O   UNL     1       9.875  -9.660  -6.294  1.00  0.00    -0.237 OA
ATOM     73  O   UNL     1      12.047 -10.738  -5.799  1.00  0.00    -0.237 OA
ATOM     74  O   UNL     1      10.580 -11.655  -7.556  1.00  0.00    -0.744 OA
ENDBRANCH  67  71
ENDBRANCH  50  64
BRANCH  51  75
ATOM     75  C   UNL     1       7.603  -8.284   6.380  1.00  0.00     0.023 A 
ATOM     76  C   UNL     1       8.658  -7.984   7.256  1.00  0.00     0.031 A 
ATOM     77  C   UNL     1       6.288  -8.138   6.860  1.00  0.00     0.131 A 
ATOM     78  C   UNL     1       8.383  -7.609   8.581  1.00  0.00     0.055 A 
ATOM     79  C   UNL     1       6.020  -7.711   8.162  1.00  0.00     0.041 A 
ATOM     80  F   UNL     1       5.241  -8.410   6.066  1.00  0.00    -0.206 F 
ATOM     81  C   UNL     1       7.072  -7.460   9.036  1.00  0.00     0.022 A 
BRANCH  78  82
ATOM     82  S   UNL     1       9.771  -7.419   9.735  1.00  0.00     0.124 S 
ATOM     83  O   UNL     1      10.437  -8.711   9.618  1.00  0.00    -0.237 OA
ATOM     84  O   UNL     1      10.480  -6.277   9.167  1.00  0.00    -0.237 OA
ATOM     85  O   UNL     1       9.115  -7.168  11.017  1.00  0.00    -0.744 OA
ENDBRANCH  78  82
ENDBRANCH  51  75
BRANCH  63  86
ATOM     86  C   UNL     1      10.648 -14.081   3.997  1.00  0.00     0.023 A 
ATOM     87  C   UNL     1       9.964 -14.932   4.883  1.00  0.00     0.031 A 
ATOM     88  C   UNL     1      12.028 -14.279   3.819  1.00  0.00     0.131 A 
ATOM     89  C   UNL     1      10.674 -15.893   5.615  1.00  0.00     0.055 A 
ATOM     90  C   UNL     1      12.718 -15.283   4.501  1.00  0.00     0.041 A 
ATOM     91  F   UNL     1      12.730 -13.496   2.985  1.00  0.00    -0.206 F 
ATOM     92  C   UNL     1      12.044 -16.084   5.418  1.00  0.00     0.022 A 
BRANCH  89  93
ATOM     93  S   UNL     1       9.804 -16.809   6.915  1.00  0.00     0.124 S 
ATOM     94  O   UNL     1       9.294 -15.732   7.757  1.00  0.00    -0.237 OA
ATOM     95  O   UNL     1       8.804 -17.553   6.156  1.00  0.00    -0.237 OA
ATOM     96  O   UNL     1      10.855 -17.625   7.521  1.00  0.00    -0.744 OA
ENDBRANCH  89  93
ENDBRANCH  63  86
ENDBRANCH  37  38
ENDBRANCH  30  32
ENDBRANCH  29  30
ENDBRANCH  28  29
ENDBRANCH  27  28
ENDBRANCH   1  27
TORSDOF 22
