REMARK SMILES C[C@@H](C(=O)OCCOCCOC(=O)c1ccc(-c2c3nc(c(-c4cc(S(=O)(=O)[O-])ccc4F)c4ccc([nH]4)c(-c4cc(S(=O)(=O)[O-])ccc4F)c4nc(c(-c5cc(S(=O)(=O)[O-])ccc5F)c5ccc2[nH]5)C=C4)C=C3)cc1)c1ccc(C[C@@H]2CCC[C@@H]2O)cc1
REMARK SMILES IDX 7 1 6 2 5 3 3 4 4 5 2 6 1 7 77 8 78 9 89 10 79 11 88 12
REMARK SMILES IDX 80 13 81 14 82 15 83 16 86 17 84 18 85 19 87 20 8 22 9 23
REMARK SMILES IDX 10 24 11 25 12 26 13 27 14 28 15 29 76 30 16 31 75 32 17 33
REMARK SMILES IDX 18 34 19 35 69 36 20 37 74 38 68 39 70 40 21 41 73 42 67 43
REMARK SMILES IDX 66 44 22 46 54 47 34 48 53 49 35 50 38 51 52 52 71 53 36 54
REMARK SMILES IDX 37 55 51 57 72 58 39 59 23 60 24 61 32 62 25 63 31 64 33 65
REMARK SMILES IDX 30 66 26 67 27 68 28 69 29 70 55 71 56 72 64 73 57 74 63 75
REMARK SMILES IDX 65 76 62 77 58 78 59 79 60 80 61 81 40 82 41 83 49 84 42 85
REMARK SMILES IDX 48 86 50 87 47 88 43 89 44 90 45 91 46 92
REMARK H PARENT 87 21 70 45 38 56
REMARK Flexibility Score: inf
ROOT
ATOM      1  C   UNL     1      -7.237   2.520  10.991  1.00  0.00     0.202 C 
ENDROOT
BRANCH   1   2
ATOM      2  C   UNL     1      -7.604   3.662  10.037  1.00  0.00     0.261 C 
BRANCH   2   3
ATOM      3  O   UNL     1      -8.792   3.332   9.289  1.00  0.00    -0.463 OA
BRANCH   3   4
ATOM      4  C   UNL     1      -8.721   3.508   7.942  1.00  0.00     0.313 C 
ATOM      5  O   UNL     1      -7.793   4.073   7.371  1.00  0.00    -0.252 OA
BRANCH   4   6
ATOM      6  C   UNL     1      -9.928   2.909   7.200  1.00  0.00     0.126 C 
ATOM      7  C   UNL     1     -10.927   2.147   8.077  1.00  0.00     0.025 C 
BRANCH   6   8
ATOM      8  C   UNL     1      -9.443   2.086   6.009  1.00  0.00    -0.034 A 
ATOM      9  C   UNL     1      -8.940   0.784   6.151  1.00  0.00     0.005 A 
ATOM     10  C   UNL     1      -9.368   2.688   4.746  1.00  0.00     0.005 A 
ATOM     11  C   UNL     1      -8.303   0.138   5.087  1.00  0.00     0.004 A 
ATOM     12  C   UNL     1      -8.742   2.038   3.681  1.00  0.00     0.004 A 
ATOM     13  C   UNL     1      -8.158   0.777   3.853  1.00  0.00    -0.048 A 
BRANCH  13  14
ATOM     14  C   UNL     1      -7.362   0.148   2.736  1.00  0.00     0.041 C 
BRANCH  14  15
ATOM     15  C   UNL     1      -5.824   0.315   2.753  1.00  0.00     0.022 C 
ATOM     16  C   UNL     1      -5.112  -0.343   3.942  1.00  0.00     0.007 C 
ATOM     17  C   UNL     1      -5.264   1.741   2.777  1.00  0.00     0.117 C 
ATOM     18  C   UNL     1      -4.782   0.774   4.936  1.00  0.00     0.003 C 
ATOM     19  C   UNL     1      -5.143   2.089   4.255  1.00  0.00     0.032 C 
BRANCH  17  20
ATOM     20  O   UNL     1      -6.045   2.664   2.046  1.00  0.00    -0.393 OA
ATOM     21  H   UNL     1      -6.941   2.693   2.416  1.00  0.00     0.210 HD
ENDBRANCH  17  20
ENDBRANCH  14  15
ENDBRANCH  13  14
ENDBRANCH   6   8
ENDBRANCH   4   6
ENDBRANCH   3   4
ENDBRANCH   2   3
ENDBRANCH   1   2
BRANCH   1  22
ATOM     22  O   UNL     1      -6.722   1.332  10.381  1.00  0.00    -0.374 OA
BRANCH  22  23
ATOM     23  C   UNL     1      -7.644   0.531   9.649  1.00  0.00     0.202 C 
BRANCH  23  24
ATOM     24  C   UNL     1      -8.539  -0.419  10.455  1.00  0.00     0.261 C 
BRANCH  24  25
ATOM     25  O   UNL     1      -9.323   0.262  11.446  1.00  0.00    -0.460 OA
BRANCH  25  26
ATOM     26  C   UNL     1      -8.878   0.090  12.714  1.00  0.00     0.338 C 
ATOM     27  O   UNL     1      -7.970  -0.647  13.079  1.00  0.00    -0.246 OA
BRANCH  26  28
ATOM     28  C   UNL     1      -9.517   1.063  13.618  1.00  0.00     0.060 A 
ATOM     29  C   UNL     1      -8.672   1.837  14.423  1.00  0.00     0.016 A 
ATOM     30  C   UNL     1     -10.905   1.180  13.727  1.00  0.00     0.016 A 
ATOM     31  C   UNL     1      -9.209   2.693  15.379  1.00  0.00     0.010 A 
ATOM     32  C   UNL     1     -11.444   2.036  14.696  1.00  0.00     0.010 A 
ATOM     33  C   UNL     1     -10.598   2.768  15.549  1.00  0.00    -0.014 A 
BRANCH  33  34
ATOM     34  C   UNL     1     -11.142   3.486  16.729  1.00  0.00     0.031 A 
ATOM     35  C   UNL     1     -11.540   2.688  17.942  1.00  0.00     0.074 A 
ATOM     36  C   UNL     1     -11.226   4.828  16.740  1.00  0.00     0.049 A 
ATOM     37  N   UNL     1     -12.040   3.096  19.078  1.00  0.00    -0.248 NA
ATOM     38  C   UNL     1     -11.345   1.232  17.857  1.00  0.00     0.031 C 
ATOM     39  C   UNL     1     -10.818   5.707  15.644  1.00  0.00     0.029 A 
ATOM     40  N   UNL     1     -11.680   5.688  17.709  1.00  0.00    -0.354 N 
ATOM     41  C   UNL     1     -12.226   1.950  19.844  1.00  0.00     0.074 A 
ATOM     42  C   UNL     1     -11.817   0.828  19.026  1.00  0.00     0.031 C 
ATOM     43  C   UNL     1     -11.043   6.983  16.002  1.00  0.00     0.029 A 
ATOM     44  C   UNL     1     -11.646   7.010  17.334  1.00  0.00     0.049 A 
ATOM     45  H   UNL     1     -12.000   5.385  18.589  1.00  0.00     0.167 HD
ATOM     46  C   UNL     1     -12.686   1.845  21.116  1.00  0.00     0.034 A 
ATOM     47  C   UNL     1     -12.072   8.112  17.984  1.00  0.00     0.034 A 
ATOM     48  C   UNL     1     -13.096   2.975  21.914  1.00  0.00     0.049 A 
ATOM     49  C   UNL     1     -12.668   7.961  19.364  1.00  0.00     0.074 A 
ATOM     50  C   UNL     1     -13.562   2.986  23.217  1.00  0.00     0.029 A 
ATOM     51  N   UNL     1     -13.105   4.295  21.480  1.00  0.00    -0.354 N 
ATOM     52  N   UNL     1     -12.829   6.872  20.081  1.00  0.00    -0.248 NA
ATOM     53  C   UNL     1     -13.132   9.189  20.024  1.00  0.00     0.031 C 
ATOM     54  C   UNL     1     -13.922   4.298  23.543  1.00  0.00     0.029 A 
ATOM     55  C   UNL     1     -13.605   5.121  22.475  1.00  0.00     0.049 A 
ATOM     56  H   UNL     1     -12.801   4.599  20.594  1.00  0.00     0.167 HD
ATOM     57  C   UNL     1     -13.382   7.292  21.290  1.00  0.00     0.074 A 
ATOM     58  C   UNL     1     -13.513   8.732  21.207  1.00  0.00     0.031 C 
ATOM     59  C   UNL     1     -13.741   6.556  22.373  1.00  0.00     0.034 A 
BRANCH  46  60
ATOM     60  C   UNL     1     -12.824   0.456  21.692  1.00  0.00     0.023 A 
ATOM     61  C   UNL     1     -11.710  -0.373  21.911  1.00  0.00     0.031 A 
ATOM     62  C   UNL     1     -14.097  -0.056  22.001  1.00  0.00     0.131 A 
ATOM     63  C   UNL     1     -11.896  -1.691  22.359  1.00  0.00     0.055 A 
ATOM     64  C   UNL     1     -14.268  -1.341  22.520  1.00  0.00     0.041 A 
ATOM     65  F   UNL     1     -15.199   0.680  21.790  1.00  0.00    -0.206 F 
ATOM     66  C   UNL     1     -13.165  -2.172  22.688  1.00  0.00     0.022 A 
BRANCH  63  67
ATOM     67  S   UNL     1     -10.471  -2.814  22.371  1.00  0.00     0.124 S 
ATOM     68  O   UNL     1     -10.058  -2.781  20.970  1.00  0.00    -0.237 OA
ATOM     69  O   UNL     1      -9.570  -2.169  23.319  1.00  0.00    -0.237 OA
ATOM     70  O   UNL     1     -11.040  -4.085  22.815  1.00  0.00    -0.744 OA
ENDBRANCH  63  67
ENDBRANCH  46  60
BRANCH  47  71
ATOM     71  C   UNL     1     -11.996   9.453  17.334  1.00  0.00     0.023 A 
ATOM     72  C   UNL     1     -11.215  10.483  17.881  1.00  0.00     0.031 A 
ATOM     73  C   UNL     1     -12.757   9.742  16.187  1.00  0.00     0.131 A 
ATOM     74  C   UNL     1     -11.248  11.765  17.309  1.00  0.00     0.055 A 
ATOM     75  C   UNL     1     -12.744  11.003  15.589  1.00  0.00     0.041 A 
ATOM     76  F   UNL     1     -13.524   8.794  15.624  1.00  0.00    -0.206 F 
ATOM     77  C   UNL     1     -11.997  12.028  16.159  1.00  0.00     0.022 A 
BRANCH  74  78
ATOM     78  S   UNL     1     -10.367  13.113  18.145  1.00  0.00     0.124 S 
ATOM     79  O   UNL     1     -10.992  13.104  19.462  1.00  0.00    -0.237 OA
ATOM     80  O   UNL     1      -8.984  12.652  18.087  1.00  0.00    -0.237 OA
ATOM     81  O   UNL     1     -10.668  14.280  17.318  1.00  0.00    -0.744 OA
ENDBRANCH  74  78
ENDBRANCH  47  71
BRANCH  59  82
ATOM     82  C   UNL     1     -14.265   7.308  23.573  1.00  0.00     0.023 A 
ATOM     83  C   UNL     1     -15.490   7.998  23.541  1.00  0.00     0.031 A 
ATOM     84  C   UNL     1     -13.520   7.341  24.766  1.00  0.00     0.131 A 
ATOM     85  C   UNL     1     -15.906   8.737  24.659  1.00  0.00     0.055 A 
ATOM     86  C   UNL     1     -13.969   8.027  25.895  1.00  0.00     0.041 A 
ATOM     87  F   UNL     1     -12.342   6.702  24.854  1.00  0.00    -0.206 F 
ATOM     88  C   UNL     1     -15.162   8.741  25.841  1.00  0.00     0.022 A 
BRANCH  85  89
ATOM     89  S   UNL     1     -17.390   9.771  24.517  1.00  0.00     0.124 S 
ATOM     90  O   UNL     1     -17.039  10.655  23.410  1.00  0.00    -0.237 OA
ATOM     91  O   UNL     1     -18.431   8.787  24.242  1.00  0.00    -0.237 OA
ATOM     92  O   UNL     1     -17.481  10.421  25.823  1.00  0.00    -0.744 OA
ENDBRANCH  85  89
ENDBRANCH  59  82
ENDBRANCH  33  34
ENDBRANCH  26  28
ENDBRANCH  25  26
ENDBRANCH  24  25
ENDBRANCH  23  24
ENDBRANCH  22  23
ENDBRANCH   1  22
TORSDOF 21
