REMARK SMILES COc1ccc(/C=C2/C(=O)N(c3ccccc3)C(=O)N=C2OCCOCCOC(=O)c2ccc(-c3c4nc(c(-c5cc(S(=O)(=O)[O-])ccc5F)c5ccc([nH]5)c(-c5cc(S(=O)(=O)[O-])ccc5F)c5nc(c(-c6cc(S(=O)(=O)[O-])ccc6F)c6ccc3[nH]6)C=C5)C=C4)cc2)cc1C(=O)[O-]
REMARK SMILES IDX 26 1 25 2 24 3 23 4 22 5 21 6 7 7 8 8 9 9 10 10 11 11 20 12
REMARK SMILES IDX 18 13 19 14 6 15 3 16 4 17 95 18 5 19 94 20 2 21 1 22 96 23
REMARK SMILES IDX 97 24 98 25 12 26 13 27 17 28 14 29 16 30 15 31 27 32 28 33
REMARK SMILES IDX 29 34 30 35 31 36 32 37 93 38 33 39 92 40 34 41 35 42 36 43
REMARK SMILES IDX 86 44 37 45 91 46 85 47 87 48 38 49 90 50 84 51 83 52 39 54
REMARK SMILES IDX 71 55 51 56 70 57 52 58 55 59 69 60 88 61 53 62 54 63 68 65
REMARK SMILES IDX 89 66 56 67 40 68 41 69 49 70 42 71 48 72 50 73 47 74 43 75
REMARK SMILES IDX 44 76 45 77 46 78 72 79 73 80 81 81 74 82 80 83 82 84 79 85
REMARK SMILES IDX 75 86 76 87 77 88 78 89 57 90 58 91 66 92 59 93 65 94 67 95
REMARK SMILES IDX 64 96 60 97 61 98 62 99 63 100
REMARK H PARENT 87 53 55 64
REMARK Flexibility Score: inf
ROOT
ATOM      1  C   UNL     1      -1.482   7.217  -2.064  1.00  0.00     0.202 C 
ENDROOT
BRANCH   1   2
ATOM      2  O   UNL     1      -2.625   6.797  -2.811  1.00  0.00    -0.374 OA
BRANCH   2   3
ATOM      3  C   UNL     1      -2.694   5.404  -3.131  1.00  0.00     0.202 C 
BRANCH   3   4
ATOM      4  C   UNL     1      -2.140   5.063  -4.513  1.00  0.00     0.260 C 
BRANCH   4   5
ATOM      5  O   UNL     1      -0.695   5.031  -4.448  1.00  0.00    -0.475 OA
BRANCH   5   6
ATOM      6  C   UNL     1      -0.013   6.141  -4.756  1.00  0.00     0.231 C 
ATOM      7  C   UNL     1       2.100   5.222  -3.600  1.00  0.00     0.027 C 
ATOM      8  C   UNL     1       1.383   6.153  -4.286  1.00  0.00     0.103 C 
ATOM      9  C   UNL     1       2.074   7.481  -4.522  1.00  0.00     0.272 C 
ATOM     10  O   UNL     1       3.263   7.631  -4.234  1.00  0.00    -0.268 OA
ATOM     11  N   UNL     1       1.258   8.499  -5.019  1.00  0.00    -0.226 N 
ATOM     12  N   UNL     1      -0.621   7.093  -5.351  1.00  0.00    -0.156 NA
ATOM     13  C   UNL     1      -0.016   8.286  -5.556  1.00  0.00     0.358 C 
ATOM     14  O   UNL     1      -0.602   9.134  -6.226  1.00  0.00    -0.245 OA
BRANCH   7  15
ATOM     15  C   UNL     1       1.874   3.856  -3.032  1.00  0.00    -0.024 A 
ATOM     16  C   UNL     1       1.592   1.284  -1.801  1.00  0.00     0.127 A 
ATOM     17  C   UNL     1       0.727   1.705  -2.806  1.00  0.00     0.048 A 
ATOM     18  C   UNL     1       2.680   2.096  -1.487  1.00  0.00     0.040 A 
ATOM     19  C   UNL     1       0.900   2.946  -3.442  1.00  0.00     0.012 A 
ATOM     20  C   UNL     1       2.782   3.389  -2.054  1.00  0.00     0.022 A 
BRANCH  16  21
ATOM     21  O   UNL     1       1.317   0.049  -1.283  1.00  0.00    -0.496 OA
ATOM     22  C   UNL     1       1.295  -0.013   0.143  1.00  0.00     0.278 C 
ENDBRANCH  16  21
BRANCH  18  23
ATOM     23  C   UNL     1       3.812   1.639  -0.652  1.00  0.00     0.075 C 
ATOM     24  O   UNL     1       4.438   2.317   0.132  1.00  0.00    -0.545 OA
ATOM     25  O   UNL     1       4.171   0.378  -0.960  1.00  0.00    -0.545 OA
ENDBRANCH  18  23
ENDBRANCH   7  15
BRANCH  11  26
ATOM     26  C   UNL     1       1.763   9.833  -5.141  1.00  0.00     0.054 A 
ATOM     27  C   UNL     1       1.011  10.905  -4.627  1.00  0.00     0.027 A 
ATOM     28  C   UNL     1       2.911  10.102  -5.891  1.00  0.00     0.027 A 
ATOM     29  C   UNL     1       1.381  12.224  -4.890  1.00  0.00     0.002 A 
ATOM     30  C   UNL     1       3.260  11.425  -6.179  1.00  0.00     0.002 A 
ATOM     31  C   UNL     1       2.494  12.482  -5.685  1.00  0.00     0.000 A 
ENDBRANCH  11  26
ENDBRANCH   5   6
ENDBRANCH   4   5
ENDBRANCH   3   4
ENDBRANCH   2   3
ENDBRANCH   1   2
BRANCH   1  32
ATOM     32  C   UNL     1      -1.603   7.081  -0.545  1.00  0.00     0.261 C 
BRANCH  32  33
ATOM     33  O   UNL     1      -1.559   5.702  -0.144  1.00  0.00    -0.460 OA
BRANCH  33  34
ATOM     34  C   UNL     1      -2.776   5.144   0.067  1.00  0.00     0.338 C 
ATOM     35  O   UNL     1      -3.855   5.710   0.027  1.00  0.00    -0.246 OA
BRANCH  34  36
ATOM     36  C   UNL     1      -2.641   3.678   0.169  1.00  0.00     0.060 A 
ATOM     37  C   UNL     1      -3.571   2.894  -0.526  1.00  0.00     0.016 A 
ATOM     38  C   UNL     1      -1.671   3.079   0.974  1.00  0.00     0.016 A 
ATOM     39  C   UNL     1      -3.576   1.511  -0.367  1.00  0.00     0.010 A 
ATOM     40  C   UNL     1      -1.686   1.692   1.139  1.00  0.00     0.010 A 
ATOM     41  C   UNL     1      -2.660   0.903   0.500  1.00  0.00    -0.014 A 
BRANCH  41  42
ATOM     42  C   UNL     1      -2.844  -0.522   0.875  1.00  0.00     0.031 A 
ATOM     43  C   UNL     1      -3.413  -0.846   2.230  1.00  0.00     0.074 A 
ATOM     44  C   UNL     1      -2.546  -1.511   0.013  1.00  0.00     0.049 A 
ATOM     45  N   UNL     1      -3.657  -2.010   2.775  1.00  0.00    -0.248 NA
ATOM     46  C   UNL     1      -3.733   0.302   3.091  1.00  0.00     0.031 C 
ATOM     47  C   UNL     1      -2.004  -1.325  -1.331  1.00  0.00     0.029 A 
ATOM     48  N   UNL     1      -2.654  -2.872   0.146  1.00  0.00    -0.354 N 
ATOM     49  C   UNL     1      -4.158  -1.735   4.044  1.00  0.00     0.074 A 
ATOM     50  C   UNL     1      -4.111  -0.297   4.207  1.00  0.00     0.031 C 
ATOM     51  C   UNL     1      -1.826  -2.529  -1.901  1.00  0.00     0.029 A 
ATOM     52  C   UNL     1      -2.223  -3.570  -0.957  1.00  0.00     0.049 A 
ATOM     53  H   UNL     1      -3.007  -3.308   0.956  1.00  0.00     0.167 HD
ATOM     54  C   UNL     1      -4.638  -2.595   4.976  1.00  0.00     0.034 A 
ATOM     55  C   UNL     1      -2.151  -4.898  -1.175  1.00  0.00     0.034 A 
ATOM     56  C   UNL     1      -4.676  -4.027   4.800  1.00  0.00     0.049 A 
ATOM     57  C   UNL     1      -2.631  -5.845  -0.103  1.00  0.00     0.074 A 
ATOM     58  C   UNL     1      -5.156  -4.993   5.667  1.00  0.00     0.029 A 
ATOM     59  N   UNL     1      -4.205  -4.701   3.679  1.00  0.00    -0.354 N 
ATOM     60  N   UNL     1      -3.123  -5.572   1.084  1.00  0.00    -0.248 NA
ATOM     61  C   UNL     1      -2.561  -7.279  -0.411  1.00  0.00     0.031 C 
ATOM     62  C   UNL     1      -4.917  -6.251   5.099  1.00  0.00     0.029 A 
ATOM     63  C   UNL     1      -4.356  -6.070   3.845  1.00  0.00     0.049 A 
ATOM     64  H   UNL     1      -3.819  -4.270   2.883  1.00  0.00     0.167 HD
ATOM     65  C   UNL     1      -3.453  -6.801   1.650  1.00  0.00     0.074 A 
ATOM     66  C   UNL     1      -3.112  -7.812   0.669  1.00  0.00     0.031 C 
ATOM     67  C   UNL     1      -3.997  -7.070   2.865  1.00  0.00     0.034 A 
BRANCH  54  68
ATOM     68  C   UNL     1      -5.117  -1.993   6.277  1.00  0.00     0.023 A 
ATOM     69  C   UNL     1      -6.182  -1.074   6.315  1.00  0.00     0.031 A 
ATOM     70  C   UNL     1      -4.452  -2.276   7.482  1.00  0.00     0.131 A 
ATOM     71  C   UNL     1      -6.478  -0.393   7.505  1.00  0.00     0.055 A 
ATOM     72  C   UNL     1      -4.816  -1.665   8.685  1.00  0.00     0.041 A 
ATOM     73  F   UNL     1      -3.415  -3.127   7.508  1.00  0.00    -0.206 F 
ATOM     74  C   UNL     1      -5.819  -0.700   8.697  1.00  0.00     0.022 A 
BRANCH  71  75
ATOM     75  S   UNL     1      -7.597   1.034   7.426  1.00  0.00     0.124 S 
ATOM     76  O   UNL     1      -6.925   1.881   6.444  1.00  0.00    -0.237 OA
ATOM     77  O   UNL     1      -8.851   0.427   6.996  1.00  0.00    -0.237 OA
ATOM     78  O   UNL     1      -7.589   1.551   8.793  1.00  0.00    -0.744 OA
ENDBRANCH  71  75
ENDBRANCH  54  68
BRANCH  55  79
ATOM     79  C   UNL     1      -1.601  -5.420  -2.456  1.00  0.00     0.023 A 
ATOM     80  C   UNL     1      -2.417  -6.102  -3.372  1.00  0.00     0.031 A 
ATOM     81  C   UNL     1      -0.237  -5.276  -2.765  1.00  0.00     0.131 A 
ATOM     82  C   UNL     1      -1.856  -6.648  -4.536  1.00  0.00     0.055 A 
ATOM     83  C   UNL     1       0.309  -5.783  -3.945  1.00  0.00     0.041 A 
ATOM     84  F   UNL     1       0.585  -4.631  -1.921  1.00  0.00    -0.206 F 
ATOM     85  C   UNL     1      -0.501  -6.483  -4.835  1.00  0.00     0.022 A 
BRANCH  82  86
ATOM     86  S   UNL     1      -2.914  -7.632  -5.633  1.00  0.00     0.124 S 
ATOM     87  O   UNL     1      -3.326  -8.718  -4.752  1.00  0.00    -0.237 OA
ATOM     88  O   UNL     1      -3.950  -6.670  -5.996  1.00  0.00    -0.237 OA
ATOM     89  O   UNL     1      -2.016  -8.014  -6.720  1.00  0.00    -0.744 OA
ENDBRANCH  82  86
ENDBRANCH  55  79
BRANCH  67  90
ATOM     90  C   UNL     1      -4.299  -8.517   3.174  1.00  0.00     0.023 A 
ATOM     91  C   UNL     1      -3.279  -9.473   3.323  1.00  0.00     0.031 A 
ATOM     92  C   UNL     1      -5.633  -8.949   3.295  1.00  0.00     0.131 A 
ATOM     93  C   UNL     1      -3.610 -10.823   3.520  1.00  0.00     0.055 A 
ATOM     94  C   UNL     1      -5.953 -10.283   3.553  1.00  0.00     0.041 A 
ATOM     95  F   UNL     1      -6.647  -8.081   3.161  1.00  0.00    -0.206 F 
ATOM     96  C   UNL     1      -4.939 -11.231   3.652  1.00  0.00     0.022 A 
BRANCH  93  97
ATOM     97  S   UNL     1      -2.281 -12.058   3.495  1.00  0.00     0.124 S 
ATOM     98  O   UNL     1      -1.670 -11.821   2.191  1.00  0.00    -0.237 OA
ATOM     99  O   UNL     1      -1.479 -11.676   4.654  1.00  0.00    -0.237 OA
ATOM    100  O   UNL     1      -2.990 -13.329   3.625  1.00  0.00    -0.744 OA
ENDBRANCH  93  97
ENDBRANCH  67  90
ENDBRANCH  41  42
ENDBRANCH  34  36
ENDBRANCH  33  34
ENDBRANCH  32  33
ENDBRANCH   1  32
TORSDOF 20
