REMARK SMILES CN(CCCC(=O)OCCOCCOC(=O)c1ccc(-c2c3nc(c(-c4cc(S(=O)(=O)[O-])ccc4F)c4ccc([nH]4)c(-c4cc(S(=O)(=O)[O-])ccc4F)c4nc(c(-c5cc(S(=O)(=O)[O-])ccc5F)c5ccc2[nH]5)C=C4)C=C3)cc1)C(=O)c1ccc(Br)o1
REMARK SMILES IDX 10 1 9 2 8 3 6 4 7 5 5 6 4 7 3 8 2 9 1 10 80 11 81 12 82 13
REMARK SMILES IDX 83 14 87 15 84 16 85 17 86 18 11 19 12 20 13 21 14 22 15 23
REMARK SMILES IDX 16 24 17 25 18 26 79 27 19 28 78 29 20 30 21 31 22 32 72 33
REMARK SMILES IDX 23 34 77 35 71 36 73 37 24 38 76 39 70 40 69 41 25 43 57 44
REMARK SMILES IDX 37 45 56 46 38 47 41 48 55 49 74 50 39 51 40 52 54 54 75 55
REMARK SMILES IDX 42 56 26 57 27 58 35 59 28 60 34 61 36 62 33 63 29 64 30 65
REMARK SMILES IDX 31 66 32 67 58 68 59 69 67 70 60 71 66 72 68 73 65 74 61 75
REMARK SMILES IDX 62 76 63 77 64 78 43 79 44 80 52 81 45 82 51 83 53 84 50 85
REMARK SMILES IDX 46 86 47 87 48 88 49 89
REMARK H PARENT 73 42 41 53
REMARK Flexibility Score: inf
ROOT
ATOM      1  C   UNL     1       0.041  -5.875   4.079  1.00  0.00     0.202 C 
ENDROOT
BRANCH   1   2
ATOM      2  C   UNL     1       0.323  -5.566   2.609  1.00  0.00     0.261 C 
BRANCH   2   3
ATOM      3  O   UNL     1      -0.325  -4.364   2.168  1.00  0.00    -0.463 OA
BRANCH   3   4
ATOM      4  C   UNL     1      -1.265  -4.498   1.199  1.00  0.00     0.305 C 
ATOM      5  O   UNL     1      -1.680  -5.565   0.762  1.00  0.00    -0.252 OA
BRANCH   4   6
ATOM      6  C   UNL     1      -1.863  -3.173   0.778  1.00  0.00     0.124 C 
BRANCH   6   7
ATOM      7  C   UNL     1      -1.165  -1.895   1.240  1.00  0.00     0.033 C 
BRANCH   7   8
ATOM      8  C   UNL     1       0.349  -1.784   1.004  1.00  0.00     0.120 C 
BRANCH   8   9
ATOM      9  N   UNL     1       0.756  -1.327  -0.325  1.00  0.00    -0.339 N 
ATOM     10  C   UNL     1       1.120   0.078  -0.437  1.00  0.00     0.147 C 
BRANCH   9  11
ATOM     11  C   UNL     1       1.152  -2.157  -1.385  1.00  0.00     0.289 C 
ATOM     12  O   UNL     1       1.773  -1.697  -2.345  1.00  0.00    -0.265 OA
BRANCH  11  13
ATOM     13  C   UNL     1       0.725  -3.538  -1.401  1.00  0.00     0.193 A 
ATOM     14  C   UNL     1      -0.286  -4.133  -2.133  1.00  0.00     0.057 A 
ATOM     15  O   UNL     1       1.471  -4.503  -0.779  1.00  0.00    -0.444 OA
ATOM     16  C   UNL     1      -0.160  -5.528  -1.948  1.00  0.00     0.059 A 
ATOM     17  C   UNL     1       0.944  -5.707  -1.144  1.00  0.00     0.170 A 
ATOM     18  Br  UNL     1       1.627  -7.369  -0.639  1.00  0.00    -0.008 Br
ENDBRANCH  11  13
ENDBRANCH   9  11
ENDBRANCH   8   9
ENDBRANCH   7   8
ENDBRANCH   6   7
ENDBRANCH   4   6
ENDBRANCH   3   4
ENDBRANCH   2   3
ENDBRANCH   1   2
BRANCH   1  19
ATOM     19  O   UNL     1      -1.313  -6.068   4.477  1.00  0.00    -0.374 OA
BRANCH  19  20
ATOM     20  C   UNL     1      -2.243  -5.006   4.309  1.00  0.00     0.202 C 
BRANCH  20  21
ATOM     21  C   UNL     1      -2.058  -3.699   5.096  1.00  0.00     0.261 C 
BRANCH  21  22
ATOM     22  O   UNL     1      -0.751  -3.108   5.007  1.00  0.00    -0.460 OA
BRANCH  22  23
ATOM     23  C   UNL     1      -0.026  -3.220   6.148  1.00  0.00     0.338 C 
ATOM     24  O   UNL     1      -0.382  -3.764   7.190  1.00  0.00    -0.246 OA
BRANCH  23  25
ATOM     25  C   UNL     1       1.349  -2.736   5.960  1.00  0.00     0.060 A 
ATOM     26  C   UNL     1       2.391  -3.637   6.214  1.00  0.00     0.016 A 
ATOM     27  C   UNL     1       1.619  -1.389   5.705  1.00  0.00     0.016 A 
ATOM     28  C   UNL     1       3.705  -3.184   6.279  1.00  0.00     0.010 A 
ATOM     29  C   UNL     1       2.941  -0.934   5.781  1.00  0.00     0.010 A 
ATOM     30  C   UNL     1       3.981  -1.821   6.116  1.00  0.00    -0.014 A 
BRANCH  30  31
ATOM     31  C   UNL     1       5.322  -1.312   6.498  1.00  0.00     0.031 A 
ATOM     32  C   UNL     1       5.498  -0.692   7.859  1.00  0.00     0.074 A 
ATOM     33  C   UNL     1       6.376  -1.462   5.678  1.00  0.00     0.049 A 
ATOM     34  N   UNL     1       6.566  -0.172   8.406  1.00  0.00    -0.248 NA
ATOM     35  C   UNL     1       4.303  -0.654   8.715  1.00  0.00     0.031 C 
ATOM     36  C   UNL     1       6.337  -2.107   4.367  1.00  0.00     0.029 A 
ATOM     37  N   UNL     1       7.685  -1.085   5.831  1.00  0.00    -0.354 N 
ATOM     38  C   UNL     1       6.173   0.258   9.671  1.00  0.00     0.074 A 
ATOM     39  C   UNL     1       4.757  -0.023   9.786  1.00  0.00     0.031 C 
ATOM     40  C   UNL     1       7.569  -2.080   3.833  1.00  0.00     0.029 A 
ATOM     41  C   UNL     1       8.474  -1.382   4.745  1.00  0.00     0.049 A 
ATOM     42  H   UNL     1       8.029  -0.645   6.642  1.00  0.00     0.167 HD
ATOM     43  C   UNL     1       6.926   0.824  10.647  1.00  0.00     0.034 A 
ATOM     44  C   UNL     1       9.770  -1.100   4.507  1.00  0.00     0.034 A 
ATOM     45  C   UNL     1       8.334   1.109  10.506  1.00  0.00     0.049 A 
ATOM     46  C   UNL     1      10.567  -0.376   5.565  1.00  0.00     0.074 A 
ATOM     47  C   UNL     1       9.197   1.678  11.426  1.00  0.00     0.029 A 
ATOM     48  N   UNL     1       9.085   0.858   9.363  1.00  0.00    -0.354 N 
ATOM     49  N   UNL     1      10.184   0.035   6.753  1.00  0.00    -0.248 NA
ATOM     50  C   UNL     1      11.971  -0.084   5.251  1.00  0.00     0.031 C 
ATOM     51  C   UNL     1      10.446   1.841  10.814  1.00  0.00     0.029 A 
ATOM     52  C   UNL     1      10.389   1.296   9.541  1.00  0.00     0.049 A 
ATOM     53  H   UNL     1       8.740   0.431   8.545  1.00  0.00     0.167 HD
ATOM     54  C   UNL     1      11.312   0.605   7.340  1.00  0.00     0.074 A 
ATOM     55  C   UNL     1      12.388   0.475   6.378  1.00  0.00     0.031 C 
ATOM     56  C   UNL     1      11.448   1.175   8.565  1.00  0.00     0.034 A 
BRANCH  43  57
ATOM     57  C   UNL     1       6.216   1.225  11.921  1.00  0.00     0.023 A 
ATOM     58  C   UNL     1       5.587   0.279  12.751  1.00  0.00     0.031 A 
ATOM     59  C   UNL     1       6.117   2.581  12.280  1.00  0.00     0.131 A 
ATOM     60  C   UNL     1       4.818   0.708  13.844  1.00  0.00     0.055 A 
ATOM     61  C   UNL     1       5.424   2.994  13.420  1.00  0.00     0.041 A 
ATOM     62  F   UNL     1       6.675   3.533  11.516  1.00  0.00    -0.206 F 
ATOM     63  C   UNL     1       4.753   2.057  14.199  1.00  0.00     0.022 A 
BRANCH  60  64
ATOM     64  S   UNL     1       3.765  -0.504  14.691  1.00  0.00     0.124 S 
ATOM     65  O   UNL     1       2.948  -1.006  13.589  1.00  0.00    -0.237 OA
ATOM     66  O   UNL     1       4.739  -1.437  15.243  1.00  0.00    -0.237 OA
ATOM     67  O   UNL     1       3.042   0.300  15.675  1.00  0.00    -0.744 OA
ENDBRANCH  60  64
ENDBRANCH  43  57
BRANCH  44  68
ATOM     68  C   UNL     1      10.391  -1.470   3.203  1.00  0.00     0.023 A 
ATOM     69  C   UNL     1      11.439  -2.400   3.132  1.00  0.00     0.031 A 
ATOM     70  C   UNL     1       9.963  -0.865   2.007  1.00  0.00     0.131 A 
ATOM     71  C   UNL     1      12.049  -2.673   1.898  1.00  0.00     0.055 A 
ATOM     72  C   UNL     1      10.538  -1.179   0.774  1.00  0.00     0.041 A 
ATOM     73  F   UNL     1       8.965   0.033   2.019  1.00  0.00    -0.206 F 
ATOM     74  C   UNL     1      11.595  -2.080   0.717  1.00  0.00     0.022 A 
BRANCH  71  75
ATOM     75  S   UNL     1      13.494  -3.769   1.865  1.00  0.00     0.124 S 
ATOM     76  O   UNL     1      14.426  -3.056   2.732  1.00  0.00    -0.237 OA
ATOM     77  O   UNL     1      12.944  -5.011   2.397  1.00  0.00    -0.237 OA
ATOM     78  O   UNL     1      13.860  -3.808   0.451  1.00  0.00    -0.744 OA
ENDBRANCH  71  75
ENDBRANCH  44  68
BRANCH  56  79
ATOM     79  C   UNL     1      12.827   1.659   8.948  1.00  0.00     0.023 A 
ATOM     80  C   UNL     1      13.446   2.737   8.290  1.00  0.00     0.031 A 
ATOM     81  C   UNL     1      13.537   1.022   9.982  1.00  0.00     0.131 A 
ATOM     82  C   UNL     1      14.755   3.108   8.635  1.00  0.00     0.055 A 
ATOM     83  C   UNL     1      14.813   1.436  10.363  1.00  0.00     0.041 A 
ATOM     84  F   UNL     1      12.996  -0.014  10.643  1.00  0.00    -0.206 F 
ATOM     85  C   UNL     1      15.435   2.476   9.679  1.00  0.00     0.022 A 
BRANCH  82  86
ATOM     86  S   UNL     1      15.596   4.368   7.637  1.00  0.00     0.124 S 
ATOM     87  O   UNL     1      15.550   3.778   6.303  1.00  0.00    -0.237 OA
ATOM     88  O   UNL     1      14.756   5.543   7.843  1.00  0.00    -0.237 OA
ATOM     89  O   UNL     1      16.928   4.446   8.234  1.00  0.00    -0.744 OA
ENDBRANCH  82  86
ENDBRANCH  56  79
ENDBRANCH  30  31
ENDBRANCH  23  25
ENDBRANCH  22  23
ENDBRANCH  21  22
ENDBRANCH  20  21
ENDBRANCH  19  20
ENDBRANCH   1  19
TORSDOF 22
