REMARK SMILES O=C(OCCOCCOC(=O)c1ccc(-c2c3nc(c(-c4cc(S(=O)(=O)[O-])ccc4F)c4ccc([nH]4)c(-c4cc(S(=O)(=O)[O-])ccc4F)c4nc(c(-c5cc(S(=O)(=O)[O-])ccc5F)c5ccc2[nH]5)C=C4)C=C3)cc1)C1=Cc2c(Cl)cc(Cl)cc2O[C@@H]1C(F)(F)F
REMARK SMILES IDX 7 1 6 2 5 3 4 4 3 5 2 6 1 7 75 8 76 9 86 10 77 11 85 12
REMARK SMILES IDX 78 13 84 14 79 15 80 16 83 17 81 18 82 19 87 20 88 21 89 22
REMARK SMILES IDX 90 23 8 24 9 25 10 26 11 27 12 28 13 29 74 30 14 31 73 32
REMARK SMILES IDX 15 33 16 34 17 35 67 36 18 37 72 38 66 39 68 40 19 41 71 42
REMARK SMILES IDX 65 43 64 44 20 46 52 47 32 48 51 49 33 50 36 51 50 52 69 53
REMARK SMILES IDX 34 54 35 55 49 57 70 58 37 59 21 60 22 61 30 62 23 63 29 64
REMARK SMILES IDX 31 65 28 66 24 67 25 68 26 69 27 70 53 71 54 72 62 73 55 74
REMARK SMILES IDX 61 75 63 76 60 77 56 78 57 79 58 80 59 81 38 82 39 83 47 84
REMARK SMILES IDX 40 85 46 86 48 87 45 88 41 89 42 90 43 91 44 92
REMARK H PARENT 68 45 36 56
REMARK Flexibility Score: inf
ROOT
ATOM      1  C   UNL     1       2.815   0.060   3.021  1.00  0.00     0.202 C 
ENDROOT
BRANCH   1   2
ATOM      2  O   UNL     1       4.032  -0.320   2.346  1.00  0.00    -0.374 OA
BRANCH   2   3
ATOM      3  C   UNL     1       4.318  -0.828   0.831  1.00  0.00     0.202 C 
BRANCH   3   4
ATOM      4  C   UNL     1       3.450  -0.163  -1.061  1.00  0.00     0.261 C 
BRANCH   4   5
ATOM      5  O   UNL     1       2.416  -0.924  -1.903  1.00  0.00    -0.460 OA
BRANCH   5   6
ATOM      6  C   UNL     1       2.508  -2.249  -1.763  1.00  0.00     0.338 C 
ATOM      7  O   UNL     1       1.807  -3.119  -2.212  1.00  0.00    -0.246 OA
BRANCH   6   8
ATOM      8  C   UNL     1       3.421  -2.218  -0.642  1.00  0.00     0.087 C 
ATOM      9  C   UNL     1       4.811  -1.964  -1.076  1.00  0.00     0.029 C 
ATOM     10  C   UNL     1       2.367  -1.014   0.445  1.00  0.00     0.316 C 
ATOM     11  C   UNL     1       5.666  -0.371  -0.869  1.00  0.00     0.036 A 
ATOM     12  O   UNL     1       3.219   0.711   0.632  1.00  0.00    -0.475 OA
ATOM     13  C   UNL     1       6.870  -0.133  -1.485  1.00  0.00     0.053 A 
ATOM     14  C   UNL     1       4.876   0.977  -0.100  1.00  0.00     0.130 A 
ATOM     15  Cl  UNL     1       7.793  -1.349  -2.261  1.00  0.00    -0.083 Cl
ATOM     16  C   UNL     1       7.295   1.202  -1.505  1.00  0.00     0.042 A 
ATOM     17  C   UNL     1       5.318   2.260  -0.255  1.00  0.00     0.067 A 
ATOM     18  C   UNL     1       6.543   2.323  -0.970  1.00  0.00     0.046 A 
ATOM     19  Cl  UNL     1       7.217   3.873  -1.353  1.00  0.00    -0.084 Cl
BRANCH  10  20
ATOM     20  C   UNL     1       1.897  -2.088   1.528  1.00  0.00     0.430 C 
ATOM     21  F   UNL     1       1.012  -1.652   2.442  1.00  0.00    -0.167 F 
ATOM     22  F   UNL     1       1.234  -3.076   0.852  1.00  0.00    -0.167 F 
ATOM     23  F   UNL     1       2.897  -2.732   2.171  1.00  0.00    -0.167 F 
ENDBRANCH  10  20
ENDBRANCH   6   8
ENDBRANCH   5   6
ENDBRANCH   4   5
ENDBRANCH   3   4
ENDBRANCH   2   3
ENDBRANCH   1   2
BRANCH   1  24
ATOM     24  C   UNL     1       2.893   1.302   3.904  1.00  0.00     0.261 C 
BRANCH  24  25
ATOM     25  O   UNL     1       3.346   2.438   3.186  1.00  0.00    -0.460 OA
BRANCH  25  26
ATOM     26  C   UNL     1       4.680   2.632   3.282  1.00  0.00     0.338 C 
ATOM     27  O   UNL     1       5.506   1.883   3.773  1.00  0.00    -0.246 OA
BRANCH  26  28
ATOM     28  C   UNL     1       5.002   3.930   2.671  1.00  0.00     0.060 A 
ATOM     29  C   UNL     1       6.300   4.111   2.191  1.00  0.00     0.016 A 
ATOM     30  C   UNL     1       4.042   4.948   2.558  1.00  0.00     0.016 A 
ATOM     31  C   UNL     1       6.636   5.303   1.569  1.00  0.00     0.010 A 
ATOM     32  C   UNL     1       4.382   6.147   1.946  1.00  0.00     0.010 A 
ATOM     33  C   UNL     1       5.683   6.322   1.456  1.00  0.00    -0.014 A 
BRANCH  33  34
ATOM     34  C   UNL     1       6.137   7.663   1.063  1.00  0.00     0.031 A 
ATOM     35  C   UNL     1       6.652   8.543   2.158  1.00  0.00     0.074 A 
ATOM     36  C   UNL     1       6.122   8.052  -0.221  1.00  0.00     0.049 A 
ATOM     37  N   UNL     1       7.099   9.765   2.097  1.00  0.00    -0.248 NA
ATOM     38  C   UNL     1       6.662   7.956   3.510  1.00  0.00     0.031 C 
ATOM     39  C   UNL     1       5.693   7.227  -1.349  1.00  0.00     0.029 A 
ATOM     40  N   UNL     1       6.485   9.242  -0.791  1.00  0.00    -0.354 N 
ATOM     41  C   UNL     1       7.457  10.090   3.398  1.00  0.00     0.074 A 
ATOM     42  C   UNL     1       7.137   8.954   4.232  1.00  0.00     0.031 C 
ATOM     43  C   UNL     1       5.825   7.938  -2.482  1.00  0.00     0.029 A 
ATOM     44  C   UNL     1       6.291   9.283  -2.151  1.00  0.00     0.049 A 
ATOM     45  H   UNL     1       6.850   9.997  -0.276  1.00  0.00     0.167 HD
ATOM     46  C   UNL     1       8.005  11.241   3.848  1.00  0.00     0.034 A 
ATOM     47  C   UNL     1       6.446  10.308  -3.012  1.00  0.00     0.034 A 
ATOM     48  C   UNL     1       8.252  12.372   2.995  1.00  0.00     0.049 A 
ATOM     49  C   UNL     1       6.931  11.630  -2.461  1.00  0.00     0.074 A 
ATOM     50  C   UNL     1       8.767  13.608   3.332  1.00  0.00     0.029 A 
ATOM     51  N   UNL     1       7.971  12.412   1.633  1.00  0.00    -0.354 N 
ATOM     52  N   UNL     1       7.262  11.941  -1.226  1.00  0.00    -0.248 NA
ATOM     53  C   UNL     1       7.066  12.736  -3.415  1.00  0.00     0.031 C 
ATOM     54  C   UNL     1       8.708  14.424   2.199  1.00  0.00     0.029 A 
ATOM     55  C   UNL     1       8.264  13.666   1.125  1.00  0.00     0.049 A 
ATOM     56  H   UNL     1       7.617  11.659   1.108  1.00  0.00     0.167 HD
ATOM     57  C   UNL     1       7.684  13.268  -1.266  1.00  0.00     0.074 A 
ATOM     58  C   UNL     1       7.569  13.692  -2.647  1.00  0.00     0.031 C 
ATOM     59  C   UNL     1       8.134  14.062  -0.259  1.00  0.00     0.034 A 
BRANCH  46  60
ATOM     60  C   UNL     1       8.271  11.337   5.328  1.00  0.00     0.023 A 
ATOM     61  C   UNL     1       9.166  10.468   5.977  1.00  0.00     0.031 A 
ATOM     62  C   UNL     1       7.556  12.256   6.114  1.00  0.00     0.131 A 
ATOM     63  C   UNL     1       9.257  10.479   7.377  1.00  0.00     0.055 A 
ATOM     64  C   UNL     1       7.724  12.327   7.497  1.00  0.00     0.041 A 
ATOM     65  F   UNL     1       6.656  13.080   5.555  1.00  0.00    -0.206 F 
ATOM     66  C   UNL     1       8.566  11.423   8.139  1.00  0.00     0.022 A 
BRANCH  63  67
ATOM     67  S   UNL     1      10.144   9.125   8.196  1.00  0.00     0.124 S 
ATOM     68  O   UNL     1       9.410   7.957   7.713  1.00  0.00    -0.237 OA
ATOM     69  O   UNL     1      11.501   9.281   7.687  1.00  0.00    -0.237 OA
ATOM     70  O   UNL     1       9.973   9.415   9.618  1.00  0.00    -0.744 OA
ENDBRANCH  63  67
ENDBRANCH  46  60
BRANCH  47  71
ATOM     71  C   UNL     1       6.094  10.155  -4.454  1.00  0.00     0.023 A 
ATOM     72  C   UNL     1       7.050  10.344  -5.464  1.00  0.00     0.031 A 
ATOM     73  C   UNL     1       4.772   9.875  -4.847  1.00  0.00     0.131 A 
ATOM     74  C   UNL     1       6.662  10.301  -6.814  1.00  0.00     0.055 A 
ATOM     75  C   UNL     1       4.404   9.770  -6.190  1.00  0.00     0.041 A 
ATOM     76  F   UNL     1       3.812   9.695  -3.926  1.00  0.00    -0.206 F 
ATOM     77  C   UNL     1       5.350   9.998  -7.183  1.00  0.00     0.022 A 
BRANCH  74  78
ATOM     78  S   UNL     1       7.876  10.755  -8.084  1.00  0.00     0.124 S 
ATOM     79  O   UNL     1       8.238  12.108  -7.676  1.00  0.00    -0.237 OA
ATOM     80  O   UNL     1       8.902   9.733  -7.902  1.00  0.00    -0.237 OA
ATOM     81  O   UNL     1       7.117  10.659  -9.329  1.00  0.00    -0.744 OA
ENDBRANCH  74  78
ENDBRANCH  47  71
BRANCH  59  82
ATOM     82  C   UNL     1       8.599  15.450  -0.628  1.00  0.00     0.023 A 
ATOM     83  C   UNL     1       7.720  16.425  -1.129  1.00  0.00     0.031 A 
ATOM     84  C   UNL     1       9.950  15.804  -0.455  1.00  0.00     0.131 A 
ATOM     85  C   UNL     1       8.214  17.686  -1.492  1.00  0.00     0.055 A 
ATOM     86  C   UNL     1      10.419  17.085  -0.742  1.00  0.00     0.041 A 
ATOM     87  F   UNL     1      10.836  14.910   0.014  1.00  0.00    -0.206 F 
ATOM     88  C   UNL     1       9.551  18.031  -1.278  1.00  0.00     0.022 A 
BRANCH  85  89
ATOM     89  S   UNL     1       7.109  18.836  -2.355  1.00  0.00     0.124 S 
ATOM     90  O   UNL     1       6.708  18.052  -3.519  1.00  0.00    -0.237 OA
ATOM     91  O   UNL     1       6.069  19.077  -1.361  1.00  0.00    -0.237 OA
ATOM     92  O   UNL     1       7.968  19.983  -2.646  1.00  0.00    -0.744 OA
ENDBRANCH  85  89
ENDBRANCH  59  82
ENDBRANCH  33  34
ENDBRANCH  26  28
ENDBRANCH  25  26
ENDBRANCH  24  25
ENDBRANCH   1  24
TORSDOF 18
