REMARK SMILES COc1cccc(-c2nn(-c3cc4c(cc3C(N)=O)OCO4)cc2C(=O)OCCOCCOC(=O)c2ccc(-c3c4nc(c(-c5cc(S(=O)(=O)[O-])ccc5F)c5ccc([nH]5)c(-c5cc(S(=O)(=O)[O-])ccc5F)c5nc(c(-c6cc(S(=O)(=O)[O-])ccc6F)c6ccc3[nH]6)C=C5)C=C4)cc2)c1
REMARK SMILES IDX 31 1 30 2 29 3 28 4 27 5 25 6 26 7 24 8 8 9 9 10 10 11 23 12
REMARK SMILES IDX 7 13 3 14 4 15 99 16 5 17 6 18 2 19 1 20 11 21 12 22 16 23
REMARK SMILES IDX 13 24 15 25 14 26 22 27 20 28 21 29 17 30 18 31 19 32 32 35
REMARK SMILES IDX 33 36 34 37 35 38 36 39 37 40 98 41 38 42 97 43 39 44 40 45
REMARK SMILES IDX 41 46 91 47 42 48 96 49 90 50 92 51 43 52 95 53 89 54 88 55
REMARK SMILES IDX 44 57 76 58 56 59 75 60 57 61 60 62 74 63 93 64 58 65 59 66
REMARK SMILES IDX 73 68 94 69 61 70 45 71 46 72 54 73 47 74 53 75 55 76 52 77
REMARK SMILES IDX 48 78 49 79 50 80 51 81 77 82 78 83 86 84 79 85 85 86 87 87
REMARK SMILES IDX 84 88 80 89 81 90 82 91 83 92 62 93 63 94 71 95 64 96 70 97
REMARK SMILES IDX 72 98 69 99 65 100 66 101 67 102 68 103
REMARK H PARENT 18 33 18 34 92 56 60 67
REMARK Flexibility Score: inf
ROOT
ATOM      1  C   UNL     1       1.475   0.326  -7.188  1.00  0.00     0.202 C 
ENDROOT
BRANCH   1   2
ATOM      2  O   UNL     1       1.210   1.657  -7.610  1.00  0.00    -0.374 OA
BRANCH   2   3
ATOM      3  C   UNL     1       2.283   2.554  -7.897  1.00  0.00     0.202 C 
BRANCH   3   4
ATOM      4  C   UNL     1       3.233   2.947  -6.766  1.00  0.00     0.261 C 
BRANCH   4   5
ATOM      5  O   UNL     1       4.053   1.851  -6.332  1.00  0.00    -0.460 OA
BRANCH   5   6
ATOM      6  C   UNL     1       3.755   1.359  -5.093  1.00  0.00     0.342 C 
ATOM      7  O   UNL     1       2.914   1.825  -4.341  1.00  0.00    -0.246 OA
BRANCH   6   8
ATOM      8  C   UNL     1       4.493   0.154  -4.790  1.00  0.00     0.106 A 
ATOM      9  C   UNL     1       4.075  -0.989  -4.053  1.00  0.00     0.107 A 
ATOM     10  N   UNL     1       5.107  -1.827  -3.837  1.00  0.00    -0.167 NA
ATOM     11  N   UNL     1       6.181  -1.114  -4.268  1.00  0.00    -0.239 N 
ATOM     12  C   UNL     1       5.796  -0.125  -5.139  1.00  0.00     0.131 A 
BRANCH   9  13
ATOM     13  C   UNL     1       2.714  -1.291  -3.624  1.00  0.00     0.007 A 
ATOM     14  C   UNL     1       0.918  -1.086  -2.011  1.00  0.00     0.119 A 
ATOM     15  C   UNL     1       0.032  -1.642  -2.938  1.00  0.00     0.046 A 
ATOM     16  C   UNL     1       2.260  -0.902  -2.357  1.00  0.00     0.056 A 
ATOM     17  C   UNL     1       0.479  -2.039  -4.196  1.00  0.00     0.005 A 
ATOM     18  C   UNL     1       1.824  -1.887  -4.526  1.00  0.00     0.011 A 
BRANCH  14  19
ATOM     19  O   UNL     1       0.359  -0.802  -0.794  1.00  0.00    -0.497 OA
ATOM     20  C   UNL     1       1.006   0.201  -0.022  1.00  0.00     0.278 C 
ENDBRANCH  14  19
ENDBRANCH   9  13
BRANCH  11  21
ATOM     21  C   UNL     1       7.506  -1.417  -3.863  1.00  0.00     0.081 A 
ATOM     22  C   UNL     1       7.832  -2.771  -3.648  1.00  0.00     0.079 A 
ATOM     23  C   UNL     1       8.487  -0.393  -3.679  1.00  0.00     0.069 A 
ATOM     24  C   UNL     1       9.140  -3.070  -3.336  1.00  0.00     0.167 A 
ATOM     25  C   UNL     1       9.828  -0.766  -3.492  1.00  0.00     0.066 A 
ATOM     26  C   UNL     1      10.111  -2.098  -3.298  1.00  0.00     0.166 A 
ATOM     27  O   UNL     1       9.640  -4.295  -3.022  1.00  0.00    -0.454 OA
ATOM     28  O   UNL     1      11.334  -2.591  -2.963  1.00  0.00    -0.454 OA
ATOM     29  C   UNL     1      10.972  -3.938  -2.598  1.00  0.00     0.468 C 
BRANCH  23  30
ATOM     30  C   UNL     1       8.106   1.041  -3.390  1.00  0.00     0.251 C 
ATOM     31  N   UNL     1       9.081   1.930  -3.029  1.00  0.00    -0.366 N 
ATOM     32  O   UNL     1       6.953   1.449  -3.355  1.00  0.00    -0.269 OA
ATOM     33  H   UNL     1      10.026   1.655  -3.039  1.00  0.00     0.159 HD
ATOM     34  H   UNL     1       8.837   2.845  -2.760  1.00  0.00     0.159 HD
ENDBRANCH  23  30
ENDBRANCH  11  21
ENDBRANCH   6   8
ENDBRANCH   5   6
ENDBRANCH   4   5
ENDBRANCH   3   4
ENDBRANCH   2   3
ENDBRANCH   1   2
BRANCH   1  35
ATOM     35  C   UNL     1       2.108  -0.665  -8.156  1.00  0.00     0.261 C 
BRANCH  35  36
ATOM     36  O   UNL     1       3.246  -0.146  -8.813  1.00  0.00    -0.460 OA
BRANCH  36  37
ATOM     37  C   UNL     1       2.951   0.356 -10.037  1.00  0.00     0.338 C 
ATOM     38  O   UNL     1       1.857   0.689 -10.448  1.00  0.00    -0.246 OA
BRANCH  37  39
ATOM     39  C   UNL     1       4.156   0.281 -10.865  1.00  0.00     0.060 A 
ATOM     40  C   UNL     1       3.976   0.600 -12.210  1.00  0.00     0.016 A 
ATOM     41  C   UNL     1       5.267  -0.438 -10.401  1.00  0.00     0.016 A 
ATOM     42  C   UNL     1       4.758  -0.055 -13.128  1.00  0.00     0.010 A 
ATOM     43  C   UNL     1       6.036  -1.101 -11.321  1.00  0.00     0.010 A 
ATOM     44  C   UNL     1       5.697  -0.984 -12.665  1.00  0.00    -0.014 A 
BRANCH  44  45
ATOM     45  C   UNL     1       6.453  -1.732 -13.642  1.00  0.00     0.031 A 
ATOM     46  C   UNL     1       7.506  -0.881 -14.225  1.00  0.00     0.074 A 
ATOM     47  C   UNL     1       6.266  -3.043 -13.884  1.00  0.00     0.049 A 
ATOM     48  N   UNL     1       7.432  -0.191 -15.314  1.00  0.00    -0.248 NA
ATOM     49  C   UNL     1       8.622  -0.489 -13.345  1.00  0.00     0.031 C 
ATOM     50  C   UNL     1       5.433  -3.999 -13.152  1.00  0.00     0.029 A 
ATOM     51  N   UNL     1       6.859  -3.821 -14.827  1.00  0.00    -0.354 N 
ATOM     52  C   UNL     1       8.649   0.471 -15.388  1.00  0.00     0.074 A 
ATOM     53  C   UNL     1       9.145   0.518 -14.044  1.00  0.00     0.031 C 
ATOM     54  C   UNL     1       5.745  -5.260 -13.543  1.00  0.00     0.029 A 
ATOM     55  C   UNL     1       6.689  -5.193 -14.648  1.00  0.00     0.049 A 
ATOM     56  H   UNL     1       7.370  -3.445 -15.579  1.00  0.00     0.167 HD
ATOM     57  C   UNL     1       9.311   0.551 -16.574  1.00  0.00     0.034 A 
ATOM     58  C   UNL     1       7.325  -6.181 -15.341  1.00  0.00     0.034 A 
ATOM     59  C   UNL     1       8.411   0.243 -17.669  1.00  0.00     0.049 A 
ATOM     60  C   UNL     1       7.779  -5.558 -16.612  1.00  0.00     0.074 A 
ATOM     61  C   UNL     1       7.267   0.806 -18.195  1.00  0.00     0.029 A 
ATOM     62  N   UNL     1       8.443  -1.058 -18.115  1.00  0.00    -0.354 N 
ATOM     63  N   UNL     1       6.957  -5.094 -17.514  1.00  0.00    -0.248 NA
ATOM     64  C   UNL     1       9.128  -5.017 -16.675  1.00  0.00     0.031 C 
ATOM     65  C   UNL     1       6.465  -0.295 -18.628  1.00  0.00     0.029 A 
ATOM     66  C   UNL     1       7.176  -1.482 -18.428  1.00  0.00     0.049 A 
ATOM     67  H   UNL     1       9.256  -1.607 -18.197  1.00  0.00     0.167 HD
ATOM     68  C   UNL     1       7.539  -3.920 -17.969  1.00  0.00     0.074 A 
ATOM     69  C   UNL     1       8.925  -3.994 -17.511  1.00  0.00     0.031 C 
ATOM     70  C   UNL     1       6.764  -2.881 -18.409  1.00  0.00     0.034 A 
BRANCH  57  71
ATOM     71  C   UNL     1      10.820   0.403 -16.711  1.00  0.00     0.023 A 
ATOM     72  C   UNL     1      11.338   0.424 -18.020  1.00  0.00     0.031 A 
ATOM     73  C   UNL     1      11.727  -0.027 -15.710  1.00  0.00     0.131 A 
ATOM     74  C   UNL     1      12.631  -0.056 -18.296  1.00  0.00     0.055 A 
ATOM     75  C   UNL     1      13.028  -0.455 -15.985  1.00  0.00     0.041 A 
ATOM     76  F   UNL     1      11.408  -0.142 -14.418  1.00  0.00    -0.206 F 
ATOM     77  C   UNL     1      13.479  -0.500 -17.287  1.00  0.00     0.022 A 
BRANCH  74  78
ATOM     78  S   UNL     1      13.133  -0.231 -20.024  1.00  0.00     0.124 S 
ATOM     79  O   UNL     1      12.077  -1.088 -20.551  1.00  0.00    -0.237 OA
ATOM     80  O   UNL     1      13.129   1.155 -20.477  1.00  0.00    -0.237 OA
ATOM     81  O   UNL     1      14.453  -0.851 -19.930  1.00  0.00    -0.744 OA
ENDBRANCH  74  78
ENDBRANCH  57  71
BRANCH  58  82
ATOM     82  C   UNL     1       7.941  -7.424 -14.778  1.00  0.00     0.023 A 
ATOM     83  C   UNL     1       8.302  -8.545 -15.565  1.00  0.00     0.031 A 
ATOM     84  C   UNL     1       8.430  -7.407 -13.452  1.00  0.00     0.131 A 
ATOM     85  C   UNL     1       9.113  -9.576 -15.019  1.00  0.00     0.055 A 
ATOM     86  C   UNL     1       9.233  -8.421 -12.923  1.00  0.00     0.041 A 
ATOM     87  F   UNL     1       8.215  -6.355 -12.647  1.00  0.00    -0.206 F 
ATOM     88  C   UNL     1       9.585  -9.506 -13.707  1.00  0.00     0.022 A 
BRANCH  85  89
ATOM     89  S   UNL     1       9.628 -11.010 -16.028  1.00  0.00     0.124 S 
ATOM     90  O   UNL     1       8.357 -11.663 -16.317  1.00  0.00    -0.237 OA
ATOM     91  O   UNL     1      10.304 -10.376 -17.154  1.00  0.00    -0.237 OA
ATOM     92  O   UNL     1      10.510 -11.761 -15.132  1.00  0.00    -0.744 OA
ENDBRANCH  85  89
ENDBRANCH  58  82
BRANCH  70  93
ATOM     93  C   UNL     1       5.326  -3.185 -18.798  1.00  0.00     0.023 A 
ATOM     94  C   UNL     1       4.318  -3.696 -17.945  1.00  0.00     0.031 A 
ATOM     95  C   UNL     1       4.955  -2.855 -20.114  1.00  0.00     0.131 A 
ATOM     96  C   UNL     1       3.002  -3.860 -18.431  1.00  0.00     0.055 A 
ATOM     97  C   UNL     1       3.650  -2.993 -20.581  1.00  0.00     0.041 A 
ATOM     98  F   UNL     1       5.862  -2.357 -20.971  1.00  0.00    -0.206 F 
ATOM     99  C   UNL     1       2.668  -3.501 -19.741  1.00  0.00     0.022 A 
BRANCH  96 100
ATOM    100  S   UNL     1       1.690  -4.574 -17.381  1.00  0.00     0.124 S 
ATOM    101  O   UNL     1       2.318  -5.760 -16.811  1.00  0.00    -0.237 OA
ATOM    102  O   UNL     1       1.407  -3.488 -16.447  1.00  0.00    -0.237 OA
ATOM    103  O   UNL     1       0.609  -4.854 -18.329  1.00  0.00    -0.744 OA
ENDBRANCH  96 100
ENDBRANCH  70  93
ENDBRANCH  44  45
ENDBRANCH  37  39
ENDBRANCH  36  37
ENDBRANCH  35  36
ENDBRANCH   1  35
TORSDOF 21
