REMARK SMILES Cc1ccc(C)n1-c1ccccc1S[C@H](C)C(=O)OCCOCCOC(=O)c1ccc(-c2c3nc(c(-c4cc(S(=O)(=O)[O-])ccc4F)c4ccc([nH]4)c(-c4cc(S(=O)(=O)[O-])ccc4F)c4nc(c(-c5cc(S(=O)(=O)[O-])ccc5F)c5ccc2[nH]5)C=C4)C=C3)cc1
REMARK SMILES IDX 22 1 21 2 20 3 19 4 17 5 18 6 15 7 16 8 14 9 13 10 8 11 9 12
REMARK SMILES IDX 10 13 12 14 11 15 7 16 1 17 2 18 3 19 4 20 5 21 6 22 23 23
REMARK SMILES IDX 24 24 25 25 26 26 27 27 28 28 29 29 90 30 30 31 89 32 31 33
REMARK SMILES IDX 32 34 33 35 83 36 34 37 88 38 82 39 84 40 35 41 87 42 81 43
REMARK SMILES IDX 80 44 36 46 68 47 48 48 67 49 49 50 52 51 66 52 85 53 50 54
REMARK SMILES IDX 51 55 65 57 86 58 53 59 37 60 38 61 46 62 39 63 45 64 47 65
REMARK SMILES IDX 44 66 40 67 41 68 42 69 43 70 69 71 70 72 78 73 71 74 77 75
REMARK SMILES IDX 79 76 76 77 72 78 73 79 74 80 75 81 54 82 55 83 63 84 56 85
REMARK SMILES IDX 62 86 64 87 61 88 57 89 58 90 59 91 60 92
REMARK H PARENT 84 45 52 56
REMARK Flexibility Score: inf
ROOT
ATOM      1  O   UNL     1       3.170   2.339  -4.819  1.00  0.00    -0.374 OA
ENDROOT
BRANCH   1   2
ATOM      2  C   UNL     1       1.864   2.910  -4.796  1.00  0.00     0.202 C 
BRANCH   2   3
ATOM      3  C   UNL     1       0.773   2.030  -4.169  1.00  0.00     0.261 C 
BRANCH   3   4
ATOM      4  O   UNL     1       1.126   1.597  -2.848  1.00  0.00    -0.462 OA
BRANCH   4   5
ATOM      5  C   UNL     1       1.467   0.284  -2.722  1.00  0.00     0.319 C 
ATOM      6  O   UNL     1       1.468  -0.538  -3.633  1.00  0.00    -0.251 OA
BRANCH   5   7
ATOM      7  C   UNL     1       1.786  -0.082  -1.282  1.00  0.00     0.158 C 
ATOM      8  C   UNL     1       3.009   0.568  -0.655  1.00  0.00     0.032 C 
BRANCH   7   9
ATOM      9  S   UNL     1       0.211  -0.077  -0.357  1.00  0.00    -0.109 SA
BRANCH   9  10
ATOM     10  C   UNL     1       0.005   1.461   0.538  1.00  0.00     0.032 A 
ATOM     11  C   UNL     1      -1.025   1.560   1.506  1.00  0.00     0.059 A 
ATOM     12  C   UNL     1      -1.255   2.751   2.220  1.00  0.00     0.028 A 
ATOM     13  C   UNL     1      -0.472   3.873   1.971  1.00  0.00     0.002 A 
ATOM     14  C   UNL     1       0.726   2.631   0.271  1.00  0.00     0.017 A 
ATOM     15  C   UNL     1       0.507   3.817   0.987  1.00  0.00     0.001 A 
BRANCH  11  16
ATOM     16  N   UNL     1      -2.014   0.540   1.617  1.00  0.00    -0.317 N 
ATOM     17  C   UNL     1      -0.588  -1.292   2.681  1.00  0.00     0.065 C 
ATOM     18  C   UNL     1      -1.836  -0.769   2.054  1.00  0.00     0.020 A 
ATOM     19  C   UNL     1      -2.990  -1.473   1.765  1.00  0.00     0.023 A 
ATOM     20  C   UNL     1      -3.917  -0.575   1.205  1.00  0.00     0.023 A 
ATOM     21  C   UNL     1      -3.316   0.667   1.135  1.00  0.00     0.020 A 
ATOM     22  C   UNL     1      -3.885   1.915   0.546  1.00  0.00     0.065 C 
ENDBRANCH  11  16
ENDBRANCH   9  10
ENDBRANCH   7   9
ENDBRANCH   5   7
ENDBRANCH   4   5
ENDBRANCH   3   4
ENDBRANCH   2   3
ENDBRANCH   1   2
BRANCH   1  23
ATOM     23  C   UNL     1       3.942   2.456  -3.614  1.00  0.00     0.202 C 
BRANCH  23  24
ATOM     24  C   UNL     1       4.612   3.828  -3.307  1.00  0.00     0.261 C 
BRANCH  24  25
ATOM     25  O   UNL     1       4.200   4.574  -2.088  1.00  0.00    -0.460 OA
BRANCH  25  26
ATOM     26  C   UNL     1       3.927   5.920  -2.258  1.00  0.00     0.338 C 
ATOM     27  O   UNL     1       3.614   6.376  -3.351  1.00  0.00    -0.246 OA
BRANCH  26  28
ATOM     28  C   UNL     1       3.953   6.845  -1.014  1.00  0.00     0.060 A 
ATOM     29  C   UNL     1       2.789   7.521  -0.655  1.00  0.00     0.016 A 
ATOM     30  C   UNL     1       5.113   7.339  -0.374  1.00  0.00     0.016 A 
ATOM     31  C   UNL     1       2.786   8.591   0.324  1.00  0.00     0.010 A 
ATOM     32  C   UNL     1       5.113   8.485   0.577  1.00  0.00     0.010 A 
ATOM     33  C   UNL     1       3.944   9.171   0.970  1.00  0.00    -0.014 A 
BRANCH  33  34
ATOM     34  C   UNL     1       3.786  10.722   1.559  1.00  0.00     0.031 A 
ATOM     35  C   UNL     1       3.019  11.376   0.454  1.00  0.00     0.074 A 
ATOM     36  C   UNL     1       4.153  11.619   2.590  1.00  0.00     0.049 A 
ATOM     37  N   UNL     1       3.467  11.338  -0.773  1.00  0.00    -0.248 NA
ATOM     38  C   UNL     1       1.597  11.706   0.569  1.00  0.00     0.031 C 
ATOM     39  C   UNL     1       5.069  11.377   3.721  1.00  0.00     0.029 A 
ATOM     40  N   UNL     1       3.797  12.999   2.897  1.00  0.00    -0.354 N 
ATOM     41  C   UNL     1       2.521  11.970  -1.539  1.00  0.00     0.074 A 
ATOM     42  C   UNL     1       1.315  11.921  -0.721  1.00  0.00     0.031 C 
ATOM     43  C   UNL     1       5.091  12.417   4.615  1.00  0.00     0.029 A 
ATOM     44  C   UNL     1       4.243  13.534   4.186  1.00  0.00     0.049 A 
ATOM     45  H   UNL     1       3.279  13.548   2.266  1.00  0.00     0.167 HD
ATOM     46  C   UNL     1       2.970  13.020  -2.288  1.00  0.00     0.034 A 
ATOM     47  C   UNL     1       4.037  14.770   4.837  1.00  0.00     0.034 A 
ATOM     48  C   UNL     1       2.672  14.287  -1.673  1.00  0.00     0.049 A 
ATOM     49  C   UNL     1       3.764  15.764   3.801  1.00  0.00     0.074 A 
ATOM     50  C   UNL     1       1.541  14.803  -1.076  1.00  0.00     0.029 A 
ATOM     51  N   UNL     1       3.741  15.026  -1.209  1.00  0.00    -0.354 N 
ATOM     52  N   UNL     1       4.711  16.275   3.082  1.00  0.00    -0.248 NA
ATOM     53  C   UNL     1       2.431  16.312   3.578  1.00  0.00     0.031 C 
ATOM     54  C   UNL     1       2.015  15.468   0.074  1.00  0.00     0.029 A 
ATOM     55  C   UNL     1       3.383  15.680  -0.050  1.00  0.00     0.049 A 
ATOM     56  H   UNL     1       4.624  15.079  -1.640  1.00  0.00     0.167 HD
ATOM     57  C   UNL     1       4.035  16.731   1.995  1.00  0.00     0.074 A 
ATOM     58  C   UNL     1       2.690  17.005   2.468  1.00  0.00     0.031 C 
ATOM     59  C   UNL     1       4.427  16.217   0.802  1.00  0.00     0.034 A 
BRANCH  46  60
ATOM     60  C   UNL     1       4.228  12.748  -3.064  1.00  0.00     0.023 A 
ATOM     61  C   UNL     1       4.155  12.656  -4.458  1.00  0.00     0.031 A 
ATOM     62  C   UNL     1       5.473  12.492  -2.450  1.00  0.00     0.131 A 
ATOM     63  C   UNL     1       5.285  12.249  -5.188  1.00  0.00     0.055 A 
ATOM     64  C   UNL     1       6.574  12.035  -3.171  1.00  0.00     0.041 A 
ATOM     65  F   UNL     1       5.645  12.698  -1.134  1.00  0.00    -0.206 F 
ATOM     66  C   UNL     1       6.479  11.901  -4.550  1.00  0.00     0.022 A 
BRANCH  63  67
ATOM     67  S   UNL     1       5.169  12.203  -6.995  1.00  0.00     0.124 S 
ATOM     68  O   UNL     1       4.131  11.205  -7.220  1.00  0.00    -0.237 OA
ATOM     69  O   UNL     1       4.808  13.577  -7.319  1.00  0.00    -0.237 OA
ATOM     70  O   UNL     1       6.516  11.803  -7.419  1.00  0.00    -0.744 OA
ENDBRANCH  63  67
ENDBRANCH  46  60
BRANCH  47  71
ATOM     71  C   UNL     1       4.132  15.553   6.212  1.00  0.00     0.023 A 
ATOM     72  C   UNL     1       4.316  17.004   6.297  1.00  0.00     0.031 A 
ATOM     73  C   UNL     1       3.621  14.986   7.386  1.00  0.00     0.131 A 
ATOM     74  C   UNL     1       3.962  17.775   7.453  1.00  0.00     0.055 A 
ATOM     75  C   UNL     1       3.281  15.755   8.532  1.00  0.00     0.041 A 
ATOM     76  F   UNL     1       3.325  13.679   7.427  1.00  0.00    -0.206 F 
ATOM     77  C   UNL     1       3.430  17.141   8.566  1.00  0.00     0.022 A 
BRANCH  74  78
ATOM     78  S   UNL     1       4.000  19.632   7.492  1.00  0.00     0.124 S 
ATOM     79  O   UNL     1       5.423  19.931   7.599  1.00  0.00    -0.237 OA
ATOM     80  O   UNL     1       3.344  20.000   6.242  1.00  0.00    -0.237 OA
ATOM     81  O   UNL     1       3.224  19.968   8.691  1.00  0.00    -0.744 OA
ENDBRANCH  74  78
ENDBRANCH  47  71
BRANCH  59  82
ATOM     82  C   UNL     1       5.930  16.081   0.562  1.00  0.00     0.023 A 
ATOM     83  C   UNL     1       6.892  15.555   1.469  1.00  0.00     0.031 A 
ATOM     84  C   UNL     1       6.431  16.599  -0.642  1.00  0.00     0.131 A 
ATOM     85  C   UNL     1       8.270  15.594   1.172  1.00  0.00     0.055 A 
ATOM     86  C   UNL     1       7.792  16.598  -0.956  1.00  0.00     0.041 A 
ATOM     87  F   UNL     1       5.593  17.128  -1.548  1.00  0.00    -0.206 F 
ATOM     88  C   UNL     1       8.719  16.110  -0.043  1.00  0.00     0.022 A 
BRANCH  85  89
ATOM     89  S   UNL     1       9.508  15.047   2.401  1.00  0.00     0.124 S 
ATOM     90  O   UNL     1       9.080  15.703   3.631  1.00  0.00    -0.237 OA
ATOM     91  O   UNL     1       9.367  13.594   2.372  1.00  0.00    -0.237 OA
ATOM     92  O   UNL     1      10.772  15.547   1.856  1.00  0.00    -0.744 OA
ENDBRANCH  85  89
ENDBRANCH  59  82
ENDBRANCH  33  34
ENDBRANCH  26  28
ENDBRANCH  25  26
ENDBRANCH  24  25
ENDBRANCH  23  24
ENDBRANCH   1  23
TORSDOF 20
