REMARK SMILES CCOc1cc(N2CCOCC2)ccc1[C@H]([NH3+])C(=O)OCCOCCOC(=O)c1ccc(-c2c3nc(c(-c4cc(S(=O)(=O)[O-])ccc4F)c4ccc([nH]4)c(-c4cc(S(=O)(=O)[O-])ccc4F)c4nc(c(-c5cc(S(=O)(=O)[O-])ccc5F)c5ccc2[nH]5)C=C4)C=C3)cc1
REMARK SMILES IDX 23 1 22 2 21 3 20 4 18 5 19 6 16 7 15 8 4 9 5 10 6 11 14 12
REMARK SMILES IDX 13 13 3 14 2 15 1 16 7 17 8 18 12 19 9 20 11 21 10 22 17 23
REMARK SMILES IDX 24 27 25 28 26 29 27 30 28 31 29 32 30 33 91 34 31 35 90 36
REMARK SMILES IDX 32 37 33 38 34 39 84 40 35 41 89 42 83 43 85 44 36 45 88 46
REMARK SMILES IDX 82 47 81 48 37 50 69 51 49 52 68 53 50 54 53 55 67 56 86 57
REMARK SMILES IDX 51 58 52 59 66 61 87 62 54 63 38 64 39 65 47 66 40 67 46 68
REMARK SMILES IDX 48 69 45 70 41 71 42 72 43 73 44 74 70 75 71 76 79 77 72 78
REMARK SMILES IDX 78 79 80 80 77 81 73 82 74 83 75 84 76 85 55 86 56 87 64 88
REMARK SMILES IDX 57 89 63 90 65 91 62 92 58 93 59 94 60 95 61 96
REMARK H PARENT 17 24 17 25 17 26 85 49 53 60
REMARK Flexibility Score: inf
ROOT
ATOM      1  O   UNL     1       3.783   3.672  -1.426  1.00  0.00    -0.374 OA
ENDROOT
BRANCH   1   2
ATOM      2  C   UNL     1       4.654   3.384  -0.329  1.00  0.00     0.202 C 
BRANCH   2   3
ATOM      3  C   UNL     1       3.964   2.798   0.907  1.00  0.00     0.261 C 
BRANCH   3   4
ATOM      4  O   UNL     1       3.579   1.428   0.657  1.00  0.00    -0.459 OA
BRANCH   4   5
ATOM      5  C   UNL     1       2.342   1.039   1.076  1.00  0.00     0.369 C 
ATOM      6  O   UNL     1       1.560   1.766   1.681  1.00  0.00    -0.245 OA
BRANCH   5   7
ATOM      7  C   UNL     1       2.030  -0.438   0.719  1.00  0.00     0.326 C 
BRANCH   7   8
ATOM      8  C   UNL     1       2.405  -1.370   1.856  1.00  0.00     0.063 A 
ATOM      9  C   UNL     1       3.741  -1.662   2.175  1.00  0.00     0.131 A 
ATOM     10  C   UNL     1       4.066  -2.421   3.299  1.00  0.00     0.072 A 
ATOM     11  C   UNL     1       3.056  -3.011   4.066  1.00  0.00     0.040 A 
ATOM     12  C   UNL     1       1.397  -1.965   2.625  1.00  0.00     0.016 A 
ATOM     13  C   UNL     1       1.724  -2.797   3.699  1.00  0.00     0.027 A 
BRANCH   9  14
ATOM     14  O   UNL     1       4.668  -1.482   1.185  1.00  0.00    -0.493 OA
BRANCH  14  15
ATOM     15  C   UNL     1       5.756  -0.615   1.481  1.00  0.00     0.226 C 
ATOM     16  C   UNL     1       6.268  -0.177   0.120  1.00  0.00     0.049 C 
ENDBRANCH  14  15
ENDBRANCH   9  14
BRANCH  11  17
ATOM     17  N   UNL     1       3.403  -3.866   5.089  1.00  0.00    -0.367 N 
ATOM     18  C   UNL     1       3.210  -5.308   4.919  1.00  0.00     0.145 C 
ATOM     19  C   UNL     1       3.458  -3.381   6.468  1.00  0.00     0.145 C 
ATOM     20  C   UNL     1       2.067  -5.808   5.814  1.00  0.00     0.181 C 
ATOM     21  C   UNL     1       2.303  -3.976   7.290  1.00  0.00     0.181 C 
ATOM     22  O   UNL     1       2.247  -5.411   7.185  1.00  0.00    -0.378 OA
ENDBRANCH  11  17
ENDBRANCH   7   8
BRANCH   7  23
ATOM     23  N   UNL     1       2.580  -0.883  -0.589  1.00  0.00    -0.342 N 
ATOM     24  H   UNL     1       3.599  -0.866  -0.553  1.00  0.00     0.345 HD
ATOM     25  H   UNL     1       2.255  -0.257  -1.326  1.00  0.00     0.345 HD
ATOM     26  H   UNL     1       2.263  -1.833  -0.786  1.00  0.00     0.345 HD
ENDBRANCH   7  23
ENDBRANCH   5   7
ENDBRANCH   4   5
ENDBRANCH   3   4
ENDBRANCH   2   3
ENDBRANCH   1   2
BRANCH   1  27
ATOM     27  C   UNL     1       3.277   2.559  -2.154  1.00  0.00     0.202 C 
BRANCH  27  28
ATOM     28  C   UNL     1       4.195   1.958  -3.230  1.00  0.00     0.261 C 
BRANCH  28  29
ATOM     29  O   UNL     1       5.474   1.512  -2.744  1.00  0.00    -0.460 OA
BRANCH  29  30
ATOM     30  C   UNL     1       6.492   2.387  -2.963  1.00  0.00     0.338 C 
ATOM     31  O   UNL     1       6.405   3.485  -3.483  1.00  0.00    -0.246 OA
BRANCH  30  32
ATOM     32  C   UNL     1       7.747   1.898  -2.352  1.00  0.00     0.060 A 
ATOM     33  C   UNL     1       8.432   2.765  -1.493  1.00  0.00     0.016 A 
ATOM     34  C   UNL     1       8.297   0.654  -2.676  1.00  0.00     0.016 A 
ATOM     35  C   UNL     1       9.691   2.415  -0.996  1.00  0.00     0.010 A 
ATOM     36  C   UNL     1       9.560   0.304  -2.173  1.00  0.00     0.010 A 
ATOM     37  C   UNL     1      10.284   1.199  -1.362  1.00  0.00    -0.014 A 
BRANCH  37  38
ATOM     38  C   UNL     1      11.715   0.945  -1.025  1.00  0.00     0.031 A 
ATOM     39  C   UNL     1      12.758   1.079  -2.108  1.00  0.00     0.074 A 
ATOM     40  C   UNL     1      12.099   0.649   0.232  1.00  0.00     0.049 A 
ATOM     41  N   UNL     1      14.051   0.883  -2.048  1.00  0.00    -0.248 NA
ATOM     42  C   UNL     1      12.275   1.486  -3.437  1.00  0.00     0.031 C 
ATOM     43  C   UNL     1      11.205   0.538   1.384  1.00  0.00     0.029 A 
ATOM     44  N   UNL     1      13.346   0.387   0.752  1.00  0.00    -0.354 N 
ATOM     45  C   UNL     1      14.535   1.136  -3.328  1.00  0.00     0.074 A 
ATOM     46  C   UNL     1      13.390   1.461  -4.151  1.00  0.00     0.031 C 
ATOM     47  C   UNL     1      11.931   0.229   2.473  1.00  0.00     0.029 A 
ATOM     48  C   UNL     1      13.335   0.075   2.093  1.00  0.00     0.049 A 
ATOM     49  H   UNL     1      14.169   0.419   0.214  1.00  0.00     0.167 HD
ATOM     50  C   UNL     1      15.816   1.111  -3.775  1.00  0.00     0.034 A 
ATOM     51  C   UNL     1      14.335  -0.314   2.914  1.00  0.00     0.034 A 
ATOM     52  C   UNL     1      16.955   0.789  -2.950  1.00  0.00     0.049 A 
ATOM     53  C   UNL     1      15.742  -0.425   2.368  1.00  0.00     0.074 A 
ATOM     54  C   UNL     1      18.293   0.762  -3.307  1.00  0.00     0.029 A 
ATOM     55  N   UNL     1      16.896   0.425  -1.612  1.00  0.00    -0.354 N 
ATOM     56  N   UNL     1      16.183  -0.168   1.158  1.00  0.00    -0.248 NA
ATOM     57  C   UNL     1      16.786  -0.871   3.302  1.00  0.00     0.031 C 
ATOM     58  C   UNL     1      19.031   0.301  -2.213  1.00  0.00     0.029 A 
ATOM     59  C   UNL     1      18.169   0.132  -1.143  1.00  0.00     0.049 A 
ATOM     60  H   UNL     1      16.073   0.381  -1.075  1.00  0.00     0.167 HD
ATOM     61  C   UNL     1      17.561  -0.383   1.202  1.00  0.00     0.074 A 
ATOM     62  C   UNL     1      17.878  -0.775   2.558  1.00  0.00     0.031 C 
ATOM     63  C   UNL     1      18.481  -0.262   0.211  1.00  0.00     0.034 A 
BRANCH  50  64
ATOM     64  C   UNL     1      16.053   1.394  -5.240  1.00  0.00     0.023 A 
ATOM     65  C   UNL     1      15.783   2.650  -5.810  1.00  0.00     0.031 A 
ATOM     66  C   UNL     1      16.568   0.388  -6.077  1.00  0.00     0.131 A 
ATOM     67  C   UNL     1      15.978   2.850  -7.186  1.00  0.00     0.055 A 
ATOM     68  C   UNL     1      16.834   0.617  -7.428  1.00  0.00     0.041 A 
ATOM     69  F   UNL     1      16.824  -0.839  -5.594  1.00  0.00    -0.206 F 
ATOM     70  C   UNL     1      16.528   1.851  -7.993  1.00  0.00     0.022 A 
BRANCH  67  71
ATOM     71  S   UNL     1      15.387   4.394  -7.932  1.00  0.00     0.124 S 
ATOM     72  O   UNL     1      13.964   4.354  -7.604  1.00  0.00    -0.237 OA
ATOM     73  O   UNL     1      16.175   5.403  -7.235  1.00  0.00    -0.237 OA
ATOM     74  O   UNL     1      15.697   4.229  -9.351  1.00  0.00    -0.744 OA
ENDBRANCH  67  71
ENDBRANCH  50  64
BRANCH  51  75
ATOM     75  C   UNL     1      14.055  -0.685   4.335  1.00  0.00     0.023 A 
ATOM     76  C   UNL     1      14.664  -0.003   5.401  1.00  0.00     0.031 A 
ATOM     77  C   UNL     1      13.243  -1.792   4.643  1.00  0.00     0.131 A 
ATOM     78  C   UNL     1      14.504  -0.472   6.716  1.00  0.00     0.055 A 
ATOM     79  C   UNL     1      13.033  -2.213   5.957  1.00  0.00     0.041 A 
ATOM     80  F   UNL     1      12.642  -2.488   3.665  1.00  0.00    -0.206 F 
ATOM     81  C   UNL     1      13.680  -1.562   7.002  1.00  0.00     0.022 A 
BRANCH  78  82
ATOM     82  S   UNL     1      15.489   0.290   8.036  1.00  0.00     0.124 S 
ATOM     83  O   UNL     1      16.847   0.094   7.542  1.00  0.00    -0.237 OA
ATOM     84  O   UNL     1      14.993   1.662   8.028  1.00  0.00    -0.237 OA
ATOM     85  O   UNL     1      15.134  -0.492   9.219  1.00  0.00    -0.744 OA
ENDBRANCH  78  82
ENDBRANCH  51  75
BRANCH  63  86
ATOM     86  C   UNL     1      19.931  -0.498   0.571  1.00  0.00     0.023 A 
ATOM     87  C   UNL     1      20.404  -1.757   0.983  1.00  0.00     0.031 A 
ATOM     88  C   UNL     1      20.856   0.561   0.506  1.00  0.00     0.131 A 
ATOM     89  C   UNL     1      21.745  -1.911   1.367  1.00  0.00     0.055 A 
ATOM     90  C   UNL     1      22.203   0.386   0.824  1.00  0.00     0.041 A 
ATOM     91  F   UNL     1      20.464   1.788   0.124  1.00  0.00    -0.206 F 
ATOM     92  C   UNL     1      22.652  -0.852   1.271  1.00  0.00     0.022 A 
BRANCH  89  93
ATOM     93  S   UNL     1      22.271  -3.489   2.091  1.00  0.00     0.124 S 
ATOM     94  O   UNL     1      21.371  -3.613   3.234  1.00  0.00    -0.237 OA
ATOM     95  O   UNL     1      22.043  -4.427   0.997  1.00  0.00    -0.237 OA
ATOM     96  O   UNL     1      23.675  -3.262   2.429  1.00  0.00    -0.744 OA
ENDBRANCH  89  93
ENDBRANCH  63  86
ENDBRANCH  37  38
ENDBRANCH  30  32
ENDBRANCH  29  30
ENDBRANCH  28  29
ENDBRANCH  27  28
ENDBRANCH   1  27
TORSDOF 22
