REMARK SMILES CN1C(=O)C[C@@H](C(=O)OCCOCCOC(=O)c2ccc(-c3c4nc(c(-c5cc(S(=O)(=O)[O-])ccc5F)c5ccc([nH]5)c(-c5cc(S(=O)(=O)[O-])ccc5F)c5nc(c(-c6cc(S(=O)(=O)[O-])ccc6F)c6ccc3[nH]6)C=C5)C=C4)cc2)C12CCN(c1ccc(Cl)cn1)CC2
REMARK SMILES IDX 13 1 12 2 11 3 10 4 9 5 7 6 8 7 6 8 1 9 2 10 3 11 81 12 4 13
REMARK SMILES IDX 5 14 82 15 93 16 83 17 92 18 84 19 85 20 86 21 91 22 87 23
REMARK SMILES IDX 90 24 88 25 89 26 14 27 15 28 16 29 17 30 18 31 19 32 80 33
REMARK SMILES IDX 20 34 79 35 21 36 22 37 23 38 73 39 24 40 78 41 72 42 74 43
REMARK SMILES IDX 25 44 77 45 71 46 70 47 26 49 58 50 38 51 57 52 39 53 42 54
REMARK SMILES IDX 56 55 75 56 40 57 41 58 55 60 76 61 43 62 27 63 28 64 36 65
REMARK SMILES IDX 29 66 35 67 37 68 34 69 30 70 31 71 32 72 33 73 59 74 60 75
REMARK SMILES IDX 68 76 61 77 67 78 69 79 66 80 62 81 63 82 64 83 65 84 44 85
REMARK SMILES IDX 45 86 53 87 46 88 52 89 54 90 51 91 47 92 48 93 49 94 50 95
REMARK H PARENT 74 48 42 59
REMARK Flexibility Score: inf
ROOT
ATOM      1  C   UNL     1      -4.570  -2.204   3.178  1.00  0.00     0.202 C 
ENDROOT
BRANCH   1   2
ATOM      2  O   UNL     1      -4.894  -1.241   4.176  1.00  0.00    -0.374 OA
BRANCH   2   3
ATOM      3  C   UNL     1      -4.392   0.084   4.016  1.00  0.00     0.202 C 
BRANCH   3   4
ATOM      4  C   UNL     1      -2.887   0.309   4.218  1.00  0.00     0.261 C 
BRANCH   4   5
ATOM      5  O   UNL     1      -2.007  -0.343   3.272  1.00  0.00    -0.463 OA
BRANCH   5   6
ATOM      6  C   UNL     1      -1.341  -1.413   3.764  1.00  0.00     0.311 C 
ATOM      7  O   UNL     1      -1.609  -1.958   4.833  1.00  0.00    -0.252 OA
BRANCH   6   8
ATOM      8  C   UNL     1      -0.121  -1.858   2.982  1.00  0.00     0.134 C 
ATOM      9  C   UNL     1       1.161   0.214   0.115  1.00  0.00     0.147 C 
ATOM     10  N   UNL     1       0.888  -0.488   1.358  1.00  0.00    -0.339 N 
ATOM     11  C   UNL     1       1.481  -0.124   2.552  1.00  0.00     0.223 C 
ATOM     12  C   UNL     1       0.075  -1.712   1.450  1.00  0.00     0.060 C 
ATOM     13  O   UNL     1       2.253   0.801   2.734  1.00  0.00    -0.275 OA
ATOM     14  C   UNL     1       1.074  -1.116   3.603  1.00  0.00     0.118 C 
ATOM     15  C   UNL     1      -1.193  -1.613   0.577  1.00  0.00     0.051 C 
ATOM     16  C   UNL     1       0.955  -2.913   0.954  1.00  0.00     0.051 C 
ATOM     17  C   UNL     1      -1.908  -2.942   0.386  1.00  0.00     0.120 C 
ATOM     18  C   UNL     1       0.167  -4.211   0.742  1.00  0.00     0.120 C 
ATOM     19  N   UNL     1      -0.957  -3.917  -0.132  1.00  0.00    -0.356 N 
BRANCH  19  20
ATOM     20  C   UNL     1      -1.510  -4.971  -0.849  1.00  0.00     0.128 A 
ATOM     21  C   UNL     1      -2.114  -4.708  -2.084  1.00  0.00     0.048 A 
ATOM     22  N   UNL     1      -1.460  -6.224  -0.349  1.00  0.00    -0.238 NA
ATOM     23  C   UNL     1      -2.711  -5.738  -2.809  1.00  0.00     0.026 A 
ATOM     24  C   UNL     1      -2.062  -7.211  -1.064  1.00  0.00     0.134 A 
ATOM     25  C   UNL     1      -2.696  -7.017  -2.281  1.00  0.00     0.059 A 
ATOM     26  Cl  UNL     1      -3.442  -8.319  -3.112  1.00  0.00    -0.083 Cl
ENDBRANCH  19  20
ENDBRANCH   6   8
ENDBRANCH   5   6
ENDBRANCH   4   5
ENDBRANCH   3   4
ENDBRANCH   2   3
ENDBRANCH   1   2
BRANCH   1  27
ATOM     27  C   UNL     1      -5.160  -1.970   1.785  1.00  0.00     0.261 C 
BRANCH  27  28
ATOM     28  O   UNL     1      -4.712  -0.724   1.228  1.00  0.00    -0.460 OA
BRANCH  28  29
ATOM     29  C   UNL     1      -5.636  -0.131   0.431  1.00  0.00     0.338 C 
ATOM     30  O   UNL     1      -6.619  -0.656  -0.057  1.00  0.00    -0.246 OA
BRANCH  29  31
ATOM     31  C   UNL     1      -5.371   1.316   0.357  1.00  0.00     0.060 A 
ATOM     32  C   UNL     1      -6.125   2.171   1.171  1.00  0.00     0.016 A 
ATOM     33  C   UNL     1      -4.477   1.832  -0.582  1.00  0.00     0.016 A 
ATOM     34  C   UNL     1      -6.014   3.554   1.016  1.00  0.00     0.010 A 
ATOM     35  C   UNL     1      -4.370   3.220  -0.735  1.00  0.00     0.010 A 
ATOM     36  C   UNL     1      -5.162   4.088   0.039  1.00  0.00    -0.014 A 
BRANCH  36  37
ATOM     37  C   UNL     1      -5.201   5.545  -0.252  1.00  0.00     0.031 A 
ATOM     38  C   UNL     1      -6.013   6.040  -1.419  1.00  0.00     0.074 A 
ATOM     39  C   UNL     1      -4.549   6.418   0.538  1.00  0.00     0.049 A 
ATOM     40  N   UNL     1      -6.200   7.264  -1.842  1.00  0.00    -0.248 NA
ATOM     41  C   UNL     1      -6.704   5.016  -2.216  1.00  0.00     0.031 C 
ATOM     42  C   UNL     1      -3.754   6.059   1.712  1.00  0.00     0.029 A 
ATOM     43  N   UNL     1      -4.452   7.786   0.474  1.00  0.00    -0.354 N 
ATOM     44  C   UNL     1      -7.037   7.161  -2.948  1.00  0.00     0.074 A 
ATOM     45  C   UNL     1      -7.285   5.749  -3.155  1.00  0.00     0.031 C 
ATOM     46  C   UNL     1      -3.248   7.179   2.255  1.00  0.00     0.029 A 
ATOM     47  C   UNL     1      -3.656   8.331   1.454  1.00  0.00     0.049 A 
ATOM     48  H   UNL     1      -4.910   8.326  -0.210  1.00  0.00     0.167 HD
ATOM     49  C   UNL     1      -7.561   8.152  -3.713  1.00  0.00     0.034 A 
ATOM     50  C   UNL     1      -3.286   9.610   1.669  1.00  0.00     0.034 A 
ATOM     51  C   UNL     1      -7.289   9.554  -3.508  1.00  0.00     0.049 A 
ATOM     52  C   UNL     1      -3.815  10.688   0.754  1.00  0.00     0.074 A 
ATOM     53  C   UNL     1      -7.781  10.641  -4.210  1.00  0.00     0.029 A 
ATOM     54  N   UNL     1      -6.437  10.065  -2.537  1.00  0.00    -0.354 N 
ATOM     55  N   UNL     1      -4.630  10.577  -0.270  1.00  0.00    -0.248 NA
ATOM     56  C   UNL     1      -3.381  12.064   1.030  1.00  0.00     0.031 C 
ATOM     57  C   UNL     1      -7.174  11.799  -3.711  1.00  0.00     0.029 A 
ATOM     58  C   UNL     1      -6.359  11.445  -2.647  1.00  0.00     0.049 A 
ATOM     59  H   UNL     1      -5.958   9.525  -1.867  1.00  0.00     0.167 HD
ATOM     60  C   UNL     1      -4.824  11.873  -0.744  1.00  0.00     0.074 A 
ATOM     61  C   UNL     1      -4.056  12.748   0.117  1.00  0.00     0.031 C 
ATOM     62  C   UNL     1      -5.572  12.303  -1.793  1.00  0.00     0.034 A 
BRANCH  49  63
ATOM     63  C   UNL     1      -8.439   7.742  -4.871  1.00  0.00     0.023 A 
ATOM     64  C   UNL     1      -9.677   7.105  -4.671  1.00  0.00     0.031 A 
ATOM     65  C   UNL     1      -8.022   7.971  -6.194  1.00  0.00     0.131 A 
ATOM     66  C   UNL     1     -10.422   6.662  -5.775  1.00  0.00     0.055 A 
ATOM     67  C   UNL     1      -8.802   7.592  -7.288  1.00  0.00     0.041 A 
ATOM     68  F   UNL     1      -6.840   8.556  -6.446  1.00  0.00    -0.206 F 
ATOM     69  C   UNL     1     -10.004   6.921  -7.083  1.00  0.00     0.022 A 
BRANCH  66  70
ATOM     70  S   UNL     1     -11.881   5.625  -5.479  1.00  0.00     0.124 S 
ATOM     71  O   UNL     1     -11.300   4.496  -4.757  1.00  0.00    -0.237 OA
ATOM     72  O   UNL     1     -12.742   6.508  -4.700  1.00  0.00    -0.237 OA
ATOM     73  O   UNL     1     -12.360   5.314  -6.825  1.00  0.00    -0.744 OA
ENDBRANCH  66  70
ENDBRANCH  49  63
BRANCH  50  74
ATOM     74  C   UNL     1      -2.336   9.948   2.769  1.00  0.00     0.023 A 
ATOM     75  C   UNL     1      -2.721  10.769   3.841  1.00  0.00     0.031 A 
ATOM     76  C   UNL     1      -1.004   9.497   2.730  1.00  0.00     0.131 A 
ATOM     77  C   UNL     1      -1.775  11.149   4.806  1.00  0.00     0.055 A 
ATOM     78  C   UNL     1      -0.080   9.836   3.719  1.00  0.00     0.041 A 
ATOM     79  F   UNL     1      -0.583   8.712   1.726  1.00  0.00    -0.206 F 
ATOM     80  C   UNL     1      -0.460  10.678   4.759  1.00  0.00     0.022 A 
BRANCH  77  81
ATOM     81  S   UNL     1      -2.265  12.342   6.083  1.00  0.00     0.124 S 
ATOM     82  O   UNL     1      -2.701  13.477   5.278  1.00  0.00    -0.237 OA
ATOM     83  O   UNL     1      -3.314  11.614   6.788  1.00  0.00    -0.237 OA
ATOM     84  O   UNL     1      -1.035  12.551   6.844  1.00  0.00    -0.744 OA
ENDBRANCH  77  81
ENDBRANCH  50  74
BRANCH  62  85
ATOM     85  C   UNL     1      -5.613  13.791  -2.039  1.00  0.00     0.023 A 
ATOM     86  C   UNL     1      -4.477  14.499  -2.470  1.00  0.00     0.031 A 
ATOM     87  C   UNL     1      -6.801  14.512  -1.825  1.00  0.00     0.131 A 
ATOM     88  C   UNL     1      -4.538  15.893  -2.621  1.00  0.00     0.055 A 
ATOM     89  C   UNL     1      -6.871  15.891  -2.032  1.00  0.00     0.041 A 
ATOM     90  F   UNL     1      -7.915  13.887  -1.412  1.00  0.00    -0.206 F 
ATOM     91  C   UNL     1      -5.732  16.591  -2.420  1.00  0.00     0.022 A 
BRANCH  88  92
ATOM     92  S   UNL     1      -3.012  16.797  -3.000  1.00  0.00     0.124 S 
ATOM     93  O   UNL     1      -2.162  16.445  -1.867  1.00  0.00    -0.237 OA
ATOM     94  O   UNL     1      -2.625  16.229  -4.288  1.00  0.00    -0.237 OA
ATOM     95  O   UNL     1      -3.441  18.193  -3.043  1.00  0.00    -0.744 OA
ENDBRANCH  88  92
ENDBRANCH  62  85
ENDBRANCH  36  37
ENDBRANCH  29  31
ENDBRANCH  28  29
ENDBRANCH  27  28
ENDBRANCH   1  27
TORSDOF 18
