REMARK SMILES CC(C)(C)OC(=O)N1CCC[C@H]1C(=O)N1CCC[C@H]1C(=O)N1CCC[C@@H]1C(=O)OCCOCCOC(=O)c1ccc(-c2c3nc(c(-c4cc(S(=O)(=O)[O-])ccc4F)c4ccc([nH]4)c(-c4cc(S(=O)(=O)[O-])ccc4F)c4nc(c(-c5cc(S(=O)(=O)[O-])ccc5F)c5ccc2[nH]5)C=C4)C=C3)cc1
REMARK SMILES IDX 30 1 29 2 27 3 28 4 26 5 22 6 23 7 24 8 25 9 20 10 21 11
REMARK SMILES IDX 19 12 15 13 16 14 17 15 18 16 13 17 14 18 12 19 8 20 9 21
REMARK SMILES IDX 10 22 11 23 6 24 7 25 5 26 2 27 1 28 3 29 4 30 31 31 32 32
REMARK SMILES IDX 33 33 34 34 35 35 36 36 37 37 38 38 39 39 100 40 40 41 99 42
REMARK SMILES IDX 41 43 42 44 43 45 93 46 44 47 98 48 92 49 94 50 45 51 97 52
REMARK SMILES IDX 91 53 90 54 46 56 78 57 58 58 77 59 59 60 62 61 76 62 95 63
REMARK SMILES IDX 60 64 61 65 75 67 96 68 63 69 47 70 48 71 56 72 49 73 55 74
REMARK SMILES IDX 57 75 54 76 50 77 51 78 52 79 53 80 79 81 80 82 88 83 81 84
REMARK SMILES IDX 87 85 89 86 86 87 82 88 83 89 84 90 85 91 64 92 65 93 73 94
REMARK SMILES IDX 66 95 72 96 74 97 71 98 67 99 68 100 69 101 70 102
REMARK H PARENT 94 55 62 66
REMARK Flexibility Score: inf
ROOT
ATOM      1  C   UNL     1       2.182  -5.874  -8.376  1.00  0.00     0.261 C 
ENDROOT
BRANCH   1   2
ATOM      2  O   UNL     1       1.684  -6.264  -7.089  1.00  0.00    -0.462 OA
BRANCH   2   3
ATOM      3  C   UNL     1       0.819  -7.314  -7.077  1.00  0.00     0.328 C 
ATOM      4  O   UNL     1       0.432  -7.891  -8.091  1.00  0.00    -0.250 OA
BRANCH   3   5
ATOM      5  C   UNL     1       0.258  -7.645  -5.681  1.00  0.00     0.195 C 
ATOM      6  N   UNL     1      -0.888  -6.809  -5.403  1.00  0.00    -0.327 N 
ATOM      7  C   UNL     1      -1.062  -6.604  -3.983  1.00  0.00     0.120 C 
ATOM      8  C   UNL     1       0.323  -6.786  -3.381  1.00  0.00     0.024 C 
ATOM      9  C   UNL     1       1.187  -7.415  -4.483  1.00  0.00     0.039 C 
BRANCH   6  10
ATOM     10  C   UNL     1      -1.903  -6.660  -6.306  1.00  0.00     0.246 C 
ATOM     11  O   UNL     1      -2.557  -7.626  -6.697  1.00  0.00    -0.272 OA
BRANCH  10  12
ATOM     12  C   UNL     1      -2.263  -5.189  -6.642  1.00  0.00     0.174 C 
ATOM     13  N   UNL     1      -1.170  -4.206  -6.835  1.00  0.00    -0.329 N 
ATOM     14  C   UNL     1      -1.145  -3.712  -8.197  1.00  0.00     0.120 C 
ATOM     15  C   UNL     1      -2.559  -3.892  -8.692  1.00  0.00     0.024 C 
ATOM     16  C   UNL     1      -3.009  -5.168  -7.995  1.00  0.00     0.037 C 
BRANCH  13  17
ATOM     17  C   UNL     1      -0.318  -3.778  -5.838  1.00  0.00     0.246 C 
ATOM     18  O   UNL     1       0.386  -4.554  -5.195  1.00  0.00    -0.272 OA
BRANCH  17  19
ATOM     19  C   UNL     1      -0.175  -2.273  -5.601  1.00  0.00     0.178 C 
ATOM     20  N   UNL     1       0.485  -2.041  -4.310  1.00  0.00    -0.296 N 
ATOM     21  C   UNL     1       1.885  -1.760  -4.487  1.00  0.00     0.124 C 
ATOM     22  C   UNL     1       1.875  -1.025  -5.790  1.00  0.00     0.024 C 
ATOM     23  C   UNL     1       0.795  -1.683  -6.623  1.00  0.00     0.037 C 
BRANCH  20  24
ATOM     24  C   UNL     1      -0.135  -2.093  -3.095  1.00  0.00     0.410 C 
ATOM     25  O   UNL     1      -1.258  -2.547  -2.924  1.00  0.00    -0.224 OA
BRANCH  24  26
ATOM     26  O   UNL     1       0.651  -1.530  -2.147  1.00  0.00    -0.444 OA
BRANCH  26  27
ATOM     27  C   UNL     1       0.297  -1.362  -0.755  1.00  0.00     0.106 C 
ATOM     28  C   UNL     1       1.085  -0.126  -0.290  1.00  0.00     0.056 C 
ATOM     29  C   UNL     1       0.795  -2.595  -0.002  1.00  0.00     0.056 C 
ATOM     30  C   UNL     1      -1.191  -1.106  -0.509  1.00  0.00     0.056 C 
ENDBRANCH  26  27
ENDBRANCH  24  26
ENDBRANCH  20  24
ENDBRANCH  17  19
ENDBRANCH  13  17
ENDBRANCH  10  12
ENDBRANCH   6  10
ENDBRANCH   3   5
ENDBRANCH   2   3
ENDBRANCH   1   2
BRANCH   1  31
ATOM     31  C   UNL     1       3.692  -6.072  -8.500  1.00  0.00     0.202 C 
BRANCH  31  32
ATOM     32  O   UNL     1       4.207  -7.371  -8.222  1.00  0.00    -0.374 OA
BRANCH  32  33
ATOM     33  C   UNL     1       4.208  -7.809  -6.866  1.00  0.00     0.202 C 
BRANCH  33  34
ATOM     34  C   UNL     1       5.179  -7.140  -5.881  1.00  0.00     0.261 C 
BRANCH  34  35
ATOM     35  O   UNL     1       4.997  -5.720  -5.728  1.00  0.00    -0.460 OA
BRANCH  35  36
ATOM     36  C   UNL     1       5.965  -4.963  -6.311  1.00  0.00     0.338 C 
ATOM     37  O   UNL     1       6.930  -5.374  -6.935  1.00  0.00    -0.246 OA
BRANCH  36  38
ATOM     38  C   UNL     1       5.632  -3.523  -6.240  1.00  0.00     0.060 A 
ATOM     39  C   UNL     1       5.618  -2.785  -7.435  1.00  0.00     0.016 A 
ATOM     40  C   UNL     1       5.460  -2.877  -5.020  1.00  0.00     0.016 A 
ATOM     41  C   UNL     1       5.477  -1.391  -7.416  1.00  0.00     0.010 A 
ATOM     42  C   UNL     1       5.320  -1.482  -5.004  1.00  0.00     0.010 A 
ATOM     43  C   UNL     1       5.356  -0.718  -6.197  1.00  0.00    -0.014 A 
BRANCH  43  44
ATOM     44  C   UNL     1       5.391   0.773  -6.093  1.00  0.00     0.031 A 
ATOM     45  C   UNL     1       6.584   1.392  -5.420  1.00  0.00     0.074 A 
ATOM     46  C   UNL     1       4.388   1.580  -6.503  1.00  0.00     0.049 A 
ATOM     47  N   UNL     1       6.761   2.618  -5.008  1.00  0.00    -0.248 NA
ATOM     48  C   UNL     1       7.743   0.508  -5.216  1.00  0.00     0.031 C 
ATOM     49  C   UNL     1       3.250   1.203  -7.335  1.00  0.00     0.029 A 
ATOM     50  N   UNL     1       4.117   2.890  -6.172  1.00  0.00    -0.354 N 
ATOM     51  C   UNL     1       8.070   2.670  -4.549  1.00  0.00     0.074 A 
ATOM     52  C   UNL     1       8.600   1.326  -4.626  1.00  0.00     0.031 C 
ATOM     53  C   UNL     1       2.310   2.162  -7.266  1.00  0.00     0.029 A 
ATOM     54  C   UNL     1       2.814   3.254  -6.444  1.00  0.00     0.049 A 
ATOM     55  H   UNL     1       4.783   3.502  -5.783  1.00  0.00     0.167 HD
ATOM     56  C   UNL     1       8.784   3.754  -4.161  1.00  0.00     0.034 A 
ATOM     57  C   UNL     1       2.097   4.326  -6.051  1.00  0.00     0.034 A 
ATOM     58  C   UNL     1       8.234   5.082  -4.073  1.00  0.00     0.049 A 
ATOM     59  C   UNL     1       2.814   5.460  -5.369  1.00  0.00     0.074 A 
ATOM     60  C   UNL     1       8.876   6.260  -3.736  1.00  0.00     0.029 A 
ATOM     61  N   UNL     1       6.902   5.405  -4.298  1.00  0.00    -0.354 N 
ATOM     62  N   UNL     1       4.068   5.524  -4.991  1.00  0.00    -0.248 NA
ATOM     63  C   UNL     1       2.050   6.694  -5.140  1.00  0.00     0.031 C 
ATOM     64  C   UNL     1       7.917   7.277  -3.672  1.00  0.00     0.029 A 
ATOM     65  C   UNL     1       6.692   6.753  -4.055  1.00  0.00     0.049 A 
ATOM     66  H   UNL     1       6.209   4.769  -4.587  1.00  0.00     0.167 HD
ATOM     67  C   UNL     1       4.271   6.837  -4.580  1.00  0.00     0.074 A 
ATOM     68  C   UNL     1       2.997   7.515  -4.707  1.00  0.00     0.031 C 
ATOM     69  C   UNL     1       5.425   7.433  -4.187  1.00  0.00     0.034 A 
BRANCH  56  70
ATOM     70  C   UNL     1      10.228   3.527  -3.798  1.00  0.00     0.023 A 
ATOM     71  C   UNL     1      11.154   3.052  -4.745  1.00  0.00     0.031 A 
ATOM     72  C   UNL     1      10.679   3.750  -2.487  1.00  0.00     0.131 A 
ATOM     73  C   UNL     1      12.460   2.738  -4.348  1.00  0.00     0.055 A 
ATOM     74  C   UNL     1      12.004   3.515  -2.119  1.00  0.00     0.041 A 
ATOM     75  F   UNL     1       9.834   4.180  -1.537  1.00  0.00    -0.206 F 
ATOM     76  C   UNL     1      12.900   2.991  -3.047  1.00  0.00     0.022 A 
BRANCH  73  77
ATOM     77  S   UNL     1      13.528   1.852  -5.516  1.00  0.00     0.124 S 
ATOM     78  O   UNL     1      12.746   0.645  -5.773  1.00  0.00    -0.237 OA
ATOM     79  O   UNL     1      13.633   2.793  -6.625  1.00  0.00    -0.237 OA
ATOM     80  O   UNL     1      14.760   1.638  -4.758  1.00  0.00    -0.744 OA
ENDBRANCH  73  77
ENDBRANCH  56  70
BRANCH  57  81
ATOM     81  C   UNL     1       0.631   4.400  -6.306  1.00  0.00     0.023 A 
ATOM     82  C   UNL     1       0.097   5.296  -7.242  1.00  0.00     0.031 A 
ATOM     83  C   UNL     1      -0.266   3.613  -5.559  1.00  0.00     0.131 A 
ATOM     84  C   UNL     1      -1.295   5.424  -7.375  1.00  0.00     0.055 A 
ATOM     85  C   UNL     1      -1.651   3.721  -5.717  1.00  0.00     0.041 A 
ATOM     86  F   UNL     1       0.193   2.734  -4.654  1.00  0.00    -0.206 F 
ATOM     87  C   UNL     1      -2.173   4.640  -6.622  1.00  0.00     0.022 A 
BRANCH  84  88
ATOM     88  S   UNL     1      -1.941   6.688  -8.503  1.00  0.00     0.124 S 
ATOM     89  O   UNL     1      -1.330   7.901  -7.971  1.00  0.00    -0.237 OA
ATOM     90  O   UNL     1      -1.436   6.224  -9.791  1.00  0.00    -0.237 OA
ATOM     91  O   UNL     1      -3.389   6.589  -8.331  1.00  0.00    -0.744 OA
ENDBRANCH  84  88
ENDBRANCH  57  81
BRANCH  69  92
ATOM     92  C   UNL     1       5.394   8.920  -3.951  1.00  0.00     0.023 A 
ATOM     93  C   UNL     1       4.685   9.495  -2.885  1.00  0.00     0.031 A 
ATOM     94  C   UNL     1       6.113   9.776  -4.808  1.00  0.00     0.131 A 
ATOM     95  C   UNL     1       4.678  10.888  -2.725  1.00  0.00     0.055 A 
ATOM     96  C   UNL     1       6.154  11.155  -4.606  1.00  0.00     0.041 A 
ATOM     97  F   UNL     1       6.802   9.280  -5.849  1.00  0.00    -0.206 F 
ATOM     98  C   UNL     1       5.426  11.720  -3.564  1.00  0.00     0.022 A 
BRANCH  95  99
ATOM     99  S   UNL     1       3.623  11.610  -1.440  1.00  0.00     0.124 S 
ATOM    100  O   UNL     1       2.293  11.189  -1.871  1.00  0.00    -0.237 OA
ATOM    101  O   UNL     1       4.129  10.978  -0.226  1.00  0.00    -0.237 OA
ATOM    102  O   UNL     1       3.885  13.044  -1.546  1.00  0.00    -0.744 OA
ENDBRANCH  95  99
ENDBRANCH  69  92
ENDBRANCH  43  44
ENDBRANCH  36  38
ENDBRANCH  35  36
ENDBRANCH  34  35
ENDBRANCH  33  34
ENDBRANCH  32  33
ENDBRANCH  31  32
ENDBRANCH   1  31
TORSDOF 24
