REMARK SMILES Cc1cccc(S(=O)(=O)Nc2cc(C(=O)OCCOCCOC(=O)c3ccc(-c4c5nc(c(-c6cc(S(=O)(=O)[O-])ccc6F)c6ccc([nH]6)c(-c6cc(S(=O)(=O)[O-])ccc6F)c6nc(c(-c7cc(S(=O)(=O)[O-])ccc7F)c7ccc4[nH]7)C=C6)C=C5)cc3)ccc2N2CCC[C@H](C[NH+]3CCCC3)C2)c1
REMARK SMILES IDX 19 1 18 2 17 3 16 4 14 5 15 6 13 7 11 8 12 9 90 10 89 11
REMARK SMILES IDX 88 12 10 13 7 15 8 16 9 17 6 18 1 19 2 20 3 21 103 22 4 23
REMARK SMILES IDX 5 24 91 25 92 26 102 27 93 28 95 29 94 30 96 31 97 32 98 33
REMARK SMILES IDX 101 34 99 36 100 37 20 38 21 39 22 40 23 41 24 42 25 43
REMARK SMILES IDX 26 44 87 45 27 46 86 47 28 48 29 49 30 50 80 51 31 52 85 53
REMARK SMILES IDX 79 54 81 55 32 56 84 57 78 58 77 59 33 61 65 62 45 63 64 64
REMARK SMILES IDX 46 65 49 66 63 67 82 68 47 69 48 70 62 72 83 73 50 74 34 75
REMARK SMILES IDX 35 76 43 77 36 78 42 79 44 80 41 81 37 82 38 83 39 84 40 85
REMARK SMILES IDX 66 86 67 87 75 88 68 89 74 90 76 91 73 92 69 93 70 94 71 95
REMARK SMILES IDX 72 96 51 97 52 98 60 99 53 100 59 101 61 102 58 103 54 104
REMARK SMILES IDX 55 105 56 106 57 107
REMARK H PARENT 10 14 97 35 81 60 49 71
REMARK Flexibility Score: inf
ROOT
ATOM      1  O   UNL     1       4.030   2.465  -4.041  1.00  0.00    -0.374 OA
ENDROOT
BRANCH   1   2
ATOM      2  C   UNL     1       2.749   2.328  -4.609  1.00  0.00     0.202 C 
BRANCH   2   3
ATOM      3  C   UNL     1       1.945   1.669  -3.581  1.00  0.00     0.261 C 
BRANCH   3   4
ATOM      4  O   UNL     1       2.129   2.231  -2.303  1.00  0.00    -0.460 OA
BRANCH   4   5
ATOM      5  C   UNL     1       3.224   2.672  -1.675  1.00  0.00     0.338 C 
ATOM      6  O   UNL     1       4.317   2.179  -1.489  1.00  0.00    -0.246 OA
BRANCH   5   7
ATOM      7  C   UNL     1       2.675   3.837  -0.974  1.00  0.00     0.062 A 
ATOM      8  C   UNL     1       0.543   4.534  -0.183  1.00  0.00     0.073 A 
ATOM      9  C   UNL     1       1.321   4.156  -1.229  1.00  0.00     0.044 A 
ATOM     10  C   UNL     1       1.197   5.102   0.921  1.00  0.00     0.061 A 
ATOM     11  C   UNL     1       2.597   4.956   1.084  1.00  0.00     0.029 A 
ATOM     12  C   UNL     1       3.337   4.241   0.173  1.00  0.00     0.018 A 
BRANCH   8  13
ATOM     13  N   UNL     1      -0.879   4.333  -0.309  1.00  0.00    -0.277 N 
ATOM     14  H   UNL     1      -1.445   5.096  -0.569  1.00  0.00     0.180 HD
BRANCH  13  15
ATOM     15  S   UNL     1      -1.637   2.780  -0.018  1.00  0.00     0.261 S 
ATOM     16  O   UNL     1      -2.809   2.744  -0.871  1.00  0.00    -0.201 OA
ATOM     17  O   UNL     1      -1.836   2.747   1.421  1.00  0.00    -0.201 OA
BRANCH  15  18
ATOM     18  C   UNL     1      -0.636   1.286  -0.421  1.00  0.00     0.088 A 
ATOM     19  C   UNL     1       3.864   0.227   1.105  1.00  0.00     0.044 C 
ATOM     20  C   UNL     1       2.635  -0.108   0.315  1.00  0.00    -0.050 A 
ATOM     21  C   UNL     1       1.619  -1.954  -0.106  1.00  0.00     0.003 A 
ATOM     22  C   UNL     1       1.334   1.458   0.182  1.00  0.00     0.025 A 
ATOM     23  C   UNL     1      -0.291  -2.209  -0.804  1.00  0.00     0.002 A 
ATOM     24  C   UNL     1      -1.578  -0.475  -0.876  1.00  0.00     0.022 A 
ENDBRANCH  15  18
ENDBRANCH  13  15
ENDBRANCH   8  13
BRANCH  10  25
ATOM     25  N   UNL     1       0.506   5.932   1.780  1.00  0.00    -0.369 N 
ATOM     26  C   UNL     1       0.956   7.318   1.797  1.00  0.00     0.116 C 
ATOM     27  C   UNL     1      -0.226   5.323   2.875  1.00  0.00     0.126 C 
ATOM     28  C   UNL     1       1.594   7.644   3.133  1.00  0.00     0.022 C 
ATOM     29  C   UNL     1       0.351   5.724   4.241  1.00  0.00     0.064 C 
ATOM     30  C   UNL     1       0.621   7.240   4.231  1.00  0.00     0.013 C 
BRANCH  29  31
ATOM     31  C   UNL     1       1.553   4.819   4.630  1.00  0.00     0.267 C 
BRANCH  31  32
ATOM     32  N   UNL     1       2.081   4.861   6.000  1.00  0.00    -0.335 N 
ATOM     33  C   UNL     1       1.103   4.545   7.038  1.00  0.00     0.262 C 
ATOM     34  C   UNL     1       2.761   6.087   6.403  1.00  0.00     0.262 C 
ATOM     35  H   UNL     1       2.779   4.120   5.933  1.00  0.00     0.348 HD
ATOM     36  C   UNL     1       0.624   5.896   7.534  1.00  0.00     0.067 C 
ATOM     37  C   UNL     1       1.864   6.770   7.435  1.00  0.00     0.067 C 
ENDBRANCH  31  32
ENDBRANCH  29  31
ENDBRANCH  10  25
ENDBRANCH   5   7
ENDBRANCH   4   5
ENDBRANCH   3   4
ENDBRANCH   2   3
ENDBRANCH   1   2
BRANCH   1  38
ATOM     38  C   UNL     1       4.712   3.650  -4.327  1.00  0.00     0.202 C 
BRANCH  38  39
ATOM     39  C   UNL     1       4.890   3.663  -5.833  1.00  0.00     0.261 C 
BRANCH  39  40
ATOM     40  O   UNL     1       5.566   2.410  -6.213  1.00  0.00    -0.460 OA
BRANCH  40  41
ATOM     41  C   UNL     1       4.793   1.348  -6.637  1.00  0.00     0.338 C 
ATOM     42  O   UNL     1       4.032   1.413  -7.592  1.00  0.00    -0.246 OA
BRANCH  41  43
ATOM     43  C   UNL     1       4.804   0.168  -5.654  1.00  0.00     0.060 A 
ATOM     44  C   UNL     1       3.793  -0.812  -5.673  1.00  0.00     0.016 A 
ATOM     45  C   UNL     1       5.492   0.314  -4.463  1.00  0.00     0.016 A 
ATOM     46  C   UNL     1       3.287  -1.358  -4.452  1.00  0.00     0.010 A 
ATOM     47  C   UNL     1       4.846  -0.071  -3.270  1.00  0.00     0.010 A 
ATOM     48  C   UNL     1       3.634  -0.801  -3.215  1.00  0.00    -0.014 A 
BRANCH  48  49
ATOM     49  C   UNL     1       2.996  -1.079  -1.805  1.00  0.00     0.031 A 
ATOM     50  C   UNL     1       4.241  -1.980  -1.054  1.00  0.00     0.074 A 
ATOM     51  C   UNL     1       1.695  -0.489  -1.041  1.00  0.00     0.049 A 
ATOM     52  N   UNL     1       4.378  -2.314   0.196  1.00  0.00    -0.248 NA
ATOM     53  C   UNL     1       5.484  -2.385  -1.771  1.00  0.00     0.031 C 
ATOM     54  C   UNL     1       1.229  -0.619   1.087  1.00  0.00     0.029 A 
ATOM     55  N   UNL     1       0.823   0.341  -1.179  1.00  0.00    -0.354 N 
ATOM     56  C   UNL     1       5.724  -2.587   0.489  1.00  0.00     0.074 A 
ATOM     57  C   UNL     1       6.365  -2.629  -0.791  1.00  0.00     0.031 C 
ATOM     58  C   UNL     1       0.491   0.219   1.826  1.00  0.00     0.029 A 
ATOM     59  C   UNL     1       0.202  -0.032   0.530  1.00  0.00     0.049 A 
ATOM     60  H   UNL     1       0.556   0.958  -1.898  1.00  0.00     0.167 HD
ATOM     61  C   UNL     1       6.154  -2.666   1.794  1.00  0.00     0.034 A 
ATOM     62  C   UNL     1      -0.488  -0.970   0.228  1.00  0.00     0.034 A 
ATOM     63  C   UNL     1       4.993  -2.659   2.703  1.00  0.00     0.049 A 
ATOM     64  C   UNL     1      -0.739  -2.244   1.467  1.00  0.00     0.074 A 
ATOM     65  C   UNL     1       4.529  -1.847   3.721  1.00  0.00     0.029 A 
ATOM     66  N   UNL     1       3.975  -3.567   2.468  1.00  0.00    -0.354 N 
ATOM     67  N   UNL     1       0.125  -2.385   2.466  1.00  0.00    -0.248 NA
ATOM     68  C   UNL     1      -1.481  -3.492   1.251  1.00  0.00     0.031 C 
ATOM     69  C   UNL     1       3.157  -2.194   3.968  1.00  0.00     0.029 A 
ATOM     70  C   UNL     1       2.828  -3.299   3.200  1.00  0.00     0.049 A 
ATOM     71  H   UNL     1       4.058  -4.326   1.845  1.00  0.00     0.167 HD
ATOM     72  C   UNL     1       0.482  -3.711   2.522  1.00  0.00     0.074 A 
ATOM     73  C   UNL     1      -0.606  -4.363   1.782  1.00  0.00     0.031 C 
ATOM     74  C   UNL     1       1.688  -4.199   2.997  1.00  0.00     0.034 A 
BRANCH  61  75
ATOM     75  C   UNL     1       7.593  -2.674   2.380  1.00  0.00     0.023 A 
ATOM     76  C   UNL     1       7.718  -2.645   3.794  1.00  0.00     0.031 A 
ATOM     77  C   UNL     1       8.838  -2.648   1.710  1.00  0.00     0.131 A 
ATOM     78  C   UNL     1       8.952  -2.540   4.471  1.00  0.00     0.055 A 
ATOM     79  C   UNL     1      10.085  -2.582   2.388  1.00  0.00     0.041 A 
ATOM     80  F   UNL     1       8.930  -2.680   0.376  1.00  0.00    -0.206 F 
ATOM     81  C   UNL     1      10.149  -2.515   3.775  1.00  0.00     0.022 A 
BRANCH  78  82
ATOM     82  S   UNL     1       8.935  -2.389   6.284  1.00  0.00     0.124 S 
ATOM     83  O   UNL     1       8.217  -1.134   6.477  1.00  0.00    -0.237 OA
ATOM     84  O   UNL     1       8.236  -3.603   6.690  1.00  0.00    -0.237 OA
ATOM     85  O   UNL     1      10.353  -2.347   6.639  1.00  0.00    -0.744 OA
ENDBRANCH  78  82
ENDBRANCH  61  75
BRANCH  62  86
ATOM     86  C   UNL     1      -0.319  -0.918  -2.007  1.00  0.00     0.023 A 
ATOM     87  C   UNL     1      -0.972   0.243  -2.939  1.00  0.00     0.031 A 
ATOM     88  C   UNL     1       0.162  -1.907  -3.040  1.00  0.00     0.131 A 
ATOM     89  C   UNL     1      -0.919   0.417  -4.336  1.00  0.00     0.055 A 
ATOM     90  C   UNL     1       0.129  -1.716  -4.461  1.00  0.00     0.041 A 
ATOM     91  F   UNL     1       0.727  -3.089  -2.706  1.00  0.00    -0.206 F 
ATOM     92  C   UNL     1      -0.302  -0.548  -5.094  1.00  0.00     0.022 A 
BRANCH  89  93
ATOM     93  S   UNL     1      -1.310   2.073  -5.048  1.00  0.00     0.124 S 
ATOM     94  O   UNL     1      -2.705   1.939  -5.440  1.00  0.00    -0.237 OA
ATOM     95  O   UNL     1      -1.040   2.989  -3.940  1.00  0.00    -0.237 OA
ATOM     96  O   UNL     1      -0.342   2.175  -6.140  1.00  0.00    -0.744 OA
ENDBRANCH  89  93
ENDBRANCH  62  86
BRANCH  74  97
ATOM     97  C   UNL     1       1.898  -5.673   3.304  1.00  0.00     0.023 A 
ATOM     98  C   UNL     1       0.787  -6.504   3.385  1.00  0.00     0.031 A 
ATOM     99  C   UNL     1       3.112  -6.276   3.713  1.00  0.00     0.131 A 
ATOM    100  C   UNL     1       0.861  -7.846   3.740  1.00  0.00     0.055 A 
ATOM    101  C   UNL     1       3.187  -7.604   4.157  1.00  0.00     0.041 A 
ATOM    102  F   UNL     1       4.276  -5.613   3.755  1.00  0.00    -0.206 F 
ATOM    103  C   UNL     1       2.053  -8.406   4.166  1.00  0.00     0.022 A 
BRANCH 100 104
ATOM    104  S   UNL     1      -0.695  -8.748   3.658  1.00  0.00     0.124 S 
ATOM    105  O   UNL     1      -1.603  -7.872   4.394  1.00  0.00    -0.237 OA
ATOM    106  O   UNL     1      -0.921  -8.810   2.216  1.00  0.00    -0.237 OA
ATOM    107  O   UNL     1      -0.388 -10.018   4.306  1.00  0.00    -0.744 OA
ENDBRANCH 100 104
ENDBRANCH  74  97
ENDBRANCH  48  49
ENDBRANCH  41  43
ENDBRANCH  40  41
ENDBRANCH  39  40
ENDBRANCH  38  39
ENDBRANCH   1  38
TORSDOF 23
