REMARK SMILES COc1cccc([C@H]2SC[C@@H](C(=O)OCCOCCOC(=O)c3ccc(-c4c5nc(c(-c6cc(S(=O)(=O)[O-])ccc6F)c6ccc([nH]6)c(-c6cc(S(=O)(=O)[O-])ccc6F)c6nc(c(-c7cc(S(=O)(=O)[O-])ccc7F)c7ccc4[nH]7)C=C6)C=C5)cc3)N2C(C)=O)c1
REMARK SMILES IDX 18 1 17 2 16 3 15 4 14 5 12 6 13 7 11 8 8 9 9 10 86 11 10 12
REMARK SMILES IDX 7 13 3 14 4 15 90 16 5 17 6 18 2 19 1 20 87 21 88 22 89 23
REMARK SMILES IDX 19 24 20 25 21 26 22 27 23 28 24 29 85 30 25 31 84 32 26 33
REMARK SMILES IDX 27 34 28 35 78 36 29 37 83 38 77 39 79 40 30 41 82 42 76 43
REMARK SMILES IDX 75 44 31 46 63 47 43 48 62 49 44 50 47 51 61 52 80 53 45 54
REMARK SMILES IDX 46 55 60 57 81 58 48 59 32 60 33 61 41 62 34 63 40 64 42 65
REMARK SMILES IDX 39 66 35 67 36 68 37 69 38 70 64 71 65 72 73 73 66 74 72 75
REMARK SMILES IDX 74 76 71 77 67 78 68 79 69 80 70 81 49 82 50 83 58 84 51 85
REMARK SMILES IDX 57 86 59 87 56 88 52 89 53 90 54 91 55 92
REMARK H PARENT 79 45 47 56
REMARK Flexibility Score: inf
ROOT
ATOM      1  C   UNL     1       5.040  -1.680  -4.805  1.00  0.00     0.202 C 
ENDROOT
BRANCH   1   2
ATOM      2  O   UNL     1       4.466  -2.800  -4.137  1.00  0.00    -0.374 OA
BRANCH   2   3
ATOM      3  C   UNL     1       3.308  -2.540  -3.340  1.00  0.00     0.202 C 
BRANCH   3   4
ATOM      4  C   UNL     1       3.573  -1.818  -2.016  1.00  0.00     0.261 C 
BRANCH   4   5
ATOM      5  O   UNL     1       4.059  -0.474  -2.225  1.00  0.00    -0.462 OA
BRANCH   5   6
ATOM      6  C   UNL     1       5.087  -0.074  -1.436  1.00  0.00     0.329 C 
ATOM      7  O   UNL     1       5.589  -0.757  -0.548  1.00  0.00    -0.250 OA
BRANCH   6   8
ATOM      8  C   UNL     1       5.547   1.373  -1.694  1.00  0.00     0.206 C 
ATOM      9  C   UNL     1       4.043   3.140  -2.550  1.00  0.00     0.175 C 
ATOM     10  S   UNL     1       4.489   3.717  -0.884  1.00  0.00    -0.129 SA
ATOM     11  N   UNL     1       5.002   2.092  -2.861  1.00  0.00    -0.312 N 
ATOM     12  C   UNL     1       5.261   2.158  -0.411  1.00  0.00     0.109 C 
BRANCH   9  13
ATOM     13  C   UNL     1       2.586   2.740  -2.678  1.00  0.00    -0.012 A 
ATOM     14  C   UNL     1       0.605   1.511  -1.940  1.00  0.00     0.119 A 
ATOM     15  C   UNL     1      -0.145   2.129  -2.937  1.00  0.00     0.046 A 
ATOM     16  C   UNL     1       1.959   1.827  -1.808  1.00  0.00     0.053 A 
ATOM     17  C   UNL     1       0.450   3.035  -3.811  1.00  0.00     0.004 A 
ATOM     18  C   UNL     1       1.808   3.326  -3.692  1.00  0.00     0.007 A 
BRANCH  14  19
ATOM     19  O   UNL     1      -0.078   0.603  -1.180  1.00  0.00    -0.497 OA
ATOM     20  C   UNL     1       0.494   0.249   0.072  1.00  0.00     0.278 C 
ENDBRANCH  14  19
ENDBRANCH   9  13
BRANCH  11  21
ATOM     21  C   UNL     1       5.509   2.055  -4.147  1.00  0.00     0.221 C 
ATOM     22  C   UNL     1       6.791   1.295  -4.393  1.00  0.00     0.114 C 
ATOM     23  O   UNL     1       5.015   2.702  -5.072  1.00  0.00    -0.275 OA
ENDBRANCH  11  21
ENDBRANCH   6   8
ENDBRANCH   5   6
ENDBRANCH   4   5
ENDBRANCH   3   4
ENDBRANCH   2   3
ENDBRANCH   1   2
BRANCH   1  24
ATOM     24  C   UNL     1       4.351  -1.198  -6.086  1.00  0.00     0.261 C 
BRANCH  24  25
ATOM     25  O   UNL     1       3.010  -0.741  -5.861  1.00  0.00    -0.460 OA
BRANCH  25  26
ATOM     26  C   UNL     1       2.053  -1.571  -6.341  1.00  0.00     0.338 C 
ATOM     27  O   UNL     1       2.235  -2.619  -6.948  1.00  0.00    -0.246 OA
BRANCH  26  28
ATOM     28  C   UNL     1       0.714  -1.140  -5.904  1.00  0.00     0.060 A 
ATOM     29  C   UNL     1      -0.123  -2.116  -5.348  1.00  0.00     0.016 A 
ATOM     30  C   UNL     1       0.243   0.155  -6.125  1.00  0.00     0.016 A 
ATOM     31  C   UNL     1      -1.453  -1.817  -5.064  1.00  0.00     0.010 A 
ATOM     32  C   UNL     1      -1.098   0.449  -5.848  1.00  0.00     0.010 A 
ATOM     33  C   UNL     1      -1.960  -0.543  -5.348  1.00  0.00    -0.014 A 
BRANCH  33  34
ATOM     34  C   UNL     1      -3.424  -0.308  -5.271  1.00  0.00     0.031 A 
ATOM     35  C   UNL     1      -4.224  -0.295  -6.547  1.00  0.00     0.074 A 
ATOM     36  C   UNL     1      -4.037  -0.155  -4.082  1.00  0.00     0.049 A 
ATOM     37  N   UNL     1      -5.505  -0.102  -6.724  1.00  0.00    -0.248 NA
ATOM     38  C   UNL     1      -3.473  -0.531  -7.790  1.00  0.00     0.031 C 
ATOM     39  C   UNL     1      -3.374  -0.197  -2.780  1.00  0.00     0.029 A 
ATOM     40  N   UNL     1      -5.357   0.069  -3.779  1.00  0.00    -0.354 N 
ATOM     41  C   UNL     1      -5.715  -0.195  -8.097  1.00  0.00     0.074 A 
ATOM     42  C   UNL     1      -4.421  -0.413  -8.707  1.00  0.00     0.031 C 
ATOM     43  C   UNL     1      -4.288   0.013  -1.817  1.00  0.00     0.029 A 
ATOM     44  C   UNL     1      -5.595   0.225  -2.433  1.00  0.00     0.049 A 
ATOM     45  H   UNL     1      -6.066   0.113  -4.460  1.00  0.00     0.167 HD
ATOM     46  C   UNL     1      -6.882  -0.119  -8.783  1.00  0.00     0.034 A 
ATOM     47  C   UNL     1      -6.736   0.523  -1.778  1.00  0.00     0.034 A 
ATOM     48  C   UNL     1      -8.164   0.106  -8.160  1.00  0.00     0.049 A 
ATOM     49  C   UNL     1      -8.011   0.684  -2.571  1.00  0.00     0.074 A 
ATOM     50  C   UNL     1      -9.411   0.184  -8.754  1.00  0.00     0.029 A 
ATOM     51  N   UNL     1      -8.360   0.302  -6.798  1.00  0.00    -0.354 N 
ATOM     52  N   UNL     1      -8.198   0.578  -3.866  1.00  0.00    -0.248 NA
ATOM     53  C   UNL     1      -9.229   0.992  -1.810  1.00  0.00     0.031 C 
ATOM     54  C   UNL     1     -10.350   0.494  -7.763  1.00  0.00     0.029 A 
ATOM     55  C   UNL     1      -9.702   0.534  -6.539  1.00  0.00     0.049 A 
ATOM     56  H   UNL     1      -7.650   0.280  -6.117  1.00  0.00     0.167 HD
ATOM     57  C   UNL     1      -9.562   0.771  -4.070  1.00  0.00     0.074 A 
ATOM     58  C   UNL     1     -10.149   0.990  -2.764  1.00  0.00     0.031 C 
ATOM     59  C   UNL     1     -10.269   0.761  -5.230  1.00  0.00     0.034 A 
BRANCH  46  60
ATOM     60  C   UNL     1      -6.810  -0.233 -10.287  1.00  0.00     0.023 A 
ATOM     61  C   UNL     1      -6.387  -1.414 -10.923  1.00  0.00     0.031 A 
ATOM     62  C   UNL     1      -7.141   0.868 -11.097  1.00  0.00     0.131 A 
ATOM     63  C   UNL     1      -6.242  -1.445 -12.318  1.00  0.00     0.055 A 
ATOM     64  C   UNL     1      -7.066   0.807 -12.490  1.00  0.00     0.041 A 
ATOM     65  F   UNL     1      -7.530   2.029 -10.547  1.00  0.00    -0.206 F 
ATOM     66  C   UNL     1      -6.601  -0.350 -13.108  1.00  0.00     0.022 A 
BRANCH  63  67
ATOM     67  S   UNL     1      -5.451  -2.890 -13.079  1.00  0.00     0.124 S 
ATOM     68  O   UNL     1      -4.143  -2.887 -12.429  1.00  0.00    -0.237 OA
ATOM     69  O   UNL     1      -6.349  -3.975 -12.704  1.00  0.00    -0.237 OA
ATOM     70  O   UNL     1      -5.431  -2.560 -14.503  1.00  0.00    -0.744 OA
ENDBRANCH  63  67
ENDBRANCH  46  60
BRANCH  47  71
ATOM     71  C   UNL     1      -6.729   0.722  -0.300  1.00  0.00     0.023 A 
ATOM     72  C   UNL     1      -7.449  -0.129   0.554  1.00  0.00     0.031 A 
ATOM     73  C   UNL     1      -6.043   1.806   0.276  1.00  0.00     0.131 A 
ATOM     74  C   UNL     1      -7.503   0.145   1.931  1.00  0.00     0.055 A 
ATOM     75  C   UNL     1      -6.058   2.045   1.651  1.00  0.00     0.041 A 
ATOM     76  F   UNL     1      -5.340   2.651  -0.495  1.00  0.00    -0.206 F 
ATOM     77  C   UNL     1      -6.803   1.218   2.486  1.00  0.00     0.022 A 
BRANCH  74  78
ATOM     78  S   UNL     1      -8.575  -0.877   2.980  1.00  0.00     0.124 S 
ATOM     79  O   UNL     1      -9.874  -0.699   2.342  1.00  0.00    -0.237 OA
ATOM     80  O   UNL     1      -7.966  -2.196   2.840  1.00  0.00    -0.237 OA
ATOM     81  O   UNL     1      -8.438  -0.268   4.301  1.00  0.00    -0.744 OA
ENDBRANCH  74  78
ENDBRANCH  47  71
BRANCH  59  82
ATOM     82  C   UNL     1     -11.763   0.946  -5.123  1.00  0.00     0.023 A 
ATOM     83  C   UNL     1     -12.331   2.165  -4.713  1.00  0.00     0.031 A 
ATOM     84  C   UNL     1     -12.629  -0.119  -5.429  1.00  0.00     0.131 A 
ATOM     85  C   UNL     1     -13.722   2.271  -4.565  1.00  0.00     0.055 A 
ATOM     86  C   UNL     1     -14.015   0.011  -5.337  1.00  0.00     0.041 A 
ATOM     87  F   UNL     1     -12.140  -1.305  -5.825  1.00  0.00    -0.206 F 
ATOM     88  C   UNL     1     -14.568   1.208  -4.891  1.00  0.00     0.022 A 
BRANCH  85  89
ATOM     89  S   UNL     1     -14.409   3.793  -3.857  1.00  0.00     0.124 S 
ATOM     90  O   UNL     1     -13.750   3.847  -2.556  1.00  0.00    -0.237 OA
ATOM     91  O   UNL     1     -13.995   4.804  -4.824  1.00  0.00    -0.237 OA
ATOM     92  O   UNL     1     -15.847   3.533  -3.812  1.00  0.00    -0.744 OA
ENDBRANCH  85  89
ENDBRANCH  59  82
ENDBRANCH  33  34
ENDBRANCH  26  28
ENDBRANCH  25  26
ENDBRANCH  24  25
ENDBRANCH   1  24
TORSDOF 20
