REMARK SMILES COC(=O)c1ccc(C)c2c1[C@H]1C=CC[C@H]1[C@@H](c1ccc(C(=O)OCCOCCOC(=O)c3ccc(-c4c5nc(c(-c6cc(S(=O)(=O)[O-])ccc6F)c6ccc([nH]6)c(-c6cc(S(=O)(=O)[O-])ccc6F)c6nc(c(-c7cc(S(=O)(=O)[O-])ccc7F)c7ccc4[nH]7)C=C6)C=C5)cc3)cc1)N2
REMARK SMILES IDX 27 1 26 2 25 3 24 4 22 5 23 6 21 7 18 8 19 9 97 10 20 11
REMARK SMILES IDX 96 12 17 13 5 14 6 15 11 16 7 17 10 18 12 19 8 20 98 21
REMARK SMILES IDX 13 22 16 23 9 24 14 26 15 27 3 28 4 29 2 30 1 31 28 32 29 33
REMARK SMILES IDX 30 34 31 35 32 36 33 37 34 38 95 39 35 40 94 41 36 42 37 43
REMARK SMILES IDX 38 44 88 45 39 46 93 47 87 48 89 49 40 50 92 51 86 52 85 53
REMARK SMILES IDX 41 55 73 56 53 57 72 58 54 59 57 60 71 61 90 62 55 63 56 64
REMARK SMILES IDX 70 66 91 67 58 68 42 69 43 70 51 71 44 72 50 73 52 74 49 75
REMARK SMILES IDX 45 76 46 77 47 78 48 79 74 80 75 81 83 82 76 83 82 84 84 85
REMARK SMILES IDX 81 86 77 87 78 88 79 89 80 90 59 91 60 92 68 93 61 94 67 95
REMARK SMILES IDX 69 96 66 97 62 98 63 99 64 100 65 101
REMARK H PARENT 98 25 89 54 57 65
REMARK Flexibility Score: inf
ROOT
ATOM      1  O   UNL     1       5.179   1.232   6.974  1.00  0.00    -0.374 OA
ENDROOT
BRANCH   1   2
ATOM      2  C   UNL     1       6.055   0.854   8.035  1.00  0.00     0.202 C 
BRANCH   2   3
ATOM      3  C   UNL     1       5.618  -0.327   8.905  1.00  0.00     0.261 C 
BRANCH   3   4
ATOM      4  O   UNL     1       5.449  -1.518   8.123  1.00  0.00    -0.460 OA
BRANCH   4   5
ATOM      5  C   UNL     1       4.164  -1.922   7.990  1.00  0.00     0.338 C 
ATOM      6  O   UNL     1       3.189  -1.480   8.577  1.00  0.00    -0.246 OA
BRANCH   5   7
ATOM      7  C   UNL     1       4.045  -2.854   6.849  1.00  0.00     0.060 A 
ATOM      8  C   UNL     1       3.630  -4.551   4.625  1.00  0.00    -0.025 A 
ATOM      9  C   UNL     1       2.747  -3.499   4.924  1.00  0.00     0.007 A 
ATOM     10  C   UNL     1       4.759  -4.701   5.455  1.00  0.00     0.007 A 
ATOM     11  C   UNL     1       2.939  -2.671   6.024  1.00  0.00     0.016 A 
ATOM     12  C   UNL     1       4.975  -3.853   6.554  1.00  0.00     0.016 A 
BRANCH   8  13
ATOM     13  C   UNL     1       3.377  -5.533   3.473  1.00  0.00     0.114 C 
ATOM     14  C   UNL     1       0.356  -3.365   1.393  1.00  0.00     0.065 A 
ATOM     15  C   UNL     1      -0.956  -3.416   1.872  1.00  0.00     0.016 A 
ATOM     16  C   UNL     1       1.351  -4.231   1.899  1.00  0.00    -0.003 A 
ATOM     17  C   UNL     1      -1.297  -4.345   2.846  1.00  0.00     0.006 A 
ATOM     18  C   UNL     1       0.997  -5.178   2.897  1.00  0.00     0.042 A 
ATOM     19  C   UNL     1       2.783  -4.143   1.402  1.00  0.00     0.050 C 
ATOM     20  C   UNL     1      -0.338  -5.233   3.365  1.00  0.00    -0.028 A 
ATOM     21  N   UNL     1       1.983  -5.970   3.477  1.00  0.00    -0.377 N 
ATOM     22  C   UNL     1       3.518  -2.848   1.657  1.00  0.00    -0.023 C 
ATOM     23  C   UNL     1       3.760  -5.156   2.029  1.00  0.00     0.031 C 
ATOM     24  C   UNL     1      -0.811  -6.156   4.460  1.00  0.00     0.046 C 
ATOM     25  H   UNL     1       1.740  -6.829   3.891  1.00  0.00     0.161 HD
ATOM     26  C   UNL     1       4.817  -3.056   1.904  1.00  0.00    -0.030 C 
ATOM     27  C   UNL     1       5.145  -4.513   1.897  1.00  0.00     0.034 C 
BRANCH  14  28
ATOM     28  C   UNL     1       0.661  -2.370   0.347  1.00  0.00     0.338 C 
ATOM     29  O   UNL     1       1.118  -2.638  -0.755  1.00  0.00    -0.246 OA
BRANCH  28  30
ATOM     30  O   UNL     1       0.413  -1.135   0.848  1.00  0.00    -0.465 OA
ATOM     31  C   UNL     1       0.820  -0.069  -0.010  1.00  0.00     0.282 C 
ENDBRANCH  28  30
ENDBRANCH  14  28
ENDBRANCH   8  13
ENDBRANCH   5   7
ENDBRANCH   4   5
ENDBRANCH   3   4
ENDBRANCH   2   3
ENDBRANCH   1   2
BRANCH   1  32
ATOM     32  C   UNL     1       5.276   0.486   5.756  1.00  0.00     0.202 C 
BRANCH  32  33
ATOM     33  C   UNL     1       6.498   0.760   4.870  1.00  0.00     0.261 C 
BRANCH  33  34
ATOM     34  O   UNL     1       7.700   0.192   5.423  1.00  0.00    -0.460 OA
BRANCH  34  35
ATOM     35  C   UNL     1       8.626   1.089   5.839  1.00  0.00     0.338 C 
ATOM     36  O   UNL     1       8.580   2.304   5.731  1.00  0.00    -0.246 OA
BRANCH  35  37
ATOM     37  C   UNL     1       9.646   0.397   6.646  1.00  0.00     0.060 A 
ATOM     38  C   UNL     1       9.782   0.766   7.991  1.00  0.00     0.016 A 
ATOM     39  C   UNL     1      10.507  -0.539   6.072  1.00  0.00     0.016 A 
ATOM     40  C   UNL     1      10.806   0.224   8.762  1.00  0.00     0.010 A 
ATOM     41  C   UNL     1      11.548  -1.065   6.841  1.00  0.00     0.010 A 
ATOM     42  C   UNL     1      11.721  -0.658   8.176  1.00  0.00    -0.014 A 
BRANCH  42  43
ATOM     43  C   UNL     1      12.957  -1.015   8.907  1.00  0.00     0.031 A 
ATOM     44  C   UNL     1      14.203  -0.216   8.649  1.00  0.00     0.074 A 
ATOM     45  C   UNL     1      12.966  -2.022   9.797  1.00  0.00     0.049 A 
ATOM     46  N   UNL     1      15.399  -0.368   9.150  1.00  0.00    -0.248 NA
ATOM     47  C   UNL     1      14.083   0.903   7.699  1.00  0.00     0.031 C 
ATOM     48  C   UNL     1      11.808  -2.838  10.151  1.00  0.00     0.029 A 
ATOM     49  N   UNL     1      13.989  -2.536  10.553  1.00  0.00    -0.354 N 
ATOM     50  C   UNL     1      16.175   0.634   8.582  1.00  0.00     0.074 A 
ATOM     51  C   UNL     1      15.324   1.368   7.672  1.00  0.00     0.031 C 
ATOM     52  C   UNL     1      12.190  -3.768  11.043  1.00  0.00     0.029 A 
ATOM     53  C   UNL     1      13.625  -3.630  11.299  1.00  0.00     0.049 A 
ATOM     54  H   UNL     1      14.898  -2.156  10.560  1.00  0.00     0.167 HD
ATOM     55  C   UNL     1      17.476   0.923   8.811  1.00  0.00     0.034 A 
ATOM     56  C   UNL     1      14.367  -4.441  12.082  1.00  0.00     0.034 A 
ATOM     57  C   UNL     1      18.315   0.181   9.714  1.00  0.00     0.049 A 
ATOM     58  C   UNL     1      15.832  -4.141  12.276  1.00  0.00     0.074 A 
ATOM     59  C   UNL     1      19.643   0.409  10.025  1.00  0.00     0.029 A 
ATOM     60  N   UNL     1      17.915  -0.927  10.445  1.00  0.00    -0.354 N 
ATOM     61  N   UNL     1      16.544  -3.158  11.774  1.00  0.00    -0.248 NA
ATOM     62  C   UNL     1      16.597  -5.046  13.146  1.00  0.00     0.031 C 
ATOM     63  C   UNL     1      20.062  -0.594  10.899  1.00  0.00     0.029 A 
ATOM     64  C   UNL     1      18.979  -1.410  11.187  1.00  0.00     0.049 A 
ATOM     65  H   UNL     1      17.010  -1.314  10.437  1.00  0.00     0.167 HD
ATOM     66  C   UNL     1      17.829  -3.311  12.289  1.00  0.00     0.074 A 
ATOM     67  C   UNL     1      17.795  -4.473  13.152  1.00  0.00     0.031 C 
ATOM     68  C   UNL     1      18.933  -2.555  12.064  1.00  0.00     0.034 A 
BRANCH  55  69
ATOM     69  C   UNL     1      18.090   2.090   8.086  1.00  0.00     0.023 A 
ATOM     70  C   UNL     1      19.120   1.874   7.154  1.00  0.00     0.031 A 
ATOM     71  C   UNL     1      17.741   3.413   8.406  1.00  0.00     0.131 A 
ATOM     72  C   UNL     1      19.795   2.969   6.601  1.00  0.00     0.055 A 
ATOM     73  C   UNL     1      18.392   4.501   7.825  1.00  0.00     0.041 A 
ATOM     74  F   UNL     1      16.758   3.665   9.286  1.00  0.00    -0.206 F 
ATOM     75  C   UNL     1      19.433   4.281   6.927  1.00  0.00     0.022 A 
BRANCH  72  76
ATOM     76  S   UNL     1      21.196   2.731   5.475  1.00  0.00     0.124 S 
ATOM     77  O   UNL     1      20.790   3.525   4.317  1.00  0.00    -0.237 OA
ATOM     78  O   UNL     1      22.305   3.279   6.250  1.00  0.00    -0.237 OA
ATOM     79  O   UNL     1      21.227   1.290   5.255  1.00  0.00    -0.744 OA
ENDBRANCH  72  76
ENDBRANCH  55  69
BRANCH  56  80
ATOM     80  C   UNL     1      13.705  -5.593  12.756  1.00  0.00     0.023 A 
ATOM     81  C   UNL     1      13.146  -6.641  12.003  1.00  0.00     0.031 A 
ATOM     82  C   UNL     1      13.531  -5.611  14.149  1.00  0.00     0.131 A 
ATOM     83  C   UNL     1      12.385  -7.628  12.641  1.00  0.00     0.055 A 
ATOM     84  C   UNL     1      12.825  -6.631  14.789  1.00  0.00     0.041 A 
ATOM     85  F   UNL     1      14.041  -4.627  14.906  1.00  0.00    -0.206 F 
ATOM     86  C   UNL     1      12.234  -7.639  14.031  1.00  0.00     0.022 A 
BRANCH  83  87
ATOM     87  S   UNL     1      11.482  -8.872  11.677  1.00  0.00     0.124 S 
ATOM     88  O   UNL     1      11.926 -10.120  12.291  1.00  0.00    -0.237 OA
ATOM     89  O   UNL     1      10.095  -8.498  11.940  1.00  0.00    -0.237 OA
ATOM     90  O   UNL     1      11.940  -8.648  10.310  1.00  0.00    -0.744 OA
ENDBRANCH  83  87
ENDBRANCH  56  80
BRANCH  68  91
ATOM     91  C   UNL     1      20.221  -2.919  12.761  1.00  0.00     0.023 A 
ATOM     92  C   UNL     1      20.795  -2.021  13.683  1.00  0.00     0.031 A 
ATOM     93  C   UNL     1      20.961  -4.052  12.385  1.00  0.00     0.131 A 
ATOM     94  C   UNL     1      22.092  -2.247  14.160  1.00  0.00     0.055 A 
ATOM     95  C   UNL     1      22.235  -4.296  12.899  1.00  0.00     0.041 A 
ATOM     96  F   UNL     1      20.460  -4.930  11.502  1.00  0.00    -0.206 F 
ATOM     97  C   UNL     1      22.812  -3.383  13.779  1.00  0.00     0.022 A 
BRANCH  94  98
ATOM     98  S   UNL     1      22.919  -1.037  15.229  1.00  0.00     0.124 S 
ATOM     99  O   UNL     1      23.289  -1.854  16.383  1.00  0.00    -0.237 OA
ATOM    100  O   UNL     1      24.032  -0.599  14.392  1.00  0.00    -0.237 OA
ATOM    101  O   UNL     1      21.891  -0.033  15.486  1.00  0.00    -0.744 OA
ENDBRANCH  94  98
ENDBRANCH  68  91
ENDBRANCH  42  43
ENDBRANCH  35  37
ENDBRANCH  34  35
ENDBRANCH  33  34
ENDBRANCH  32  33
ENDBRANCH   1  32
TORSDOF 20
