REMARK SMILES CC(C)n1c([C@H](O)CC(=O)OCCOCCOC(=O)c2ccc(-c3c4nc(c(-c5cc(S(=O)(=O)[O-])ccc5F)c5ccc([nH]5)c(-c5cc(S(=O)(=O)[O-])ccc5F)c5nc(c(-c6cc(S(=O)(=O)[O-])ccc6F)c6ccc3[nH]6)C=C5)C=C4)cc2)nc2cc(Cl)ccc21
REMARK SMILES IDX 14 1 13 2 12 3 11 4 9 5 10 6 8 7 6 8 5 9 4 10 90 11 83 12
REMARK SMILES IDX 84 13 89 14 85 15 88 16 86 17 87 18 2 19 1 20 3 21 7 22
REMARK SMILES IDX 15 24 16 25 17 26 18 27 19 28 20 29 21 30 82 31 22 32 81 33
REMARK SMILES IDX 23 34 24 35 25 36 75 37 26 38 80 39 74 40 76 41 27 42 79 43
REMARK SMILES IDX 73 44 72 45 28 47 60 48 40 49 59 50 41 51 44 52 58 53 77 54
REMARK SMILES IDX 42 55 43 56 57 58 78 59 45 60 29 61 30 62 38 63 31 64 37 65
REMARK SMILES IDX 39 66 36 67 32 68 33 69 34 70 35 71 61 72 62 73 70 74 63 75
REMARK SMILES IDX 69 76 71 77 68 78 64 79 65 80 66 81 67 82 46 83 47 84 55 85
REMARK SMILES IDX 48 86 54 87 56 88 53 89 49 90 50 91 51 92 52 93
REMARK H PARENT 7 23 76 46 44 57
REMARK Flexibility Score: inf
ROOT
ATOM      1  O   UNL     1       1.653   3.197  -3.789  1.00  0.00    -0.374 OA
ENDROOT
BRANCH   1   2
ATOM      2  C   UNL     1       0.626   4.096  -3.377  1.00  0.00     0.202 C 
BRANCH   2   3
ATOM      3  C   UNL     1      -0.832   3.653  -3.541  1.00  0.00     0.261 C 
BRANCH   3   4
ATOM      4  O   UNL     1      -0.997   2.348  -2.977  1.00  0.00    -0.463 OA
BRANCH   4   5
ATOM      5  C   UNL     1      -1.461   1.393  -3.819  1.00  0.00     0.308 C 
ATOM      6  O   UNL     1      -1.969   1.597  -4.913  1.00  0.00    -0.252 OA
BRANCH   5   7
ATOM      7  C   UNL     1      -1.091   0.016  -3.343  1.00  0.00     0.162 C 
BRANCH   7   8
ATOM      8  C   UNL     1      -1.172  -0.289  -1.849  1.00  0.00     0.191 C 
BRANCH   8   9
ATOM      9  C   UNL     1      -2.248  -1.287  -1.531  1.00  0.00     0.139 A 
ATOM     10  N   UNL     1      -3.620  -1.153  -1.685  1.00  0.00    -0.323 N 
ATOM     11  C   UNL     1      -4.173  -2.411  -1.469  1.00  0.00     0.069 A 
ATOM     12  N   UNL     1      -1.938  -2.511  -1.133  1.00  0.00    -0.230 NA
ATOM     13  C   UNL     1      -3.103  -3.211  -1.094  1.00  0.00     0.090 A 
ATOM     14  C   UNL     1      -5.477  -2.913  -1.571  1.00  0.00     0.030 A 
ATOM     15  C   UNL     1      -3.306  -4.559  -0.769  1.00  0.00     0.051 A 
ATOM     16  C   UNL     1      -5.669  -4.263  -1.257  1.00  0.00     0.023 A 
ATOM     17  C   UNL     1      -4.602  -5.066  -0.857  1.00  0.00     0.043 A 
ATOM     18  Cl  UNL     1      -4.885  -6.723  -0.475  1.00  0.00    -0.084 Cl
BRANCH  10  19
ATOM     19  C   UNL     1      -4.437   0.002  -2.064  1.00  0.00     0.083 C 
ATOM     20  C   UNL     1      -4.119   1.327  -1.374  1.00  0.00     0.031 C 
ATOM     21  C   UNL     1      -4.598   0.135  -3.580  1.00  0.00     0.031 C 
ENDBRANCH  10  19
ENDBRANCH   8   9
BRANCH   8  22
ATOM     22  O   UNL     1      -1.267   0.779  -0.926  1.00  0.00    -0.385 OA
ATOM     23  H   UNL     1      -2.141   1.194  -1.000  1.00  0.00     0.211 HD
ENDBRANCH   8  22
ENDBRANCH   7   8
ENDBRANCH   5   7
ENDBRANCH   4   5
ENDBRANCH   3   4
ENDBRANCH   2   3
ENDBRANCH   1   2
BRANCH   1  24
ATOM     24  C   UNL     1       1.924   2.056  -2.979  1.00  0.00     0.202 C 
BRANCH  24  25
ATOM     25  C   UNL     1       2.383   2.257  -1.526  1.00  0.00     0.261 C 
BRANCH  25  26
ATOM     26  O   UNL     1       1.340   2.827  -0.726  1.00  0.00    -0.460 OA
BRANCH  26  27
ATOM     27  C   UNL     1       1.811   3.696   0.227  1.00  0.00     0.338 C 
ATOM     28  O   UNL     1       2.877   3.655   0.785  1.00  0.00    -0.246 OA
BRANCH  27  29
ATOM     29  C   UNL     1       0.957   4.897   0.085  1.00  0.00     0.060 A 
ATOM     30  C   UNL     1      -0.428   4.812   0.209  1.00  0.00     0.016 A 
ATOM     31  C   UNL     1       1.571   6.000  -0.522  1.00  0.00     0.016 A 
ATOM     32  C   UNL     1      -1.218   5.810  -0.354  1.00  0.00     0.010 A 
ATOM     33  C   UNL     1       0.783   6.972  -1.130  1.00  0.00     0.010 A 
ATOM     34  C   UNL     1      -0.614   6.859  -1.071  1.00  0.00    -0.014 A 
BRANCH  34  35
ATOM     35  C   UNL     1      -1.459   7.911  -1.631  1.00  0.00     0.031 A 
ATOM     36  C   UNL     1      -1.905   8.933  -0.641  1.00  0.00     0.074 A 
ATOM     37  C   UNL     1      -1.691   8.103  -2.945  1.00  0.00     0.049 A 
ATOM     38  N   UNL     1      -3.111   9.265  -0.313  1.00  0.00    -0.248 NA
ATOM     39  C   UNL     1      -0.861   9.593   0.154  1.00  0.00     0.031 C 
ATOM     40  C   UNL     1      -1.060   7.435  -4.079  1.00  0.00     0.029 A 
ATOM     41  N   UNL     1      -2.472   9.043  -3.550  1.00  0.00    -0.354 N 
ATOM     42  C   UNL     1      -2.986  10.272   0.646  1.00  0.00     0.074 A 
ATOM     43  C   UNL     1      -1.588  10.333   0.988  1.00  0.00     0.031 C 
ATOM     44  C   UNL     1      -1.309   8.123  -5.213  1.00  0.00     0.029 A 
ATOM     45  C   UNL     1      -2.215   9.213  -4.904  1.00  0.00     0.049 A 
ATOM     46  H   UNL     1      -3.160   9.557  -3.068  1.00  0.00     0.167 HD
ATOM     47  C   UNL     1      -4.017  11.090   1.002  1.00  0.00     0.034 A 
ATOM     48  C   UNL     1      -2.630  10.231  -5.697  1.00  0.00     0.034 A 
ATOM     49  C   UNL     1      -5.275  10.593   0.523  1.00  0.00     0.049 A 
ATOM     50  C   UNL     1      -3.765  10.908  -5.028  1.00  0.00     0.074 A 
ATOM     51  C   UNL     1      -6.048   9.487   0.804  1.00  0.00     0.029 A 
ATOM     52  N   UNL     1      -5.771  11.115  -0.646  1.00  0.00    -0.354 N 
ATOM     53  N   UNL     1      -4.945  10.379  -4.873  1.00  0.00    -0.248 NA
ATOM     54  C   UNL     1      -3.452  12.014  -4.136  1.00  0.00     0.031 C 
ATOM     55  C   UNL     1      -6.647   9.132  -0.436  1.00  0.00     0.029 A 
ATOM     56  C   UNL     1      -6.237  10.064  -1.393  1.00  0.00     0.049 A 
ATOM     57  H   UNL     1      -5.789  12.066  -0.900  1.00  0.00     0.167 HD
ATOM     58  C   UNL     1      -5.335  10.766  -3.600  1.00  0.00     0.074 A 
ATOM     59  C   UNL     1      -4.429  11.855  -3.240  1.00  0.00     0.031 C 
ATOM     60  C   UNL     1      -6.161   9.989  -2.839  1.00  0.00     0.034 A 
BRANCH  47  61
ATOM     61  C   UNL     1      -3.862  12.469   1.591  1.00  0.00     0.023 A 
ATOM     62  C   UNL     1      -2.649  13.180   1.557  1.00  0.00     0.031 A 
ATOM     63  C   UNL     1      -4.987  13.195   2.034  1.00  0.00     0.131 A 
ATOM     64  C   UNL     1      -2.563  14.513   1.979  1.00  0.00     0.055 A 
ATOM     65  C   UNL     1      -4.917  14.549   2.389  1.00  0.00     0.041 A 
ATOM     66  F   UNL     1      -6.201  12.626   2.091  1.00  0.00    -0.206 F 
ATOM     67  C   UNL     1      -3.698  15.214   2.369  1.00  0.00     0.022 A 
BRANCH  64  68
ATOM     68  S   UNL     1      -0.957  15.353   2.033  1.00  0.00     0.124 S 
ATOM     69  O   UNL     1      -1.130  16.394   1.027  1.00  0.00    -0.237 OA
ATOM     70  O   UNL     1      -0.905  15.812   3.419  1.00  0.00    -0.237 OA
ATOM     71  O   UNL     1      -0.009  14.294   1.699  1.00  0.00    -0.744 OA
ENDBRANCH  64  68
ENDBRANCH  47  61
BRANCH  48  72
ATOM     72  C   UNL     1      -1.808  10.907  -6.728  1.00  0.00     0.023 A 
ATOM     73  C   UNL     1      -0.408  10.952  -6.576  1.00  0.00     0.031 A 
ATOM     74  C   UNL     1      -2.377  11.751  -7.695  1.00  0.00     0.131 A 
ATOM     75  C   UNL     1       0.368  11.839  -7.332  1.00  0.00     0.055 A 
ATOM     76  C   UNL     1      -1.598  12.626  -8.464  1.00  0.00     0.041 A 
ATOM     77  F   UNL     1      -3.707  11.788  -7.867  1.00  0.00    -0.206 F 
ATOM     78  C   UNL     1      -0.219  12.681  -8.276  1.00  0.00     0.022 A 
BRANCH  75  79
ATOM     79  S   UNL     1       2.152  11.964  -7.032  1.00  0.00     0.124 S 
ATOM     80  O   UNL     1       2.696  11.957  -8.388  1.00  0.00    -0.237 OA
ATOM     81  O   UNL     1       2.243  13.235  -6.322  1.00  0.00    -0.237 OA
ATOM     82  O   UNL     1       2.450  10.773  -6.242  1.00  0.00    -0.744 OA
ENDBRANCH  75  79
ENDBRANCH  48  72
BRANCH  60  83
ATOM     83  C   UNL     1      -6.831   8.784  -3.468  1.00  0.00     0.023 A 
ATOM     84  C   UNL     1      -8.202   8.602  -3.214  1.00  0.00     0.031 A 
ATOM     85  C   UNL     1      -6.133   7.710  -4.053  1.00  0.00     0.131 A 
ATOM     86  C   UNL     1      -8.813   7.370  -3.479  1.00  0.00     0.055 A 
ATOM     87  C   UNL     1      -6.766   6.509  -4.391  1.00  0.00     0.041 A 
ATOM     88  F   UNL     1      -4.806   7.744  -4.226  1.00  0.00    -0.206 F 
ATOM     89  C   UNL     1      -8.109   6.327  -4.084  1.00  0.00     0.022 A 
BRANCH  86  90
ATOM     90  S   UNL     1     -10.484   7.029  -2.868  1.00  0.00     0.124 S 
ATOM     91  O   UNL     1     -11.233   6.840  -4.106  1.00  0.00    -0.237 OA
ATOM     92  O   UNL     1     -10.279   5.820  -2.070  1.00  0.00    -0.237 OA
ATOM     93  O   UNL     1     -10.831   8.221  -2.100  1.00  0.00    -0.744 OA
ENDBRANCH  86  90
ENDBRANCH  60  83
ENDBRANCH  34  35
ENDBRANCH  27  29
ENDBRANCH  26  27
ENDBRANCH  25  26
ENDBRANCH  24  25
ENDBRANCH   1  24
TORSDOF 21
