REMARK SMILES C[C@H]1[C@@H](C(=O)OCCOCCOC(=O)c2ccc(-c3c4nc(c(-c5cc(S(=O)(=O)[O-])ccc5F)c5ccc([nH]5)c(-c5cc(S(=O)(=O)[O-])ccc5F)c5nc(c(-c6cc(S(=O)(=O)[O-])ccc6F)c6ccc3[nH]6)C=C5)C=C4)cc2)CCN1S(=O)(=O)c1c[nH]c2ncccc12
REMARK SMILES IDX 10 1 9 2 8 3 7 4 6 5 4 6 5 7 3 8 1 9 2 10 80 11 78 12 79 13
REMARK SMILES IDX 81 14 82 15 83 16 84 17 85 18 92 19 86 20 87 21 91 22 88 24
REMARK SMILES IDX 90 25 89 26 11 27 12 28 13 29 14 30 15 31 16 32 77 33 17 34
REMARK SMILES IDX 76 35 18 36 19 37 20 38 70 39 21 40 75 41 69 42 71 43 22 44
REMARK SMILES IDX 74 45 68 46 67 47 23 49 55 50 35 51 54 52 36 53 39 54 53 55
REMARK SMILES IDX 72 56 37 57 38 58 52 60 73 61 40 62 24 63 25 64 33 65 26 66
REMARK SMILES IDX 32 67 34 68 31 69 27 70 28 71 29 72 30 73 56 74 57 75 65 76
REMARK SMILES IDX 58 77 64 78 66 79 63 80 59 81 60 82 61 83 62 84 41 85 42 86
REMARK SMILES IDX 50 87 43 88 49 89 51 90 48 91 44 92 45 93 46 94 47 95
REMARK H PARENT 86 23 71 48 39 59
REMARK Flexibility Score: inf
ROOT
ATOM      1  C   UNL     1      -0.516   1.019  -3.261  1.00  0.00     0.202 C 
ENDROOT
BRANCH   1   2
ATOM      2  O   UNL     1       0.040   2.152  -3.924  1.00  0.00    -0.374 OA
BRANCH   2   3
ATOM      3  C   UNL     1       1.409   2.454  -3.633  1.00  0.00     0.202 C 
BRANCH   3   4
ATOM      4  C   UNL     1       1.629   3.277  -2.360  1.00  0.00     0.261 C 
BRANCH   4   5
ATOM      5  O   UNL     1       1.409   2.450  -1.199  1.00  0.00    -0.463 OA
BRANCH   5   6
ATOM      6  C   UNL     1       0.299   2.695  -0.474  1.00  0.00     0.310 C 
ATOM      7  O   UNL     1      -0.425   3.673  -0.625  1.00  0.00    -0.252 OA
BRANCH   6   8
ATOM      8  C   UNL     1      -0.032   1.610   0.536  1.00  0.00     0.118 C 
ATOM      9  C   UNL     1       1.943  -0.021  -0.225  1.00  0.00     0.027 C 
ATOM     10  C   UNL     1       0.831   0.351   0.749  1.00  0.00     0.084 C 
ATOM     11  N   UNL     1      -0.118  -0.811   0.782  1.00  0.00    -0.194 NA
ATOM     12  C   UNL     1      -1.461   1.102   0.316  1.00  0.00     0.034 C 
ATOM     13  C   UNL     1      -1.353  -0.392   0.088  1.00  0.00     0.104 C 
BRANCH  11  14
ATOM     14  S   UNL     1      -0.378  -1.579   2.277  1.00  0.00     0.245 S 
ATOM     15  O   UNL     1      -0.714  -0.552   3.240  1.00  0.00    -0.207 OA
ATOM     16  O   UNL     1      -1.260  -2.704   2.043  1.00  0.00    -0.207 OA
BRANCH  14  17
ATOM     17  C   UNL     1       1.100  -2.259   2.870  1.00  0.00     0.109 A 
ATOM     18  C   UNL     1       2.212  -1.531   3.269  1.00  0.00     0.106 A 
ATOM     19  C   UNL     1       1.379  -3.637   3.122  1.00  0.00     0.039 A 
ATOM     20  N   UNL     1       3.158  -2.413   3.716  1.00  0.00    -0.345 N 
ATOM     21  C   UNL     1       2.659  -3.682   3.671  1.00  0.00     0.138 A 
ATOM     22  C   UNL     1       0.715  -4.872   2.989  1.00  0.00     0.015 A 
ATOM     23  H   UNL     1       4.061  -2.169   4.023  1.00  0.00     0.168 HD
ATOM     24  N   UNL     1       3.335  -4.759   4.109  1.00  0.00    -0.239 NA
ATOM     25  C   UNL     1       1.372  -6.024   3.429  1.00  0.00     0.021 A 
ATOM     26  C   UNL     1       2.644  -5.910   3.969  1.00  0.00     0.113 A 
ENDBRANCH  14  17
ENDBRANCH  11  14
ENDBRANCH   6   8
ENDBRANCH   5   6
ENDBRANCH   4   5
ENDBRANCH   3   4
ENDBRANCH   2   3
ENDBRANCH   1   2
BRANCH   1  27
ATOM     27  C   UNL     1      -0.301  -0.341  -3.933  1.00  0.00     0.261 C 
BRANCH  27  28
ATOM     28  O   UNL     1       1.086  -0.707  -3.940  1.00  0.00    -0.460 OA
BRANCH  28  29
ATOM     29  C   UNL     1       1.704  -0.466  -5.121  1.00  0.00     0.338 C 
ATOM     30  O   UNL     1       1.178  -0.075  -6.150  1.00  0.00    -0.246 OA
BRANCH  29  31
ATOM     31  C   UNL     1       3.169  -0.553  -4.960  1.00  0.00     0.060 A 
ATOM     32  C   UNL     1       3.928   0.408  -5.638  1.00  0.00     0.016 A 
ATOM     33  C   UNL     1       3.796  -1.570  -4.233  1.00  0.00     0.016 A 
ATOM     34  C   UNL     1       5.311   0.296  -5.681  1.00  0.00     0.010 A 
ATOM     35  C   UNL     1       5.191  -1.675  -4.269  1.00  0.00     0.010 A 
ATOM     36  C   UNL     1       5.947  -0.778  -5.046  1.00  0.00    -0.014 A 
BRANCH  36  37
ATOM     37  C   UNL     1       7.366  -1.049  -5.385  1.00  0.00     0.031 A 
ATOM     38  C   UNL     1       7.678  -2.147  -6.368  1.00  0.00     0.074 A 
ATOM     39  C   UNL     1       8.344  -0.255  -4.914  1.00  0.00     0.049 A 
ATOM     40  N   UNL     1       8.828  -2.507  -6.876  1.00  0.00    -0.248 NA
ATOM     41  C   UNL     1       6.537  -2.947  -6.841  1.00  0.00     0.031 C 
ATOM     42  C   UNL     1       8.149   0.866  -3.994  1.00  0.00     0.029 A 
ATOM     43  N   UNL     1       9.693  -0.255  -5.162  1.00  0.00    -0.354 N 
ATOM     44  C   UNL     1       8.550  -3.571  -7.729  1.00  0.00     0.074 A 
ATOM     45  C   UNL     1       7.131  -3.833  -7.624  1.00  0.00     0.031 C 
ATOM     46  C   UNL     1       9.335   1.455  -3.768  1.00  0.00     0.029 A 
ATOM     47  C   UNL     1      10.376   0.736  -4.497  1.00  0.00     0.049 A 
ATOM     48  H   UNL     1      10.130  -0.903  -5.760  1.00  0.00     0.167 HD
ATOM     49  C   UNL     1       9.397  -4.255  -8.538  1.00  0.00     0.034 A 
ATOM     50  C   UNL     1      11.694   1.022  -4.475  1.00  0.00     0.034 A 
ATOM     51  C   UNL     1      10.811  -3.982  -8.623  1.00  0.00     0.049 A 
ATOM     52  C   UNL     1      12.629   0.198  -5.328  1.00  0.00     0.074 A 
ATOM     53  C   UNL     1      11.764  -4.605  -9.409  1.00  0.00     0.029 A 
ATOM     54  N   UNL     1      11.480  -3.011  -7.886  1.00  0.00    -0.354 N 
ATOM     55  N   UNL     1      12.351  -0.798  -6.138  1.00  0.00    -0.248 NA
ATOM     56  C   UNL     1      14.052   0.552  -5.276  1.00  0.00     0.031 C 
ATOM     57  C   UNL     1      13.016  -4.068  -9.090  1.00  0.00     0.029 A 
ATOM     58  C   UNL     1      12.836  -3.043  -8.174  1.00  0.00     0.049 A 
ATOM     59  H   UNL     1      11.053  -2.391  -7.252  1.00  0.00     0.167 HD
ATOM     60  C   UNL     1      13.564  -1.166  -6.718  1.00  0.00     0.074 A 
ATOM     61  C   UNL     1      14.565  -0.268  -6.180  1.00  0.00     0.031 C 
ATOM     62  C   UNL     1      13.827  -2.151  -7.617  1.00  0.00     0.034 A 
BRANCH  49  63
ATOM     63  C   UNL     1       8.819  -5.393  -9.347  1.00  0.00     0.023 A 
ATOM     64  C   UNL     1       7.833  -5.185 -10.329  1.00  0.00     0.031 A 
ATOM     65  C   UNL     1       9.236  -6.715  -9.108  1.00  0.00     0.131 A 
ATOM     66  C   UNL     1       7.247  -6.282 -10.979  1.00  0.00     0.055 A 
ATOM     67  C   UNL     1       8.710  -7.795  -9.820  1.00  0.00     0.041 A 
ATOM     68  F   UNL     1      10.153  -6.982  -8.165  1.00  0.00    -0.206 F 
ATOM     69  C   UNL     1       7.699  -7.584 -10.751  1.00  0.00     0.022 A 
BRANCH  66  70
ATOM     70  S   UNL     1       5.782  -6.000 -12.012  1.00  0.00     0.124 S 
ATOM     71  O   UNL     1       4.862  -5.387 -11.057  1.00  0.00    -0.237 OA
ATOM     72  O   UNL     1       6.298  -5.123 -13.057  1.00  0.00    -0.237 OA
ATOM     73  O   UNL     1       5.409  -7.343 -12.451  1.00  0.00    -0.744 OA
ENDBRANCH  66  70
ENDBRANCH  49  63
BRANCH  50  74
ATOM     74  C   UNL     1      12.216   2.114  -3.603  1.00  0.00     0.023 A 
ATOM     75  C   UNL     1      12.872   3.232  -4.144  1.00  0.00     0.031 A 
ATOM     76  C   UNL     1      12.115   2.025  -2.203  1.00  0.00     0.131 A 
ATOM     77  C   UNL     1      13.445   4.187  -3.290  1.00  0.00     0.055 A 
ATOM     78  C   UNL     1      12.635   3.007  -1.359  1.00  0.00     0.041 A 
ATOM     79  F   UNL     1      11.499   0.977  -1.631  1.00  0.00    -0.206 F 
ATOM     80  C   UNL     1      13.319   4.090  -1.902  1.00  0.00     0.022 A 
BRANCH  77  81
ATOM     81  S   UNL     1      14.446   5.514  -4.017  1.00  0.00     0.124 S 
ATOM     82  O   UNL     1      15.463   4.758  -4.737  1.00  0.00    -0.237 OA
ATOM     83  O   UNL     1      13.465   6.216  -4.838  1.00  0.00    -0.237 OA
ATOM     84  O   UNL     1      14.925   6.255  -2.852  1.00  0.00    -0.744 OA
ENDBRANCH  77  81
ENDBRANCH  50  74
BRANCH  62  85
ATOM     85  C   UNL     1      15.254  -2.270  -8.104  1.00  0.00     0.023 A 
ATOM     86  C   UNL     1      16.310  -2.596  -7.235  1.00  0.00     0.031 A 
ATOM     87  C   UNL     1      15.565  -2.019  -9.453  1.00  0.00     0.131 A 
ATOM     88  C   UNL     1      17.632  -2.583  -7.705  1.00  0.00     0.055 A 
ATOM     89  C   UNL     1      16.874  -2.084  -9.931  1.00  0.00     0.041 A 
ATOM     90  F   UNL     1      14.599  -1.700 -10.330  1.00  0.00    -0.206 F 
ATOM     91  C   UNL     1      17.919  -2.348  -9.051  1.00  0.00     0.022 A 
BRANCH  88  92
ATOM     92  S   UNL     1      18.981  -2.742  -6.503  1.00  0.00     0.124 S 
ATOM     93  O   UNL     1      18.690  -1.653  -5.575  1.00  0.00    -0.237 OA
ATOM     94  O   UNL     1      18.780  -4.091  -5.985  1.00  0.00    -0.237 OA
ATOM     95  O   UNL     1      20.185  -2.561  -7.313  1.00  0.00    -0.744 OA
ENDBRANCH  88  92
ENDBRANCH  62  85
ENDBRANCH  36  37
ENDBRANCH  29  31
ENDBRANCH  28  29
ENDBRANCH  27  28
ENDBRANCH   1  27
TORSDOF 19
