REMARK SMILES Cc1ncccc1C(=O)N1CC[C@H](C(=O)OCCOCCOC(=O)c2ccc(-c3c4nc(c(-c5cc(S(=O)(=O)[O-])ccc5F)c5ccc([nH]5)c(-c5cc(S(=O)(=O)[O-])ccc5F)c5nc(c(-c6cc(S(=O)(=O)[O-])ccc6F)c6ccc3[nH]6)C=C5)C=C4)cc2)C1
REMARK SMILES IDX 20 1 19 2 18 3 17 4 16 5 14 6 15 7 13 8 10 9 11 10 88 11
REMARK SMILES IDX 12 12 8 13 9 14 7 15 1 16 2 17 3 18 4 19 6 20 5 21 21 22
REMARK SMILES IDX 22 23 23 24 24 25 25 26 26 27 87 28 27 29 86 30 28 31 29 32
REMARK SMILES IDX 30 33 80 34 31 35 85 36 79 37 81 38 32 39 84 40 78 41 77 42
REMARK SMILES IDX 33 44 65 45 45 46 64 47 46 48 49 49 63 50 82 51 47 52 48 53
REMARK SMILES IDX 62 55 83 56 50 57 34 58 35 59 43 60 36 61 42 62 44 63 41 64
REMARK SMILES IDX 37 65 38 66 39 67 40 68 66 69 67 70 75 71 68 72 74 73 76 74
REMARK SMILES IDX 73 75 69 76 70 77 71 78 72 79 51 80 52 81 60 82 53 83 59 84
REMARK SMILES IDX 61 85 58 86 54 87 55 88 56 89 57 90
REMARK H PARENT 81 43 49 54
REMARK Flexibility Score: inf
ROOT
ATOM      1  C   UNL     1       7.545  -1.322  -1.587  1.00  0.00     0.202 C 
ENDROOT
BRANCH   1   2
ATOM      2  O   UNL     1       7.727  -1.573  -2.978  1.00  0.00    -0.374 OA
BRANCH   2   3
ATOM      3  C   UNL     1       6.668  -1.192  -3.856  1.00  0.00     0.202 C 
BRANCH   3   4
ATOM      4  C   UNL     1       5.452  -2.123  -3.911  1.00  0.00     0.261 C 
BRANCH   4   5
ATOM      5  O   UNL     1       4.814  -2.263  -2.629  1.00  0.00    -0.463 OA
BRANCH   5   6
ATOM      6  C   UNL     1       4.917  -3.484  -2.040  1.00  0.00     0.310 C 
ATOM      7  O   UNL     1       5.442  -4.470  -2.544  1.00  0.00    -0.252 OA
BRANCH   6   8
ATOM      8  C   UNL     1       4.264  -3.534  -0.677  1.00  0.00     0.120 C 
ATOM      9  N   UNL     1       2.130  -2.719  -0.077  1.00  0.00    -0.338 N 
ATOM     10  C   UNL     1       3.044  -2.223   0.929  1.00  0.00     0.121 C 
ATOM     11  C   UNL     1       2.770  -3.763  -0.857  1.00  0.00     0.135 C 
ATOM     12  C   UNL     1       4.383  -2.280   0.209  1.00  0.00     0.039 C 
BRANCH   9  13
ATOM     13  C   UNL     1       0.810  -2.417  -0.333  1.00  0.00     0.255 C 
ATOM     14  O   UNL     1       0.090  -3.241  -0.902  1.00  0.00    -0.269 OA
BRANCH  13  15
ATOM     15  C   UNL     1       0.203  -1.104   0.004  1.00  0.00     0.061 A 
ATOM     16  C   UNL     1       2.179   0.383  -0.705  1.00  0.00     0.067 C 
ATOM     17  C   UNL     1       0.787   0.152  -0.202  1.00  0.00     0.050 A 
ATOM     18  N   UNL     1       0.093   1.312  -0.015  1.00  0.00    -0.261 NA
ATOM     19  C   UNL     1      -1.225   1.237   0.259  1.00  0.00     0.111 A 
ATOM     20  C   UNL     1      -1.167  -1.133   0.319  1.00  0.00     0.017 A 
ATOM     21  C   UNL     1      -1.897   0.046   0.430  1.00  0.00     0.021 A 
ENDBRANCH  13  15
ENDBRANCH   9  13
ENDBRANCH   6   8
ENDBRANCH   5   6
ENDBRANCH   4   5
ENDBRANCH   3   4
ENDBRANCH   2   3
ENDBRANCH   1   2
BRANCH   1  22
ATOM     22  C   UNL     1       7.695   0.127  -1.105  1.00  0.00     0.261 C 
BRANCH  22  23
ATOM     23  O   UNL     1       6.718   1.014  -1.677  1.00  0.00    -0.460 OA
BRANCH  23  24
ATOM     24  C   UNL     1       7.226   1.934  -2.534  1.00  0.00     0.338 C 
ATOM     25  O   UNL     1       8.408   2.115  -2.798  1.00  0.00    -0.246 OA
BRANCH  24  26
ATOM     26  C   UNL     1       6.140   2.603  -3.273  1.00  0.00     0.060 A 
ATOM     27  C   UNL     1       6.190   2.566  -4.673  1.00  0.00     0.016 A 
ATOM     28  C   UNL     1       5.126   3.307  -2.620  1.00  0.00     0.016 A 
ATOM     29  C   UNL     1       5.242   3.257  -5.425  1.00  0.00     0.010 A 
ATOM     30  C   UNL     1       4.181   4.008  -3.378  1.00  0.00     0.010 A 
ATOM     31  C   UNL     1       4.246   4.005  -4.784  1.00  0.00    -0.014 A 
BRANCH  31  32
ATOM     32  C   UNL     1       3.328   4.853  -5.585  1.00  0.00     0.031 A 
ATOM     33  C   UNL     1       3.593   6.329  -5.699  1.00  0.00     0.074 A 
ATOM     34  C   UNL     1       2.274   4.304  -6.218  1.00  0.00     0.049 A 
ATOM     35  N   UNL     1       2.890   7.254  -6.300  1.00  0.00    -0.248 NA
ATOM     36  C   UNL     1       4.813   6.824  -5.046  1.00  0.00     0.031 C 
ATOM     37  C   UNL     1       1.942   2.880  -6.216  1.00  0.00     0.029 A 
ATOM     38  N   UNL     1       1.284   4.879  -6.974  1.00  0.00    -0.354 N 
ATOM     39  C   UNL     1       3.579   8.446  -6.097  1.00  0.00     0.074 A 
ATOM     40  C   UNL     1       4.738   8.125  -5.289  1.00  0.00     0.031 C 
ATOM     41  C   UNL     1       0.814   2.695  -6.923  1.00  0.00     0.029 A 
ATOM     42  C   UNL     1       0.321   3.989  -7.389  1.00  0.00     0.049 A 
ATOM     43  H   UNL     1       1.264   5.838  -7.197  1.00  0.00     0.167 HD
ATOM     44  C   UNL     1       3.273   9.688  -6.547  1.00  0.00     0.034 A 
ATOM     45  C   UNL     1      -0.842   4.199  -8.038  1.00  0.00     0.034 A 
ATOM     46  C   UNL     1       2.104   9.992  -7.338  1.00  0.00     0.049 A 
ATOM     47  C   UNL     1      -1.214   5.606  -8.440  1.00  0.00     0.074 A 
ATOM     48  C   UNL     1       1.718  11.208  -7.874  1.00  0.00     0.029 A 
ATOM     49  N   UNL     1       1.120   9.076  -7.689  1.00  0.00    -0.354 N 
ATOM     50  N   UNL     1      -0.544   6.721  -8.260  1.00  0.00    -0.248 NA
ATOM     51  C   UNL     1      -2.498   5.780  -9.132  1.00  0.00     0.031 C 
ATOM     52  C   UNL     1       0.465  11.045  -8.477  1.00  0.00     0.029 A 
ATOM     53  C   UNL     1       0.105   9.710  -8.391  1.00  0.00     0.049 A 
ATOM     54  H   UNL     1       1.139   8.116  -7.471  1.00  0.00     0.167 HD
ATOM     55  C   UNL     1      -1.318   7.726  -8.836  1.00  0.00     0.074 A 
ATOM     56  C   UNL     1      -2.494   7.081  -9.384  1.00  0.00     0.031 C 
ATOM     57  C   UNL     1      -1.077   9.061  -8.909  1.00  0.00     0.034 A 
BRANCH  44  58
ATOM     58  C   UNL     1       4.188  10.819  -6.142  1.00  0.00     0.023 A 
ATOM     59  C   UNL     1       5.527  10.881  -6.567  1.00  0.00     0.031 A 
ATOM     60  C   UNL     1       3.718  11.843  -5.300  1.00  0.00     0.131 A 
ATOM     61  C   UNL     1       6.364  11.905  -6.098  1.00  0.00     0.055 A 
ATOM     62  C   UNL     1       4.535  12.900  -4.896  1.00  0.00     0.041 A 
ATOM     63  F   UNL     1       2.455  11.826  -4.844  1.00  0.00    -0.206 F 
ATOM     64  C   UNL     1       5.872  12.928  -5.284  1.00  0.00     0.022 A 
BRANCH  61  65
ATOM     65  S   UNL     1       8.141  11.806  -6.453  1.00  0.00     0.124 S 
ATOM     66  O   UNL     1       8.487  10.510  -5.875  1.00  0.00    -0.237 OA
ATOM     67  O   UNL     1       8.175  11.887  -7.909  1.00  0.00    -0.237 OA
ATOM     68  O   UNL     1       8.696  12.961  -5.750  1.00  0.00    -0.744 OA
ENDBRANCH  61  65
ENDBRANCH  44  58
BRANCH  45  69
ATOM     69  C   UNL     1      -1.774   3.064  -8.297  1.00  0.00     0.023 A 
ATOM     70  C   UNL     1      -2.094   2.666  -9.604  1.00  0.00     0.031 A 
ATOM     71  C   UNL     1      -2.398   2.391  -7.231  1.00  0.00     0.131 A 
ATOM     72  C   UNL     1      -3.042   1.652  -9.813  1.00  0.00     0.055 A 
ATOM     73  C   UNL     1      -3.300   1.347  -7.443  1.00  0.00     0.041 A 
ATOM     74  F   UNL     1      -2.132   2.736  -5.961  1.00  0.00    -0.206 F 
ATOM     75  C   UNL     1      -3.636   0.980  -8.742  1.00  0.00     0.022 A 
BRANCH  72  76
ATOM     76  S   UNL     1      -3.551   1.275 -11.513  1.00  0.00     0.124 S 
ATOM     77  O   UNL     1      -4.063   2.565 -11.962  1.00  0.00    -0.237 OA
ATOM     78  O   UNL     1      -2.297   0.838 -12.115  1.00  0.00    -0.237 OA
ATOM     79  O   UNL     1      -4.557   0.229 -11.343  1.00  0.00    -0.744 OA
ENDBRANCH  72  76
ENDBRANCH  45  69
BRANCH  57  80
ATOM     80  C   UNL     1      -2.101   9.904  -9.631  1.00  0.00     0.023 A 
ATOM     81  C   UNL     1      -3.396  10.094  -9.118  1.00  0.00     0.031 A 
ATOM     82  C   UNL     1      -1.778  10.518 -10.854  1.00  0.00     0.131 A 
ATOM     83  C   UNL     1      -4.336  10.836  -9.849  1.00  0.00     0.055 A 
ATOM     84  C   UNL     1      -2.700  11.305 -11.548  1.00  0.00     0.041 A 
ATOM     85  F   UNL     1      -0.558  10.368 -11.394  1.00  0.00    -0.206 F 
ATOM     86  C   UNL     1      -3.991  11.457 -11.052  1.00  0.00     0.022 A 
BRANCH  83  87
ATOM     87  S   UNL     1      -6.046  10.912  -9.248  1.00  0.00     0.124 S 
ATOM     88  O   UNL     1      -6.428   9.504  -9.240  1.00  0.00    -0.237 OA
ATOM     89  O   UNL     1      -5.891  11.537  -7.939  1.00  0.00    -0.237 OA
ATOM     90  O   UNL     1      -6.726  11.733 -10.248  1.00  0.00    -0.744 OA
ENDBRANCH  83  87
ENDBRANCH  57  80
ENDBRANCH  31  32
ENDBRANCH  24  26
ENDBRANCH  23  24
ENDBRANCH  22  23
ENDBRANCH   1  22
TORSDOF 19
