REMARK SMILES Cc1ccc(S(=O)(=O)n2cc(C(=O)C(=O)NCC(=O)OCCOCCOC(=O)c3ccc(-c4c5nc(c(-c6cc(S(=O)(=O)[O-])ccc6F)c6ccc([nH]6)c(-c6cc(S(=O)(=O)[O-])ccc6F)c6nc(c(-c7cc(S(=O)(=O)[O-])ccc7F)c7ccc4[nH]7)C=C6)C=C5)cc3)c3ccccc32)cc1
REMARK SMILES IDX 22 1 21 2 20 3 18 4 19 5 17 6 16 7 14 8 15 9 12 11 13 12
REMARK SMILES IDX 11 13 9 14 10 15 97 16 92 17 96 18 93 19 95 20 94 21 6 22
REMARK SMILES IDX 7 23 8 24 5 25 1 26 2 27 3 28 99 29 4 30 98 31 23 32 24 33
REMARK SMILES IDX 25 34 26 35 27 36 28 37 29 38 30 39 91 40 31 41 90 42 32 43
REMARK SMILES IDX 33 44 34 45 84 46 35 47 89 48 83 49 85 50 36 51 88 52 82 53
REMARK SMILES IDX 81 54 37 56 69 57 49 58 68 59 50 60 53 61 67 62 86 63 51 64
REMARK SMILES IDX 52 65 66 67 87 68 54 69 38 70 39 71 47 72 40 73 46 74 48 75
REMARK SMILES IDX 45 76 41 77 42 78 43 79 44 80 70 81 71 82 79 83 72 84 78 85
REMARK SMILES IDX 80 86 77 87 73 88 74 89 75 90 76 91 55 92 56 93 64 94 57 95
REMARK SMILES IDX 63 96 65 97 62 98 58 99 59 100 60 101 61 102
REMARK H PARENT 16 10 85 55 53 66
REMARK Flexibility Score: inf
ROOT
ATOM      1  C   UNL     1     -10.072   4.280   3.382  1.00  0.00     0.202 C 
ENDROOT
BRANCH   1   2
ATOM      2  C   UNL     1      -9.742   4.927   2.073  1.00  0.00     0.261 C 
BRANCH   2   3
ATOM      3  O   UNL     1      -8.393   5.399   2.081  1.00  0.00    -0.462 OA
BRANCH   3   4
ATOM      4  C   UNL     1      -8.114   6.572   2.716  1.00  0.00     0.325 C 
ATOM      5  O   UNL     1      -8.832   7.560   2.780  1.00  0.00    -0.250 OA
BRANCH   4   6
ATOM      6  C   UNL     1      -6.743   6.495   3.369  1.00  0.00     0.239 C 
BRANCH   6   7
ATOM      7  N   UNL     1      -6.404   5.116   3.718  1.00  0.00    -0.338 N 
ATOM      8  C   UNL     1      -6.000   4.093   2.880  1.00  0.00     0.292 C 
ATOM      9  O   UNL     1      -5.866   2.977   3.372  1.00  0.00    -0.265 OA
ATOM     10  H   UNL     1      -6.474   4.885   4.673  1.00  0.00     0.164 HD
BRANCH   8  11
ATOM     11  C   UNL     1      -5.656   4.396   1.391  1.00  0.00     0.252 C 
ATOM     12  O   UNL     1      -5.779   5.552   0.991  1.00  0.00    -0.283 OA
BRANCH  11  13
ATOM     13  C   UNL     1      -5.031   3.390   0.528  1.00  0.00     0.054 A 
ATOM     14  N   UNL     1      -4.175   1.491  -0.259  1.00  0.00    -0.240 N 
ATOM     15  C   UNL     1      -4.848   2.046   0.794  1.00  0.00     0.117 A 
ATOM     16  C   UNL     1      -3.891   2.432  -1.227  1.00  0.00     0.065 A 
ATOM     17  C   UNL     1      -4.441   3.634  -0.762  1.00  0.00     0.012 A 
ATOM     18  C   UNL     1      -3.183   2.366  -2.442  1.00  0.00     0.028 A 
ATOM     19  C   UNL     1      -4.297   4.794  -1.556  1.00  0.00     0.011 A 
ATOM     20  C   UNL     1      -3.027   3.541  -3.184  1.00  0.00     0.002 A 
ATOM     21  C   UNL     1      -3.584   4.739  -2.754  1.00  0.00     0.001 A 
BRANCH  14  22
ATOM     22  S   UNL     1      -3.554  -0.090  -0.224  1.00  0.00     0.268 S 
ATOM     23  O   UNL     1      -3.789  -0.648  -1.548  1.00  0.00    -0.201 OA
ATOM     24  O   UNL     1      -4.049  -0.720   0.981  1.00  0.00    -0.201 OA
BRANCH  22  25
ATOM     25  C   UNL     1      -1.787   0.016  -0.035  1.00  0.00     0.088 A 
ATOM     26  C   UNL     1       2.513  -0.014   0.035  1.00  0.00     0.044 C 
ATOM     27  C   UNL     1       1.013   0.003   0.046  1.00  0.00    -0.051 A 
ATOM     28  C   UNL     1       0.305  -1.202  -0.038  1.00  0.00     0.005 A 
ATOM     29  C   UNL     1       0.304   1.208   0.133  1.00  0.00     0.005 A 
ATOM     30  C   UNL     1      -1.088  -1.196  -0.084  1.00  0.00     0.022 A 
ATOM     31  C   UNL     1      -1.095   1.219   0.107  1.00  0.00     0.022 A 
ENDBRANCH  22  25
ENDBRANCH  14  22
ENDBRANCH  11  13
ENDBRANCH   8  11
ENDBRANCH   6   7
ENDBRANCH   4   6
ENDBRANCH   3   4
ENDBRANCH   2   3
ENDBRANCH   1   2
BRANCH   1  32
ATOM     32  O   UNL     1     -10.171   5.367   4.303  1.00  0.00    -0.374 OA
BRANCH  32  33
ATOM     33  C   UNL     1     -10.373   5.020   5.654  1.00  0.00     0.202 C 
BRANCH  33  34
ATOM     34  C   UNL     1     -11.601   4.133   5.891  1.00  0.00     0.261 C 
BRANCH  34  35
ATOM     35  O   UNL     1     -12.818   4.861   5.613  1.00  0.00    -0.460 OA
BRANCH  35  36
ATOM     36  C   UNL     1     -13.452   4.541   4.447  1.00  0.00     0.338 C 
ATOM     37  O   UNL     1     -13.960   3.460   4.206  1.00  0.00    -0.246 OA
BRANCH  36  38
ATOM     38  C   UNL     1     -13.330   5.665   3.475  1.00  0.00     0.060 A 
ATOM     39  C   UNL     1     -13.608   5.478   2.107  1.00  0.00     0.016 A 
ATOM     40  C   UNL     1     -12.681   6.819   3.897  1.00  0.00     0.016 A 
ATOM     41  C   UNL     1     -13.099   6.376   1.152  1.00  0.00     0.010 A 
ATOM     42  C   UNL     1     -12.072   7.612   2.955  1.00  0.00     0.010 A 
ATOM     43  C   UNL     1     -12.259   7.399   1.577  1.00  0.00    -0.014 A 
BRANCH  43  44
ATOM     44  C   UNL     1     -11.451   8.299   0.747  1.00  0.00     0.031 A 
ATOM     45  C   UNL     1     -11.695   9.753   0.920  1.00  0.00     0.074 A 
ATOM     46  C   UNL     1     -10.308   7.875   0.148  1.00  0.00     0.049 A 
ATOM     47  N   UNL     1     -11.087  10.668   0.260  1.00  0.00    -0.248 NA
ATOM     48  C   UNL     1     -12.663  10.314   1.863  1.00  0.00     0.031 C 
ATOM     49  C   UNL     1      -9.112   8.661  -0.174  1.00  0.00     0.029 A 
ATOM     50  N   UNL     1      -9.965   6.605  -0.332  1.00  0.00    -0.354 N 
ATOM     51  C   UNL     1     -11.296  11.872   0.889  1.00  0.00     0.074 A 
ATOM     52  C   UNL     1     -12.351  11.613   1.831  1.00  0.00     0.031 C 
ATOM     53  C   UNL     1      -8.341   7.978  -1.039  1.00  0.00     0.029 A 
ATOM     54  C   UNL     1      -9.079   6.787  -1.410  1.00  0.00     0.049 A 
ATOM     55  H   UNL     1     -10.285   5.743   0.019  1.00  0.00     0.167 HD
ATOM     56  C   UNL     1     -10.451  12.896   0.585  1.00  0.00     0.034 A 
ATOM     57  C   UNL     1      -9.408   6.360  -2.657  1.00  0.00     0.034 A 
ATOM     58  C   UNL     1      -9.543  12.490  -0.497  1.00  0.00     0.049 A 
ATOM     59  C   UNL     1      -9.506   7.565  -3.552  1.00  0.00     0.074 A 
ATOM     60  C   UNL     1      -8.208  12.129  -0.555  1.00  0.00     0.029 A 
ATOM     61  N   UNL     1     -10.103  12.101  -1.709  1.00  0.00    -0.354 N 
ATOM     62  N   UNL     1      -9.702   8.774  -3.093  1.00  0.00    -0.248 NA
ATOM     63  C   UNL     1      -9.264   7.546  -4.987  1.00  0.00     0.031 C 
ATOM     64  C   UNL     1      -7.991  11.472  -1.804  1.00  0.00     0.029 A 
ATOM     65  C   UNL     1      -9.184  11.466  -2.513  1.00  0.00     0.049 A 
ATOM     66  H   UNL     1     -11.041  12.261  -1.962  1.00  0.00     0.167 HD
ATOM     67  C   UNL     1      -9.521   9.684  -4.090  1.00  0.00     0.074 A 
ATOM     68  C   UNL     1      -9.282   8.863  -5.268  1.00  0.00     0.031 C 
ATOM     69  C   UNL     1      -9.561  11.031  -3.854  1.00  0.00     0.034 A 
BRANCH  56  70
ATOM     70  C   UNL     1     -10.290  14.204   1.328  1.00  0.00     0.023 A 
ATOM     71  C   UNL     1      -9.164  15.000   1.027  1.00  0.00     0.031 A 
ATOM     72  C   UNL     1     -11.136  14.729   2.325  1.00  0.00     0.131 A 
ATOM     73  C   UNL     1      -8.896  16.201   1.708  1.00  0.00     0.055 A 
ATOM     74  C   UNL     1     -10.867  15.922   3.012  1.00  0.00     0.041 A 
ATOM     75  F   UNL     1     -12.283  14.147   2.680  1.00  0.00    -0.206 F 
ATOM     76  C   UNL     1      -9.741  16.666   2.708  1.00  0.00     0.022 A 
BRANCH  73  77
ATOM     77  S   UNL     1      -7.417  17.147   1.261  1.00  0.00     0.124 S 
ATOM     78  O   UNL     1      -6.344  16.223   1.613  1.00  0.00    -0.237 OA
ATOM     79  O   UNL     1      -7.621  17.391  -0.162  1.00  0.00    -0.237 OA
ATOM     80  O   UNL     1      -7.508  18.336   2.108  1.00  0.00    -0.744 OA
ENDBRANCH  73  77
ENDBRANCH  56  70
BRANCH  57  81
ATOM     81  C   UNL     1     -10.250   5.121  -2.595  1.00  0.00     0.023 A 
ATOM     82  C   UNL     1      -9.629   3.971  -2.033  1.00  0.00     0.031 A 
ATOM     83  C   UNL     1     -11.649   5.200  -2.526  1.00  0.00     0.131 A 
ATOM     84  C   UNL     1     -10.376   3.056  -1.270  1.00  0.00     0.055 A 
ATOM     85  C   UNL     1     -12.394   4.258  -1.798  1.00  0.00     0.041 A 
ATOM     86  F   UNL     1     -12.297   6.268  -3.012  1.00  0.00    -0.206 F 
ATOM     87  C   UNL     1     -11.755   3.215  -1.123  1.00  0.00     0.022 A 
BRANCH  84  88
ATOM     88  S   UNL     1      -9.498   1.853  -0.205  1.00  0.00     0.124 S 
ATOM     89  O   UNL     1      -9.315   0.721  -1.104  1.00  0.00    -0.237 OA
ATOM     90  O   UNL     1      -8.282   2.569   0.176  1.00  0.00    -0.237 OA
ATOM     91  O   UNL     1     -10.432   1.642   0.901  1.00  0.00    -0.744 OA
ENDBRANCH  84  88
ENDBRANCH  57  81
BRANCH  69  92
ATOM     92  C   UNL     1      -9.914  12.070  -4.894  1.00  0.00     0.023 A 
ATOM     93  C   UNL     1     -10.261  11.725  -6.201  1.00  0.00     0.031 A 
ATOM     94  C   UNL     1     -10.030  13.448  -4.582  1.00  0.00     0.131 A 
ATOM     95  C   UNL     1     -10.593  12.696  -7.154  1.00  0.00     0.055 A 
ATOM     96  C   UNL     1     -10.460  14.406  -5.504  1.00  0.00     0.041 A 
ATOM     97  F   UNL     1      -9.768  13.937  -3.363  1.00  0.00    -0.206 F 
ATOM     98  C   UNL     1     -10.722  14.036  -6.812  1.00  0.00     0.022 A 
BRANCH  95  99
ATOM     99  S   UNL     1     -10.764  12.143  -8.864  1.00  0.00     0.124 S 
ATOM    100  O   UNL     1      -9.439  11.588  -9.132  1.00  0.00    -0.237 OA
ATOM    101  O   UNL     1     -11.847  11.169  -8.772  1.00  0.00    -0.237 OA
ATOM    102  O   UNL     1     -11.085  13.369  -9.591  1.00  0.00    -0.744 OA
ENDBRANCH  95  99
ENDBRANCH  69  92
ENDBRANCH  43  44
ENDBRANCH  36  38
ENDBRANCH  35  36
ENDBRANCH  34  35
ENDBRANCH  33  34
ENDBRANCH  32  33
ENDBRANCH   1  32
TORSDOF 22
