REMARK SMILES CC1=C(C)C[C@@H](C(=O)OCCOCCOC(=O)c2ccc(-c3c4nc(c(-c5cc(S(=O)(=O)[O-])ccc5F)c5ccc([nH]5)c(-c5cc(S(=O)(=O)[O-])ccc5F)c5nc(c(-c6cc(S(=O)(=O)[O-])ccc6F)c6ccc3[nH]6)C=C5)C=C4)cc2)[C@@H](C(=O)N2CCN(c3cccc(C(F)(F)F)c3)CC2)C1
REMARK SMILES IDX 12 1 11 2 10 3 9 4 7 5 8 6 6 7 1 8 2 9 3 10 100 11 4 12 5 13
REMARK SMILES IDX 81 14 82 15 83 16 84 17 85 18 99 19 86 20 98 21 87 22 88 23
REMARK SMILES IDX 89 24 97 25 90 26 92 27 91 28 93 29 94 30 95 31 96 32 13 33
REMARK SMILES IDX 14 34 15 35 16 36 17 37 18 38 19 39 80 40 20 41 79 42 21 43
REMARK SMILES IDX 22 44 23 45 73 46 24 47 78 48 72 49 74 50 25 51 77 52 71 53
REMARK SMILES IDX 70 54 26 56 58 57 38 58 57 59 39 60 42 61 56 62 75 63 40 64
REMARK SMILES IDX 41 65 55 67 76 68 43 69 27 70 28 71 36 72 29 73 35 74 37 75
REMARK SMILES IDX 34 76 30 77 31 78 32 79 33 80 59 81 60 82 68 83 61 84 67 85
REMARK SMILES IDX 69 86 66 87 62 88 63 89 64 90 65 91 44 92 45 93 53 94 46 95
REMARK SMILES IDX 52 96 54 97 51 98 47 99 48 100 49 101 50 102
REMARK H PARENT 74 55 42 66
REMARK Flexibility Score: inf
ROOT
ATOM      1  O   UNL     1      -4.222   4.056  -4.614  1.00  0.00    -0.374 OA
ENDROOT
BRANCH   1   2
ATOM      2  C   UNL     1      -4.587   3.271  -3.480  1.00  0.00     0.202 C 
BRANCH   2   3
ATOM      3  C   UNL     1      -3.729   2.039  -3.145  1.00  0.00     0.261 C 
BRANCH   3   4
ATOM      4  O   UNL     1      -2.330   2.258  -2.865  1.00  0.00    -0.463 OA
BRANCH   4   5
ATOM      5  C   UNL     1      -1.505   2.000  -3.901  1.00  0.00     0.310 C 
ATOM      6  O   UNL     1      -1.890   1.829  -5.059  1.00  0.00    -0.252 OA
BRANCH   5   7
ATOM      7  C   UNL     1      -0.037   1.798  -3.568  1.00  0.00     0.116 C 
ATOM      8  C   UNL     1       0.991  -0.275   0.231  1.00  0.00     0.039 C 
ATOM      9  C   UNL     1       0.765   0.302  -1.146  1.00  0.00    -0.074 C 
ATOM     10  C   UNL     1       0.324  -0.380  -2.219  1.00  0.00    -0.073 C 
ATOM     11  C   UNL     1       1.123   1.764  -1.222  1.00  0.00     0.045 C 
ATOM     12  C   UNL     1      -0.053  -1.839  -2.230  1.00  0.00     0.039 C 
ATOM     13  C   UNL     1       0.223   0.283  -3.570  1.00  0.00     0.046 C 
ATOM     14  C   UNL     1       0.719   2.571  -2.481  1.00  0.00     0.097 C 
BRANCH  14  15
ATOM     15  C   UNL     1       0.112   3.887  -1.994  1.00  0.00     0.227 C 
ATOM     16  O   UNL     1      -0.717   3.906  -1.084  1.00  0.00    -0.275 OA
ATOM     17  N   UNL     1       0.670   5.069  -2.481  1.00  0.00    -0.339 N 
ATOM     18  C   UNL     1       0.435   6.266  -1.656  1.00  0.00     0.141 C 
ATOM     19  C   UNL     1       0.909   5.296  -3.917  1.00  0.00     0.141 C 
ATOM     20  C   UNL     1       1.368   7.436  -1.980  1.00  0.00     0.138 C 
ATOM     21  C   UNL     1       1.703   6.578  -4.273  1.00  0.00     0.138 C 
ATOM     22  N   UNL     1       1.302   7.692  -3.418  1.00  0.00    -0.368 N 
BRANCH  22  23
ATOM     23  C   UNL     1       1.315   8.992  -3.871  1.00  0.00     0.037 A 
ATOM     24  C   UNL     1       2.296   9.909  -3.480  1.00  0.00     0.026 A 
ATOM     25  C   UNL     1       0.265   9.451  -4.676  1.00  0.00     0.039 A 
ATOM     26  C   UNL     1       2.228  11.249  -3.869  1.00  0.00     0.003 A 
ATOM     27  C   UNL     1       0.163  10.800  -5.054  1.00  0.00     0.058 A 
ATOM     28  C   UNL     1       1.161  11.695  -4.646  1.00  0.00     0.013 A 
BRANCH  27  29
ATOM     29  C   UNL     1      -1.016  11.297  -5.850  1.00  0.00     0.416 C 
ATOM     30  F   UNL     1      -1.723  12.262  -5.198  1.00  0.00    -0.166 F 
ATOM     31  F   UNL     1      -0.638  11.856  -7.036  1.00  0.00    -0.166 F 
ATOM     32  F   UNL     1      -1.915  10.325  -6.173  1.00  0.00    -0.166 F 
ENDBRANCH  27  29
ENDBRANCH  22  23
ENDBRANCH  14  15
ENDBRANCH   5   7
ENDBRANCH   4   5
ENDBRANCH   3   4
ENDBRANCH   2   3
ENDBRANCH   1   2
BRANCH   1  33
ATOM     33  C   UNL     1      -3.074   4.897  -4.498  1.00  0.00     0.202 C 
BRANCH  33  34
ATOM     34  C   UNL     1      -3.123   5.971  -3.412  1.00  0.00     0.261 C 
BRANCH  34  35
ATOM     35  O   UNL     1      -3.193   5.341  -2.130  1.00  0.00    -0.460 OA
BRANCH  35  36
ATOM     36  C   UNL     1      -3.314   6.183  -1.085  1.00  0.00     0.338 C 
ATOM     37  O   UNL     1      -3.084   7.377  -1.074  1.00  0.00    -0.246 OA
BRANCH  36  38
ATOM     38  C   UNL     1      -3.939   5.436   0.019  1.00  0.00     0.060 A 
ATOM     39  C   UNL     1      -5.324   5.233  -0.015  1.00  0.00     0.016 A 
ATOM     40  C   UNL     1      -3.184   5.029   1.119  1.00  0.00     0.016 A 
ATOM     41  C   UNL     1      -5.968   4.676   1.089  1.00  0.00     0.010 A 
ATOM     42  C   UNL     1      -3.832   4.457   2.220  1.00  0.00     0.010 A 
ATOM     43  C   UNL     1      -5.232   4.321   2.229  1.00  0.00    -0.014 A 
BRANCH  43  44
ATOM     44  C   UNL     1      -5.958   3.963   3.475  1.00  0.00     0.031 A 
ATOM     45  C   UNL     1      -6.146   5.014   4.537  1.00  0.00     0.074 A 
ATOM     46  C   UNL     1      -6.489   2.738   3.635  1.00  0.00     0.049 A 
ATOM     47  N   UNL     1      -6.809   4.950   5.663  1.00  0.00    -0.248 NA
ATOM     48  C   UNL     1      -5.492   6.308   4.295  1.00  0.00     0.031 C 
ATOM     49  C   UNL     1      -6.375   1.639   2.678  1.00  0.00     0.029 A 
ATOM     50  N   UNL     1      -7.231   2.213   4.664  1.00  0.00    -0.354 N 
ATOM     51  C   UNL     1      -6.668   6.201   6.257  1.00  0.00     0.074 A 
ATOM     52  C   UNL     1      -5.805   6.979   5.393  1.00  0.00     0.031 C 
ATOM     53  C   UNL     1      -7.022   0.567   3.166  1.00  0.00     0.029 A 
ATOM     54  C   UNL     1      -7.581   0.897   4.476  1.00  0.00     0.049 A 
ATOM     55  H   UNL     1      -7.489   2.730   5.461  1.00  0.00     0.167 HD
ATOM     56  C   UNL     1      -7.221   6.665   7.406  1.00  0.00     0.034 A 
ATOM     57  C   UNL     1      -8.268   0.053   5.273  1.00  0.00     0.034 A 
ATOM     58  C   UNL     1      -8.052   5.867   8.275  1.00  0.00     0.049 A 
ATOM     59  C   UNL     1      -8.828   0.568   6.576  1.00  0.00     0.074 A 
ATOM     60  C   UNL     1      -8.675   6.235   9.455  1.00  0.00     0.029 A 
ATOM     61  N   UNL     1      -8.362   4.527   8.067  1.00  0.00    -0.354 N 
ATOM     62  N   UNL     1      -8.727   1.767   7.103  1.00  0.00    -0.248 NA
ATOM     63  C   UNL     1      -9.611  -0.379   7.381  1.00  0.00     0.031 C 
ATOM     64  C   UNL     1      -9.302   5.104   9.993  1.00  0.00     0.029 A 
ATOM     65  C   UNL     1      -9.135   4.046   9.113  1.00  0.00     0.049 A 
ATOM     66  H   UNL     1      -8.073   3.997   7.289  1.00  0.00     0.167 HD
ATOM     67  C   UNL     1      -9.451   1.723   8.292  1.00  0.00     0.074 A 
ATOM     68  C   UNL     1      -9.997   0.384   8.393  1.00  0.00     0.031 C 
ATOM     69  C   UNL     1      -9.652   2.700   9.213  1.00  0.00     0.034 A 
BRANCH  56  70
ATOM     70  C   UNL     1      -6.895   8.087   7.797  1.00  0.00     0.023 A 
ATOM     71  C   UNL     1      -7.282   9.179   6.998  1.00  0.00     0.031 A 
ATOM     72  C   UNL     1      -6.140   8.355   8.952  1.00  0.00     0.131 A 
ATOM     73  C   UNL     1      -6.844  10.473   7.317  1.00  0.00     0.055 A 
ATOM     74  C   UNL     1      -5.775   9.656   9.309  1.00  0.00     0.041 A 
ATOM     75  F   UNL     1      -5.723   7.355   9.744  1.00  0.00    -0.206 F 
ATOM     76  C   UNL     1      -6.111  10.722   8.480  1.00  0.00     0.022 A 
BRANCH  73  77
ATOM     77  S   UNL     1      -7.110  11.803   6.111  1.00  0.00     0.124 S 
ATOM     78  O   UNL     1      -6.447  11.264   4.926  1.00  0.00    -0.237 OA
ATOM     79  O   UNL     1      -8.564  11.886   6.050  1.00  0.00    -0.237 OA
ATOM     80  O   UNL     1      -6.443  12.954   6.717  1.00  0.00    -0.744 OA
ENDBRANCH  73  77
ENDBRANCH  56  70
BRANCH  57  81
ATOM     81  C   UNL     1      -8.440  -1.373   4.876  1.00  0.00     0.023 A 
ATOM     82  C   UNL     1      -9.702  -1.904   4.565  1.00  0.00     0.031 A 
ATOM     83  C   UNL     1      -7.330  -2.236   4.829  1.00  0.00     0.131 A 
ATOM     84  C   UNL     1      -9.827  -3.267   4.250  1.00  0.00     0.055 A 
ATOM     85  C   UNL     1      -7.454  -3.580   4.474  1.00  0.00     0.041 A 
ATOM     86  F   UNL     1      -6.102  -1.777   5.116  1.00  0.00    -0.206 F 
ATOM     87  C   UNL     1      -8.710  -4.105   4.191  1.00  0.00     0.022 A 
BRANCH  84  88
ATOM     88  S   UNL     1     -11.485  -3.950   3.971  1.00  0.00     0.124 S 
ATOM     89  O   UNL     1     -12.141  -3.671   5.244  1.00  0.00    -0.237 OA
ATOM     90  O   UNL     1     -11.945  -3.171   2.827  1.00  0.00    -0.237 OA
ATOM     91  O   UNL     1     -11.229  -5.363   3.697  1.00  0.00    -0.744 OA
ENDBRANCH  84  88
ENDBRANCH  57  81
BRANCH  69  92
ATOM     92  C   UNL     1     -10.522   2.355  10.398  1.00  0.00     0.023 A 
ATOM     93  C   UNL     1     -10.111   1.428  11.372  1.00  0.00     0.031 A 
ATOM     94  C   UNL     1     -11.786   2.953  10.546  1.00  0.00     0.131 A 
ATOM     95  C   UNL     1     -10.978   1.084  12.421  1.00  0.00     0.055 A 
ATOM     96  C   UNL     1     -12.621   2.649  11.623  1.00  0.00     0.041 A 
ATOM     97  F   UNL     1     -12.230   3.845   9.646  1.00  0.00    -0.206 F 
ATOM     98  C   UNL     1     -12.224   1.700  12.560  1.00  0.00     0.022 A 
BRANCH  95  99
ATOM     99  S   UNL     1     -10.492  -0.246  13.555  1.00  0.00     0.124 S 
ATOM    100  O   UNL     1     -10.304  -1.370  12.642  1.00  0.00    -0.237 OA
ATOM    101  O   UNL     1      -9.280   0.290  14.165  1.00  0.00    -0.237 OA
ATOM    102  O   UNL     1     -11.638  -0.365  14.455  1.00  0.00    -0.744 OA
ENDBRANCH  95  99
ENDBRANCH  69  92
ENDBRANCH  43  44
ENDBRANCH  36  38
ENDBRANCH  35  36
ENDBRANCH  34  35
ENDBRANCH  33  34
ENDBRANCH   1  33
TORSDOF 20
