REMARK SMILES CC(C)[C@](C)(CC(=O)NC#N)C(=O)OCCOCCOC(=O)c1ccc(-c2c3nc(c(-c4cc(S(=O)(=O)[O-])ccc4F)c4ccc([nH]4)c(-c4cc(S(=O)(=O)[O-])ccc4F)c4nc(c(-c5cc(S(=O)(=O)[O-])ccc5F)c5ccc2[nH]5)C=C4)C=C3)cc1
REMARK SMILES IDX 17 1 16 2 15 3 14 4 12 5 13 6 4 7 5 8 2 9 1 10 3 11 6 12
REMARK SMILES IDX 7 13 8 14 9 15 10 17 11 18 18 19 19 20 20 21 21 22 22 23
REMARK SMILES IDX 23 24 24 25 85 26 25 27 84 28 26 29 27 30 28 31 78 32 29 33
REMARK SMILES IDX 83 34 77 35 79 36 30 37 82 38 76 39 75 40 31 42 63 43 43 44
REMARK SMILES IDX 62 45 44 46 47 47 61 48 80 49 45 50 46 51 60 53 81 54 48 55
REMARK SMILES IDX 32 56 33 57 41 58 34 59 40 60 42 61 39 62 35 63 36 64 37 65
REMARK SMILES IDX 38 66 64 67 65 68 73 69 66 70 72 71 74 72 71 73 67 74 68 75
REMARK SMILES IDX 69 76 70 77 49 78 50 79 58 80 51 81 57 82 59 83 56 84 52 85
REMARK SMILES IDX 53 86 54 87 55 88
REMARK H PARENT 9 16 79 41 47 52
REMARK Flexibility Score: inf
ROOT
ATOM      1  O   UNL     1      -1.311  -0.830   3.988  1.00  0.00    -0.374 OA
ENDROOT
BRANCH   1   2
ATOM      2  C   UNL     1      -2.647  -0.408   3.744  1.00  0.00     0.202 C 
BRANCH   2   3
ATOM      3  C   UNL     1      -3.034   0.071   2.336  1.00  0.00     0.261 C 
BRANCH   3   4
ATOM      4  O   UNL     1      -2.586  -0.750   1.240  1.00  0.00    -0.463 OA
BRANCH   4   5
ATOM      5  C   UNL     1      -1.403  -0.338   0.715  1.00  0.00     0.312 C 
ATOM      6  O   UNL     1      -0.716   0.551   1.212  1.00  0.00    -0.252 OA
BRANCH   5   7
ATOM      7  C   UNL     1      -1.026  -1.012  -0.616  1.00  0.00     0.076 C 
ATOM      8  C   UNL     1       0.511  -0.857  -0.688  1.00  0.00     0.024 C 
BRANCH   7   9
ATOM      9  C   UNL     1      -1.636  -0.168  -1.833  1.00  0.00     0.000 C 
ATOM     10  C   UNL     1      -2.535  -0.951  -2.806  1.00  0.00     0.008 C 
ATOM     11  C   UNL     1      -2.401   1.103  -1.428  1.00  0.00     0.008 C 
ENDBRANCH   7   9
BRANCH   7  12
ATOM     12  C   UNL     1      -1.404  -2.516  -0.740  1.00  0.00     0.119 C 
BRANCH  12  13
ATOM     13  C   UNL     1      -0.938  -3.618   0.199  1.00  0.00     0.234 C 
ATOM     14  O   UNL     1      -1.759  -4.262   0.856  1.00  0.00    -0.274 OA
ATOM     15  N   UNL     1       0.344  -4.052   0.239  1.00  0.00    -0.263 N 
ATOM     16  H   UNL     1       0.473  -4.748   0.924  1.00  0.00     0.182 HD
BRANCH  15  17
ATOM     17  C   UNL     1       1.484  -3.780  -0.412  1.00  0.00     0.183 C 
ATOM     18  N   UNL     1       2.490  -3.575  -0.933  1.00  0.00    -0.172 NA
ENDBRANCH  15  17
ENDBRANCH  12  13
ENDBRANCH   7  12
ENDBRANCH   5   7
ENDBRANCH   4   5
ENDBRANCH   3   4
ENDBRANCH   2   3
ENDBRANCH   1   2
BRANCH   1  19
ATOM     19  C   UNL     1      -0.873  -2.057   3.413  1.00  0.00     0.202 C 
BRANCH  19  20
ATOM     20  C   UNL     1      -1.634  -3.341   3.758  1.00  0.00     0.261 C 
BRANCH  20  21
ATOM     21  O   UNL     1      -2.998  -3.313   3.301  1.00  0.00    -0.460 OA
BRANCH  21  22
ATOM     22  C   UNL     1      -3.910  -3.562   4.270  1.00  0.00     0.338 C 
ATOM     23  O   UNL     1      -3.680  -3.853   5.432  1.00  0.00    -0.246 OA
BRANCH  22  24
ATOM     24  C   UNL     1      -5.268  -3.228   3.810  1.00  0.00     0.060 A 
ATOM     25  C   UNL     1      -5.923  -2.180   4.469  1.00  0.00     0.016 A 
ATOM     26  C   UNL     1      -5.946  -4.025   2.887  1.00  0.00     0.016 A 
ATOM     27  C   UNL     1      -7.282  -1.969   4.261  1.00  0.00     0.010 A 
ATOM     28  C   UNL     1      -7.316  -3.813   2.684  1.00  0.00     0.010 A 
ATOM     29  C   UNL     1      -7.999  -2.815   3.406  1.00  0.00    -0.014 A 
BRANCH  29  30
ATOM     30  C   UNL     1      -9.482  -2.740   3.399  1.00  0.00     0.031 A 
ATOM     31  C   UNL     1     -10.275  -3.788   4.134  1.00  0.00     0.074 A 
ATOM     32  C   UNL     1     -10.109  -1.708   2.806  1.00  0.00     0.049 A 
ATOM     33  N   UNL     1     -11.572  -3.927   4.238  1.00  0.00    -0.248 NA
ATOM     34  C   UNL     1      -9.501  -4.815   4.845  1.00  0.00     0.031 C 
ATOM     35  C   UNL     1      -9.442  -0.601   2.122  1.00  0.00     0.029 A 
ATOM     36  N   UNL     1     -11.446  -1.421   2.686  1.00  0.00    -0.354 N 
ATOM     37  C   UNL     1     -11.771  -5.060   5.021  1.00  0.00     0.074 A 
ATOM     38  C   UNL     1     -10.459  -5.592   5.327  1.00  0.00     0.031 C 
ATOM     39  C   UNL     1     -10.374   0.244   1.650  1.00  0.00     0.029 A 
ATOM     40  C   UNL     1     -11.701  -0.287   1.952  1.00  0.00     0.049 A 
ATOM     41  H   UNL     1     -12.154  -1.974   3.088  1.00  0.00     0.167 HD
ATOM     42  C   UNL     1     -12.939  -5.598   5.452  1.00  0.00     0.034 A 
ATOM     43  C   UNL     1     -12.871   0.243   1.541  1.00  0.00     0.034 A 
ATOM     44  C   UNL     1     -14.238  -5.058   5.126  1.00  0.00     0.049 A 
ATOM     45  C   UNL     1     -14.160  -0.433   1.943  1.00  0.00     0.074 A 
ATOM     46  C   UNL     1     -15.485  -5.520   5.511  1.00  0.00     0.029 A 
ATOM     47  N   UNL     1     -14.460  -3.944   4.326  1.00  0.00    -0.354 N 
ATOM     48  N   UNL     1     -14.336  -1.508   2.677  1.00  0.00    -0.248 NA
ATOM     49  C   UNL     1     -15.406   0.180   1.468  1.00  0.00     0.031 C 
ATOM     50  C   UNL     1     -16.457  -4.742   4.874  1.00  0.00     0.029 A 
ATOM     51  C   UNL     1     -15.822  -3.730   4.172  1.00  0.00     0.049 A 
ATOM     52  H   UNL     1     -13.754  -3.387   3.926  1.00  0.00     0.167 HD
ATOM     53  C   UNL     1     -15.715  -1.678   2.779  1.00  0.00     0.074 A 
ATOM     54  C   UNL     1     -16.320  -0.586   2.044  1.00  0.00     0.031 C 
ATOM     55  C   UNL     1     -16.417  -2.644   3.426  1.00  0.00     0.034 A 
BRANCH  42  56
ATOM     56  C   UNL     1     -12.863  -6.866   6.273  1.00  0.00     0.023 A 
ATOM     57  C   UNL     1     -12.227  -6.904   7.526  1.00  0.00     0.031 A 
ATOM     58  C   UNL     1     -13.416  -8.063   5.782  1.00  0.00     0.131 A 
ATOM     59  C   UNL     1     -12.095  -8.124   8.208  1.00  0.00     0.055 A 
ATOM     60  C   UNL     1     -13.359  -9.255   6.506  1.00  0.00     0.041 A 
ATOM     61  F   UNL     1     -14.015  -8.098   4.581  1.00  0.00    -0.206 F 
ATOM     62  C   UNL     1     -12.681  -9.294   7.721  1.00  0.00     0.022 A 
BRANCH  59  63
ATOM     63  S   UNL     1     -11.012  -8.191   9.662  1.00  0.00     0.124 S 
ATOM     64  O   UNL     1      -9.742  -7.729   9.106  1.00  0.00    -0.237 OA
ATOM     65  O   UNL     1     -11.673  -7.281  10.590  1.00  0.00    -0.237 OA
ATOM     66  O   UNL     1     -11.039  -9.602  10.045  1.00  0.00    -0.744 OA
ENDBRANCH  59  63
ENDBRANCH  42  56
BRANCH  43  67
ATOM     67  C   UNL     1     -12.882   1.446   0.659  1.00  0.00     0.023 A 
ATOM     68  C   UNL     1     -13.491   2.644   1.063  1.00  0.00     0.031 A 
ATOM     69  C   UNL     1     -12.324   1.395  -0.633  1.00  0.00     0.131 A 
ATOM     70  C   UNL     1     -13.570   3.724   0.170  1.00  0.00     0.055 A 
ATOM     71  C   UNL     1     -12.349   2.493  -1.493  1.00  0.00     0.041 A 
ATOM     72  F   UNL     1     -11.735   0.273  -1.075  1.00  0.00    -0.206 F 
ATOM     73  C   UNL     1     -12.988   3.663  -1.098  1.00  0.00     0.022 A 
BRANCH  70  74
ATOM     74  S   UNL     1     -14.538   5.181   0.652  1.00  0.00     0.124 S 
ATOM     75  O   UNL     1     -15.849   4.594   0.904  1.00  0.00    -0.237 OA
ATOM     76  O   UNL     1     -13.810   5.653   1.825  1.00  0.00    -0.237 OA
ATOM     77  O   UNL     1     -14.456   6.047  -0.522  1.00  0.00    -0.744 OA
ENDBRANCH  70  74
ENDBRANCH  43  67
BRANCH  55  78
ATOM     78  C   UNL     1     -17.924  -2.531   3.411  1.00  0.00     0.023 A 
ATOM     79  C   UNL     1     -18.668  -2.641   2.223  1.00  0.00     0.031 A 
ATOM     80  C   UNL     1     -18.627  -2.302   4.609  1.00  0.00     0.131 A 
ATOM     81  C   UNL     1     -20.060  -2.460   2.249  1.00  0.00     0.055 A 
ATOM     82  C   UNL     1     -20.018  -2.197   4.639  1.00  0.00     0.041 A 
ATOM     83  F   UNL     1     -17.971  -2.182   5.774  1.00  0.00    -0.206 F 
ATOM     84  C   UNL     1     -20.742  -2.260   3.453  1.00  0.00     0.022 A 
BRANCH  81  85
ATOM     85  S   UNL     1     -20.957  -2.377   0.675  1.00  0.00     0.124 S 
ATOM     86  O   UNL     1     -20.285  -1.271   0.002  1.00  0.00    -0.237 OA
ATOM     87  O   UNL     1     -20.725  -3.703   0.112  1.00  0.00    -0.237 OA
ATOM     88  O   UNL     1     -22.337  -2.109   1.080  1.00  0.00    -0.744 OA
ENDBRANCH  81  85
ENDBRANCH  55  78
ENDBRANCH  29  30
ENDBRANCH  22  24
ENDBRANCH  21  22
ENDBRANCH  20  21
ENDBRANCH  19  20
ENDBRANCH   1  19
TORSDOF 21
