REMARK SMILES O=C(N[C@@H](C(=O)OCCOCCOC(=O)c1ccc(-c2c3nc(c(-c4cc(S(=O)(=O)[O-])ccc4F)c4ccc([nH]4)c(-c4cc(S(=O)(=O)[O-])ccc4F)c4nc(c(-c5cc(S(=O)(=O)[O-])ccc5F)c5ccc2[nH]5)C=C4)C=C3)cc1)c1ccccc1)c1ccc(Br)nc1
REMARK SMILES IDX 11 1 10 2 9 3 8 4 7 5 5 6 6 7 4 8 3 9 1 10 2 11 85 13 86 14
REMARK SMILES IDX 91 15 87 16 90 17 88 18 89 19 79 20 80 21 84 22 81 23 83 24
REMARK SMILES IDX 82 25 12 26 13 27 14 28 15 29 16 30 17 31 78 32 18 33 77 34
REMARK SMILES IDX 19 35 20 36 21 37 71 38 22 39 76 40 70 41 72 42 23 43 75 44
REMARK SMILES IDX 69 45 68 46 24 48 56 49 36 50 55 51 37 52 40 53 54 54 73 55
REMARK SMILES IDX 38 56 39 57 53 59 74 60 41 61 25 62 26 63 34 64 27 65 33 66
REMARK SMILES IDX 35 67 32 68 28 69 29 70 30 71 31 72 57 73 58 74 66 75 59 76
REMARK SMILES IDX 65 77 67 78 64 79 60 80 61 81 62 82 63 83 42 84 43 85 51 86
REMARK SMILES IDX 44 87 50 88 52 89 49 90 45 91 46 92 47 93 48 94
REMARK H PARENT 3 12 72 47 40 58
REMARK Flexibility Score: inf
ROOT
ATOM      1  C   UNL     1       4.247  -2.064   4.189  1.00  0.00     0.202 C 
ENDROOT
BRANCH   1   2
ATOM      2  O   UNL     1       5.263  -1.478   4.999  1.00  0.00    -0.374 OA
BRANCH   2   3
ATOM      3  C   UNL     1       5.309  -0.054   5.085  1.00  0.00     0.202 C 
BRANCH   3   4
ATOM      4  C   UNL     1       5.843   0.692   3.858  1.00  0.00     0.261 C 
BRANCH   4   5
ATOM      5  O   UNL     1       5.083   0.379   2.678  1.00  0.00    -0.461 OA
BRANCH   5   6
ATOM      6  C   UNL     1       5.807  -0.126   1.638  1.00  0.00     0.333 C 
ATOM      7  O   UNL     1       7.034  -0.146   1.593  1.00  0.00    -0.249 OA
BRANCH   6   8
ATOM      8  C   UNL     1       4.910  -0.722   0.522  1.00  0.00     0.223 C 
BRANCH   8   9
ATOM      9  N   UNL     1       3.464  -0.518   0.706  1.00  0.00    -0.335 N 
ATOM     10  O   UNL     1       1.407   0.335   0.413  1.00  0.00    -0.269 OA
ATOM     11  C   UNL     1       2.581   0.297   0.058  1.00  0.00     0.253 C 
ATOM     12  H   UNL     1       3.064  -1.064   1.421  1.00  0.00     0.165 HD
BRANCH  11  13
ATOM     13  C   UNL     1       3.033   1.188  -1.017  1.00  0.00     0.058 A 
ATOM     14  C   UNL     1       2.773   2.553  -0.911  1.00  0.00     0.018 A 
ATOM     15  C   UNL     1       3.709   0.728  -2.136  1.00  0.00     0.126 A 
ATOM     16  C   UNL     1       3.274   3.415  -1.883  1.00  0.00     0.037 A 
ATOM     17  N   UNL     1       4.221   1.544  -3.088  1.00  0.00    -0.249 NA
ATOM     18  C   UNL     1       4.005   2.873  -2.932  1.00  0.00     0.106 A 
ATOM     19  Br  UNL     1       4.770   4.041  -4.213  1.00  0.00    -0.029 Br
ENDBRANCH  11  13
ENDBRANCH   8   9
BRANCH   8  20
ATOM     20  C   UNL     1       5.231  -2.203   0.288  1.00  0.00    -0.014 A 
ATOM     21  C   UNL     1       4.339  -3.244   0.605  1.00  0.00     0.006 A 
ATOM     22  C   UNL     1       6.486  -2.553  -0.242  1.00  0.00     0.006 A 
ATOM     23  C   UNL     1       4.699  -4.582   0.415  1.00  0.00     0.000 A 
ATOM     24  C   UNL     1       6.845  -3.889  -0.428  1.00  0.00     0.000 A 
ATOM     25  C   UNL     1       5.952  -4.904  -0.096  1.00  0.00     0.000 A 
ENDBRANCH   8  20
ENDBRANCH   6   8
ENDBRANCH   5   6
ENDBRANCH   4   5
ENDBRANCH   3   4
ENDBRANCH   2   3
ENDBRANCH   1   2
BRANCH   1  26
ATOM     26  C   UNL     1       2.800  -1.998   4.697  1.00  0.00     0.261 C 
BRANCH  26  27
ATOM     27  O   UNL     1       2.312  -0.650   4.822  1.00  0.00    -0.460 OA
BRANCH  27  28
ATOM     28  C   UNL     1       2.016  -0.279   6.092  1.00  0.00     0.338 C 
ATOM     29  O   UNL     1       2.054  -0.993   7.088  1.00  0.00    -0.246 OA
BRANCH  28  30
ATOM     30  C   UNL     1       1.824   1.179   6.183  1.00  0.00     0.060 A 
ATOM     31  C   UNL     1       2.624   1.874   7.099  1.00  0.00     0.016 A 
ATOM     32  C   UNL     1       0.830   1.847   5.463  1.00  0.00     0.016 A 
ATOM     33  C   UNL     1       2.404   3.228   7.334  1.00  0.00     0.010 A 
ATOM     34  C   UNL     1       0.605   3.209   5.709  1.00  0.00     0.010 A 
ATOM     35  C   UNL     1       1.368   3.898   6.669  1.00  0.00    -0.014 A 
BRANCH  35  36
ATOM     36  C   UNL     1       1.027   5.282   7.087  1.00  0.00     0.031 A 
ATOM     37  C   UNL     1      -0.121   5.506   8.033  1.00  0.00     0.074 A 
ATOM     38  C   UNL     1       1.779   6.320   6.680  1.00  0.00     0.049 A 
ATOM     39  N   UNL     1      -0.552   6.619   8.569  1.00  0.00    -0.248 NA
ATOM     40  C   UNL     1      -0.886   4.313   8.425  1.00  0.00     0.031 C 
ATOM     41  C   UNL     1       2.934   6.223   5.787  1.00  0.00     0.029 A 
ATOM     42  N   UNL     1       1.689   7.658   6.969  1.00  0.00    -0.354 N 
ATOM     43  C   UNL     1      -1.635   6.264   9.367  1.00  0.00     0.074 A 
ATOM     44  C   UNL     1      -1.820   4.836   9.206  1.00  0.00     0.031 C 
ATOM     45  C   UNL     1       3.445   7.452   5.601  1.00  0.00     0.029 A 
ATOM     46  C   UNL     1       2.640   8.425   6.338  1.00  0.00     0.049 A 
ATOM     47  H   UNL     1       1.007   8.034   7.571  1.00  0.00     0.167 HD
ATOM     48  C   UNL     1      -2.396   7.052  10.167  1.00  0.00     0.034 A 
ATOM     49  C   UNL     1       2.833   9.759   6.344  1.00  0.00     0.034 A 
ATOM     50  C   UNL     1      -2.211   8.478  10.303  1.00  0.00     0.049 A 
ATOM     51  C   UNL     1       1.935  10.625   7.191  1.00  0.00     0.074 A 
ATOM     52  C   UNL     1      -2.910   9.368  11.101  1.00  0.00     0.029 A 
ATOM     53  N   UNL     1      -1.267   9.229   9.611  1.00  0.00    -0.354 N 
ATOM     54  N   UNL     1       0.932  10.273   7.963  1.00  0.00    -0.248 NA
ATOM     55  C   UNL     1       2.207  12.068   7.180  1.00  0.00     0.031 C 
ATOM     56  C   UNL     1      -2.441  10.660  10.837  1.00  0.00     0.029 A 
ATOM     57  C   UNL     1      -1.393  10.573   9.935  1.00  0.00     0.049 A 
ATOM     58  H   UNL     1      -0.606   8.861   8.982  1.00  0.00     0.167 HD
ATOM     59  C   UNL     1       0.470  11.450   8.548  1.00  0.00     0.074 A 
ATOM     60  C   UNL     1       1.319  12.516   8.055  1.00  0.00     0.031 C 
ATOM     61  C   UNL     1      -0.559  11.633   9.416  1.00  0.00     0.034 A 
BRANCH  48  62
ATOM     62  C   UNL     1      -3.533   6.389  10.910  1.00  0.00     0.023 A 
ATOM     63  C   UNL     1      -3.308   5.401  11.886  1.00  0.00     0.031 A 
ATOM     64  C   UNL     1      -4.866   6.725  10.612  1.00  0.00     0.131 A 
ATOM     65  C   UNL     1      -4.395   4.733  12.471  1.00  0.00     0.055 A 
ATOM     66  C   UNL     1      -5.943   6.113  11.256  1.00  0.00     0.041 A 
ATOM     67  F   UNL     1      -5.146   7.645   9.675  1.00  0.00    -0.206 F 
ATOM     68  C   UNL     1      -5.712   5.099  12.181  1.00  0.00     0.022 A 
BRANCH  65  69
ATOM     69  S   UNL     1      -4.067   3.279  13.506  1.00  0.00     0.124 S 
ATOM     70  O   UNL     1      -3.322   2.424  12.585  1.00  0.00    -0.237 OA
ATOM     71  O   UNL     1      -3.305   3.845  14.612  1.00  0.00    -0.237 OA
ATOM     72  O   UNL     1      -5.402   2.794  13.850  1.00  0.00    -0.744 OA
ENDBRANCH  65  69
ENDBRANCH  48  62
BRANCH  49  73
ATOM     73  C   UNL     1       3.899  10.366   5.497  1.00  0.00     0.023 A 
ATOM     74  C   UNL     1       4.996  11.032   6.066  1.00  0.00     0.031 A 
ATOM     75  C   UNL     1       3.810  10.320   4.094  1.00  0.00     0.131 A 
ATOM     76  C   UNL     1       5.939  11.659   5.236  1.00  0.00     0.055 A 
ATOM     77  C   UNL     1       4.775  10.903   3.273  1.00  0.00     0.041 A 
ATOM     78  F   UNL     1       2.782   9.692   3.500  1.00  0.00    -0.206 F 
ATOM     79  C   UNL     1       5.843  11.588   3.844  1.00  0.00     0.022 A 
BRANCH  76  80
ATOM     80  S   UNL     1       7.265  12.630   6.004  1.00  0.00     0.124 S 
ATOM     81  O   UNL     1       6.509  13.631   6.747  1.00  0.00    -0.237 OA
ATOM     82  O   UNL     1       7.954  11.621   6.802  1.00  0.00    -0.237 OA
ATOM     83  O   UNL     1       8.020  13.138   4.860  1.00  0.00    -0.744 OA
ENDBRANCH  76  80
ENDBRANCH  49  73
BRANCH  61  84
ATOM     84  C   UNL     1      -0.796  13.044   9.904  1.00  0.00     0.023 A 
ATOM     85  C   UNL     1      -1.197  14.072   9.031  1.00  0.00     0.031 A 
ATOM     86  C   UNL     1      -0.580  13.375  11.254  1.00  0.00     0.131 A 
ATOM     87  C   UNL     1      -1.300  15.390   9.501  1.00  0.00     0.055 A 
ATOM     88  C   UNL     1      -0.749  14.676  11.730  1.00  0.00     0.041 A 
ATOM     89  F   UNL     1      -0.193  12.437  12.134  1.00  0.00    -0.206 F 
ATOM     90  C   UNL     1      -1.094  15.696  10.848  1.00  0.00     0.022 A 
BRANCH  87  91
ATOM     91  S   UNL     1      -1.586  16.722   8.302  1.00  0.00     0.124 S 
ATOM     92  O   UNL     1      -0.480  16.534   7.369  1.00  0.00    -0.237 OA
ATOM     93  O   UNL     1      -2.914  16.399   7.789  1.00  0.00    -0.237 OA
ATOM     94  O   UNL     1      -1.513  17.936   9.113  1.00  0.00    -0.744 OA
ENDBRANCH  87  91
ENDBRANCH  61  84
ENDBRANCH  35  36
ENDBRANCH  28  30
ENDBRANCH  27  28
ENDBRANCH  26  27
ENDBRANCH   1  26
TORSDOF 20
