REMARK SMILES COc1cccc([C@@H]2[NH2+][C@@](C)(C(=O)OCCOCCOC(=O)c3ccc(-c4c5nc(c(-c6cc(S(=O)(=O)[O-])ccc6F)c6ccc([nH]6)c(-c6cc(S(=O)(=O)[O-])ccc6F)c6nc(c(-c7cc(S(=O)(=O)[O-])ccc7F)c7ccc4[nH]7)C=C6)C=C5)cc3)[C@@H]3C(=O)N(C)C(=O)[C@@H]32)c1O
REMARK SMILES IDX 18 1 17 2 16 3 15 4 14 5 12 6 13 7 10 8 8 9 9 10 93 11 86 14
REMARK SMILES IDX 91 15 11 16 87 17 89 18 92 19 88 20 90 21 7 22 3 23 4 24
REMARK SMILES IDX 94 25 5 26 6 27 2 28 1 29 95 30 19 32 20 33 21 34 22 35
REMARK SMILES IDX 23 36 24 37 85 38 25 39 84 40 26 41 27 42 28 43 78 44 29 45
REMARK SMILES IDX 83 46 77 47 79 48 30 49 82 50 76 51 75 52 31 54 63 55 43 56
REMARK SMILES IDX 62 57 44 58 47 59 61 60 80 61 45 62 46 63 60 65 81 66 48 67
REMARK SMILES IDX 32 68 33 69 41 70 34 71 40 72 42 73 39 74 35 75 36 76 37 77
REMARK SMILES IDX 38 78 64 79 65 80 73 81 66 82 72 83 74 84 71 85 67 86 68 87
REMARK SMILES IDX 69 88 70 89 49 90 50 91 58 92 51 93 57 94 59 95 56 96 52 97
REMARK SMILES IDX 53 98 54 99 55 100
REMARK H PARENT 9 12 9 13 95 31 79 53 47 64
REMARK Flexibility Score: inf
ROOT
ATOM      1  C   UNL     1      -4.091  -4.973   1.678  1.00  0.00     0.202 C 
ENDROOT
BRANCH   1   2
ATOM      2  O   UNL     1      -4.482  -5.946   0.719  1.00  0.00    -0.374 OA
BRANCH   2   3
ATOM      3  C   UNL     1      -4.260  -7.316   1.025  1.00  0.00     0.202 C 
BRANCH   3   4
ATOM      4  C   UNL     1      -2.825  -7.824   1.256  1.00  0.00     0.261 C 
BRANCH   4   5
ATOM      5  O   UNL     1      -1.933  -6.890   1.899  1.00  0.00    -0.459 OA
BRANCH   5   6
ATOM      6  C   UNL     1      -1.011  -6.352   1.061  1.00  0.00     0.368 C 
ATOM      7  O   UNL     1      -0.902  -6.687  -0.120  1.00  0.00    -0.245 OA
BRANCH   6   8
ATOM      8  C   UNL     1      -0.047  -5.297   1.682  1.00  0.00     0.204 C 
ATOM      9  C   UNL     1      -0.967  -3.174   2.450  1.00  0.00     0.232 C 
ATOM     10  N   UNL     1      -0.559  -4.533   2.874  1.00  0.00    -0.325 N 
ATOM     11  C   UNL     1      -0.817  -3.118   0.923  1.00  0.00     0.161 C 
ATOM     12  H   UNL     1      -1.361  -5.021   3.272  1.00  0.00     0.347 HD
ATOM     13  H   UNL     1       0.178  -4.464   3.576  1.00  0.00     0.347 HD
ATOM     14  C   UNL     1       0.115  -4.262   0.576  1.00  0.00     0.170 C 
ATOM     15  C   UNL     1      -0.135  -1.961   0.245  1.00  0.00     0.239 C 
ATOM     16  C   UNL     1       1.193  -6.101   2.072  1.00  0.00     0.093 C 
ATOM     17  C   UNL     1       1.441  -3.601   0.363  1.00  0.00     0.240 C 
ATOM     18  N   UNL     1       1.169  -2.307   0.003  1.00  0.00    -0.285 N 
ATOM     19  O   UNL     1      -0.692  -0.910  -0.037  1.00  0.00    -0.274 OA
ATOM     20  O   UNL     1       2.527  -4.137   0.425  1.00  0.00    -0.274 OA
ATOM     21  C   UNL     1       2.194  -1.387  -0.423  1.00  0.00     0.156 C 
BRANCH   9  22
ATOM     22  C   UNL     1      -0.536  -1.975   3.305  1.00  0.00     0.056 A 
ATOM     23  C   UNL     1       0.545   0.194   3.198  1.00  0.00     0.161 A 
ATOM     24  C   UNL     1      -0.450   0.764   3.982  1.00  0.00     0.050 A 
ATOM     25  C   UNL     1       0.587  -1.194   3.027  1.00  0.00     0.166 A 
ATOM     26  C   UNL     1      -1.419  -0.058   4.548  1.00  0.00     0.005 A 
ATOM     27  C   UNL     1      -1.481  -1.411   4.187  1.00  0.00     0.014 A 
BRANCH  23  28
ATOM     28  O   UNL     1       1.471   1.007   2.591  1.00  0.00    -0.493 OA
ATOM     29  C   UNL     1       0.895   1.609   1.420  1.00  0.00     0.278 C 
ENDBRANCH  23  28
BRANCH  25  30
ATOM     30  O   UNL     1       1.736  -1.768   2.578  1.00  0.00    -0.504 OA
ATOM     31  H   UNL     1       2.485  -1.236   2.394  1.00  0.00     0.293 HD
ENDBRANCH  25  30
ENDBRANCH   9  22
ENDBRANCH   6   8
ENDBRANCH   5   6
ENDBRANCH   4   5
ENDBRANCH   3   4
ENDBRANCH   2   3
ENDBRANCH   1   2
BRANCH   1  32
ATOM     32  C   UNL     1      -4.625  -5.034   3.116  1.00  0.00     0.261 C 
BRANCH  32  33
ATOM     33  O   UNL     1      -4.362  -6.277   3.785  1.00  0.00    -0.460 OA
BRANCH  33  34
ATOM     34  C   UNL     1      -5.478  -6.961   4.142  1.00  0.00     0.338 C 
ATOM     35  O   UNL     1      -6.635  -6.603   3.997  1.00  0.00    -0.246 OA
BRANCH  34  36
ATOM     36  C   UNL     1      -5.124  -8.328   4.558  1.00  0.00     0.060 A 
ATOM     37  C   UNL     1      -5.674  -9.386   3.823  1.00  0.00     0.016 A 
ATOM     38  C   UNL     1      -4.365  -8.573   5.704  1.00  0.00     0.016 A 
ATOM     39  C   UNL     1      -5.511 -10.694   4.261  1.00  0.00     0.010 A 
ATOM     40  C   UNL     1      -4.213  -9.890   6.150  1.00  0.00     0.010 A 
ATOM     41  C   UNL     1      -4.820 -10.950   5.452  1.00  0.00    -0.014 A 
BRANCH  41  42
ATOM     42  C   UNL     1      -4.901 -12.310   6.035  1.00  0.00     0.031 A 
ATOM     43  C   UNL     1      -5.893 -12.570   7.136  1.00  0.00     0.074 A 
ATOM     44  C   UNL     1      -4.164 -13.313   5.526  1.00  0.00     0.049 A 
ATOM     45  N   UNL     1      -6.168 -13.684   7.763  1.00  0.00    -0.248 NA
ATOM     46  C   UNL     1      -6.682 -11.413   7.587  1.00  0.00     0.031 C 
ATOM     47  C   UNL     1      -3.214 -13.181   4.422  1.00  0.00     0.029 A 
ATOM     48  N   UNL     1      -4.112 -14.641   5.860  1.00  0.00    -0.354 N 
ATOM     49  C   UNL     1      -7.164 -13.365   8.681  1.00  0.00     0.074 A 
ATOM     50  C   UNL     1      -7.405 -11.943   8.561  1.00  0.00     0.031 C 
ATOM     51  C   UNL     1      -2.679 -14.386   4.163  1.00  0.00     0.029 A 
ATOM     52  C   UNL     1      -3.219 -15.364   5.105  1.00  0.00     0.049 A 
ATOM     53  H   UNL     1      -4.662 -15.040   6.573  1.00  0.00     0.167 HD
ATOM     54  C   UNL     1      -7.825 -14.188   9.534  1.00  0.00     0.034 A 
ATOM     55  C   UNL     1      -2.869 -16.663   5.179  1.00  0.00     0.034 A 
ATOM     56  C   UNL     1      -7.554 -15.601   9.649  1.00  0.00     0.049 A 
ATOM     57  C   UNL     1      -3.549 -17.540   6.202  1.00  0.00     0.074 A 
ATOM     58  C   UNL     1      -8.155 -16.532  10.477  1.00  0.00     0.029 A 
ATOM     59  N   UNL     1      -6.588 -16.287   8.920  1.00  0.00    -0.354 N 
ATOM     60  N   UNL     1      -4.491 -17.229   7.065  1.00  0.00    -0.248 NA
ATOM     61  C   UNL     1      -3.127 -18.944   6.251  1.00  0.00     0.031 C 
ATOM     62  C   UNL     1      -7.502 -17.759  10.307  1.00  0.00     0.029 A 
ATOM     63  C   UNL     1      -6.552 -17.619   9.307  1.00  0.00     0.049 A 
ATOM     64  H   UNL     1      -6.013 -15.886   8.229  1.00  0.00     0.167 HD
ATOM     65  C   UNL     1      -4.792 -18.410   7.740  1.00  0.00     0.074 A 
ATOM     66  C   UNL     1      -3.948 -19.438   7.165  1.00  0.00     0.031 C 
ATOM     67  C   UNL     1      -5.685 -18.628   8.741  1.00  0.00     0.034 A 
BRANCH  54  68
ATOM     68  C   UNL     1      -8.855 -13.556  10.443  1.00  0.00     0.023 A 
ATOM     69  C   UNL     1     -10.000 -12.914   9.937  1.00  0.00     0.031 A 
ATOM     70  C   UNL     1      -8.663 -13.549  11.837  1.00  0.00     0.131 A 
ATOM     71  C   UNL     1     -10.859 -12.223  10.806  1.00  0.00     0.055 A 
ATOM     72  C   UNL     1      -9.569 -12.935  12.704  1.00  0.00     0.041 A 
ATOM     73  F   UNL     1      -7.577 -14.121  12.380  1.00  0.00    -0.206 F 
ATOM     74  C   UNL     1     -10.666 -12.252  12.188  1.00  0.00     0.022 A 
BRANCH  71  75
ATOM     75  S   UNL     1     -12.135 -11.149  10.091  1.00  0.00     0.124 S 
ATOM     76  O   UNL     1     -11.332 -10.244   9.272  1.00  0.00    -0.237 OA
ATOM     77  O   UNL     1     -12.974 -12.095   9.366  1.00  0.00    -0.237 OA
ATOM     78  O   UNL     1     -12.757 -10.531  11.261  1.00  0.00    -0.744 OA
ENDBRANCH  71  75
ENDBRANCH  54  68
BRANCH  55  79
ATOM     79  C   UNL     1      -1.809 -17.211   4.285  1.00  0.00     0.023 A 
ATOM     80  C   UNL     1      -2.091 -18.223   3.354  1.00  0.00     0.031 A 
ATOM     81  C   UNL     1      -0.480 -16.759   4.383  1.00  0.00     0.131 A 
ATOM     82  C   UNL     1      -1.054 -18.778   2.588  1.00  0.00     0.055 A 
ATOM     83  C   UNL     1       0.538 -17.276   3.581  1.00  0.00     0.041 A 
ATOM     84  F   UNL     1      -0.154 -15.794   5.259  1.00  0.00    -0.206 F 
ATOM     85  C   UNL     1       0.255 -18.302   2.685  1.00  0.00     0.022 A 
BRANCH  82  86
ATOM     86  S   UNL     1      -1.427 -20.194   1.517  1.00  0.00     0.124 S 
ATOM     87  O   UNL     1      -1.936 -21.167   2.477  1.00  0.00    -0.237 OA
ATOM     88  O   UNL     1      -2.406 -19.627   0.596  1.00  0.00    -0.237 OA
ATOM     89  O   UNL     1      -0.132 -20.521   0.923  1.00  0.00    -0.744 OA
ENDBRANCH  82  86
ENDBRANCH  55  79
BRANCH  67  90
ATOM     90  C   UNL     1      -5.808 -20.047   9.247  1.00  0.00     0.023 A 
ATOM     91  C   UNL     1      -4.737 -20.701   9.882  1.00  0.00     0.031 A 
ATOM     92  C   UNL     1      -7.000 -20.769   9.057  1.00  0.00     0.131 A 
ATOM     93  C   UNL     1      -4.851 -22.055  10.232  1.00  0.00     0.055 A 
ATOM     94  C   UNL     1      -7.134 -22.094   9.476  1.00  0.00     0.041 A 
ATOM     95  F   UNL     1      -8.056 -20.200   8.454  1.00  0.00    -0.206 F 
ATOM     96  C   UNL     1      -6.049 -22.750  10.050  1.00  0.00     0.022 A 
BRANCH  93  97
ATOM     97  S   UNL     1      -3.370 -22.931  10.806  1.00  0.00     0.124 S 
ATOM     98  O   UNL     1      -2.442 -22.713   9.701  1.00  0.00    -0.237 OA
ATOM     99  O   UNL     1      -3.058 -22.234  12.049  1.00  0.00    -0.237 OA
ATOM    100  O   UNL     1      -3.829 -24.310  10.967  1.00  0.00    -0.744 OA
ENDBRANCH  93  97
ENDBRANCH  67  90
ENDBRANCH  41  42
ENDBRANCH  34  36
ENDBRANCH  33  34
ENDBRANCH  32  33
ENDBRANCH   1  32
TORSDOF 20
