REMARK SMILES O=C(OCCOCCOC(=O)c1ccnc(Oc2cccc(C(F)(F)F)c2)c1)c1ccc(-c2c3nc(c(-c4cc(S(=O)(=O)[O-])ccc4F)c4ccc([nH]4)c(-c4cc(S(=O)(=O)[O-])ccc4F)c4nc(c(-c5cc(S(=O)(=O)[O-])ccc5F)c5ccc2[nH]5)C=C4)C=C3)cc1
REMARK SMILES IDX 6 1 5 2 4 3 3 4 2 5 1 6 29 7 30 8 91 9 31 10 90 11 32 12
REMARK SMILES IDX 33 13 34 14 84 15 35 16 89 17 83 18 85 19 36 20 88 21 82 22
REMARK SMILES IDX 81 23 37 25 69 26 49 27 68 28 50 29 53 30 67 31 86 32 51 33
REMARK SMILES IDX 52 34 66 36 87 37 54 38 38 39 39 40 47 41 40 42 46 43 48 44
REMARK SMILES IDX 45 45 41 46 42 47 43 48 44 49 70 50 71 51 79 52 72 53 78 54
REMARK SMILES IDX 80 55 77 56 73 57 74 58 75 59 76 60 55 61 56 62 64 63 57 64
REMARK SMILES IDX 63 65 65 66 62 67 58 68 59 69 60 70 61 71 7 72 8 73 9 74
REMARK SMILES IDX 10 75 11 76 12 77 13 78 28 79 14 80 16 81 15 82 17 83 18 84
REMARK SMILES IDX 19 85 27 86 20 87 22 88 21 89 23 90 24 91 25 92 26 93
REMARK H PARENT 85 24 53 35
REMARK Flexibility Score: inf
ROOT
ATOM      1  O   UNL     1       3.965   1.631   0.599  1.00  0.00    -0.374 OA
ENDROOT
BRANCH   1   2
ATOM      2  C   UNL     1       4.163   1.496  -0.808  1.00  0.00     0.202 C 
BRANCH   2   3
ATOM      3  C   UNL     1       3.744   0.144  -1.398  1.00  0.00     0.261 C 
BRANCH   3   4
ATOM      4  O   UNL     1       2.382  -0.163  -1.054  1.00  0.00    -0.460 OA
BRANCH   4   5
ATOM      5  C   UNL     1       1.941  -1.111  -0.189  1.00  0.00     0.338 C 
ATOM      6  O   UNL     1       0.736  -1.353  -0.145  1.00  0.00    -0.246 OA
BRANCH   5   7
ATOM      7  C   UNL     1       2.848  -1.861   0.732  1.00  0.00     0.060 A 
ATOM      8  C   UNL     1       4.067  -1.371   1.192  1.00  0.00     0.016 A 
ATOM      9  C   UNL     1       2.403  -3.094   1.237  1.00  0.00     0.016 A 
ATOM     10  C   UNL     1       4.867  -2.100   2.051  1.00  0.00     0.010 A 
ATOM     11  C   UNL     1       3.172  -3.808   2.167  1.00  0.00     0.010 A 
ATOM     12  C   UNL     1       4.417  -3.310   2.567  1.00  0.00    -0.014 A 
BRANCH  12  13
ATOM     13  C   UNL     1       5.337  -4.020   3.475  1.00  0.00     0.031 A 
ATOM     14  C   UNL     1       6.070  -5.218   2.961  1.00  0.00     0.074 A 
ATOM     15  C   UNL     1       5.644  -3.450   4.657  1.00  0.00     0.049 A 
ATOM     16  N   UNL     1       6.960  -5.961   3.559  1.00  0.00    -0.248 NA
ATOM     17  C   UNL     1       5.776  -5.622   1.576  1.00  0.00     0.031 C 
ATOM     18  C   UNL     1       5.059  -2.201   5.162  1.00  0.00     0.029 A 
ATOM     19  N   UNL     1       6.556  -3.796   5.617  1.00  0.00    -0.354 N 
ATOM     20  C   UNL     1       7.330  -6.924   2.629  1.00  0.00     0.074 A 
ATOM     21  C   UNL     1       6.547  -6.688   1.436  1.00  0.00     0.031 C 
ATOM     22  C   UNL     1       5.660  -1.867   6.314  1.00  0.00     0.029 A 
ATOM     23  C   UNL     1       6.605  -2.916   6.675  1.00  0.00     0.049 A 
ATOM     24  H   UNL     1       7.122  -4.599   5.557  1.00  0.00     0.167 HD
ATOM     25  C   UNL     1       8.246  -7.912   2.770  1.00  0.00     0.034 A 
ATOM     26  C   UNL     1       7.310  -2.977   7.821  1.00  0.00     0.034 A 
ATOM     27  C   UNL     1       8.986  -8.121   3.990  1.00  0.00     0.049 A 
ATOM     28  C   UNL     1       8.232  -4.157   7.998  1.00  0.00     0.074 A 
ATOM     29  C   UNL     1       9.852  -9.147   4.316  1.00  0.00     0.029 A 
ATOM     30  N   UNL     1       8.941  -7.272   5.092  1.00  0.00    -0.354 N 
ATOM     31  N   UNL     1       8.501  -5.128   7.151  1.00  0.00    -0.248 NA
ATOM     32  C   UNL     1       8.941  -4.257   9.276  1.00  0.00     0.031 C 
ATOM     33  C   UNL     1      10.286  -8.948   5.632  1.00  0.00     0.029 A 
ATOM     34  C   UNL     1       9.751  -7.759   6.104  1.00  0.00     0.049 A 
ATOM     35  H   UNL     1       8.410  -6.445   5.144  1.00  0.00     0.167 HD
ATOM     36  C   UNL     1       9.417  -5.950   7.795  1.00  0.00     0.074 A 
ATOM     37  C   UNL     1       9.687  -5.334   9.080  1.00  0.00     0.031 C 
ATOM     38  C   UNL     1       9.979  -7.116   7.379  1.00  0.00     0.034 A 
BRANCH  25  39
ATOM     39  C   UNL     1       8.402  -8.865   1.612  1.00  0.00     0.023 A 
ATOM     40  C   UNL     1       8.902  -8.442   0.367  1.00  0.00     0.031 A 
ATOM     41  C   UNL     1       7.957 -10.193   1.726  1.00  0.00     0.131 A 
ATOM     42  C   UNL     1       8.873  -9.316  -0.732  1.00  0.00     0.055 A 
ATOM     43  C   UNL     1       8.002 -11.080   0.649  1.00  0.00     0.041 A 
ATOM     44  F   UNL     1       7.439 -10.643   2.880  1.00  0.00    -0.206 F 
ATOM     45  C   UNL     1       8.448 -10.639  -0.594  1.00  0.00     0.022 A 
BRANCH  42  46
ATOM     46  S   UNL     1       9.255  -8.656  -2.379  1.00  0.00     0.124 S 
ATOM     47  O   UNL     1       8.200  -7.660  -2.549  1.00  0.00    -0.237 OA
ATOM     48  O   UNL     1      10.605  -8.133  -2.206  1.00  0.00    -0.237 OA
ATOM     49  O   UNL     1       9.146  -9.825  -3.250  1.00  0.00    -0.744 OA
ENDBRANCH  42  46
ENDBRANCH  25  39
BRANCH  26  50
ATOM     50  C   UNL     1       7.105  -1.971   8.909  1.00  0.00     0.023 A 
ATOM     51  C   UNL     1       8.169  -1.223   9.438  1.00  0.00     0.031 A 
ATOM     52  C   UNL     1       5.835  -1.800   9.495  1.00  0.00     0.131 A 
ATOM     53  C   UNL     1       7.956  -0.386  10.548  1.00  0.00     0.055 A 
ATOM     54  C   UNL     1       5.615  -0.915  10.552  1.00  0.00     0.041 A 
ATOM     55  F   UNL     1       4.777  -2.495   9.046  1.00  0.00    -0.206 F 
ATOM     56  C   UNL     1       6.684  -0.216  11.098  1.00  0.00     0.022 A 
BRANCH  53  57
ATOM     57  S   UNL     1       9.391   0.383  11.351  1.00  0.00     0.124 S 
ATOM     58  O   UNL     1      10.241  -0.773  11.613  1.00  0.00    -0.237 OA
ATOM     59  O   UNL     1       9.858   1.303  10.319  1.00  0.00    -0.237 OA
ATOM     60  O   UNL     1       8.819   1.018  12.536  1.00  0.00    -0.744 OA
ENDBRANCH  53  57
ENDBRANCH  26  50
BRANCH  38  61
ATOM     61  C   UNL     1      10.952  -7.761   8.330  1.00  0.00     0.023 A 
ATOM     62  C   UNL     1      10.533  -8.273   9.570  1.00  0.00     0.031 A 
ATOM     63  C   UNL     1      12.318  -7.834   8.006  1.00  0.00     0.131 A 
ATOM     64  C   UNL     1      11.482  -8.765  10.475  1.00  0.00     0.055 A 
ATOM     65  C   UNL     1      13.248  -8.392   8.882  1.00  0.00     0.041 A 
ATOM     66  F   UNL     1      12.769  -7.359   6.834  1.00  0.00    -0.206 F 
ATOM     67  C   UNL     1      12.835  -8.845  10.132  1.00  0.00     0.022 A 
BRANCH  64  68
ATOM     68  S   UNL     1      10.940  -9.188  12.153  1.00  0.00     0.124 S 
ATOM     69  O   UNL     1      10.357  -7.930  12.608  1.00  0.00    -0.237 OA
ATOM     70  O   UNL     1       9.998 -10.276  11.911  1.00  0.00    -0.237 OA
ATOM     71  O   UNL     1      12.178  -9.578  12.824  1.00  0.00    -0.744 OA
ENDBRANCH  64  68
ENDBRANCH  38  61
ENDBRANCH  12  13
ENDBRANCH   5   7
ENDBRANCH   4   5
ENDBRANCH   3   4
ENDBRANCH   2   3
ENDBRANCH   1   2
BRANCH   1  72
ATOM     72  C   UNL     1       2.646   2.009   1.008  1.00  0.00     0.202 C 
BRANCH  72  73
ATOM     73  C   UNL     1       2.728   3.256   1.893  1.00  0.00     0.261 C 
BRANCH  73  74
ATOM     74  O   UNL     1       3.325   4.314   1.123  1.00  0.00    -0.460 OA
BRANCH  74  75
ATOM     75  C   UNL     1       4.682   4.363   1.187  1.00  0.00     0.338 C 
ATOM     76  O   UNL     1       5.403   3.921   2.064  1.00  0.00    -0.246 OA
BRANCH  75  77
ATOM     77  C   UNL     1       5.177   4.861  -0.113  1.00  0.00     0.067 A 
ATOM     78  C   UNL     1       4.474   5.840  -0.810  1.00  0.00     0.036 A 
ATOM     79  C   UNL     1       6.319   4.274  -0.667  1.00  0.00     0.084 A 
ATOM     80  C   UNL     1       4.938   6.182  -2.061  1.00  0.00     0.116 A 
ATOM     81  C   UNL     1       6.686   4.662  -1.944  1.00  0.00     0.220 A 
ATOM     82  N   UNL     1       6.017   5.614  -2.638  1.00  0.00    -0.222 NA
BRANCH  81  83
ATOM     83  O   UNL     1       7.820   4.217  -2.582  1.00  0.00    -0.439 OA
BRANCH  83  84
ATOM     84  C   UNL     1       8.190   2.899  -2.469  1.00  0.00     0.130 A 
ATOM     85  C   UNL     1       9.495   2.651  -2.040  1.00  0.00     0.047 A 
ATOM     86  C   UNL     1       7.388   1.847  -2.921  1.00  0.00     0.060 A 
ATOM     87  C   UNL     1       9.993   1.349  -2.027  1.00  0.00     0.004 A 
ATOM     88  C   UNL     1       7.884   0.528  -2.913  1.00  0.00     0.059 A 
ATOM     89  C   UNL     1       9.192   0.292  -2.458  1.00  0.00     0.013 A 
BRANCH  88  90
ATOM     90  C   UNL     1       7.053  -0.634  -3.401  1.00  0.00     0.416 C 
ATOM     91  F   UNL     1       7.641  -1.316  -4.419  1.00  0.00    -0.166 F 
ATOM     92  F   UNL     1       6.798  -1.540  -2.420  1.00  0.00    -0.166 F 
ATOM     93  F   UNL     1       5.829  -0.251  -3.868  1.00  0.00    -0.166 F 
ENDBRANCH  88  90
ENDBRANCH  83  84
ENDBRANCH  81  83
ENDBRANCH  75  77
ENDBRANCH  74  75
ENDBRANCH  73  74
ENDBRANCH  72  73
ENDBRANCH   1  72
TORSDOF 20
