REMARK SMILES O=C(OCCOCCOC(=O)[C@H]1[C@H]2CC[C@H](C2)[C@@H]1C(=O)N[C@H]1CCCc2ccccc21)c1ccc(-c2c3nc(c(-c4cc(S(=O)(=O)[O-])ccc4F)c4ccc([nH]4)c(-c4cc(S(=O)(=O)[O-])ccc4F)c4nc(c(-c5cc(S(=O)(=O)[O-])ccc5F)c5ccc2[nH]5)C=C4)C=C3)cc1
REMARK SMILES IDX 5 1 4 2 3 3 2 4 1 5 32 6 33 7 94 8 34 9 93 10 35 11 36 12
REMARK SMILES IDX 37 13 87 14 38 15 92 16 86 17 88 18 39 19 91 20 85 21 84 22
REMARK SMILES IDX 40 24 72 25 52 26 71 27 53 28 56 29 70 30 89 31 54 32 55 33
REMARK SMILES IDX 69 35 90 36 57 37 41 38 42 39 50 40 43 41 49 42 51 43 48 44
REMARK SMILES IDX 44 45 45 46 46 47 47 48 73 49 74 50 82 51 75 52 81 53 83 54
REMARK SMILES IDX 80 55 76 56 77 57 78 58 79 59 58 60 59 61 67 62 60 63 66 64
REMARK SMILES IDX 68 65 65 66 61 67 62 68 63 69 64 70 6 71 7 72 8 73 9 74
REMARK SMILES IDX 10 75 11 76 12 77 13 78 18 79 14 80 17 81 16 82 15 83 19 84
REMARK SMILES IDX 20 85 21 86 22 88 23 89 31 90 24 91 26 92 30 93 25 94 27 95
REMARK SMILES IDX 29 96 28 97
REMARK H PARENT 88 23 56 34 21 87
REMARK Flexibility Score: inf
ROOT
ATOM      1  C   UNL     1       4.015  -5.311  -1.090  1.00  0.00     0.202 C 
ENDROOT
BRANCH   1   2
ATOM      2  C   UNL     1       3.072  -6.114  -0.187  1.00  0.00     0.261 C 
BRANCH   2   3
ATOM      3  O   UNL     1       3.816  -6.982   0.682  1.00  0.00    -0.460 OA
BRANCH   3   4
ATOM      4  C   UNL     1       4.181  -8.268   0.466  1.00  0.00     0.338 C 
ATOM      5  O   UNL     1       4.899  -8.815   1.303  1.00  0.00    -0.246 OA
BRANCH   4   6
ATOM      6  C   UNL     1       3.774  -9.062  -0.734  1.00  0.00     0.060 A 
ATOM      7  C   UNL     1       3.383  -8.524  -1.960  1.00  0.00     0.016 A 
ATOM      8  C   UNL     1       3.868 -10.461  -0.637  1.00  0.00     0.016 A 
ATOM      9  C   UNL     1       3.080  -9.314  -3.046  1.00  0.00     0.010 A 
ATOM     10  C   UNL     1       3.568 -11.278  -1.732  1.00  0.00     0.010 A 
ATOM     11  C   UNL     1       3.163 -10.692  -2.934  1.00  0.00    -0.014 A 
BRANCH  11  12
ATOM     12  C   UNL     1       2.616 -11.448  -4.064  1.00  0.00     0.031 A 
ATOM     13  C   UNL     1       1.213 -11.949  -3.933  1.00  0.00     0.074 A 
ATOM     14  C   UNL     1       3.284 -11.450  -5.231  1.00  0.00     0.049 A 
ATOM     15  N   UNL     1       0.488 -12.613  -4.786  1.00  0.00    -0.248 NA
ATOM     16  C   UNL     1       0.526 -11.632  -2.668  1.00  0.00     0.031 C 
ATOM     17  C   UNL     1       4.574 -10.788  -5.461  1.00  0.00     0.029 A 
ATOM     18  N   UNL     1       2.953 -11.965  -6.450  1.00  0.00    -0.354 N 
ATOM     19  C   UNL     1      -0.728 -12.829  -4.148  1.00  0.00     0.074 A 
ATOM     20  C   UNL     1      -0.642 -12.227  -2.838  1.00  0.00     0.031 C 
ATOM     21  C   UNL     1       4.908 -10.919  -6.755  1.00  0.00     0.029 A 
ATOM     22  C   UNL     1       3.903 -11.740  -7.418  1.00  0.00     0.049 A 
ATOM     23  H   UNL     1       2.114 -12.452  -6.620  1.00  0.00     0.167 HD
ATOM     24  C   UNL     1      -1.806 -13.491  -4.628  1.00  0.00     0.034 A 
ATOM     25  C   UNL     1       3.956 -12.193  -8.684  1.00  0.00     0.034 A 
ATOM     26  C   UNL     1      -1.819 -14.079  -5.944  1.00  0.00     0.049 A 
ATOM     27  C   UNL     1       2.804 -13.050  -9.146  1.00  0.00     0.074 A 
ATOM     28  C   UNL     1      -2.792 -14.855  -6.539  1.00  0.00     0.029 A 
ATOM     29  N   UNL     1      -0.784 -13.952  -6.869  1.00  0.00    -0.354 N 
ATOM     30  N   UNL     1       1.696 -13.359  -8.505  1.00  0.00    -0.248 NA
ATOM     31  C   UNL     1       2.908 -13.627 -10.487  1.00  0.00     0.031 C 
ATOM     32  C   UNL     1      -2.312 -15.264  -7.789  1.00  0.00     0.029 A 
ATOM     33  C   UNL     1      -1.081 -14.663  -8.018  1.00  0.00     0.049 A 
ATOM     34  H   UNL     1       0.039 -13.431  -6.726  1.00  0.00     0.167 HD
ATOM     35  C   UNL     1       0.954 -14.142  -9.382  1.00  0.00     0.074 A 
ATOM     36  C   UNL     1       1.738 -14.239 -10.600  1.00  0.00     0.031 C 
ATOM     37  C   UNL     1      -0.259 -14.730  -9.207  1.00  0.00     0.034 A 
BRANCH  24  38
ATOM     38  C   UNL     1      -2.950 -13.713  -3.670  1.00  0.00     0.023 A 
ATOM     39  C   UNL     1      -3.687 -12.650  -3.116  1.00  0.00     0.031 A 
ATOM     40  C   UNL     1      -3.220 -15.012  -3.203  1.00  0.00     0.131 A 
ATOM     41  C   UNL     1      -4.583 -12.896  -2.063  1.00  0.00     0.055 A 
ATOM     42  C   UNL     1      -4.179 -15.259  -2.220  1.00  0.00     0.041 A 
ATOM     43  F   UNL     1      -2.521 -16.062  -3.662  1.00  0.00    -0.206 F 
ATOM     44  C   UNL     1      -4.854 -14.195  -1.629  1.00  0.00     0.022 A 
BRANCH  41  45
ATOM     45  S   UNL     1      -5.245 -11.481  -1.136  1.00  0.00     0.124 S 
ATOM     46  O   UNL     1      -4.022 -10.855  -0.639  1.00  0.00    -0.237 OA
ATOM     47  O   UNL     1      -5.969 -10.740  -2.162  1.00  0.00    -0.237 OA
ATOM     48  O   UNL     1      -6.079 -12.101  -0.109  1.00  0.00    -0.744 OA
ENDBRANCH  41  45
ENDBRANCH  24  38
BRANCH  25  49
ATOM     49  C   UNL     1       5.139 -11.925  -9.554  1.00  0.00     0.023 A 
ATOM     50  C   UNL     1       5.004 -11.291 -10.799  1.00  0.00     0.031 A 
ATOM     51  C   UNL     1       6.426 -12.361  -9.180  1.00  0.00     0.131 A 
ATOM     52  C   UNL     1       6.119 -11.156 -11.643  1.00  0.00     0.055 A 
ATOM     53  C   UNL     1       7.543 -12.167  -9.995  1.00  0.00     0.041 A 
ATOM     54  F   UNL     1       6.621 -12.985  -8.007  1.00  0.00    -0.206 F 
ATOM     55  C   UNL     1       7.390 -11.575 -11.243  1.00  0.00     0.022 A 
BRANCH  52  56
ATOM     56  S   UNL     1       5.866 -10.524 -13.325  1.00  0.00     0.124 S 
ATOM     57  O   UNL     1       4.877 -11.460 -13.847  1.00  0.00    -0.237 OA
ATOM     58  O   UNL     1       5.394  -9.167 -13.071  1.00  0.00    -0.237 OA
ATOM     59  O   UNL     1       7.194 -10.619 -13.928  1.00  0.00    -0.744 OA
ENDBRANCH  52  56
ENDBRANCH  25  49
BRANCH  37  60
ATOM     60  C   UNL     1      -0.819 -15.471 -10.393  1.00  0.00     0.023 A 
ATOM     61  C   UNL     1      -0.209 -16.631 -10.896  1.00  0.00     0.031 A 
ATOM     62  C   UNL     1      -1.976 -14.993 -11.034  1.00  0.00     0.131 A 
ATOM     63  C   UNL     1      -0.718 -17.235 -12.053  1.00  0.00     0.055 A 
ATOM     64  C   UNL     1      -2.522 -15.644 -12.137  1.00  0.00     0.041 A 
ATOM     65  F   UNL     1      -2.594 -13.885 -10.594  1.00  0.00    -0.206 F 
ATOM     66  C   UNL     1      -1.883 -16.763 -12.664  1.00  0.00     0.022 A 
BRANCH  63  67
ATOM     67  S   UNL     1       0.237 -18.570 -12.821  1.00  0.00     0.124 S 
ATOM     68  O   UNL     1       1.525 -17.924 -13.056  1.00  0.00    -0.237 OA
ATOM     69  O   UNL     1       0.220 -19.600 -11.788  1.00  0.00    -0.237 OA
ATOM     70  O   UNL     1      -0.527 -18.887 -14.026  1.00  0.00    -0.744 OA
ENDBRANCH  63  67
ENDBRANCH  37  60
ENDBRANCH  11  12
ENDBRANCH   4   6
ENDBRANCH   3   4
ENDBRANCH   2   3
ENDBRANCH   1   2
BRANCH   1  71
ATOM     71  O   UNL     1       4.863  -6.086  -1.940  1.00  0.00    -0.374 OA
BRANCH  71  72
ATOM     72  C   UNL     1       6.112  -6.504  -1.383  1.00  0.00     0.202 C 
BRANCH  72  73
ATOM     73  C   UNL     1       7.247  -5.713  -2.014  1.00  0.00     0.261 C 
BRANCH  73  74
ATOM     74  O   UNL     1       6.997  -4.338  -1.709  1.00  0.00    -0.463 OA
BRANCH  74  75
ATOM     75  C   UNL     1       6.320  -3.637  -2.656  1.00  0.00     0.310 C 
ATOM     76  O   UNL     1       6.177  -3.976  -3.825  1.00  0.00    -0.252 OA
BRANCH  75  77
ATOM     77  C   UNL     1       5.647  -2.429  -2.031  1.00  0.00     0.115 C 
ATOM     78  C   UNL     1       6.376  -1.855  -0.778  1.00  0.00     0.004 C 
ATOM     79  C   UNL     1       5.625  -1.248  -3.008  1.00  0.00     0.096 C 
ATOM     80  C   UNL     1       7.873  -1.642  -1.048  1.00  0.00     0.005 C 
ATOM     81  C   UNL     1       5.959  -0.386  -0.748  1.00  0.00     0.009 C 
ATOM     82  C   UNL     1       6.346  -0.140  -2.202  1.00  0.00     0.002 C 
ATOM     83  C   UNL     1       7.853  -0.531  -2.116  1.00  0.00     0.005 C 
BRANCH  79  84
ATOM     84  C   UNL     1       4.271  -0.976  -3.701  1.00  0.00     0.224 C 
ATOM     85  O   UNL     1       4.259  -0.793  -4.925  1.00  0.00    -0.275 OA
ATOM     86  N   UNL     1       3.053  -0.935  -3.095  1.00  0.00    -0.349 N 
ATOM     87  H   UNL     1       2.289  -1.095  -3.696  1.00  0.00     0.164 HD
BRANCH  86  88
ATOM     88  C   UNL     1       2.696  -0.695  -1.716  1.00  0.00     0.112 C 
ATOM     89  C   UNL     1       2.536   0.812  -1.481  1.00  0.00     0.030 C 
ATOM     90  C   UNL     1       1.539  -1.493  -1.151  1.00  0.00    -0.022 A 
ATOM     91  C   UNL     1       2.302   1.096  -0.003  1.00  0.00     0.007 C 
ATOM     92  C   UNL     1       0.899  -1.032   0.024  1.00  0.00    -0.043 A 
ATOM     93  C   UNL     1       1.262  -2.790  -1.609  1.00  0.00     0.006 A 
ATOM     94  C   UNL     1       1.046   0.395   0.501  1.00  0.00     0.036 C 
ATOM     95  C   UNL     1       0.059  -1.895   0.742  1.00  0.00     0.004 A 
ATOM     96  C   UNL     1       0.415  -3.633  -0.888  1.00  0.00     0.000 A 
ATOM     97  C   UNL     1      -0.161  -3.197   0.301  1.00  0.00     0.000 A 
ENDBRANCH  86  88
ENDBRANCH  79  84
ENDBRANCH  75  77
ENDBRANCH  74  75
ENDBRANCH  73  74
ENDBRANCH  72  73
ENDBRANCH  71  72
ENDBRANCH   1  71
TORSDOF 19
