REMARK SMILES C/C(=N\NC(N)=O)c1nnn(-c2ccc(C(=O)OCCOCCOC(=O)c3ccc(-c4c5nc(c(-c6cc(S(=O)(=O)[O-])ccc6F)c6ccc([nH]6)c(-c6cc(S(=O)(=O)[O-])ccc6F)c6nc(c(-c7cc(S(=O)(=O)[O-])ccc7F)c7ccc4[nH]7)C=C6)C=C5)cc3)cc2)c1C
REMARK SMILES IDX 21 1 20 2 19 3 18 4 16 5 17 6 15 7 12 8 13 9 91 10 14 11
REMARK SMILES IDX 90 12 11 13 8 14 9 15 92 16 10 17 93 18 2 19 1 20 3 21 4 22
REMARK SMILES IDX 5 23 6 25 7 26 22 29 23 30 24 31 25 32 26 33 27 34 28 35
REMARK SMILES IDX 89 36 29 37 88 38 30 39 31 40 32 41 82 42 33 43 87 44 81 45
REMARK SMILES IDX 83 46 34 47 86 48 80 49 79 50 35 52 67 53 47 54 66 55 48 56
REMARK SMILES IDX 51 57 65 58 84 59 49 60 50 61 64 63 85 64 52 65 36 66 37 67
REMARK SMILES IDX 45 68 38 69 44 70 46 71 43 72 39 73 40 74 41 75 42 76 68 77
REMARK SMILES IDX 69 78 77 79 70 80 76 81 78 82 75 83 71 84 72 85 73 86 74 87
REMARK SMILES IDX 53 88 54 89 62 90 55 91 61 92 63 93 60 94 56 95 57 96 58 97
REMARK SMILES IDX 59 98
REMARK H PARENT 4 24 6 27 6 28 83 51 51 62
REMARK Flexibility Score: inf
ROOT
ATOM      1  O   UNL     1       8.111   3.594   9.147  1.00  0.00    -0.374 OA
ENDROOT
BRANCH   1   2
ATOM      2  C   UNL     1       9.062   3.949   8.146  1.00  0.00     0.202 C 
BRANCH   2   3
ATOM      3  C   UNL     1       9.024   3.204   6.812  1.00  0.00     0.261 C 
BRANCH   3   4
ATOM      4  O   UNL     1       7.795   3.410   6.101  1.00  0.00    -0.460 OA
BRANCH   4   5
ATOM      5  C   UNL     1       6.964   2.342   6.091  1.00  0.00     0.338 C 
ATOM      6  O   UNL     1       7.178   1.236   6.563  1.00  0.00    -0.246 OA
BRANCH   5   7
ATOM      7  C   UNL     1       5.655   2.714   5.515  1.00  0.00     0.060 A 
ATOM      8  C   UNL     1       3.232   2.964   4.205  1.00  0.00     0.067 A 
ATOM      9  C   UNL     1       3.278   2.245   5.403  1.00  0.00     0.029 A 
ATOM     10  C   UNL     1       4.344   3.686   3.751  1.00  0.00     0.029 A 
ATOM     11  C   UNL     1       4.507   2.099   6.042  1.00  0.00     0.018 A 
ATOM     12  C   UNL     1       5.562   3.570   4.416  1.00  0.00     0.018 A 
BRANCH   8  13
ATOM     13  N   UNL     1       2.145   2.748   3.330  1.00  0.00    -0.217 N 
ATOM     14  C   UNL     1       0.921   1.946   1.714  1.00  0.00     0.132 A 
ATOM     15  N   UNL     1       0.101   2.294   2.754  1.00  0.00    -0.128 NA
ATOM     16  C   UNL     1       2.234   2.205   2.056  1.00  0.00     0.071 A 
ATOM     17  N   UNL     1       0.864   2.703   3.761  1.00  0.00    -0.061 NA
ATOM     18  C   UNL     1       3.496   1.806   1.385  1.00  0.00     0.069 C 
BRANCH  14  19
ATOM     19  C   UNL     1       0.459   1.175   0.571  1.00  0.00     0.087 C 
ATOM     20  C   UNL     1       0.709  -0.307   0.651  1.00  0.00     0.071 C 
ATOM     21  N   UNL     1      -0.122   1.859  -0.369  1.00  0.00    -0.174 NA
BRANCH  21  22
ATOM     22  N   UNL     1      -0.581   1.315  -1.534  1.00  0.00    -0.229 N 
ATOM     23  C   UNL     1      -0.015   0.318  -2.297  1.00  0.00     0.332 C 
ATOM     24  H   UNL     1      -1.429   1.683  -1.873  1.00  0.00     0.195 HD
ATOM     25  N   UNL     1      -0.758   0.030  -3.405  1.00  0.00    -0.350 N 
ATOM     26  O   UNL     1       1.018  -0.301  -2.086  1.00  0.00    -0.247 OA
ATOM     27  H   UNL     1      -1.591   0.524  -3.582  1.00  0.00     0.161 HD
ATOM     28  H   UNL     1      -0.462  -0.673  -4.027  1.00  0.00     0.161 HD
ENDBRANCH  21  22
ENDBRANCH  14  19
ENDBRANCH   8  13
ENDBRANCH   5   7
ENDBRANCH   4   5
ENDBRANCH   3   4
ENDBRANCH   2   3
ENDBRANCH   1   2
BRANCH   1  29
ATOM     29  C   UNL     1       6.734   3.904   8.967  1.00  0.00     0.202 C 
BRANCH  29  30
ATOM     30  C   UNL     1       6.293   5.360   8.950  1.00  0.00     0.261 C 
BRANCH  30  31
ATOM     31  O   UNL     1       6.953   6.124   7.954  1.00  0.00    -0.460 OA
BRANCH  31  32
ATOM     32  C   UNL     1       7.925   6.922   8.447  1.00  0.00     0.338 C 
ATOM     33  O   UNL     1       8.540   6.765   9.500  1.00  0.00    -0.246 OA
BRANCH  32  34
ATOM     34  C   UNL     1       8.012   8.126   7.624  1.00  0.00     0.060 A 
ATOM     35  C   UNL     1       8.840   9.140   8.105  1.00  0.00     0.016 A 
ATOM     36  C   UNL     1       7.040   8.359   6.638  1.00  0.00     0.016 A 
ATOM     37  C   UNL     1       8.513  10.438   7.791  1.00  0.00     0.010 A 
ATOM     38  C   UNL     1       6.707   9.656   6.341  1.00  0.00     0.010 A 
ATOM     39  C   UNL     1       7.382  10.679   6.999  1.00  0.00    -0.014 A 
BRANCH  39  40
ATOM     40  C   UNL     1       7.035  12.049   6.699  1.00  0.00     0.031 A 
ATOM     41  C   UNL     1       7.976  12.608   5.710  1.00  0.00     0.074 A 
ATOM     42  C   UNL     1       5.966  12.700   7.194  1.00  0.00     0.049 A 
ATOM     43  N   UNL     1       9.034  13.295   5.980  1.00  0.00    -0.248 NA
ATOM     44  C   UNL     1       7.926  12.104   4.328  1.00  0.00     0.031 C 
ATOM     45  C   UNL     1       4.861  12.186   8.001  1.00  0.00     0.029 A 
ATOM     46  N   UNL     1       5.623  14.004   7.016  1.00  0.00    -0.354 N 
ATOM     47  C   UNL     1       9.604  13.569   4.749  1.00  0.00     0.074 A 
ATOM     48  C   UNL     1       9.073  12.587   3.846  1.00  0.00     0.031 C 
ATOM     49  C   UNL     1       3.871  13.113   8.049  1.00  0.00     0.029 A 
ATOM     50  C   UNL     1       4.322  14.333   7.394  1.00  0.00     0.049 A 
ATOM     51  H   UNL     1       6.249  14.668   6.646  1.00  0.00     0.167 HD
ATOM     52  C   UNL     1      10.181  14.779   4.521  1.00  0.00     0.034 A 
ATOM     53  C   UNL     1       3.674  15.508   7.141  1.00  0.00     0.034 A 
ATOM     54  C   UNL     1      10.420  15.476   5.771  1.00  0.00     0.049 A 
ATOM     55  C   UNL     1       4.733  16.531   6.919  1.00  0.00     0.074 A 
ATOM     56  C   UNL     1      11.125  15.181   6.924  1.00  0.00     0.029 A 
ATOM     57  N   UNL     1       9.540  16.478   6.122  1.00  0.00    -0.354 N 
ATOM     58  N   UNL     1       5.542  16.925   7.866  1.00  0.00    -0.248 NA
ATOM     59  C   UNL     1       5.245  16.703   5.565  1.00  0.00     0.031 C 
ATOM     60  C   UNL     1      10.304  15.655   7.990  1.00  0.00     0.029 A 
ATOM     61  C   UNL     1       9.197  16.306   7.441  1.00  0.00     0.049 A 
ATOM     62  H   UNL     1       9.213  17.193   5.529  1.00  0.00     0.167 HD
ATOM     63  C   UNL     1       6.798  16.955   7.279  1.00  0.00     0.074 A 
ATOM     64  C   UNL     1       6.541  16.889   5.838  1.00  0.00     0.031 C 
ATOM     65  C   UNL     1       7.928  16.724   8.013  1.00  0.00     0.034 A 
BRANCH  52  66
ATOM     66  C   UNL     1      10.124  15.505   3.197  1.00  0.00     0.023 A 
ATOM     67  C   UNL     1      10.777  16.747   3.137  1.00  0.00     0.031 A 
ATOM     68  C   UNL     1       9.252  15.215   2.120  1.00  0.00     0.131 A 
ATOM     69  C   UNL     1      10.469  17.673   2.129  1.00  0.00     0.055 A 
ATOM     70  C   UNL     1       9.004  16.113   1.081  1.00  0.00     0.041 A 
ATOM     71  F   UNL     1       8.518  14.100   2.047  1.00  0.00    -0.206 F 
ATOM     72  C   UNL     1       9.586  17.366   1.099  1.00  0.00     0.022 A 
BRANCH  69  73
ATOM     73  S   UNL     1      11.112  19.354   2.296  1.00  0.00     0.124 S 
ATOM     74  O   UNL     1      10.572  19.741   3.595  1.00  0.00    -0.237 OA
ATOM     75  O   UNL     1      12.553  19.130   2.237  1.00  0.00    -0.237 OA
ATOM     76  O   UNL     1      10.541  20.048   1.146  1.00  0.00    -0.744 OA
ENDBRANCH  69  73
ENDBRANCH  52  66
BRANCH  53  77
ATOM     77  C   UNL     1       2.254  15.699   6.703  1.00  0.00     0.023 A 
ATOM     78  C   UNL     1       1.588  16.951   6.717  1.00  0.00     0.031 A 
ATOM     79  C   UNL     1       1.606  14.657   6.002  1.00  0.00     0.131 A 
ATOM     80  C   UNL     1       0.344  17.113   6.050  1.00  0.00     0.055 A 
ATOM     81  C   UNL     1       0.386  14.825   5.341  1.00  0.00     0.041 A 
ATOM     82  F   UNL     1       2.182  13.454   5.856  1.00  0.00    -0.206 F 
ATOM     83  C   UNL     1      -0.246  16.057   5.353  1.00  0.00     0.022 A 
BRANCH  80  84
ATOM     84  S   UNL     1      -0.506  18.732   6.001  1.00  0.00     0.124 S 
ATOM     85  O   UNL     1      -0.897  18.922   7.393  1.00  0.00    -0.237 OA
ATOM     86  O   UNL     1       0.530  19.620   5.489  1.00  0.00    -0.237 OA
ATOM     87  O   UNL     1      -1.622  18.506   5.079  1.00  0.00    -0.744 OA
ENDBRANCH  80  84
ENDBRANCH  53  77
BRANCH  65  88
ATOM     88  C   UNL     1       7.821  16.737   9.528  1.00  0.00     0.023 A 
ATOM     89  C   UNL     1       6.957  15.925  10.301  1.00  0.00     0.031 A 
ATOM     90  C   UNL     1       8.726  17.561  10.220  1.00  0.00     0.131 A 
ATOM     91  C   UNL     1       7.013  15.976  11.711  1.00  0.00     0.055 A 
ATOM     92  C   UNL     1       8.797  17.589  11.612  1.00  0.00     0.041 A 
ATOM     93  F   UNL     1       9.588  18.342   9.547  1.00  0.00    -0.206 F 
ATOM     94  C   UNL     1       7.934  16.802  12.363  1.00  0.00     0.022 A 
BRANCH  91  95
ATOM     95  S   UNL     1       5.862  14.998  12.733  1.00  0.00     0.124 S 
ATOM     96  O   UNL     1       4.569  15.218  12.098  1.00  0.00    -0.237 OA
ATOM     97  O   UNL     1       6.409  13.649  12.619  1.00  0.00    -0.237 OA
ATOM     98  O   UNL     1       5.998  15.597  14.063  1.00  0.00    -0.744 OA
ENDBRANCH  91  95
ENDBRANCH  65  88
ENDBRANCH  39  40
ENDBRANCH  32  34
ENDBRANCH  31  32
ENDBRANCH  30  31
ENDBRANCH  29  30
ENDBRANCH   1  29
TORSDOF 20
