REMARK SMILES CCc1cc(/C=C/C(=O)OCCOCCOC(=O)c2ccc(-c3c4nc(c(-c5cc(S(=O)(=O)[O-])ccc5F)c5ccc([nH]5)c(-c5cc(S(=O)(=O)[O-])ccc5F)c5nc(c(-c6cc(S(=O)(=O)[O-])ccc6F)c6ccc3[nH]6)C=C5)C=C4)cc2)cc(C(=O)c2ccccc2)c1
REMARK SMILES IDX 13 1 12 2 11 3 10 4 8 5 9 6 7 7 6 8 5 9 3 10 4 11 92 12
REMARK SMILES IDX 83 13 82 14 2 15 1 16 84 17 85 18 86 19 87 20 91 21 88 22
REMARK SMILES IDX 90 23 89 24 14 25 15 26 16 27 17 28 18 29 19 30 20 31 81 32
REMARK SMILES IDX 21 33 80 34 22 35 23 36 24 37 74 38 25 39 79 40 73 41 75 42
REMARK SMILES IDX 26 43 78 44 72 45 71 46 27 48 59 49 39 50 58 51 40 52 43 53
REMARK SMILES IDX 57 54 76 55 41 56 42 57 56 59 77 60 44 61 28 62 29 63 37 64
REMARK SMILES IDX 30 65 36 66 38 67 35 68 31 69 32 70 33 71 34 72 60 73 61 74
REMARK SMILES IDX 69 75 62 76 68 77 70 78 67 79 63 80 64 81 65 82 66 83 45 84
REMARK SMILES IDX 46 85 54 86 47 87 53 88 55 89 52 90 48 91 49 92 50 93 51 94
REMARK H PARENT 75 47 43 58
REMARK Flexibility Score: inf
ROOT
ATOM      1  O   UNL     1       2.025   1.154   9.629  1.00  0.00    -0.374 OA
ENDROOT
BRANCH   1   2
ATOM      2  C   UNL     1       2.624   2.419   9.917  1.00  0.00     0.202 C 
BRANCH   2   3
ATOM      3  C   UNL     1       3.815   2.796   9.032  1.00  0.00     0.261 C 
BRANCH   3   4
ATOM      4  O   UNL     1       3.413   2.930   7.657  1.00  0.00    -0.460 OA
BRANCH   4   5
ATOM      5  C   UNL     1       3.933   2.015   6.808  1.00  0.00     0.330 C 
ATOM      6  O   UNL     1       4.787   1.179   7.065  1.00  0.00    -0.247 OA
BRANCH   5   7
ATOM      7  C   UNL     1       3.268   2.033   5.489  1.00  0.00     0.094 C 
ATOM      8  C   UNL     1       2.369   2.930   5.050  1.00  0.00     0.015 C 
BRANCH   8   9
ATOM      9  C   UNL     1       1.712   2.812   3.734  1.00  0.00    -0.024 A 
ATOM     10  C   UNL     1       0.809   1.439   1.916  1.00  0.00    -0.047 A 
ATOM     11  C   UNL     1       1.401   1.558   3.181  1.00  0.00     0.011 A 
ATOM     12  C   UNL     1       0.488   2.606   1.214  1.00  0.00     0.016 A 
ATOM     13  C   UNL     1       0.727   3.870   1.770  1.00  0.00     0.023 A 
ATOM     14  C   UNL     1       1.344   3.965   3.028  1.00  0.00     0.020 A 
BRANCH  10  15
ATOM     15  C   UNL     1       0.484   0.076   1.352  1.00  0.00     0.032 C 
ATOM     16  C   UNL     1       1.041  -0.162  -0.046  1.00  0.00     0.009 C 
ENDBRANCH  10  15
BRANCH  13  17
ATOM     17  C   UNL     1       0.394   5.127   1.033  1.00  0.00     0.193 C 
ATOM     18  O   UNL     1       0.835   6.205   1.421  1.00  0.00    -0.289 OA
BRANCH  17  19
ATOM     19  C   UNL     1      -0.410   5.107  -0.213  1.00  0.00     0.022 A 
ATOM     20  C   UNL     1       0.109   5.741  -1.347  1.00  0.00     0.012 A 
ATOM     21  C   UNL     1      -1.653   4.467  -0.274  1.00  0.00     0.012 A 
ATOM     22  C   UNL     1      -0.586   5.684  -2.555  1.00  0.00     0.001 A 
ATOM     23  C   UNL     1      -2.342   4.406  -1.487  1.00  0.00     0.001 A 
ATOM     24  C   UNL     1      -1.804   5.006  -2.627  1.00  0.00     0.000 A 
ENDBRANCH  17  19
ENDBRANCH  13  17
ENDBRANCH   8   9
ENDBRANCH   5   7
ENDBRANCH   4   5
ENDBRANCH   3   4
ENDBRANCH   2   3
ENDBRANCH   1   2
BRANCH   1  25
ATOM     25  C   UNL     1       1.058   1.130   8.578  1.00  0.00     0.202 C 
BRANCH  25  26
ATOM     26  C   UNL     1      -0.347   1.625   8.945  1.00  0.00     0.261 C 
BRANCH  26  27
ATOM     27  O   UNL     1      -0.375   3.047   9.167  1.00  0.00    -0.460 OA
BRANCH  27  28
ATOM     28  C   UNL     1      -0.560   3.421  10.456  1.00  0.00     0.338 C 
ATOM     29  O   UNL     1      -0.783   2.682  11.408  1.00  0.00    -0.246 OA
BRANCH  28  30
ATOM     30  C   UNL     1      -0.265   4.858  10.614  1.00  0.00     0.060 A 
ATOM     31  C   UNL     1       0.608   5.230  11.645  1.00  0.00     0.016 A 
ATOM     32  C   UNL     1      -0.865   5.831   9.810  1.00  0.00     0.016 A 
ATOM     33  C   UNL     1       0.848   6.577  11.907  1.00  0.00     0.010 A 
ATOM     34  C   UNL     1      -0.628   7.185  10.080  1.00  0.00     0.010 A 
ATOM     35  C   UNL     1       0.203   7.565  11.150  1.00  0.00    -0.014 A 
BRANCH  35  36
ATOM     36  C   UNL     1       0.288   8.985  11.575  1.00  0.00     0.031 A 
ATOM     37  C   UNL     1      -0.859   9.584  12.345  1.00  0.00     0.074 A 
ATOM     38  C   UNL     1       1.382   9.721  11.310  1.00  0.00     0.049 A 
ATOM     39  N   UNL     1      -1.017  10.804  12.789  1.00  0.00    -0.248 NA
ATOM     40  C   UNL     1      -1.980   8.682  12.649  1.00  0.00     0.031 C 
ATOM     41  C   UNL     1       2.573   9.239  10.612  1.00  0.00     0.029 A 
ATOM     42  N   UNL     1       1.668  11.033  11.595  1.00  0.00    -0.354 N 
ATOM     43  C   UNL     1      -2.255  10.820  13.423  1.00  0.00     0.074 A 
ATOM     44  C   UNL     1      -2.821   9.496  13.269  1.00  0.00     0.031 C 
ATOM     45  C   UNL     1       3.458  10.246  10.514  1.00  0.00     0.029 A 
ATOM     46  C   UNL     1       2.885  11.452  11.109  1.00  0.00     0.049 A 
ATOM     47  H   UNL     1       1.059  11.620  12.099  1.00  0.00     0.167 HD
ATOM     48  C   UNL     1      -2.858  11.841  14.082  1.00  0.00     0.034 A 
ATOM     49  C   UNL     1       3.457  12.673  11.120  1.00  0.00     0.034 A 
ATOM     50  C   UNL     1      -2.286  13.159  14.216  1.00  0.00     0.049 A 
ATOM     51  C   UNL     1       2.727  13.818  11.782  1.00  0.00     0.074 A 
ATOM     52  C   UNL     1      -2.804  14.261  14.873  1.00  0.00     0.029 A 
ATOM     53  N   UNL     1      -1.073  13.559  13.669  1.00  0.00    -0.354 N 
ATOM     54  N   UNL     1       1.562  13.818  12.388  1.00  0.00    -0.248 NA
ATOM     55  C   UNL     1       3.396  15.127  11.768  1.00  0.00     0.031 C 
ATOM     56  C   UNL     1      -1.942  15.344  14.663  1.00  0.00     0.029 A 
ATOM     57  C   UNL     1      -0.844  14.899  13.944  1.00  0.00     0.049 A 
ATOM     58  H   UNL     1      -0.464  12.976  13.161  1.00  0.00     0.167 HD
ATOM     59  C   UNL     1       1.376  15.118  12.855  1.00  0.00     0.074 A 
ATOM     60  C   UNL     1       2.553  15.869  12.470  1.00  0.00     0.031 C 
ATOM     61  C   UNL     1       0.330  15.641  13.546  1.00  0.00     0.034 A 
BRANCH  48  62
ATOM     62  C   UNL     1      -4.230  11.579  14.656  1.00  0.00     0.023 A 
ATOM     63  C   UNL     1      -4.439  10.637  15.679  1.00  0.00     0.031 A 
ATOM     64  C   UNL     1      -5.352  12.260  14.151  1.00  0.00     0.131 A 
ATOM     65  C   UNL     1      -5.743  10.351  16.112  1.00  0.00     0.055 A 
ATOM     66  C   UNL     1      -6.638  12.028  14.642  1.00  0.00     0.041 A 
ATOM     67  F   UNL     1      -5.219  13.154  13.158  1.00  0.00    -0.206 F 
ATOM     68  C   UNL     1      -6.841  11.057  15.618  1.00  0.00     0.022 A 
BRANCH  65  69
ATOM     69  S   UNL     1      -5.998   8.941  17.225  1.00  0.00     0.124 S 
ATOM     70  O   UNL     1      -5.441   7.841  16.441  1.00  0.00    -0.237 OA
ATOM     71  O   UNL     1      -5.240   9.330  18.408  1.00  0.00    -0.237 OA
ATOM     72  O   UNL     1      -7.449   8.899  17.399  1.00  0.00    -0.744 OA
ENDBRANCH  65  69
ENDBRANCH  48  62
BRANCH  49  73
ATOM     73  C   UNL     1       4.771  12.898  10.452  1.00  0.00     0.023 A 
ATOM     74  C   UNL     1       5.903  13.293  11.182  1.00  0.00     0.031 A 
ATOM     75  C   UNL     1       4.898  12.774   9.056  1.00  0.00     0.131 A 
ATOM     76  C   UNL     1       7.098  13.594  10.511  1.00  0.00     0.055 A 
ATOM     77  C   UNL     1       6.104  13.024   8.399  1.00  0.00     0.041 A 
ATOM     78  F   UNL     1       3.846  12.402   8.309  1.00  0.00    -0.206 F 
ATOM     79  C   UNL     1       7.210  13.449   9.127  1.00  0.00     0.022 A 
BRANCH  76  80
ATOM     80  S   UNL     1       8.487  14.264  11.468  1.00  0.00     0.124 S 
ATOM     81  O   UNL     1       7.897  15.465  12.047  1.00  0.00    -0.237 OA
ATOM     82  O   UNL     1       8.768  13.174  12.396  1.00  0.00    -0.237 OA
ATOM     83  O   UNL     1       9.515  14.498  10.456  1.00  0.00    -0.744 OA
ENDBRANCH  76  80
ENDBRANCH  49  73
BRANCH  61  84
ATOM     84  C   UNL     1       0.441  17.086  13.973  1.00  0.00     0.023 A 
ATOM     85  C   UNL     1       0.445  18.139  13.043  1.00  0.00     0.031 A 
ATOM     86  C   UNL     1       0.551  17.410  15.338  1.00  0.00     0.131 A 
ATOM     87  C   UNL     1       0.612  19.462  13.484  1.00  0.00     0.055 A 
ATOM     88  C   UNL     1       0.656  18.731  15.775  1.00  0.00     0.041 A 
ATOM     89  F   UNL     1       0.555  16.444  16.272  1.00  0.00    -0.206 F 
ATOM     90  C   UNL     1       0.700  19.765  14.845  1.00  0.00     0.022 A 
BRANCH  87  91
ATOM     91  S   UNL     1       0.803  20.777  12.249  1.00  0.00     0.124 S 
ATOM     92  O   UNL     1       1.974  20.326  11.504  1.00  0.00    -0.237 OA
ATOM     93  O   UNL     1      -0.468  20.721  11.534  1.00  0.00    -0.237 OA
ATOM     94  O   UNL     1       1.006  21.979  13.056  1.00  0.00    -0.744 OA
ENDBRANCH  87  91
ENDBRANCH  61  84
ENDBRANCH  35  36
ENDBRANCH  28  30
ENDBRANCH  27  28
ENDBRANCH  26  27
ENDBRANCH  25  26
ENDBRANCH   1  25
TORSDOF 21
