REMARK SMILES CC[C@H](C)c1ccccc1Oc1cccc(F)c1C(=O)OCCOCCOC(=O)c1ccc(-c2c3nc(c(-c4cc(S(=O)(=O)[O-])ccc4F)c4ccc([nH]4)c(-c4cc(S(=O)(=O)[O-])ccc4F)c4nc(c(-c5cc(S(=O)(=O)[O-])ccc5F)c5ccc2[nH]5)C=C4)C=C3)cc1
REMARK SMILES IDX 23 1 22 2 21 3 19 4 20 5 18 6 12 7 13 8 14 9 16 10 15 11
REMARK SMILES IDX 17 12 11 13 10 14 5 15 6 16 7 17 9 18 8 19 3 20 4 21 2 22
REMARK SMILES IDX 1 23 24 24 25 25 26 26 27 27 28 28 29 29 30 30 31 31 92 32
REMARK SMILES IDX 32 33 91 34 33 35 34 36 35 37 85 38 36 39 90 40 84 41 86 42
REMARK SMILES IDX 37 43 89 44 83 45 82 46 38 48 70 49 50 50 69 51 51 52 54 53
REMARK SMILES IDX 68 54 87 55 52 56 53 57 67 59 88 60 55 61 39 62 40 63 48 64
REMARK SMILES IDX 41 65 47 66 49 67 46 68 42 69 43 70 44 71 45 72 71 73 72 74
REMARK SMILES IDX 80 75 73 76 79 77 81 78 78 79 74 80 75 81 76 82 77 83 56 84
REMARK SMILES IDX 57 85 65 86 58 87 64 88 66 89 63 90 59 91 60 92 61 93 62 94
REMARK H PARENT 86 47 54 58
REMARK Flexibility Score: inf
ROOT
ATOM      1  C   UNL     1       5.302  -1.698   4.237  1.00  0.00     0.202 C 
ENDROOT
BRANCH   1   2
ATOM      2  C   UNL     1       3.807  -1.390   4.119  1.00  0.00     0.261 C 
BRANCH   2   3
ATOM      3  O   UNL     1       3.206  -1.856   2.902  1.00  0.00    -0.459 OA
BRANCH   3   4
ATOM      4  C   UNL     1       2.847  -0.869   2.050  1.00  0.00     0.345 C 
ATOM      5  O   UNL     1       3.082   0.325   2.190  1.00  0.00    -0.246 OA
BRANCH   4   6
ATOM      6  C   UNL     1       2.214  -1.401   0.834  1.00  0.00     0.138 A 
ATOM      7  C   UNL     1       1.149  -2.303   0.790  1.00  0.00     0.144 A 
ATOM      8  C   UNL     1       0.626  -2.685  -0.465  1.00  0.00     0.048 A 
ATOM      9  C   UNL     1       1.070  -2.105  -1.651  1.00  0.00     0.007 A 
ATOM     10  C   UNL     1       2.664  -0.840  -0.373  1.00  0.00     0.141 A 
ATOM     11  C   UNL     1       2.089  -1.167  -1.600  1.00  0.00     0.040 A 
ATOM     12  F   UNL     1       3.670   0.047  -0.389  1.00  0.00    -0.206 F 
BRANCH   7  13
ATOM     13  O   UNL     1       0.443  -2.895   1.801  1.00  0.00    -0.456 OA
BRANCH  13  14
ATOM     14  C   UNL     1       0.294  -2.390   3.067  1.00  0.00     0.130 A 
ATOM     15  C   UNL     1      -0.027  -1.075   3.469  1.00  0.00    -0.002 A 
ATOM     16  C   UNL     1      -0.060  -0.862   4.870  1.00  0.00     0.008 A 
ATOM     17  C   UNL     1       0.065  -1.896   5.807  1.00  0.00     0.001 A 
ATOM     18  C   UNL     1       0.389  -3.433   4.018  1.00  0.00     0.047 A 
ATOM     19  C   UNL     1       0.261  -3.194   5.379  1.00  0.00     0.004 A 
BRANCH  15  20
ATOM     20  C   UNL     1      -0.276   0.128   2.540  1.00  0.00     0.019 C 
ATOM     21  C   UNL     1      -0.986  -0.165   1.204  1.00  0.00     0.013 C 
BRANCH  20  22
ATOM     22  C   UNL     1      -0.950   1.379   3.166  1.00  0.00     0.005 C 
ATOM     23  C   UNL     1      -2.395   1.165   3.595  1.00  0.00     0.004 C 
ENDBRANCH  20  22
ENDBRANCH  15  20
ENDBRANCH  13  14
ENDBRANCH   7  13
ENDBRANCH   4   6
ENDBRANCH   3   4
ENDBRANCH   2   3
ENDBRANCH   1   2
BRANCH   1  24
ATOM     24  O   UNL     1       6.195  -1.335   3.194  1.00  0.00    -0.374 OA
BRANCH  24  25
ATOM     25  C   UNL     1       5.952  -1.778   1.867  1.00  0.00     0.202 C 
BRANCH  25  26
ATOM     26  C   UNL     1       5.816  -3.276   1.533  1.00  0.00     0.261 C 
BRANCH  26  27
ATOM     27  O   UNL     1       5.022  -4.064   2.430  1.00  0.00    -0.460 OA
BRANCH  27  28
ATOM     28  C   UNL     1       5.762  -4.814   3.286  1.00  0.00     0.338 C 
ATOM     29  O   UNL     1       6.977  -4.839   3.366  1.00  0.00    -0.246 OA
BRANCH  28  30
ATOM     30  C   UNL     1       4.908  -5.526   4.253  1.00  0.00     0.060 A 
ATOM     31  C   UNL     1       5.125  -5.267   5.611  1.00  0.00     0.016 A 
ATOM     32  C   UNL     1       4.076  -6.573   3.852  1.00  0.00     0.016 A 
ATOM     33  C   UNL     1       4.583  -6.109   6.575  1.00  0.00     0.010 A 
ATOM     34  C   UNL     1       3.535  -7.424   4.825  1.00  0.00     0.010 A 
ATOM     35  C   UNL     1       3.840  -7.230   6.185  1.00  0.00    -0.014 A 
BRANCH  35  36
ATOM     36  C   UNL     1       3.589  -8.288   7.197  1.00  0.00     0.031 A 
ATOM     37  C   UNL     1       4.464  -9.517   7.197  1.00  0.00     0.074 A 
ATOM     38  C   UNL     1       2.679  -8.102   8.170  1.00  0.00     0.049 A 
ATOM     39  N   UNL     1       4.463 -10.539   8.013  1.00  0.00    -0.248 NA
ATOM     40  C   UNL     1       5.479  -9.599   6.135  1.00  0.00     0.031 C 
ATOM     41  C   UNL     1       1.825  -6.923   8.308  1.00  0.00     0.029 A 
ATOM     42  N   UNL     1       2.337  -8.892   9.237  1.00  0.00    -0.354 N 
ATOM     43  C   UNL     1       5.476 -11.384   7.566  1.00  0.00     0.074 A 
ATOM     44  C   UNL     1       6.032 -10.777   6.377  1.00  0.00     0.031 C 
ATOM     45  C   UNL     1       1.065  -7.062   9.407  1.00  0.00     0.029 A 
ATOM     46  C   UNL     1       1.349  -8.354  10.028  1.00  0.00     0.049 A 
ATOM     47  H   UNL     1       2.759  -9.763   9.420  1.00  0.00     0.167 HD
ATOM     48  C   UNL     1       5.914 -12.548   8.109  1.00  0.00     0.034 A 
ATOM     49  C   UNL     1       0.737  -8.855  11.120  1.00  0.00     0.034 A 
ATOM     50  C   UNL     1       5.346 -13.142   9.295  1.00  0.00     0.049 A 
ATOM     51  C   UNL     1       1.176 -10.202  11.646  1.00  0.00     0.074 A 
ATOM     52  C   UNL     1       5.706 -14.318   9.929  1.00  0.00     0.029 A 
ATOM     53  N   UNL     1       4.291 -12.607  10.025  1.00  0.00    -0.354 N 
ATOM     54  N   UNL     1       2.131 -10.992  11.210  1.00  0.00    -0.248 NA
ATOM     55  C   UNL     1       0.460 -10.716  12.820  1.00  0.00     0.031 C 
ATOM     56  C   UNL     1       4.823 -14.532  10.994  1.00  0.00     0.029 A 
ATOM     57  C   UNL     1       3.966 -13.446  11.080  1.00  0.00     0.049 A 
ATOM     58  H   UNL     1       3.841 -11.755   9.823  1.00  0.00     0.167 HD
ATOM     59  C   UNL     1       2.149 -12.081  12.079  1.00  0.00     0.074 A 
ATOM     60  C   UNL     1       1.130 -11.829  13.076  1.00  0.00     0.031 C 
ATOM     61  C   UNL     1       2.935 -13.189  12.059  1.00  0.00     0.034 A 
BRANCH  48  62
ATOM     62  C   UNL     1       7.028 -13.275   7.391  1.00  0.00     0.023 A 
ATOM     63  C   UNL     1       8.312 -12.717   7.254  1.00  0.00     0.031 A 
ATOM     64  C   UNL     1       6.796 -14.537   6.815  1.00  0.00     0.131 A 
ATOM     65  C   UNL     1       9.290 -13.385   6.501  1.00  0.00     0.055 A 
ATOM     66  C   UNL     1       7.798 -15.234   6.136  1.00  0.00     0.041 A 
ATOM     67  F   UNL     1       5.585 -15.110   6.891  1.00  0.00    -0.206 F 
ATOM     68  C   UNL     1       9.050 -14.652   5.964  1.00  0.00     0.022 A 
BRANCH  65  69
ATOM     69  S   UNL     1      10.834 -12.515   6.111  1.00  0.00     0.124 S 
ATOM     70  O   UNL     1      10.337 -11.341   5.397  1.00  0.00    -0.237 OA
ATOM     71  O   UNL     1      11.399 -12.269   7.432  1.00  0.00    -0.237 OA
ATOM     72  O   UNL     1      11.568 -13.472   5.286  1.00  0.00    -0.744 OA
ENDBRANCH  65  69
ENDBRANCH  48  62
BRANCH  49  73
ATOM     73  C   UNL     1      -0.378  -8.112  11.776  1.00  0.00     0.023 A 
ATOM     74  C   UNL     1      -0.291  -7.703  13.116  1.00  0.00     0.031 A 
ATOM     75  C   UNL     1      -1.584  -7.870  11.092  1.00  0.00     0.131 A 
ATOM     76  C   UNL     1      -1.406  -7.130  13.747  1.00  0.00     0.055 A 
ATOM     77  C   UNL     1      -2.668  -7.241  11.706  1.00  0.00     0.041 A 
ATOM     78  F   UNL     1      -1.725  -8.243   9.810  1.00  0.00    -0.206 F 
ATOM     79  C   UNL     1      -2.589  -6.883  13.047  1.00  0.00     0.022 A 
BRANCH  76  80
ATOM     80  S   UNL     1      -1.326  -6.815  15.532  1.00  0.00     0.124 S 
ATOM     81  O   UNL     1      -1.016  -8.141  16.053  1.00  0.00    -0.237 OA
ATOM     82  O   UNL     1      -0.257  -5.825  15.616  1.00  0.00    -0.237 OA
ATOM     83  O   UNL     1      -2.662  -6.314  15.849  1.00  0.00    -0.744 OA
ENDBRANCH  76  80
ENDBRANCH  49  73
BRANCH  61  84
ATOM     84  C   UNL     1       2.738 -14.188  13.176  1.00  0.00     0.023 A 
ATOM     85  C   UNL     1       1.529 -14.887  13.337  1.00  0.00     0.031 A 
ATOM     86  C   UNL     1       3.760 -14.416  14.115  1.00  0.00     0.131 A 
ATOM     87  C   UNL     1       1.343 -15.718  14.453  1.00  0.00     0.055 A 
ATOM     88  C   UNL     1       3.597 -15.302  15.181  1.00  0.00     0.041 A 
ATOM     89  F   UNL     1       4.937 -13.776  14.015  1.00  0.00    -0.206 F 
ATOM     90  C   UNL     1       2.376 -15.944  15.365  1.00  0.00     0.022 A 
BRANCH  87  91
ATOM     91  S   UNL     1      -0.310 -16.396  14.764  1.00  0.00     0.124 S 
ATOM     92  O   UNL     1      -1.127 -15.188  14.826  1.00  0.00    -0.237 OA
ATOM     93  O   UNL     1      -0.522 -17.248  13.598  1.00  0.00    -0.237 OA
ATOM     94  O   UNL     1      -0.156 -17.107  16.032  1.00  0.00    -0.744 OA
ENDBRANCH  87  91
ENDBRANCH  61  84
ENDBRANCH  35  36
ENDBRANCH  28  30
ENDBRANCH  27  28
ENDBRANCH  26  27
ENDBRANCH  25  26
ENDBRANCH  24  25
ENDBRANCH   1  24
TORSDOF 21
