REMARK SMILES CCOc1ccc(-c2nc(C(=O)OCCOCCOC(=O)c3ccc(-c4c5nc(c(-c6cc(S(=O)(=O)[O-])ccc6F)c6ccc([nH]6)c(-c6cc(S(=O)(=O)[O-])ccc6F)c6nc(c(-c7cc(S(=O)(=O)[O-])ccc7F)c7ccc4[nH]7)C=C6)C=C5)cc3)cc(=O)[nH]2)cc1
REMARK SMILES IDX 16 1 15 2 14 3 13 4 11 5 12 6 10 7 8 8 9 9 88 10 86 11 85 13
REMARK SMILES IDX 87 14 7 15 4 16 5 17 90 18 6 19 89 20 3 21 2 22 1 23 17 24
REMARK SMILES IDX 18 25 19 26 20 27 21 28 22 29 23 30 84 31 24 32 83 33 25 34
REMARK SMILES IDX 26 35 27 36 77 37 28 38 82 39 76 40 78 41 29 42 81 43 75 44
REMARK SMILES IDX 74 45 30 47 62 48 42 49 61 50 43 51 46 52 60 53 79 54 44 55
REMARK SMILES IDX 45 56 59 58 80 59 47 60 31 61 32 62 40 63 33 64 39 65 41 66
REMARK SMILES IDX 38 67 34 68 35 69 36 70 37 71 63 72 64 73 72 74 65 75 71 76
REMARK SMILES IDX 73 77 70 78 66 79 67 80 68 81 69 82 48 83 49 84 57 85 50 86
REMARK SMILES IDX 56 87 58 88 55 89 51 90 52 91 53 92 54 93
REMARK H PARENT 88 12 78 46 46 57
REMARK Flexibility Score: inf
ROOT
ATOM      1  O   UNL     1       9.622   0.219  -5.054  1.00  0.00    -0.374 OA
ENDROOT
BRANCH   1   2
ATOM      2  C   UNL     1      10.744   1.038  -5.388  1.00  0.00     0.202 C 
BRANCH   2   3
ATOM      3  C   UNL     1      10.466   2.541  -5.488  1.00  0.00     0.261 C 
BRANCH   3   4
ATOM      4  O   UNL     1      10.062   3.069  -4.213  1.00  0.00    -0.459 OA
BRANCH   4   5
ATOM      5  C   UNL     1       8.801   3.575  -4.170  1.00  0.00     0.357 C 
ATOM      6  O   UNL     1       8.085   3.803  -5.135  1.00  0.00    -0.244 OA
BRANCH   5   7
ATOM      7  C   UNL     1       8.325   3.674  -2.749  1.00  0.00     0.156 A 
ATOM      8  C   UNL     1       6.569   3.439  -1.311  1.00  0.00     0.141 A 
ATOM      9  N   UNL     1       7.014   3.319  -2.515  1.00  0.00    -0.223 NA
ATOM     10  N   UNL     1       7.336   3.880  -0.269  1.00  0.00    -0.306 N 
ATOM     11  C   UNL     1       8.652   4.197  -0.429  1.00  0.00     0.251 A 
ATOM     12  H   UNL     1       6.926   3.972   0.622  1.00  0.00     0.171 HD
ATOM     13  C   UNL     1       9.175   4.085  -1.798  1.00  0.00     0.107 A 
ATOM     14  O   UNL     1       9.361   4.553   0.504  1.00  0.00    -0.269 OA
BRANCH   8  15
ATOM     15  C   UNL     1       5.179   3.072  -1.004  1.00  0.00     0.018 A 
ATOM     16  C   UNL     1       2.510   2.382  -0.680  1.00  0.00     0.119 A 
ATOM     17  C   UNL     1       2.917   3.701  -0.463  1.00  0.00     0.047 A 
ATOM     18  C   UNL     1       3.430   1.412  -1.075  1.00  0.00     0.047 A 
ATOM     19  C   UNL     1       4.261   4.050  -0.614  1.00  0.00     0.016 A 
ATOM     20  C   UNL     1       4.771   1.755  -1.236  1.00  0.00     0.016 A 
BRANCH  16  21
ATOM     21  O   UNL     1       1.173   2.103  -0.649  1.00  0.00    -0.494 OA
BRANCH  21  22
ATOM     22  C   UNL     1       0.784   1.344   0.500  1.00  0.00     0.226 C 
ATOM     23  C   UNL     1       0.752  -0.145   0.197  1.00  0.00     0.049 C 
ENDBRANCH  21  22
ENDBRANCH  16  21
ENDBRANCH   8  15
ENDBRANCH   5   7
ENDBRANCH   4   5
ENDBRANCH   3   4
ENDBRANCH   2   3
ENDBRANCH   1   2
BRANCH   1  24
ATOM     24  C   UNL     1       9.264   0.138  -3.674  1.00  0.00     0.202 C 
BRANCH  24  25
ATOM     25  C   UNL     1      10.114  -0.793  -2.800  1.00  0.00     0.261 C 
BRANCH  25  26
ATOM     26  O   UNL     1      11.460  -0.311  -2.640  1.00  0.00    -0.460 OA
BRANCH  26  27
ATOM     27  C   UNL     1      12.404  -1.036  -3.288  1.00  0.00     0.338 C 
ATOM     28  O   UNL     1      12.227  -2.074  -3.915  1.00  0.00    -0.246 OA
BRANCH  27  29
ATOM     29  C   UNL     1      13.684  -0.303  -3.306  1.00  0.00     0.060 A 
ATOM     30  C   UNL     1      14.320  -0.141  -4.544  1.00  0.00     0.016 A 
ATOM     31  C   UNL     1      14.283   0.169  -2.136  1.00  0.00     0.016 A 
ATOM     32  C   UNL     1      15.579   0.453  -4.611  1.00  0.00     0.010 A 
ATOM     33  C   UNL     1      15.550   0.758  -2.205  1.00  0.00     0.010 A 
ATOM     34  C   UNL     1      16.218   0.874  -3.438  1.00  0.00    -0.014 A 
BRANCH  34  35
ATOM     35  C   UNL     1      17.641   1.298  -3.489  1.00  0.00     0.031 A 
ATOM     36  C   UNL     1      18.708   0.317  -3.085  1.00  0.00     0.074 A 
ATOM     37  C   UNL     1      17.980   2.526  -3.920  1.00  0.00     0.049 A 
ATOM     38  N   UNL     1      20.005   0.474  -3.026  1.00  0.00    -0.248 NA
ATOM     39  C   UNL     1      18.242  -1.022  -2.692  1.00  0.00     0.031 C 
ATOM     40  C   UNL     1      17.042   3.544  -4.387  1.00  0.00     0.029 A 
ATOM     41  N   UNL     1      19.210   3.123  -4.035  1.00  0.00    -0.354 N 
ATOM     42  C   UNL     1      20.515  -0.745  -2.589  1.00  0.00     0.074 A 
ATOM     43  C   UNL     1      19.378  -1.612  -2.354  1.00  0.00     0.031 C 
ATOM     44  C   UNL     1      17.732   4.642  -4.742  1.00  0.00     0.029 A 
ATOM     45  C   UNL     1      19.154   4.419  -4.489  1.00  0.00     0.049 A 
ATOM     46  H   UNL     1      20.054   2.666  -3.813  1.00  0.00     0.167 HD
ATOM     47  C   UNL     1      21.809  -1.111  -2.412  1.00  0.00     0.034 A 
ATOM     48  C   UNL     1      20.137   5.327  -4.660  1.00  0.00     0.034 A 
ATOM     49  C   UNL     1      22.930  -0.229  -2.632  1.00  0.00     0.049 A 
ATOM     50  C   UNL     1      21.561   4.935  -4.346  1.00  0.00     0.074 A 
ATOM     51  C   UNL     1      24.281  -0.496  -2.494  1.00  0.00     0.029 A 
ATOM     52  N   UNL     1      22.830   1.103  -3.019  1.00  0.00    -0.354 N 
ATOM     53  N   UNL     1      22.032   3.779  -3.938  1.00  0.00    -0.248 NA
ATOM     54  C   UNL     1      22.585   5.974  -4.518  1.00  0.00     0.031 C 
ATOM     55  C   UNL     1      24.991   0.689  -2.723  1.00  0.00     0.029 A 
ATOM     56  C   UNL     1      24.091   1.678  -3.086  1.00  0.00     0.049 A 
ATOM     57  H   UNL     1      21.986   1.569  -3.219  1.00  0.00     0.167 HD
ATOM     58  C   UNL     1      23.413   3.943  -3.842  1.00  0.00     0.074 A 
ATOM     59  C   UNL     1      23.696   5.307  -4.241  1.00  0.00     0.031 C 
ATOM     60  C   UNL     1      24.361   3.045  -3.469  1.00  0.00     0.034 A 
BRANCH  47  61
ATOM     61  C   UNL     1      22.064  -2.512  -1.903  1.00  0.00     0.023 A 
ATOM     62  C   UNL     1      21.683  -3.648  -2.640  1.00  0.00     0.031 A 
ATOM     63  C   UNL     1      22.644  -2.714  -0.638  1.00  0.00     0.131 A 
ATOM     64  C   UNL     1      21.802  -4.925  -2.071  1.00  0.00     0.055 A 
ATOM     65  C   UNL     1      22.842  -3.994  -0.115  1.00  0.00     0.041 A 
ATOM     66  F   UNL     1      23.008  -1.670   0.122  1.00  0.00    -0.206 F 
ATOM     67  C   UNL     1      22.402  -5.108  -0.823  1.00  0.00     0.022 A 
BRANCH  64  68
ATOM     68  S   UNL     1      21.004  -6.323  -2.907  1.00  0.00     0.124 S 
ATOM     69  O   UNL     1      19.620  -5.864  -2.994  1.00  0.00    -0.237 OA
ATOM     70  O   UNL     1      21.735  -6.396  -4.166  1.00  0.00    -0.237 OA
ATOM     71  O   UNL     1      21.224  -7.441  -1.991  1.00  0.00    -0.744 OA
ENDBRANCH  64  68
ENDBRANCH  47  61
BRANCH  48  72
ATOM     72  C   UNL     1      19.819   6.706  -5.127  1.00  0.00     0.023 A 
ATOM     73  C   UNL     1      20.305   7.183  -6.354  1.00  0.00     0.031 A 
ATOM     74  C   UNL     1      19.067   7.586  -4.328  1.00  0.00     0.131 A 
ATOM     75  C   UNL     1      20.071   8.515  -6.729  1.00  0.00     0.055 A 
ATOM     76  C   UNL     1      18.793   8.895  -4.729  1.00  0.00     0.041 A 
ATOM     77  F   UNL     1      18.581   7.181  -3.144  1.00  0.00    -0.206 F 
ATOM     78  C   UNL     1      19.307   9.370  -5.931  1.00  0.00     0.022 A 
BRANCH  75  79
ATOM     79  S   UNL     1      20.846   9.140  -8.245  1.00  0.00     0.124 S 
ATOM     80  O   UNL     1      22.262   8.945  -7.956  1.00  0.00    -0.237 OA
ATOM     81  O   UNL     1      20.271   8.266  -9.262  1.00  0.00    -0.237 OA
ATOM     82  O   UNL     1      20.406  10.532  -8.303  1.00  0.00    -0.744 OA
ENDBRANCH  75  79
ENDBRANCH  48  72
BRANCH  60  83
ATOM     83  C   UNL     1      25.800   3.502  -3.525  1.00  0.00     0.023 A 
ATOM     84  C   UNL     1      26.298   4.499  -2.667  1.00  0.00     0.031 A 
ATOM     85  C   UNL     1      26.683   2.939  -4.464  1.00  0.00     0.131 A 
ATOM     86  C   UNL     1      27.623   4.941  -2.803  1.00  0.00     0.055 A 
ATOM     87  C   UNL     1      28.017   3.340  -4.554  1.00  0.00     0.041 A 
ATOM     88  F   UNL     1      26.263   1.986  -5.311  1.00  0.00    -0.206 F 
ATOM     89  C   UNL     1      28.490   4.356  -3.729  1.00  0.00     0.022 A 
BRANCH  86  90
ATOM     90  S   UNL     1      28.177   6.359  -1.815  1.00  0.00     0.124 S 
ATOM     91  O   UNL     1      27.239   7.399  -2.225  1.00  0.00    -0.237 OA
ATOM     92  O   UNL     1      28.026   5.867  -0.450  1.00  0.00    -0.237 OA
ATOM     93  O   UNL     1      29.558   6.563  -2.249  1.00  0.00    -0.744 OA
ENDBRANCH  86  90
ENDBRANCH  60  83
ENDBRANCH  34  35
ENDBRANCH  27  29
ENDBRANCH  26  27
ENDBRANCH  25  26
ENDBRANCH  24  25
ENDBRANCH   1  24
TORSDOF 20
