REMARK SMILES COc1ccccc1S(=O)(=O)[C@@H](C)[C@H](C)C(=O)OCCOCCOC(=O)c1ccc(-c2c3nc(c(-c4cc(S(=O)(=O)[O-])ccc4F)c4ccc([nH]4)c(-c4cc(S(=O)(=O)[O-])ccc4F)c4nc(c(-c5cc(S(=O)(=O)[O-])ccc5F)c5ccc2[nH]5)C=C4)C=C3)cc1
REMARK SMILES IDX 20 1 19 2 18 3 16 4 17 5 14 6 15 7 12 8 13 9 9 10 10 11
REMARK SMILES IDX 11 12 8 13 3 14 4 15 5 16 7 17 6 18 2 19 1 20 21 21 22 22
REMARK SMILES IDX 23 23 24 24 25 25 26 26 27 27 28 28 89 29 29 30 88 31 30 32
REMARK SMILES IDX 31 33 32 34 82 35 33 36 87 37 81 38 83 39 34 40 86 41 80 42
REMARK SMILES IDX 79 43 35 45 67 46 47 47 66 48 48 49 51 50 65 51 84 52 49 53
REMARK SMILES IDX 50 54 64 56 85 57 52 58 36 59 37 60 45 61 38 62 44 63 46 64
REMARK SMILES IDX 43 65 39 66 40 67 41 68 42 69 68 70 69 71 77 72 70 73 76 74
REMARK SMILES IDX 78 75 75 76 71 77 72 78 73 79 74 80 53 81 54 82 62 83 55 84
REMARK SMILES IDX 61 85 63 86 60 87 56 88 57 89 58 90 59 91
REMARK H PARENT 83 44 51 55
REMARK Flexibility Score: inf
ROOT
ATOM      1  C   UNL     1      -0.405  -4.461   0.992  1.00  0.00     0.202 C 
ENDROOT
BRANCH   1   2
ATOM      2  C   UNL     1       0.470  -4.784  -0.223  1.00  0.00     0.261 C 
BRANCH   2   3
ATOM      3  O   UNL     1       1.458  -3.762  -0.448  1.00  0.00    -0.463 OA
BRANCH   3   4
ATOM      4  C   UNL     1       1.244  -2.956  -1.515  1.00  0.00     0.310 C 
ATOM      5  O   UNL     1       0.332  -3.062  -2.324  1.00  0.00    -0.252 OA
BRANCH   4   6
ATOM      6  C   UNL     1       2.265  -1.839  -1.601  1.00  0.00     0.114 C 
ATOM      7  C   UNL     1       2.740  -1.341  -0.227  1.00  0.00     0.021 C 
BRANCH   6   8
ATOM      8  C   UNL     1       3.408  -2.270  -2.529  1.00  0.00     0.124 C 
ATOM      9  C   UNL     1       4.713  -1.482  -2.363  1.00  0.00     0.026 C 
BRANCH   8  10
ATOM     10  S   UNL     1       2.987  -2.482  -4.261  1.00  0.00     0.185 S 
ATOM     11  O   UNL     1       2.481  -3.842  -4.376  1.00  0.00    -0.223 OA
ATOM     12  O   UNL     1       4.144  -2.108  -5.060  1.00  0.00    -0.223 OA
BRANCH  10  13
ATOM     13  C   UNL     1       1.698  -1.425  -4.876  1.00  0.00     0.109 A 
ATOM     14  C   UNL     1       1.534  -0.092  -4.509  1.00  0.00     0.137 A 
ATOM     15  C   UNL     1       0.524   0.673  -5.112  1.00  0.00     0.048 A 
ATOM     16  C   UNL     1      -0.254   0.142  -6.143  1.00  0.00     0.004 A 
ATOM     17  C   UNL     1       0.909  -1.955  -5.915  1.00  0.00     0.024 A 
ATOM     18  C   UNL     1      -0.052  -1.171  -6.554  1.00  0.00     0.002 A 
BRANCH  14  19
ATOM     19  O   UNL     1       2.280   0.471  -3.515  1.00  0.00    -0.495 OA
ATOM     20  C   UNL     1       3.180   1.460  -4.005  1.00  0.00     0.278 C 
ENDBRANCH  14  19
ENDBRANCH  10  13
ENDBRANCH   8  10
ENDBRANCH   6   8
ENDBRANCH   4   6
ENDBRANCH   3   4
ENDBRANCH   2   3
ENDBRANCH   1   2
BRANCH   1  21
ATOM     21  O   UNL     1      -1.338  -3.390   0.843  1.00  0.00    -0.374 OA
BRANCH  21  22
ATOM     22  C   UNL     1      -0.842  -2.059   0.948  1.00  0.00     0.202 C 
BRANCH  22  23
ATOM     23  C   UNL     1      -0.513  -1.545   2.356  1.00  0.00     0.261 C 
BRANCH  23  24
ATOM     24  O   UNL     1       0.583  -2.257   2.960  1.00  0.00    -0.460 OA
BRANCH  24  25
ATOM     25  C   UNL     1       0.237  -3.001   4.038  1.00  0.00     0.338 C 
ATOM     26  O   UNL     1      -0.863  -3.042   4.577  1.00  0.00    -0.246 OA
BRANCH  25  27
ATOM     27  C   UNL     1       1.319  -3.938   4.391  1.00  0.00     0.060 A 
ATOM     28  C   UNL     1       0.983  -5.294   4.472  1.00  0.00     0.016 A 
ATOM     29  C   UNL     1       2.608  -3.505   4.717  1.00  0.00     0.016 A 
ATOM     30  C   UNL     1       1.916  -6.217   4.933  1.00  0.00     0.010 A 
ATOM     31  C   UNL     1       3.544  -4.436   5.187  1.00  0.00     0.010 A 
ATOM     32  C   UNL     1       3.188  -5.790   5.335  1.00  0.00    -0.014 A 
BRANCH  32  33
ATOM     33  C   UNL     1       4.067  -6.754   6.043  1.00  0.00     0.031 A 
ATOM     34  C   UNL     1       4.116  -6.734   7.547  1.00  0.00     0.074 A 
ATOM     35  C   UNL     1       4.738  -7.697   5.358  1.00  0.00     0.049 A 
ATOM     36  N   UNL     1       4.729  -7.544   8.372  1.00  0.00    -0.248 NA
ATOM     37  C   UNL     1       3.372  -5.651   8.206  1.00  0.00     0.031 C 
ATOM     38  C   UNL     1       4.737  -7.839   3.903  1.00  0.00     0.029 A 
ATOM     39  N   UNL     1       5.532  -8.725   5.797  1.00  0.00    -0.354 N 
ATOM     40  C   UNL     1       4.434  -7.079   9.650  1.00  0.00     0.074 A 
ATOM     41  C   UNL     1       3.638  -5.881   9.482  1.00  0.00     0.031 C 
ATOM     42  C   UNL     1       5.482  -8.906   3.570  1.00  0.00     0.029 A 
ATOM     43  C   UNL     1       6.031  -9.507   4.784  1.00  0.00     0.049 A 
ATOM     44  H   UNL     1       5.726  -8.887   6.749  1.00  0.00     0.167 HD
ATOM     45  C   UNL     1       4.780  -7.611  10.850  1.00  0.00     0.034 A 
ATOM     46  C   UNL     1       6.838 -10.585   4.831  1.00  0.00     0.034 A 
ATOM     47  C   UNL     1       5.598  -8.792  10.999  1.00  0.00     0.049 A 
ATOM     48  C   UNL     1       7.287 -11.106   6.173  1.00  0.00     0.074 A 
ATOM     49  C   UNL     1       6.000  -9.426  12.162  1.00  0.00     0.029 A 
ATOM     50  N   UNL     1       6.160  -9.508   9.948  1.00  0.00    -0.354 N 
ATOM     51  N   UNL     1       6.984 -10.672   7.375  1.00  0.00    -0.248 NA
ATOM     52  C   UNL     1       8.177 -12.273   6.158  1.00  0.00     0.031 C 
ATOM     53  C   UNL     1       6.863 -10.474  11.818  1.00  0.00     0.029 A 
ATOM     54  C   UNL     1       6.938 -10.549  10.437  1.00  0.00     0.049 A 
ATOM     55  H   UNL     1       6.025  -9.307   8.994  1.00  0.00     0.167 HD
ATOM     56  C   UNL     1       7.634 -11.527   8.262  1.00  0.00     0.074 A 
ATOM     57  C   UNL     1       8.322 -12.514   7.453  1.00  0.00     0.031 C 
ATOM     58  C   UNL     1       7.656 -11.503   9.621  1.00  0.00     0.034 A 
BRANCH  45  59
ATOM     59  C   UNL     1       4.314  -6.872  12.085  1.00  0.00     0.023 A 
ATOM     60  C   UNL     1       2.948  -6.694  12.371  1.00  0.00     0.031 A 
ATOM     61  C   UNL     1       5.247  -6.276  12.952  1.00  0.00     0.131 A 
ATOM     62  C   UNL     1       2.555  -5.866  13.434  1.00  0.00     0.055 A 
ATOM     63  C   UNL     1       4.849  -5.525  14.061  1.00  0.00     0.041 A 
ATOM     64  F   UNL     1       6.565  -6.389  12.722  1.00  0.00    -0.206 F 
ATOM     65  C   UNL     1       3.496  -5.299  14.295  1.00  0.00     0.022 A 
BRANCH  62  66
ATOM     66  S   UNL     1       0.808  -5.389  13.562  1.00  0.00     0.124 S 
ATOM     67  O   UNL     1       0.562  -4.812  12.242  1.00  0.00    -0.237 OA
ATOM     68  O   UNL     1       0.154  -6.663  13.835  1.00  0.00    -0.237 OA
ATOM     69  O   UNL     1       0.794  -4.430  14.664  1.00  0.00    -0.744 OA
ENDBRANCH  62  66
ENDBRANCH  45  59
BRANCH  46  70
ATOM     70  C   UNL     1       7.289 -11.238   3.570  1.00  0.00     0.023 A 
ATOM     71  C   UNL     1       6.891 -12.543   3.244  1.00  0.00     0.031 A 
ATOM     72  C   UNL     1       8.152 -10.568   2.684  1.00  0.00     0.131 A 
ATOM     73  C   UNL     1       7.380 -13.151   2.077  1.00  0.00     0.055 A 
ATOM     74  C   UNL     1       8.600 -11.160   1.503  1.00  0.00     0.041 A 
ATOM     75  F   UNL     1       8.560  -9.316   2.951  1.00  0.00    -0.206 F 
ATOM     76  C   UNL     1       8.220 -12.463   1.198  1.00  0.00     0.022 A 
BRANCH  73  77
ATOM     77  S   UNL     1       6.938 -14.878   1.744  1.00  0.00     0.124 S 
ATOM     78  O   UNL     1       7.519 -15.561   2.895  1.00  0.00    -0.237 OA
ATOM     79  O   UNL     1       5.481 -14.816   1.703  1.00  0.00    -0.237 OA
ATOM     80  O   UNL     1       7.583 -15.154   0.462  1.00  0.00    -0.744 OA
ENDBRANCH  73  77
ENDBRANCH  46  70
BRANCH  58  81
ATOM     81  C   UNL     1       8.448 -12.594  10.305  1.00  0.00     0.023 A 
ATOM     82  C   UNL     1       9.844 -12.694  10.156  1.00  0.00     0.031 A 
ATOM     83  C   UNL     1       7.796 -13.573  11.075  1.00  0.00     0.131 A 
ATOM     84  C   UNL     1      10.530 -13.790  10.702  1.00  0.00     0.055 A 
ATOM     85  C   UNL     1       8.494 -14.624  11.674  1.00  0.00     0.041 A 
ATOM     86  F   UNL     1       6.466 -13.532  11.250  1.00  0.00    -0.206 F 
ATOM     87  C   UNL     1       9.866 -14.747  11.473  1.00  0.00     0.022 A 
BRANCH  84  88
ATOM     88  S   UNL     1      12.281 -14.018  10.283  1.00  0.00     0.124 S 
ATOM     89  O   UNL     1      12.243 -14.040   8.824  1.00  0.00    -0.237 OA
ATOM     90  O   UNL     1      12.901 -12.843  10.887  1.00  0.00    -0.237 OA
ATOM     91  O   UNL     1      12.622 -15.292  10.913  1.00  0.00    -0.744 OA
ENDBRANCH  84  88
ENDBRANCH  58  81
ENDBRANCH  32  33
ENDBRANCH  25  27
ENDBRANCH  24  25
ENDBRANCH  23  24
ENDBRANCH  22  23
ENDBRANCH  21  22
ENDBRANCH   1  21
TORSDOF 21
