REMARK SMILES O=C(OCCOCCOC(=O)c1ccc(C[NH2+][C@@H]2CCCc3sccc32)nc1)c1ccc(-c2c3nc(c(-c4cc(S(=O)(=O)[O-])ccc4F)c4ccc([nH]4)c(-c4cc(S(=O)(=O)[O-])ccc4F)c4nc(c(-c5cc(S(=O)(=O)[O-])ccc5F)c5ccc2[nH]5)C=C4)C=C3)cc1
REMARK SMILES IDX 6 1 5 2 4 3 3 4 2 5 1 6 29 7 30 8 91 9 31 10 90 11 32 12
REMARK SMILES IDX 33 13 34 14 84 15 35 16 89 17 83 18 85 19 36 20 88 21 82 22
REMARK SMILES IDX 81 23 37 25 69 26 49 27 68 28 50 29 53 30 67 31 86 32 51 33
REMARK SMILES IDX 52 34 66 36 87 37 54 38 38 39 39 40 47 41 40 42 46 43 48 44
REMARK SMILES IDX 45 45 41 46 42 47 43 48 44 49 70 50 71 51 79 52 72 53 78 54
REMARK SMILES IDX 80 55 77 56 73 57 74 58 75 59 76 60 55 61 56 62 64 63 57 64
REMARK SMILES IDX 63 65 65 66 62 67 58 68 59 69 60 70 61 71 7 72 8 73 9 74
REMARK SMILES IDX 10 75 11 76 12 77 13 78 28 79 14 80 27 81 15 82 16 83 17 84
REMARK SMILES IDX 18 87 19 88 26 89 20 90 22 91 25 92 21 93 23 94 24 95
REMARK H PARENT 85 24 53 35 17 85 17 86
REMARK Flexibility Score: inf
ROOT
ATOM      1  O   UNL     1       3.978   0.429  -1.759  1.00  0.00    -0.374 OA
ENDROOT
BRANCH   1   2
ATOM      2  C   UNL     1       4.182  -0.953  -1.449  1.00  0.00     0.202 C 
BRANCH   2   3
ATOM      3  C   UNL     1       3.831  -1.355  -0.011  1.00  0.00     0.261 C 
BRANCH   3   4
ATOM      4  O   UNL     1       2.447  -1.070   0.265  1.00  0.00    -0.460 OA
BRANCH   4   5
ATOM      5  C   UNL     1       1.921  -0.057   0.994  1.00  0.00     0.338 C 
ATOM      6  O   UNL     1       0.699  -0.008   1.131  1.00  0.00    -0.246 OA
BRANCH   5   7
ATOM      7  C   UNL     1       2.742   1.013   1.638  1.00  0.00     0.060 A 
ATOM      8  C   UNL     1       3.981   1.454   1.172  1.00  0.00     0.016 A 
ATOM      9  C   UNL     1       2.183   1.673   2.746  1.00  0.00     0.016 A 
ATOM     10  C   UNL     1       4.699   2.433   1.840  1.00  0.00     0.010 A 
ATOM     11  C   UNL     1       2.875   2.702   3.394  1.00  0.00     0.010 A 
ATOM     12  C   UNL     1       4.156   3.057   2.959  1.00  0.00    -0.014 A 
BRANCH  12  13
ATOM     13  C   UNL     1       5.030   3.973   3.717  1.00  0.00     0.031 A 
ATOM     14  C   UNL     1       5.640   3.473   4.992  1.00  0.00     0.074 A 
ATOM     15  C   UNL     1       5.390   5.149   3.170  1.00  0.00     0.049 A 
ATOM     16  N   UNL     1       6.464   4.070   5.809  1.00  0.00    -0.248 NA
ATOM     17  C   UNL     1       5.281   2.103   5.391  1.00  0.00     0.031 C 
ATOM     18  C   UNL     1       4.933   5.643   1.868  1.00  0.00     0.029 A 
ATOM     19  N   UNL     1       6.254   6.116   3.608  1.00  0.00    -0.354 N 
ATOM     20  C   UNL     1       6.704   3.159   6.831  1.00  0.00     0.074 A 
ATOM     21  C   UNL     1       5.925   1.977   6.539  1.00  0.00     0.031 C 
ATOM     22  C   UNL     1       5.556   6.801   1.595  1.00  0.00     0.029 A 
ATOM     23  C   UNL     1       6.398   7.165   2.729  1.00  0.00     0.049 A 
ATOM     24  H   UNL     1       6.727   6.066   4.469  1.00  0.00     0.167 HD
ATOM     25  C   UNL     1       7.503   3.308   7.916  1.00  0.00     0.034 A 
ATOM     26  C   UNL     1       7.116   8.299   2.848  1.00  0.00     0.034 A 
ATOM     27  C   UNL     1       8.250   4.513   8.172  1.00  0.00     0.049 A 
ATOM     28  C   UNL     1       7.921   8.482   4.111  1.00  0.00     0.074 A 
ATOM     29  C   UNL     1       9.026   4.840   9.269  1.00  0.00     0.029 A 
ATOM     30  N   UNL     1       8.308   5.602   7.305  1.00  0.00    -0.354 N 
ATOM     31  N   UNL     1       8.076   7.650   5.118  1.00  0.00    -0.248 NA
ATOM     32  C   UNL     1       8.642   9.749   4.257  1.00  0.00     0.031 C 
ATOM     33  C   UNL     1       9.501   6.146   9.092  1.00  0.00     0.029 A 
ATOM     34  C   UNL     1       9.087   6.608   7.851  1.00  0.00     0.049 A 
ATOM     35  H   UNL     1       7.859   5.649   6.430  1.00  0.00     0.167 HD
ATOM     36  C   UNL     1       8.935   8.287   6.008  1.00  0.00     0.074 A 
ATOM     37  C   UNL     1       9.277   9.561   5.404  1.00  0.00     0.031 C 
ATOM     38  C   UNL     1       9.400   7.867   7.214  1.00  0.00     0.034 A 
BRANCH  25  39
ATOM     39  C   UNL     1       7.492   2.185   8.926  1.00  0.00     0.023 A 
ATOM     40  C   UNL     1       7.947   0.891   8.613  1.00  0.00     0.031 A 
ATOM     41  C   UNL     1       6.904   2.386  10.188  1.00  0.00     0.131 A 
ATOM     42  C   UNL     1       7.720  -0.167   9.508  1.00  0.00     0.055 A 
ATOM     43  C   UNL     1       6.759   1.346  11.109  1.00  0.00     0.041 A 
ATOM     44  F   UNL     1       6.420   3.589  10.533  1.00  0.00    -0.206 F 
ATOM     45  C   UNL     1       7.149   0.056  10.764  1.00  0.00     0.022 A 
BRANCH  42  46
ATOM     46  S   UNL     1       8.008  -1.867   8.939  1.00  0.00     0.124 S 
ATOM     47  O   UNL     1       7.111  -1.950   7.789  1.00  0.00    -0.237 OA
ATOM     48  O   UNL     1       9.435  -1.862   8.638  1.00  0.00    -0.237 OA
ATOM     49  O   UNL     1       7.615  -2.685  10.085  1.00  0.00    -0.744 OA
ENDBRANCH  42  46
ENDBRANCH  25  39
BRANCH  26  50
ATOM     50  C   UNL     1       7.066   9.356   1.793  1.00  0.00     0.023 A 
ATOM     51  C   UNL     1       8.224   9.781   1.121  1.00  0.00     0.031 A 
ATOM     52  C   UNL     1       5.854   9.998   1.474  1.00  0.00     0.131 A 
ATOM     53  C   UNL     1       8.153  10.840   0.200  1.00  0.00     0.055 A 
ATOM     54  C   UNL     1       5.778  11.010   0.515  1.00  0.00     0.041 A 
ATOM     55  F   UNL     1       4.713   9.642   2.087  1.00  0.00    -0.206 F 
ATOM     56  C   UNL     1       6.936  11.447  -0.118  1.00  0.00     0.022 A 
BRANCH  53  57
ATOM     57  S   UNL     1       9.693  11.483  -0.514  1.00  0.00     0.124 S 
ATOM     58  O   UNL     1      10.451  11.834   0.681  1.00  0.00    -0.237 OA
ATOM     59  O   UNL     1      10.180  10.335  -1.270  1.00  0.00    -0.237 OA
ATOM     60  O   UNL     1       9.246  12.616  -1.324  1.00  0.00    -0.744 OA
ENDBRANCH  53  57
ENDBRANCH  26  50
BRANCH  38  61
ATOM     61  C   UNL     1      10.367   8.786   7.916  1.00  0.00     0.023 A 
ATOM     62  C   UNL     1       9.967  10.037   8.415  1.00  0.00     0.031 A 
ATOM     63  C   UNL     1      11.711   8.406   8.068  1.00  0.00     0.131 A 
ATOM     64  C   UNL     1      10.919  10.894   8.984  1.00  0.00     0.055 A 
ATOM     65  C   UNL     1      12.640   9.237   8.693  1.00  0.00     0.041 A 
ATOM     66  F   UNL     1      12.143   7.220   7.608  1.00  0.00    -0.206 F 
ATOM     67  C   UNL     1      12.249  10.495   9.141  1.00  0.00     0.022 A 
BRANCH  64  68
ATOM     68  S   UNL     1      10.417  12.581   9.419  1.00  0.00     0.124 S 
ATOM     69  O   UNL     1       9.918  13.088   8.144  1.00  0.00    -0.237 OA
ATOM     70  O   UNL     1       9.411  12.351  10.450  1.00  0.00    -0.237 OA
ATOM     71  O   UNL     1      11.656  13.197   9.889  1.00  0.00    -0.744 OA
ENDBRANCH  64  68
ENDBRANCH  38  61
ENDBRANCH  12  13
ENDBRANCH   5   7
ENDBRANCH   4   5
ENDBRANCH   3   4
ENDBRANCH   2   3
ENDBRANCH   1   2
BRANCH   1  72
ATOM     72  C   UNL     1       2.634   0.801  -2.092  1.00  0.00     0.202 C 
BRANCH  72  73
ATOM     73  C   UNL     1       2.624   1.588  -3.404  1.00  0.00     0.261 C 
BRANCH  73  74
ATOM     74  O   UNL     1       3.086   0.717  -4.449  1.00  0.00    -0.460 OA
BRANCH  74  75
ATOM     75  C   UNL     1       4.429   0.736  -4.633  1.00  0.00     0.339 C 
ATOM     76  O   UNL     1       5.206   1.633  -4.360  1.00  0.00    -0.246 OA
BRANCH  75  77
ATOM     77  C   UNL     1       4.846  -0.616  -5.029  1.00  0.00     0.078 A 
ATOM     78  C   UNL     1       4.056  -1.457  -5.811  1.00  0.00     0.019 A 
ATOM     79  C   UNL     1       6.031  -1.110  -4.513  1.00  0.00     0.127 A 
ATOM     80  C   UNL     1       4.472  -2.768  -6.030  1.00  0.00     0.031 A 
ATOM     81  N   UNL     1       6.459  -2.377  -4.720  1.00  0.00    -0.254 NA
ATOM     82  C   UNL     1       5.673  -3.197  -5.467  1.00  0.00     0.094 A 
BRANCH  82  83
ATOM     83  C   UNL     1       6.131  -4.633  -5.674  1.00  0.00     0.318 C 
BRANCH  83  84
ATOM     84  N   UNL     1       7.564  -4.800  -5.431  1.00  0.00    -0.335 N 
ATOM     85  H   UNL     1       7.702  -4.961  -4.433  1.00  0.00     0.347 HD
ATOM     86  H   UNL     1       8.017  -3.949  -5.763  1.00  0.00     0.347 HD
BRANCH  84  87
ATOM     87  C   UNL     1       8.174  -5.905  -6.158  1.00  0.00     0.215 C 
ATOM     88  C   UNL     1       7.542  -7.253  -5.728  1.00  0.00     0.071 C 
ATOM     89  C   UNL     1       9.665  -5.891  -5.891  1.00  0.00     0.023 A 
ATOM     90  C   UNL     1       8.395  -8.453  -6.154  1.00  0.00     0.012 C 
ATOM     91  C   UNL     1      10.372  -7.048  -5.610  1.00  0.00     0.014 A 
ATOM     92  C   UNL     1      10.548  -4.760  -5.929  1.00  0.00     0.022 A 
ATOM     93  C   UNL     1       9.777  -8.415  -5.490  1.00  0.00     0.047 C 
ATOM     94  S   UNL     1      12.032  -6.773  -5.353  1.00  0.00    -0.148 S 
ATOM     95  C   UNL     1      11.851  -5.097  -5.631  1.00  0.00     0.065 A 
ENDBRANCH  84  87
ENDBRANCH  83  84
ENDBRANCH  82  83
ENDBRANCH  75  77
ENDBRANCH  74  75
ENDBRANCH  73  74
ENDBRANCH  72  73
ENDBRANCH   1  72
TORSDOF 20
