REMARK SMILES O=C(OCCOCCOC(=O)c1cc(S(=O)(=O)Nc2cccc(Cl)c2)ccc1O)c1ccc(-c2c3nc(c(-c4cc(S(=O)(=O)[O-])ccc4F)c4ccc([nH]4)c(-c4cc(S(=O)(=O)[O-])ccc4F)c4nc(c(-c5cc(S(=O)(=O)[O-])ccc5F)c5ccc2[nH]5)C=C4)C=C3)cc1
REMARK SMILES IDX 6 1 5 2 4 3 3 4 2 5 1 6 30 7 31 8 92 9 32 10 91 11 33 12
REMARK SMILES IDX 34 13 35 14 85 15 36 16 90 17 84 18 86 19 37 20 89 21 83 22
REMARK SMILES IDX 82 23 38 25 70 26 50 27 69 28 51 29 54 30 68 31 87 32 52 33
REMARK SMILES IDX 53 34 67 36 88 37 55 38 39 39 40 40 48 41 41 42 47 43 49 44
REMARK SMILES IDX 46 45 42 46 43 47 44 48 45 49 71 50 72 51 80 52 73 53 79 54
REMARK SMILES IDX 81 55 78 56 74 57 75 58 76 59 77 60 56 61 57 62 65 63 58 64
REMARK SMILES IDX 64 65 66 66 63 67 59 68 60 69 61 70 62 71 7 72 8 73 9 74
REMARK SMILES IDX 10 75 11 76 12 77 13 78 28 79 14 80 27 81 26 82 29 83 15 85
REMARK SMILES IDX 16 86 17 87 18 88 19 90 20 91 25 92 21 93 23 94 22 95 24 96
REMARK H PARENT 86 24 54 35 29 84 18 89
REMARK Flexibility Score: inf
ROOT
ATOM      1  O   UNL     1       4.203   0.619  -1.562  1.00  0.00    -0.374 OA
ENDROOT
BRANCH   1   2
ATOM      2  C   UNL     1       4.255  -0.804  -1.447  1.00  0.00     0.202 C 
BRANCH   2   3
ATOM      3  C   UNL     1       3.824  -1.365  -0.088  1.00  0.00     0.261 C 
BRANCH   3   4
ATOM      4  O   UNL     1       2.449  -1.027   0.170  1.00  0.00    -0.460 OA
BRANCH   4   5
ATOM      5  C   UNL     1       1.950  -0.131   1.052  1.00  0.00     0.338 C 
ATOM      6  O   UNL     1       0.729  -0.070   1.195  1.00  0.00    -0.246 OA
BRANCH   5   7
ATOM      7  C   UNL     1       2.797   0.800   1.860  1.00  0.00     0.060 A 
ATOM      8  C   UNL     1       4.065   1.248   1.488  1.00  0.00     0.016 A 
ATOM      9  C   UNL     1       2.234   1.324   3.037  1.00  0.00     0.016 A 
ATOM     10  C   UNL     1       4.795   2.108   2.295  1.00  0.00     0.010 A 
ATOM     11  C   UNL     1       2.942   2.233   3.832  1.00  0.00     0.010 A 
ATOM     12  C   UNL     1       4.243   2.602   3.473  1.00  0.00    -0.014 A 
BRANCH  12  13
ATOM     13  C   UNL     1       5.118   3.398   4.354  1.00  0.00     0.031 A 
ATOM     14  C   UNL     1       5.718   2.726   5.552  1.00  0.00     0.074 A 
ATOM     15  C   UNL     1       5.489   4.635   3.975  1.00  0.00     0.049 A 
ATOM     16  N   UNL     1       6.558   3.196   6.434  1.00  0.00    -0.248 NA
ATOM     17  C   UNL     1       5.327   1.325   5.775  1.00  0.00     0.031 C 
ATOM     18  C   UNL     1       5.035   5.309   2.755  1.00  0.00     0.029 A 
ATOM     19  N   UNL     1       6.363   5.524   4.540  1.00  0.00    -0.354 N 
ATOM     20  C   UNL     1       6.786   2.154   7.326  1.00  0.00     0.074 A 
ATOM     21  C   UNL     1       5.979   1.036   6.889  1.00  0.00     0.031 C 
ATOM     22  C   UNL     1       5.668   6.488   2.644  1.00  0.00     0.029 A 
ATOM     23  C   UNL     1       6.522   6.681   3.812  1.00  0.00     0.049 A 
ATOM     24  H   UNL     1       6.833   5.352   5.388  1.00  0.00     0.167 HD
ATOM     25  C   UNL     1       7.596   2.142   8.412  1.00  0.00     0.034 A 
ATOM     26  C   UNL     1       7.264   7.774   4.076  1.00  0.00     0.034 A 
ATOM     27  C   UNL     1       8.366   3.288   8.825  1.00  0.00     0.049 A 
ATOM     28  C   UNL     1       8.086   7.769   5.341  1.00  0.00     0.074 A 
ATOM     29  C   UNL     1       9.149   3.451   9.953  1.00  0.00     0.029 A 
ATOM     30  N   UNL     1       8.443   4.482   8.112  1.00  0.00    -0.354 N 
ATOM     31  N   UNL     1       8.234   6.807   6.226  1.00  0.00    -0.248 NA
ATOM     32  C   UNL     1       8.836   8.991   5.646  1.00  0.00     0.031 C 
ATOM     33  C   UNL     1       9.651   4.759   9.950  1.00  0.00     0.029 A 
ATOM     34  C   UNL     1       9.241   5.392   8.785  1.00  0.00     0.049 A 
ATOM     35  H   UNL     1       7.994   4.654   7.253  1.00  0.00     0.167 HD
ATOM     36  C   UNL     1       9.110   7.304   7.185  1.00  0.00     0.074 A 
ATOM     37  C   UNL     1       9.475   8.640   6.753  1.00  0.00     0.031 C 
ATOM     38  C   UNL     1       9.572   6.720   8.321  1.00  0.00     0.034 A 
BRANCH  25  39
ATOM     39  C   UNL     1       7.577   0.890   9.256  1.00  0.00     0.023 A 
ATOM     40  C   UNL     1       8.028  -0.349   8.763  1.00  0.00     0.031 A 
ATOM     41  C   UNL     1       6.987   0.914  10.532  1.00  0.00     0.131 A 
ATOM     42  C   UNL     1       7.799  -1.521   9.502  1.00  0.00     0.055 A 
ATOM     43  C   UNL     1       6.836  -0.244  11.297  1.00  0.00     0.041 A 
ATOM     44  F   UNL     1       6.508   2.060  11.041  1.00  0.00    -0.206 F 
ATOM     45  C   UNL     1       7.225  -1.474  10.775  1.00  0.00     0.022 A 
BRANCH  42  46
ATOM     46  S   UNL     1       8.097  -3.126   8.707  1.00  0.00     0.124 S 
ATOM     47  O   UNL     1       7.204  -3.055   7.553  1.00  0.00    -0.237 OA
ATOM     48  O   UNL     1       9.525  -3.074   8.415  1.00  0.00    -0.237 OA
ATOM     49  O   UNL     1       7.705  -4.095   9.729  1.00  0.00    -0.744 OA
ENDBRANCH  42  46
ENDBRANCH  25  39
BRANCH  26  50
ATOM     50  C   UNL     1       7.225   8.964   3.175  1.00  0.00     0.023 A 
ATOM     51  C   UNL     1       8.382   9.449   2.543  1.00  0.00     0.031 A 
ATOM     52  C   UNL     1       6.024   9.671   2.969  1.00  0.00     0.131 A 
ATOM     53  C   UNL     1       8.322  10.623   1.771  1.00  0.00     0.055 A 
ATOM     54  C   UNL     1       5.958  10.803   2.156  1.00  0.00     0.041 A 
ATOM     55  F   UNL     1       4.886   9.261   3.553  1.00  0.00    -0.206 F 
ATOM     56  C   UNL     1       7.115  11.294   1.562  1.00  0.00     0.022 A 
BRANCH  53  57
ATOM     57  S   UNL     1       9.864  11.319   1.115  1.00  0.00     0.124 S 
ATOM     58  O   UNL     1      10.658  11.484   2.327  1.00  0.00    -0.237 OA
ATOM     59  O   UNL     1      10.303  10.274   0.197  1.00  0.00    -0.237 OA
ATOM     60  O   UNL     1       9.433  12.563   0.479  1.00  0.00    -0.744 OA
ENDBRANCH  53  57
ENDBRANCH  26  50
BRANCH  38  61
ATOM     61  C   UNL     1      10.549   7.525   9.138  1.00  0.00     0.023 A 
ATOM     62  C   UNL     1      10.155   8.691   9.816  1.00  0.00     0.031 A 
ATOM     63  C   UNL     1      11.895   7.128   9.218  1.00  0.00     0.131 A 
ATOM     64  C   UNL     1      11.112   9.456  10.496  1.00  0.00     0.055 A 
ATOM     65  C   UNL     1      12.831   7.863   9.945  1.00  0.00     0.041 A 
ATOM     66  F   UNL     1      12.320   6.021   8.588  1.00  0.00    -0.206 F 
ATOM     67  C   UNL     1      12.444   9.042  10.577  1.00  0.00     0.022 A 
BRANCH  64  68
ATOM     68  S   UNL     1      10.611  11.054  11.191  1.00  0.00     0.124 S 
ATOM     69  O   UNL     1      10.102  11.752  10.015  1.00  0.00    -0.237 OA
ATOM     70  O   UNL     1       9.614  10.664  12.183  1.00  0.00    -0.237 OA
ATOM     71  O   UNL     1      11.854  11.592  11.742  1.00  0.00    -0.744 OA
ENDBRANCH  64  68
ENDBRANCH  38  61
ENDBRANCH  12  13
ENDBRANCH   5   7
ENDBRANCH   4   5
ENDBRANCH   3   4
ENDBRANCH   2   3
ENDBRANCH   1   2
BRANCH   1  72
ATOM     72  C   UNL     1       2.928   1.171  -1.911  1.00  0.00     0.202 C 
BRANCH  72  73
ATOM     73  C   UNL     1       3.095   2.108  -3.110  1.00  0.00     0.261 C 
BRANCH  73  74
ATOM     74  O   UNL     1       3.428   1.298  -4.248  1.00  0.00    -0.460 OA
BRANCH  74  75
ATOM     75  C   UNL     1       4.748   1.157  -4.532  1.00  0.00     0.342 C 
ATOM     76  O   UNL     1       5.663   1.895  -4.209  1.00  0.00    -0.246 OA
BRANCH  75  77
ATOM     77  C   UNL     1       4.927  -0.232  -5.018  1.00  0.00     0.103 A 
ATOM     78  C   UNL     1       5.925  -1.003  -4.401  1.00  0.00     0.041 A 
ATOM     79  C   UNL     1       3.997  -0.840  -5.869  1.00  0.00     0.130 A 
ATOM     80  C   UNL     1       5.882  -2.396  -4.520  1.00  0.00     0.088 A 
ATOM     81  C   UNL     1       3.949  -2.227  -5.971  1.00  0.00     0.048 A 
ATOM     82  C   UNL     1       4.846  -3.003  -5.238  1.00  0.00     0.026 A 
BRANCH  79  83
ATOM     83  O   UNL     1       3.118  -0.079  -6.586  1.00  0.00    -0.507 OA
ATOM     84  H   UNL     1       3.146   0.855  -6.521  1.00  0.00     0.293 HD
ENDBRANCH  79  83
BRANCH  80  85
ATOM     85  S   UNL     1       7.032  -3.391  -3.595  1.00  0.00     0.261 S 
ATOM     86  O   UNL     1       8.034  -2.514  -3.033  1.00  0.00    -0.201 OA
ATOM     87  O   UNL     1       6.226  -4.242  -2.744  1.00  0.00    -0.201 OA
BRANCH  85  88
ATOM     88  N   UNL     1       7.860  -4.451  -4.646  1.00  0.00    -0.280 N 
ATOM     89  H   UNL     1       8.661  -4.930  -4.333  1.00  0.00     0.180 HD
BRANCH  88  90
ATOM     90  C   UNL     1       7.390  -4.640  -5.980  1.00  0.00     0.050 A 
ATOM     91  C   UNL     1       7.609  -3.641  -6.930  1.00  0.00     0.027 A 
ATOM     92  C   UNL     1       6.649  -5.778  -6.310  1.00  0.00     0.047 A 
ATOM     93  C   UNL     1       7.052  -3.755  -8.203  1.00  0.00     0.004 A 
ATOM     94  C   UNL     1       6.103  -5.888  -7.589  1.00  0.00     0.043 A 
ATOM     95  C   UNL     1       6.291  -4.878  -8.532  1.00  0.00     0.020 A 
ATOM     96  Cl  UNL     1       5.155  -7.266  -7.997  1.00  0.00    -0.084 Cl
ENDBRANCH  88  90
ENDBRANCH  85  88
ENDBRANCH  80  85
ENDBRANCH  75  77
ENDBRANCH  74  75
ENDBRANCH  73  74
ENDBRANCH  72  73
ENDBRANCH   1  72
TORSDOF 21
