REMARK SMILES Cc1c(CC(=O)OCCOCCOC(=O)c2ccc(-c3c4nc(c(-c5cc(S(=O)(=O)[O-])ccc5F)c5ccc([nH]5)c(-c5cc(S(=O)(=O)[O-])ccc5F)c5nc(c(-c6cc(S(=O)(=O)[O-])ccc6F)c6ccc3[nH]6)C=C5)C=C4)cc2)cc(-c2ccc(S(C)(=O)=O)cc2)n1-c1ccccc1
REMARK SMILES IDX 10 1 9 2 8 3 7 4 5 5 6 6 4 7 3 8 1 9 2 10 91 11 79 12 80 13
REMARK SMILES IDX 92 14 93 15 97 16 94 17 96 18 95 19 81 20 82 21 90 22 83 23
REMARK SMILES IDX 89 24 84 25 85 26 86 27 87 28 88 29 11 30 12 31 13 32 14 33
REMARK SMILES IDX 15 34 16 35 17 36 78 37 18 38 77 39 19 40 20 41 21 42 71 43
REMARK SMILES IDX 22 44 76 45 70 46 72 47 23 48 75 49 69 50 68 51 24 53 56 54
REMARK SMILES IDX 36 55 55 56 37 57 40 58 54 59 73 60 38 61 39 62 53 64 74 65
REMARK SMILES IDX 41 66 25 67 26 68 34 69 27 70 33 71 35 72 32 73 28 74 29 75
REMARK SMILES IDX 30 76 31 77 57 78 58 79 66 80 59 81 65 82 67 83 64 84 60 85
REMARK SMILES IDX 61 86 62 87 63 88 42 89 43 90 51 91 44 92 50 93 52 94 49 95
REMARK SMILES IDX 45 96 46 97 47 98 48 99
REMARK H PARENT 72 52 40 63
REMARK Flexibility Score: inf
ROOT
ATOM      1  O   UNL     1      -1.760  -1.705  -2.310  1.00  0.00    -0.374 OA
ENDROOT
BRANCH   1   2
ATOM      2  C   UNL     1      -2.603  -2.737  -1.804  1.00  0.00     0.202 C 
BRANCH   2   3
ATOM      3  C   UNL     1      -1.839  -3.873  -1.110  1.00  0.00     0.261 C 
BRANCH   3   4
ATOM      4  O   UNL     1      -1.042  -3.393  -0.006  1.00  0.00    -0.463 OA
BRANCH   4   5
ATOM      5  C   UNL     1       0.297  -3.605  -0.100  1.00  0.00     0.310 C 
ATOM      6  O   UNL     1       0.826  -4.305  -0.962  1.00  0.00    -0.252 OA
BRANCH   5   7
ATOM      7  C   UNL     1       1.121  -2.998   1.017  1.00  0.00     0.160 C 
BRANCH   7   8
ATOM      8  C   UNL     1       0.625  -1.768   1.732  1.00  0.00    -0.015 A 
ATOM      9  C   UNL     1       1.632   0.169   0.304  1.00  0.00     0.065 C 
ATOM     10  C   UNL     1       0.838  -0.422   1.423  1.00  0.00     0.024 A 
ATOM     11  N   UNL     1       0.280   0.364   2.435  1.00  0.00    -0.314 N 
ATOM     12  C   UNL     1      -0.003  -1.782   3.005  1.00  0.00     0.033 A 
ATOM     13  C   UNL     1      -0.112  -0.483   3.466  1.00  0.00     0.053 A 
BRANCH  11  14
ATOM     14  C   UNL     1       0.119   1.783   2.420  1.00  0.00     0.046 A 
ATOM     15  C   UNL     1       0.666   2.597   3.410  1.00  0.00     0.026 A 
ATOM     16  C   UNL     1      -0.724   2.351   1.464  1.00  0.00     0.026 A 
ATOM     17  C   UNL     1       0.376   3.969   3.416  1.00  0.00     0.002 A 
ATOM     18  C   UNL     1      -1.042   3.708   1.486  1.00  0.00     0.002 A 
ATOM     19  C   UNL     1      -0.485   4.522   2.463  1.00  0.00     0.000 A 
ENDBRANCH  11  14
BRANCH  13  20
ATOM     20  C   UNL     1      -0.623  -0.037   4.758  1.00  0.00    -0.001 A 
ATOM     21  C   UNL     1      -1.862   0.599   4.845  1.00  0.00     0.011 A 
ATOM     22  C   UNL     1       0.141  -0.223   5.914  1.00  0.00     0.011 A 
ATOM     23  C   UNL     1      -2.321   1.099   6.062  1.00  0.00     0.021 A 
ATOM     24  C   UNL     1      -0.308   0.276   7.138  1.00  0.00     0.021 A 
ATOM     25  C   UNL     1      -1.528   0.954   7.199  1.00  0.00     0.067 A 
BRANCH  25  26
ATOM     26  S   UNL     1      -2.114   1.623   8.736  1.00  0.00     0.175 S 
ATOM     27  C   UNL     1      -2.217   3.372   8.435  1.00  0.00     0.163 C 
ATOM     28  O   UNL     1      -3.424   1.091   8.955  1.00  0.00    -0.224 OA
ATOM     29  O   UNL     1      -1.042   1.418   9.719  1.00  0.00    -0.224 OA
ENDBRANCH  25  26
ENDBRANCH  13  20
ENDBRANCH   7   8
ENDBRANCH   5   7
ENDBRANCH   4   5
ENDBRANCH   3   4
ENDBRANCH   2   3
ENDBRANCH   1   2
BRANCH   1  30
ATOM     30  C   UNL     1      -1.379  -0.713  -1.345  1.00  0.00     0.202 C 
BRANCH  30  31
ATOM     31  C   UNL     1      -2.505   0.259  -0.896  1.00  0.00     0.261 C 
BRANCH  31  32
ATOM     32  O   UNL     1      -2.959   0.175   0.523  1.00  0.00    -0.460 OA
BRANCH  32  33
ATOM     33  C   UNL     1      -4.176   0.797   0.777  1.00  0.00     0.338 C 
ATOM     34  O   UNL     1      -4.910   1.149  -0.139  1.00  0.00    -0.246 OA
BRANCH  33  35
ATOM     35  C   UNL     1      -4.644   1.035   2.232  1.00  0.00     0.060 A 
ATOM     36  C   UNL     1      -5.649   0.235   2.758  1.00  0.00     0.016 A 
ATOM     37  C   UNL     1      -4.417   2.217   2.983  1.00  0.00     0.016 A 
ATOM     38  C   UNL     1      -6.339   0.581   3.984  1.00  0.00     0.010 A 
ATOM     39  C   UNL     1      -5.171   2.596   4.210  1.00  0.00     0.010 A 
ATOM     40  C   UNL     1      -6.189   1.798   4.760  1.00  0.00    -0.014 A 
BRANCH  40  41
ATOM     41  C   UNL     1      -7.435   2.226   5.779  1.00  0.00     0.031 A 
ATOM     42  C   UNL     1      -8.628   1.748   5.018  1.00  0.00     0.074 A 
ATOM     43  C   UNL     1      -7.802   2.916   6.955  1.00  0.00     0.049 A 
ATOM     44  N   UNL     1      -8.806   2.134   3.784  1.00  0.00    -0.248 NA
ATOM     45  C   UNL     1      -9.396   0.562   5.401  1.00  0.00     0.031 C 
ATOM     46  C   UNL     1      -6.942   3.692   7.869  1.00  0.00     0.029 A 
ATOM     47  N   UNL     1      -9.071   3.106   7.639  1.00  0.00    -0.354 N 
ATOM     48  C   UNL     1      -9.920   1.478   3.336  1.00  0.00     0.074 A 
ATOM     49  C   UNL     1     -10.084   0.370   4.269  1.00  0.00     0.031 C 
ATOM     50  C   UNL     1      -7.614   4.119   8.984  1.00  0.00     0.029 A 
ATOM     51  C   UNL     1      -9.032   3.752   8.944  1.00  0.00     0.049 A 
ATOM     52  H   UNL     1      -9.920   2.811   7.237  1.00  0.00     0.167 HD
ATOM     53  C   UNL     1     -10.881   2.250   2.751  1.00  0.00     0.034 A 
ATOM     54  C   UNL     1     -10.029   4.051   9.891  1.00  0.00     0.034 A 
ATOM     55  C   UNL     1     -12.002   2.450   3.631  1.00  0.00     0.049 A 
ATOM     56  C   UNL     1     -11.303   4.151   9.176  1.00  0.00     0.074 A 
ATOM     57  C   UNL     1     -12.728   1.612   4.453  1.00  0.00     0.029 A 
ATOM     58  N   UNL     1     -12.177   3.728   4.122  1.00  0.00    -0.354 N 
ATOM     59  N   UNL     1     -11.602   5.182   8.453  1.00  0.00    -0.248 NA
ATOM     60  C   UNL     1     -12.340   3.131   9.281  1.00  0.00     0.031 C 
ATOM     61  C   UNL     1     -12.846   2.325   5.671  1.00  0.00     0.029 A 
ATOM     62  C   UNL     1     -12.535   3.664   5.452  1.00  0.00     0.049 A 
ATOM     63  H   UNL     1     -12.063   4.556   3.602  1.00  0.00     0.167 HD
ATOM     64  C   UNL     1     -12.551   4.689   7.613  1.00  0.00     0.074 A 
ATOM     65  C   UNL     1     -13.156   3.579   8.324  1.00  0.00     0.031 C 
ATOM     66  C   UNL     1     -12.331   4.838   6.283  1.00  0.00     0.034 A 
BRANCH  53  67
ATOM     67  C   UNL     1     -10.355   3.310   1.815  1.00  0.00     0.023 A 
ATOM     68  C   UNL     1     -10.600   3.200   0.441  1.00  0.00     0.031 A 
ATOM     69  C   UNL     1      -9.545   4.383   2.253  1.00  0.00     0.131 A 
ATOM     70  C   UNL     1      -9.988   4.101  -0.450  1.00  0.00     0.055 A 
ATOM     71  C   UNL     1      -8.887   5.229   1.364  1.00  0.00     0.041 A 
ATOM     72  F   UNL     1      -9.395   4.638   3.563  1.00  0.00    -0.206 F 
ATOM     73  C   UNL     1      -9.100   5.084  -0.001  1.00  0.00     0.022 A 
BRANCH  70  74
ATOM     74  S   UNL     1     -10.414   4.008  -2.210  1.00  0.00     0.124 S 
ATOM     75  O   UNL     1      -9.924   2.685  -2.585  1.00  0.00    -0.237 OA
ATOM     76  O   UNL     1     -11.866   4.157  -2.184  1.00  0.00    -0.237 OA
ATOM     77  O   UNL     1      -9.690   5.131  -2.804  1.00  0.00    -0.744 OA
ENDBRANCH  70  74
ENDBRANCH  53  67
BRANCH  54  78
ATOM     78  C   UNL     1     -10.269   4.461  11.388  1.00  0.00     0.023 A 
ATOM     79  C   UNL     1     -11.446   5.197  11.840  1.00  0.00     0.031 A 
ATOM     80  C   UNL     1      -9.585   3.800  12.417  1.00  0.00     0.131 A 
ATOM     81  C   UNL     1     -11.884   5.204  13.203  1.00  0.00     0.055 A 
ATOM     82  C   UNL     1     -10.019   3.818  13.767  1.00  0.00     0.041 A 
ATOM     83  F   UNL     1      -8.535   3.019  12.131  1.00  0.00    -0.206 F 
ATOM     84  C   UNL     1     -11.168   4.501  14.163  1.00  0.00     0.022 A 
BRANCH  81  85
ATOM     85  S   UNL     1     -13.477   5.980  13.749  1.00  0.00     0.124 S 
ATOM     86  O   UNL     1     -13.220   7.406  13.598  1.00  0.00    -0.237 OA
ATOM     87  O   UNL     1     -14.452   5.391  12.837  1.00  0.00    -0.237 OA
ATOM     88  O   UNL     1     -13.620   5.538  15.139  1.00  0.00    -0.744 OA
ENDBRANCH  81  85
ENDBRANCH  54  78
BRANCH  66  89
ATOM     89  C   UNL     1     -11.701   6.156   5.816  1.00  0.00     0.023 A 
ATOM     90  C   UNL     1     -10.609   6.836   6.423  1.00  0.00     0.031 A 
ATOM     91  C   UNL     1     -12.298   6.802   4.721  1.00  0.00     0.131 A 
ATOM     92  C   UNL     1     -10.190   8.103   5.962  1.00  0.00     0.055 A 
ATOM     93  C   UNL     1     -11.851   8.031   4.232  1.00  0.00     0.041 A 
ATOM     94  F   UNL     1     -13.344   6.240   4.095  1.00  0.00    -0.206 F 
ATOM     95  C   UNL     1     -10.806   8.695   4.861  1.00  0.00     0.022 A 
BRANCH  92  96
ATOM     96  S   UNL     1      -8.890   9.034   6.846  1.00  0.00     0.124 S 
ATOM     97  O   UNL     1      -9.329   8.994   8.236  1.00  0.00    -0.237 OA
ATOM     98  O   UNL     1      -7.681   8.274   6.538  1.00  0.00    -0.237 OA
ATOM     99  O   UNL     1      -8.944  10.363   6.232  1.00  0.00    -0.744 OA
ENDBRANCH  92  96
ENDBRANCH  66  89
ENDBRANCH  40  41
ENDBRANCH  33  35
ENDBRANCH  32  33
ENDBRANCH  31  32
ENDBRANCH  30  31
ENDBRANCH   1  30
TORSDOF 21
