REMARK SMILES CN(C)S(=O)(=O)c1ccc(-n2c(CCC(=O)OCCOCCOC(=O)c3ccc(-c4c5nc(c(-c6cc(S(=O)(=O)[O-])ccc6F)c6ccc([nH]6)c(-c6cc(S(=O)(=O)[O-])ccc6F)c6nc(c(-c7cc(S(=O)(=O)[O-])ccc7F)c7ccc4[nH]7)C=C6)C=C5)cc3)ccc2-c2ccc(F)cc2)cc1
REMARK SMILES IDX 19 1 18 2 17 3 15 4 16 5 14 6 13 7 12 8 11 9 91 10 89 11
REMARK SMILES IDX 90 12 10 13 7 14 8 15 100 16 9 17 99 18 4 19 5 20 6 21 2 22
REMARK SMILES IDX 1 23 3 24 92 25 93 26 98 27 94 28 97 29 95 30 96 31 20 32
REMARK SMILES IDX 21 33 22 34 23 35 24 36 25 37 26 38 27 39 88 40 28 41 87 42
REMARK SMILES IDX 29 43 30 44 31 45 81 46 32 47 86 48 80 49 82 50 33 51 85 52
REMARK SMILES IDX 79 53 78 54 34 56 66 57 46 58 65 59 47 60 50 61 64 62 83 63
REMARK SMILES IDX 48 64 49 65 63 67 84 68 51 69 35 70 36 71 44 72 37 73 43 74
REMARK SMILES IDX 45 75 42 76 38 77 39 78 40 79 41 80 67 81 68 82 76 83 69 84
REMARK SMILES IDX 75 85 77 86 74 87 70 88 71 89 72 90 73 91 52 92 53 93 61 94
REMARK SMILES IDX 54 95 60 96 62 97 59 98 55 99 56 100 57 101 58 102
REMARK H PARENT 82 55 50 66
REMARK Flexibility Score: inf
ROOT
ATOM      1  C   UNL     1      -0.246  -0.734  -4.784  1.00  0.00     0.202 C 
ENDROOT
BRANCH   1   2
ATOM      2  C   UNL     1       1.522  -1.928  -5.332  1.00  0.00     0.261 C 
BRANCH   2   3
ATOM      3  O   UNL     1       1.456  -3.399  -6.245  1.00  0.00    -0.463 OA
BRANCH   3   4
ATOM      4  C   UNL     1       1.155  -4.648  -5.775  1.00  0.00     0.306 C 
ATOM      5  O   UNL     1       1.848  -5.207  -4.928  1.00  0.00    -0.252 OA
BRANCH   4   6
ATOM      6  C   UNL     1      -0.154  -5.335  -6.321  1.00  0.00     0.129 C 
BRANCH   6   7
ATOM      7  C   UNL     1      -1.409  -4.618  -6.882  1.00  0.00     0.066 C 
BRANCH   7   8
ATOM      8  C   UNL     1      -1.109  -3.694  -7.991  1.00  0.00     0.024 A 
ATOM      9  N   UNL     1      -0.468  -2.478  -7.821  1.00  0.00    -0.314 N 
ATOM     10  C   UNL     1      -0.002  -2.098  -9.103  1.00  0.00     0.053 A 
ATOM     11  C   UNL     1      -1.365  -3.884  -9.332  1.00  0.00     0.024 A 
ATOM     12  C   UNL     1      -0.646  -2.906 -10.029  1.00  0.00     0.029 A 
BRANCH   9  13
ATOM     13  C   UNL     1      -0.159  -1.873  -6.543  1.00  0.00     0.046 A 
ATOM     14  C   UNL     1       1.552  -0.600  -3.619  1.00  0.00     0.082 A 
ATOM     15  C   UNL     1       1.648   0.258  -5.175  1.00  0.00     0.024 A 
ATOM     16  C   UNL     1       0.618  -2.114  -3.460  1.00  0.00     0.024 A 
ATOM     17  C   UNL     1       0.788  -0.346  -6.604  1.00  0.00     0.028 A 
ATOM     18  C   UNL     1      -0.280  -2.746  -4.915  1.00  0.00     0.028 A 
BRANCH  14  19
ATOM     19  S   UNL     1       1.867   0.424  -2.192  1.00  0.00     0.242 S 
ATOM     20  O   UNL     1       1.280   1.721  -2.458  1.00  0.00    -0.207 OA
ATOM     21  O   UNL     1       3.280   0.296  -1.913  1.00  0.00    -0.207 OA
BRANCH  19  22
ATOM     22  N   UNL     1       0.987  -0.295  -0.913  1.00  0.00    -0.204 NA
ATOM     23  C   UNL     1       1.424   0.188   0.413  1.00  0.00     0.124 C 
ATOM     24  C   UNL     1      -0.497  -0.253  -1.020  1.00  0.00     0.124 C 
ENDBRANCH  19  22
ENDBRANCH  14  19
ENDBRANCH   9  13
BRANCH  10  25
ATOM     25  C   UNL     1       1.028  -1.107  -9.457  1.00  0.00    -0.001 A 
ATOM     26  C   UNL     1       0.701  -0.039 -10.307  1.00  0.00     0.013 A 
ATOM     27  C   UNL     1       2.341  -1.194  -8.959  1.00  0.00     0.013 A 
ATOM     28  C   UNL     1       1.624   0.980 -10.557  1.00  0.00     0.040 A 
ATOM     29  C   UNL     1       3.250  -0.151  -9.174  1.00  0.00     0.040 A 
ATOM     30  C   UNL     1       2.877   0.931  -9.961  1.00  0.00     0.123 A 
ATOM     31  F   UNL     1       3.737   1.943 -10.139  1.00  0.00    -0.207 F 
ENDBRANCH  10  25
ENDBRANCH   7   8
ENDBRANCH   6   7
ENDBRANCH   4   6
ENDBRANCH   3   4
ENDBRANCH   2   3
ENDBRANCH   1   2
BRANCH   1  32
ATOM     32  O   UNL     1      -1.411  -1.063  -3.753  1.00  0.00    -0.374 OA
BRANCH  32  33
ATOM     33  C   UNL     1      -2.679  -1.550  -4.224  1.00  0.00     0.202 C 
BRANCH  33  34
ATOM     34  C   UNL     1      -3.606  -0.595  -4.944  1.00  0.00     0.261 C 
BRANCH  34  35
ATOM     35  O   UNL     1      -3.009  -0.062  -6.108  1.00  0.00    -0.460 OA
BRANCH  35  36
ATOM     36  C   UNL     1      -2.428   1.150  -5.951  1.00  0.00     0.338 C 
ATOM     37  O   UNL     1      -2.201   1.739  -4.910  1.00  0.00    -0.246 OA
BRANCH  36  38
ATOM     38  C   UNL     1      -2.214   1.700  -7.291  1.00  0.00     0.060 A 
ATOM     39  C   UNL     1      -1.609   2.954  -7.376  1.00  0.00     0.016 A 
ATOM     40  C   UNL     1      -3.025   1.183  -8.305  1.00  0.00     0.016 A 
ATOM     41  C   UNL     1      -2.062   3.807  -8.355  1.00  0.00     0.010 A 
ATOM     42  C   UNL     1      -3.588   2.071  -9.174  1.00  0.00     0.010 A 
ATOM     43  C   UNL     1      -3.133   3.390  -9.160  1.00  0.00    -0.014 A 
BRANCH  43  44
ATOM     44  C   UNL     1      -3.619   4.286 -10.209  1.00  0.00     0.031 A 
ATOM     45  C   UNL     1      -2.620   4.021 -11.428  1.00  0.00     0.074 A 
ATOM     46  C   UNL     1      -4.692   5.084  -9.816  1.00  0.00     0.049 A 
ATOM     47  N   UNL     1      -2.001   4.841 -12.219  1.00  0.00    -0.248 NA
ATOM     48  C   UNL     1      -2.091   2.621 -11.686  1.00  0.00     0.031 C 
ATOM     49  C   UNL     1      -5.471   4.963  -8.542  1.00  0.00     0.029 A 
ATOM     50  N   UNL     1      -5.418   6.122 -10.372  1.00  0.00    -0.354 N 
ATOM     51  C   UNL     1      -1.371   4.053 -13.227  1.00  0.00     0.074 A 
ATOM     52  C   UNL     1      -1.245   2.739 -12.711  1.00  0.00     0.031 C 
ATOM     53  C   UNL     1      -6.384   5.965  -8.383  1.00  0.00     0.029 A 
ATOM     54  C   UNL     1      -6.363   6.843  -9.533  1.00  0.00     0.049 A 
ATOM     55  H   UNL     1      -5.298   6.368 -11.318  1.00  0.00     0.167 HD
ATOM     56  C   UNL     1      -1.311   4.450 -14.531  1.00  0.00     0.034 A 
ATOM     57  C   UNL     1      -6.981   8.073  -9.794  1.00  0.00     0.034 A 
ATOM     58  C   UNL     1      -1.952   5.706 -14.605  1.00  0.00     0.049 A 
ATOM     59  C   UNL     1      -6.531   8.356 -11.175  1.00  0.00     0.074 A 
ATOM     60  C   UNL     1      -1.567   6.975 -14.303  1.00  0.00     0.029 A 
ATOM     61  N   UNL     1      -3.311   5.647 -14.797  1.00  0.00    -0.354 N 
ATOM     62  N   UNL     1      -6.825   7.642 -12.220  1.00  0.00    -0.248 NA
ATOM     63  C   UNL     1      -5.321   9.175 -11.212  1.00  0.00     0.031 C 
ATOM     64  C   UNL     1      -2.783   7.630 -14.050  1.00  0.00     0.029 A 
ATOM     65  C   UNL     1      -3.853   6.723 -14.163  1.00  0.00     0.049 A 
ATOM     66  H   UNL     1      -3.801   4.957 -15.299  1.00  0.00     0.167 HD
ATOM     67  C   UNL     1      -5.647   7.645 -12.931  1.00  0.00     0.074 A 
ATOM     68  C   UNL     1      -4.746   8.531 -12.206  1.00  0.00     0.031 C 
ATOM     69  C   UNL     1      -5.242   6.643 -13.753  1.00  0.00     0.034 A 
BRANCH  56  70
ATOM     70  C   UNL     1      -1.111   3.784 -15.873  1.00  0.00     0.023 A 
ATOM     71  C   UNL     1      -1.059   4.680 -16.977  1.00  0.00     0.031 A 
ATOM     72  C   UNL     1      -1.371   2.445 -16.178  1.00  0.00     0.131 A 
ATOM     73  C   UNL     1      -1.450   4.295 -18.261  1.00  0.00     0.055 A 
ATOM     74  C   UNL     1      -1.665   2.037 -17.493  1.00  0.00     0.041 A 
ATOM     75  F   UNL     1      -1.448   1.510 -15.221  1.00  0.00    -0.206 F 
ATOM     76  C   UNL     1      -1.751   2.968 -18.532  1.00  0.00     0.022 A 
BRANCH  73  77
ATOM     77  S   UNL     1      -1.747   5.607 -19.484  1.00  0.00     0.124 S 
ATOM     78  O   UNL     1      -2.810   6.379 -18.852  1.00  0.00    -0.237 OA
ATOM     79  O   UNL     1      -0.442   6.259 -19.554  1.00  0.00    -0.237 OA
ATOM     80  O   UNL     1      -2.135   4.868 -20.683  1.00  0.00    -0.744 OA
ENDBRANCH  73  77
ENDBRANCH  56  70
BRANCH  57  81
ATOM     81  C   UNL     1      -7.655   9.292  -9.087  1.00  0.00     0.023 A 
ATOM     82  C   UNL     1      -8.411   9.319  -7.902  1.00  0.00     0.031 A 
ATOM     83  C   UNL     1      -7.471  10.610  -9.656  1.00  0.00     0.131 A 
ATOM     84  C   UNL     1      -8.811  10.577  -7.318  1.00  0.00     0.055 A 
ATOM     85  C   UNL     1      -7.745  11.826  -9.022  1.00  0.00     0.041 A 
ATOM     86  F   UNL     1      -7.037  10.800 -10.910  1.00  0.00    -0.206 F 
ATOM     87  C   UNL     1      -8.407  11.815  -7.826  1.00  0.00     0.022 A 
BRANCH  84  88
ATOM     88  S   UNL     1      -9.930  10.654  -5.878  1.00  0.00     0.124 S 
ATOM     89  O   UNL     1     -11.216  10.318  -6.476  1.00  0.00    -0.237 OA
ATOM     90  O   UNL     1      -9.352   9.662  -4.979  1.00  0.00    -0.237 OA
ATOM     91  O   UNL     1      -9.812  12.039  -5.418  1.00  0.00    -0.744 OA
ENDBRANCH  84  88
ENDBRANCH  57  81
BRANCH  69  92
ATOM     92  C   UNL     1      -6.191   5.421 -13.864  1.00  0.00     0.023 A 
ATOM     93  C   UNL     1      -7.490   5.539 -14.389  1.00  0.00     0.031 A 
ATOM     94  C   UNL     1      -5.882   4.140 -13.342  1.00  0.00     0.131 A 
ATOM     95  C   UNL     1      -8.390   4.441 -14.390  1.00  0.00     0.055 A 
ATOM     96  C   UNL     1      -6.777   3.053 -13.319  1.00  0.00     0.041 A 
ATOM     97  F   UNL     1      -4.682   3.888 -12.823  1.00  0.00    -0.206 F 
ATOM     98  C   UNL     1      -8.042   3.200 -13.855  1.00  0.00     0.022 A 
BRANCH  95  99
ATOM     99  S   UNL     1     -10.036   4.633 -15.136  1.00  0.00     0.124 S 
ATOM    100  O   UNL     1     -10.683   5.579 -14.234  1.00  0.00    -0.237 OA
ATOM    101  O   UNL     1      -9.718   5.127 -16.471  1.00  0.00    -0.237 OA
ATOM    102  O   UNL     1     -10.589   3.278 -15.103  1.00  0.00    -0.744 OA
ENDBRANCH  95  99
ENDBRANCH  69  92
ENDBRANCH  43  44
ENDBRANCH  36  38
ENDBRANCH  35  36
ENDBRANCH  34  35
ENDBRANCH  33  34
ENDBRANCH  32  33
ENDBRANCH   1  32
TORSDOF 23
