REMARK SMILES CCN(C[C@H](C)C(=O)OCCOCCOC(=O)c1ccc(-c2c3nc(c(-c4cc(S(=O)(=O)[O-])ccc4F)c4ccc([nH]4)c(-c4cc(S(=O)(=O)[O-])ccc4F)c4nc(c(-c5cc(S(=O)(=O)[O-])ccc5F)c5ccc2[nH]5)C=C4)C=C3)cc1)c1ccc(C(=O)NC)nn1
REMARK SMILES IDX 11 1 10 2 9 3 7 4 8 5 5 6 6 7 4 8 3 9 2 10 1 11 81 12 82 13
REMARK SMILES IDX 90 14 83 15 89 16 84 17 85 18 86 19 87 20 88 21 12 23 13 24
REMARK SMILES IDX 14 25 15 26 16 27 17 28 18 29 19 30 80 31 20 32 79 33 21 34
REMARK SMILES IDX 22 35 23 36 73 37 24 38 78 39 72 40 74 41 25 42 77 43 71 44
REMARK SMILES IDX 70 45 26 47 58 48 38 49 57 50 39 51 42 52 56 53 75 54 40 55
REMARK SMILES IDX 41 56 55 58 76 59 43 60 27 61 28 62 36 63 29 64 35 65 37 66
REMARK SMILES IDX 34 67 30 68 31 69 32 70 33 71 59 72 60 73 68 74 61 75 67 76
REMARK SMILES IDX 69 77 66 78 62 79 63 80 64 81 65 82 44 83 45 84 53 85 46 86
REMARK SMILES IDX 52 87 54 88 51 89 47 90 48 91 49 92 50 93
REMARK H PARENT 87 22 74 46 42 57
REMARK Flexibility Score: inf
ROOT
ATOM      1  C   UNL     1      -3.046  -1.348  -7.283  1.00  0.00     0.202 C 
ENDROOT
BRANCH   1   2
ATOM      2  C   UNL     1      -1.549  -1.419  -7.599  1.00  0.00     0.261 C 
BRANCH   2   3
ATOM      3  O   UNL     1      -0.736  -1.187  -6.438  1.00  0.00    -0.463 OA
BRANCH   3   4
ATOM      4  C   UNL     1       0.030  -0.065  -6.479  1.00  0.00     0.310 C 
ATOM      5  O   UNL     1       0.153   0.659  -7.461  1.00  0.00    -0.252 OA
BRANCH   4   6
ATOM      6  C   UNL     1       0.707   0.247  -5.157  1.00  0.00     0.115 C 
ATOM      7  C   UNL     1       0.438  -0.747  -4.025  1.00  0.00     0.022 C 
BRANCH   6   8
ATOM      8  C   UNL     1       2.210   0.384  -5.440  1.00  0.00     0.133 C 
BRANCH   8   9
ATOM      9  N   UNL     1       2.851   1.338  -4.535  1.00  0.00    -0.355 N 
BRANCH   9  10
ATOM     10  C   UNL     1       3.799   0.898  -3.528  1.00  0.00     0.115 C 
ATOM     11  C   UNL     1       5.223   0.901  -4.064  1.00  0.00     0.027 C 
ENDBRANCH   9  10
BRANCH   9  12
ATOM     12  C   UNL     1       2.678   2.682  -4.796  1.00  0.00     0.151 A 
ATOM     13  C   UNL     1       3.475   3.339  -5.726  1.00  0.00     0.051 A 
ATOM     14  N   UNL     1       1.663   3.350  -4.215  1.00  0.00    -0.132 NA
ATOM     15  C   UNL     1       3.201   4.663  -6.083  1.00  0.00     0.040 A 
ATOM     16  N   UNL     1       1.381   4.665  -4.558  1.00  0.00    -0.143 NA
ATOM     17  C   UNL     1       2.138   5.305  -5.475  1.00  0.00     0.150 A 
BRANCH  17  18
ATOM     18  C   UNL     1       1.667   6.673  -5.845  1.00  0.00     0.271 C 
ATOM     19  O   UNL     1       0.464   6.936  -5.832  1.00  0.00    -0.267 OA
ATOM     20  N   UNL     1       2.519   7.688  -6.217  1.00  0.00    -0.354 N 
ATOM     21  C   UNL     1       3.956   7.809  -6.171  1.00  0.00     0.143 C 
ATOM     22  H   UNL     1       2.062   8.479  -6.583  1.00  0.00     0.163 HD
ENDBRANCH  17  18
ENDBRANCH   9  12
ENDBRANCH   8   9
ENDBRANCH   6   8
ENDBRANCH   4   6
ENDBRANCH   3   4
ENDBRANCH   2   3
ENDBRANCH   1   2
BRANCH   1  23
ATOM     23  O   UNL     1      -3.527  -0.149  -6.682  1.00  0.00    -0.374 OA
BRANCH  23  24
ATOM     24  C   UNL     1      -3.228   0.079  -5.304  1.00  0.00     0.202 C 
BRANCH  24  25
ATOM     25  C   UNL     1      -3.868  -0.863  -4.274  1.00  0.00     0.261 C 
BRANCH  25  26
ATOM     26  O   UNL     1      -3.364  -2.211  -4.358  1.00  0.00    -0.460 OA
BRANCH  26  27
ATOM     27  C   UNL     1      -4.303  -3.152  -4.622  1.00  0.00     0.338 C 
ATOM     28  O   UNL     1      -5.512  -2.974  -4.726  1.00  0.00    -0.246 OA
BRANCH  27  29
ATOM     29  C   UNL     1      -3.668  -4.435  -4.968  1.00  0.00     0.060 A 
ATOM     30  C   UNL     1      -3.937  -4.973  -6.233  1.00  0.00     0.016 A 
ATOM     31  C   UNL     1      -2.909  -5.151  -4.040  1.00  0.00     0.016 A 
ATOM     32  C   UNL     1      -3.483  -6.249  -6.562  1.00  0.00     0.010 A 
ATOM     33  C   UNL     1      -2.463  -6.437  -4.369  1.00  0.00     0.010 A 
ATOM     34  C   UNL     1      -2.775  -7.005  -5.619  1.00  0.00    -0.014 A 
BRANCH  34  35
ATOM     35  C   UNL     1      -2.492  -8.436  -5.895  1.00  0.00     0.031 A 
ATOM     36  C   UNL     1      -3.390  -9.488  -5.301  1.00  0.00     0.074 A 
ATOM     37  C   UNL     1      -1.473  -8.793  -6.698  1.00  0.00     0.049 A 
ATOM     38  N   UNL     1      -3.314 -10.791  -5.385  1.00  0.00    -0.248 NA
ATOM     39  C   UNL     1      -4.524  -8.999  -4.503  1.00  0.00     0.031 C 
ATOM     40  C   UNL     1      -0.568  -7.863  -7.372  1.00  0.00     0.029 A 
ATOM     41  N   UNL     1      -1.028 -10.033  -7.080  1.00  0.00    -0.354 N 
ATOM     42  C   UNL     1      -4.389 -11.282  -4.650  1.00  0.00     0.074 A 
ATOM     43  C   UNL     1      -5.077 -10.133  -4.098  1.00  0.00     0.031 C 
ATOM     44  C   UNL     1       0.333  -8.568  -8.078  1.00  0.00     0.029 A 
ATOM     45  C   UNL     1       0.094  -9.996  -7.875  1.00  0.00     0.049 A 
ATOM     46  H   UNL     1      -1.469 -10.871  -6.811  1.00  0.00     0.167 HD
ATOM     47  C   UNL     1      -4.770 -12.570  -4.461  1.00  0.00     0.034 A 
ATOM     48  C   UNL     1       0.856 -10.997  -8.360  1.00  0.00     0.034 A 
ATOM     49  C   UNL     1      -4.065 -13.704  -5.008  1.00  0.00     0.049 A 
ATOM     50  C   UNL     1       0.467 -12.425  -8.060  1.00  0.00     0.074 A 
ATOM     51  C   UNL     1      -4.373 -15.049  -4.892  1.00  0.00     0.029 A 
ATOM     52  N   UNL     1      -2.900 -13.630  -5.762  1.00  0.00    -0.354 N 
ATOM     53  N   UNL     1      -0.554 -12.877  -7.368  1.00  0.00    -0.248 NA
ATOM     54  C   UNL     1       1.331 -13.477  -8.611  1.00  0.00     0.031 C 
ATOM     55  C   UNL     1      -3.357 -15.788  -5.510  1.00  0.00     0.029 A 
ATOM     56  C   UNL     1      -2.457 -14.905  -6.084  1.00  0.00     0.049 A 
ATOM     57  H   UNL     1      -2.454 -12.794  -6.029  1.00  0.00     0.167 HD
ATOM     58  C   UNL     1      -0.469 -14.266  -7.427  1.00  0.00     0.074 A 
ATOM     59  C   UNL     1       0.695 -14.575  -8.232  1.00  0.00     0.031 C 
ATOM     60  C   UNL     1      -1.282 -15.201  -6.872  1.00  0.00     0.034 A 
BRANCH  47  61
ATOM     61  C   UNL     1      -5.971 -12.814  -3.578  1.00  0.00     0.023 A 
ATOM     62  C   UNL     1      -7.256 -12.367  -3.931  1.00  0.00     0.031 A 
ATOM     63  C   UNL     1      -5.821 -13.478  -2.347  1.00  0.00     0.131 A 
ATOM     64  C   UNL     1      -8.324 -12.526  -3.034  1.00  0.00     0.055 A 
ATOM     65  C   UNL     1      -6.903 -13.703  -1.494  1.00  0.00     0.041 A 
ATOM     66  F   UNL     1      -4.614 -13.908  -1.946  1.00  0.00    -0.206 F 
ATOM     67  C   UNL     1      -8.161 -13.212  -1.829  1.00  0.00     0.022 A 
BRANCH  64  68
ATOM     68  S   UNL     1      -9.896 -11.698  -3.400  1.00  0.00     0.124 S 
ATOM     69  O   UNL     1      -9.477 -10.302  -3.505  1.00  0.00    -0.237 OA
ATOM     70  O   UNL     1     -10.307 -12.338  -4.644  1.00  0.00    -0.237 OA
ATOM     71  O   UNL     1     -10.725 -12.006  -2.236  1.00  0.00    -0.744 OA
ENDBRANCH  64  68
ENDBRANCH  47  61
BRANCH  48  72
ATOM     72  C   UNL     1       2.091 -10.694  -9.138  1.00  0.00     0.023 A 
ATOM     73  C   UNL     1       2.219 -11.073 -10.483  1.00  0.00     0.031 A 
ATOM     74  C   UNL     1       3.187 -10.060  -8.524  1.00  0.00     0.131 A 
ATOM     75  C   UNL     1       3.429 -10.851 -11.160  1.00  0.00     0.055 A 
ATOM     76  C   UNL     1       4.370  -9.796  -9.216  1.00  0.00     0.041 A 
ATOM     77  F   UNL     1       3.119  -9.679  -7.239  1.00  0.00    -0.206 F 
ATOM     78  C   UNL     1       4.500 -10.203 -10.539  1.00  0.00     0.022 A 
BRANCH  75  79
ATOM     79  S   UNL     1       3.613 -11.491 -12.847  1.00  0.00     0.124 S 
ATOM     80  O   UNL     1       3.393 -12.918 -12.649  1.00  0.00    -0.237 OA
ATOM     81  O   UNL     1       2.562 -10.771 -13.559  1.00  0.00    -0.237 OA
ATOM     82  O   UNL     1       4.977 -11.112 -13.207  1.00  0.00    -0.744 OA
ENDBRANCH  75  79
ENDBRANCH  48  72
BRANCH  60  83
ATOM     83  C   UNL     1      -0.958 -16.649  -7.155  1.00  0.00     0.023 A 
ATOM     84  C   UNL     1       0.206 -17.259  -6.656  1.00  0.00     0.031 A 
ATOM     85  C   UNL     1      -1.823 -17.425  -7.947  1.00  0.00     0.131 A 
ATOM     86  C   UNL     1       0.502 -18.588  -7.000  1.00  0.00     0.055 A 
ATOM     87  C   UNL     1      -1.554 -18.764  -8.236  1.00  0.00     0.041 A 
ATOM     88  F   UNL     1      -2.948 -16.894  -8.453  1.00  0.00    -0.206 F 
ATOM     89  C   UNL     1      -0.380 -19.349  -7.772  1.00  0.00     0.022 A 
BRANCH  86  90
ATOM     90  S   UNL     1       2.101 -19.283  -6.500  1.00  0.00     0.124 S 
ATOM     91  O   UNL     1       3.042 -18.362  -7.129  1.00  0.00    -0.237 OA
ATOM     92  O   UNL     1       2.026 -19.223  -5.044  1.00  0.00    -0.237 OA
ATOM     93  O   UNL     1       2.081 -20.631  -7.066  1.00  0.00    -0.744 OA
ENDBRANCH  86  90
ENDBRANCH  60  83
ENDBRANCH  34  35
ENDBRANCH  27  29
ENDBRANCH  26  27
ENDBRANCH  25  26
ENDBRANCH  24  25
ENDBRANCH  23  24
ENDBRANCH   1  23
TORSDOF 22
