REMARK SMILES C[C@@H]1CCC[C@@]1(C(=O)OCCOCCOC(=O)c1ccc(-c2c3nc(c(-c4cc(S(=O)(=O)[O-])ccc4F)c4ccc([nH]4)c(-c4cc(S(=O)(=O)[O-])ccc4F)c4nc(c(-c5cc(S(=O)(=O)[O-])ccc5F)c5ccc2[nH]5)C=C4)C=C3)cc1)c1ccc(Cl)cc1Cl
REMARK SMILES IDX 13 1 12 2 11 3 10 4 9 5 7 6 8 7 6 8 1 9 2 10 3 11 4 12 5 13
REMARK SMILES IDX 81 14 82 15 87 16 83 17 86 18 88 19 84 20 85 21 14 22 15 23
REMARK SMILES IDX 16 24 17 25 18 26 19 27 80 28 20 29 79 30 21 31 22 32 23 33
REMARK SMILES IDX 73 34 24 35 78 36 72 37 74 38 25 39 77 40 71 41 70 42 26 44
REMARK SMILES IDX 58 45 38 46 57 47 39 48 42 49 56 50 75 51 40 52 41 53 55 55
REMARK SMILES IDX 76 56 43 57 27 58 28 59 36 60 29 61 35 62 37 63 34 64 30 65
REMARK SMILES IDX 31 66 32 67 33 68 59 69 60 70 68 71 61 72 67 73 69 74 66 75
REMARK SMILES IDX 62 76 63 77 64 78 65 79 44 80 45 81 53 82 46 83 52 84 54 85
REMARK SMILES IDX 51 86 47 87 48 88 49 89 50 90
REMARK H PARENT 74 43 42 54
REMARK Flexibility Score: inf
ROOT
ATOM      1  C   UNL     1       2.474   2.585  -2.408  1.00  0.00     0.202 C 
ENDROOT
BRANCH   1   2
ATOM      2  O   UNL     1       2.773   3.932  -2.046  1.00  0.00    -0.374 OA
BRANCH   2   3
ATOM      3  C   UNL     1       3.122   4.170  -0.684  1.00  0.00     0.202 C 
BRANCH   3   4
ATOM      4  C   UNL     1       2.025   3.945   0.361  1.00  0.00     0.261 C 
BRANCH   4   5
ATOM      5  O   UNL     1       1.563   2.583   0.572  1.00  0.00    -0.463 OA
BRANCH   5   6
ATOM      6  C   UNL     1       0.219   2.387   0.417  1.00  0.00     0.316 C 
ATOM      7  O   UNL     1      -0.514   3.197  -0.151  1.00  0.00    -0.251 OA
BRANCH   6   8
ATOM      8  C   UNL     1      -0.359   1.098   1.080  1.00  0.00     0.097 C 
ATOM      9  C   UNL     1       1.686  -0.274   0.117  1.00  0.00     0.009 C 
ATOM     10  C   UNL     1       0.559  -0.183   1.140  1.00  0.00     0.008 C 
ATOM     11  C   UNL     1      -0.364  -1.394   0.892  1.00  0.00     0.005 C 
ATOM     12  C   UNL     1      -1.489  -0.897   0.003  1.00  0.00     0.002 C 
ATOM     13  C   UNL     1      -1.447   0.628   0.045  1.00  0.00     0.024 C 
BRANCH   8  14
ATOM     14  C   UNL     1      -1.015   1.379   2.493  1.00  0.00    -0.012 A 
ATOM     15  C   UNL     1      -1.923   0.424   3.022  1.00  0.00     0.008 A 
ATOM     16  C   UNL     1      -0.770   2.488   3.340  1.00  0.00     0.046 A 
ATOM     17  C   UNL     1      -2.497   0.525   4.296  1.00  0.00     0.021 A 
ATOM     18  C   UNL     1      -1.366   2.599   4.613  1.00  0.00     0.041 A 
ATOM     19  Cl  UNL     1       0.224   3.846   2.987  1.00  0.00    -0.084 Cl
ATOM     20  C   UNL     1      -2.213   1.617   5.091  1.00  0.00     0.042 A 
ATOM     21  Cl  UNL     1      -2.916   1.762   6.650  1.00  0.00    -0.084 Cl
ENDBRANCH   8  14
ENDBRANCH   6   8
ENDBRANCH   5   6
ENDBRANCH   4   5
ENDBRANCH   3   4
ENDBRANCH   2   3
ENDBRANCH   1   2
BRANCH   1  22
ATOM     22  C   UNL     1       3.642   1.600  -2.290  1.00  0.00     0.261 C 
BRANCH  22  23
ATOM     23  O   UNL     1       4.126   1.572  -0.941  1.00  0.00    -0.460 OA
BRANCH  23  24
ATOM     24  C   UNL     1       5.082   0.662  -0.670  1.00  0.00     0.338 C 
ATOM     25  O   UNL     1       5.458  -0.237  -1.396  1.00  0.00    -0.246 OA
BRANCH  24  26
ATOM     26  C   UNL     1       5.589   0.923   0.694  1.00  0.00     0.060 A 
ATOM     27  C   UNL     1       6.291   2.103   0.969  1.00  0.00     0.016 A 
ATOM     28  C   UNL     1       5.463  -0.067   1.670  1.00  0.00     0.016 A 
ATOM     29  C   UNL     1       6.955   2.246   2.192  1.00  0.00     0.010 A 
ATOM     30  C   UNL     1       6.100   0.094   2.905  1.00  0.00     0.010 A 
ATOM     31  C   UNL     1       6.910   1.219   3.147  1.00  0.00    -0.014 A 
BRANCH  31  32
ATOM     32  C   UNL     1       7.887   1.210   4.272  1.00  0.00     0.031 A 
ATOM     33  C   UNL     1       9.101   0.316   4.164  1.00  0.00     0.074 A 
ATOM     34  C   UNL     1       7.742   2.001   5.351  1.00  0.00     0.049 A 
ATOM     35  N   UNL     1      10.095   0.152   5.000  1.00  0.00    -0.248 NA
ATOM     36  C   UNL     1       9.197  -0.511   2.951  1.00  0.00     0.031 C 
ATOM     37  C   UNL     1       6.633   2.924   5.582  1.00  0.00     0.029 A 
ATOM     38  N   UNL     1       8.540   2.151   6.459  1.00  0.00    -0.354 N 
ATOM     39  C   UNL     1      10.933  -0.792   4.414  1.00  0.00     0.074 A 
ATOM     40  C   UNL     1      10.300  -1.205   3.180  1.00  0.00     0.031 C 
ATOM     41  C   UNL     1       6.823   3.547   6.759  1.00  0.00     0.029 A 
ATOM     42  C   UNL     1       8.055   3.054   7.376  1.00  0.00     0.049 A 
ATOM     43  H   UNL     1       9.383   1.658   6.586  1.00  0.00     0.167 HD
ATOM     44  C   UNL     1      12.131  -1.260   4.846  1.00  0.00     0.034 A 
ATOM     45  C   UNL     1       8.543   3.436   8.574  1.00  0.00     0.034 A 
ATOM     46  C   UNL     1      12.763  -0.855   6.077  1.00  0.00     0.049 A 
ATOM     47  C   UNL     1       9.854   2.864   9.064  1.00  0.00     0.074 A 
ATOM     48  C   UNL     1      13.979  -1.264   6.598  1.00  0.00     0.029 A 
ATOM     49  N   UNL     1      12.227   0.046   6.987  1.00  0.00    -0.354 N 
ATOM     50  N   UNL     1      10.644   1.989   8.486  1.00  0.00    -0.248 NA
ATOM     51  C   UNL     1      10.344   3.350  10.362  1.00  0.00     0.031 C 
ATOM     52  C   UNL     1      14.151  -0.656   7.847  1.00  0.00     0.029 A 
ATOM     53  C   UNL     1      13.076   0.188   8.074  1.00  0.00     0.049 A 
ATOM     54  H   UNL     1      11.369   0.516   6.876  1.00  0.00     0.167 HD
ATOM     55  C   UNL     1      11.743   1.852   9.334  1.00  0.00     0.074 A 
ATOM     56  C   UNL     1      11.516   2.738  10.456  1.00  0.00     0.031 C 
ATOM     57  C   UNL     1      12.844   1.071   9.192  1.00  0.00     0.034 A 
BRANCH  44  58
ATOM     58  C   UNL     1      12.811  -2.298   3.986  1.00  0.00     0.023 A 
ATOM     59  C   UNL     1      13.266  -1.998   2.690  1.00  0.00     0.031 A 
ATOM     60  C   UNL     1      12.972  -3.614   4.454  1.00  0.00     0.131 A 
ATOM     61  C   UNL     1      13.791  -3.016   1.880  1.00  0.00     0.055 A 
ATOM     62  C   UNL     1      13.566  -4.605   3.671  1.00  0.00     0.041 A 
ATOM     63  F   UNL     1      12.537  -3.963   5.675  1.00  0.00    -0.206 F 
ATOM     64  C   UNL     1      13.966  -4.313   2.370  1.00  0.00     0.022 A 
BRANCH  61  65
ATOM     65  S   UNL     1      14.109  -2.656   0.131  1.00  0.00     0.124 S 
ATOM     66  O   UNL     1      12.787  -2.237  -0.330  1.00  0.00    -0.237 OA
ATOM     67  O   UNL     1      15.121  -1.609   0.203  1.00  0.00    -0.237 OA
ATOM     68  O   UNL     1      14.570  -3.936  -0.404  1.00  0.00    -0.744 OA
ENDBRANCH  61  65
ENDBRANCH  44  58
BRANCH  45  69
ATOM     69  C   UNL     1       7.790   4.404   9.423  1.00  0.00     0.023 A 
ATOM     70  C   UNL     1       8.310   5.675   9.715  1.00  0.00     0.031 A 
ATOM     71  C   UNL     1       6.567   4.038  10.012  1.00  0.00     0.131 A 
ATOM     72  C   UNL     1       7.634   6.516  10.612  1.00  0.00     0.055 A 
ATOM     73  C   UNL     1       5.874   4.898  10.866  1.00  0.00     0.041 A 
ATOM     74  F   UNL     1       6.028   2.834   9.764  1.00  0.00    -0.206 F 
ATOM     75  C   UNL     1       6.415   6.141  11.181  1.00  0.00     0.022 A 
BRANCH  72  76
ATOM     76  S   UNL     1       8.414   8.083  11.091  1.00  0.00     0.124 S 
ATOM     77  O   UNL     1       9.666   7.623  11.681  1.00  0.00    -0.237 OA
ATOM     78  O   UNL     1       8.522   8.771   9.809  1.00  0.00    -0.237 OA
ATOM     79  O   UNL     1       7.457   8.666  12.029  1.00  0.00    -0.744 OA
ENDBRANCH  72  76
ENDBRANCH  45  69
BRANCH  57  80
ATOM     80  C   UNL     1      13.917   1.189  10.249  1.00  0.00     0.023 A 
ATOM     81  C   UNL     1      13.709   0.769  11.575  1.00  0.00     0.031 A 
ATOM     82  C   UNL     1      15.166   1.748   9.923  1.00  0.00     0.131 A 
ATOM     83  C   UNL     1      14.710   0.969  12.539  1.00  0.00     0.055 A 
ATOM     84  C   UNL     1      16.179   1.894  10.873  1.00  0.00     0.041 A 
ATOM     85  F   UNL     1      15.423   2.166   8.673  1.00  0.00    -0.206 F 
ATOM     86  C   UNL     1      15.948   1.517  12.193  1.00  0.00     0.022 A 
BRANCH  83  87
ATOM     87  S   UNL     1      14.340   0.595  14.275  1.00  0.00     0.124 S 
ATOM     88  O   UNL     1      13.144   1.397  14.513  1.00  0.00    -0.237 OA
ATOM     89  O   UNL     1      14.143  -0.850  14.246  1.00  0.00    -0.237 OA
ATOM     90  O   UNL     1      15.537   1.043  14.986  1.00  0.00    -0.744 OA
ENDBRANCH  83  87
ENDBRANCH  57  80
ENDBRANCH  31  32
ENDBRANCH  24  26
ENDBRANCH  23  24
ENDBRANCH  22  23
ENDBRANCH   1  22
TORSDOF 18
