REMARK SMILES O=C(OCCOCCOC(=O)c1cncc(Oc2cc(F)ccc2F)n1)c1ccc(-c2c3nc(c(-c4cc(S(=O)(=O)[O-])ccc4F)c4ccc([nH]4)c(-c4cc(S(=O)(=O)[O-])ccc4F)c4nc(c(-c5cc(S(=O)(=O)[O-])ccc5F)c5ccc2[nH]5)C=C4)C=C3)cc1
REMARK SMILES IDX 5 1 4 2 3 3 2 4 1 5 27 6 28 7 89 8 29 9 88 10 30 11 31 12
REMARK SMILES IDX 32 13 82 14 33 15 87 16 81 17 83 18 34 19 86 20 80 21 79 22
REMARK SMILES IDX 35 24 67 25 47 26 66 27 48 28 51 29 65 30 84 31 49 32 50 33
REMARK SMILES IDX 64 35 85 36 52 37 36 38 37 39 45 40 38 41 44 42 46 43 43 44
REMARK SMILES IDX 39 45 40 46 41 47 42 48 68 49 69 50 77 51 70 52 76 53 78 54
REMARK SMILES IDX 75 55 71 56 72 57 73 58 74 59 53 60 54 61 62 62 55 63 61 64
REMARK SMILES IDX 63 65 60 66 56 67 57 68 58 69 59 70 6 71 7 72 8 73 9 74
REMARK SMILES IDX 10 75 11 76 12 77 13 78 26 79 14 80 16 81 15 82 17 83 18 84
REMARK SMILES IDX 19 85 24 86 20 87 23 88 25 89 21 90 22 91
REMARK H PARENT 83 23 51 34
REMARK Flexibility Score: inf
ROOT
ATOM      1  C   UNL     1       4.325   0.283  -1.752  1.00  0.00     0.202 C 
ENDROOT
BRANCH   1   2
ATOM      2  C   UNL     1       4.018  -1.048  -1.061  1.00  0.00     0.261 C 
BRANCH   2   3
ATOM      3  O   UNL     1       2.643  -1.082  -0.643  1.00  0.00    -0.460 OA
BRANCH   3   4
ATOM      4  C   UNL     1       2.141  -0.874   0.597  1.00  0.00     0.338 C 
ATOM      5  O   UNL     1       0.923  -0.971   0.752  1.00  0.00    -0.246 OA
BRANCH   4   6
ATOM      6  C   UNL     1       2.973  -0.541   1.796  1.00  0.00     0.060 A 
ATOM      7  C   UNL     1       4.202   0.119   1.764  1.00  0.00     0.016 A 
ATOM      8  C   UNL     1       2.423  -0.838   3.056  1.00  0.00     0.016 A 
ATOM      9  C   UNL     1       4.894   0.430   2.926  1.00  0.00     0.010 A 
ATOM     10  C   UNL     1       3.093  -0.492   4.235  1.00  0.00     0.010 A 
ATOM     11  C   UNL     1       4.341   0.135   4.167  1.00  0.00    -0.014 A 
BRANCH  11  12
ATOM     12  C   UNL     1       5.148   0.430   5.364  1.00  0.00     0.031 A 
ATOM     13  C   UNL     1       5.869  -0.696   6.036  1.00  0.00     0.074 A 
ATOM     14  C   UNL     1       5.332   1.711   5.732  1.00  0.00     0.049 A 
ATOM     15  N   UNL     1       6.638  -0.676   7.088  1.00  0.00    -0.248 NA
ATOM     16  C   UNL     1       5.709  -2.026   5.425  1.00  0.00     0.031 C 
ATOM     17  C   UNL     1       4.754   2.872   5.048  1.00  0.00     0.029 A 
ATOM     18  N   UNL     1       6.079   2.258   6.740  1.00  0.00    -0.354 N 
ATOM     19  C   UNL     1       7.047  -1.991   7.278  1.00  0.00     0.074 A 
ATOM     20  C   UNL     1       6.424  -2.784   6.241  1.00  0.00     0.031 C 
ATOM     21  C   UNL     1       5.189   3.993   5.644  1.00  0.00     0.029 A 
ATOM     22  C   UNL     1       6.018   3.632   6.787  1.00  0.00     0.049 A 
ATOM     23  H   UNL     1       6.609   1.720   7.371  1.00  0.00     0.167 HD
ATOM     24  C   UNL     1       7.865  -2.481   8.240  1.00  0.00     0.034 A 
ATOM     25  C   UNL     1       6.551   4.491   7.678  1.00  0.00     0.034 A 
ATOM     26  C   UNL     1       8.440  -1.655   9.273  1.00  0.00     0.049 A 
ATOM     27  C   UNL     1       7.373   3.908   8.800  1.00  0.00     0.074 A 
ATOM     28  C   UNL     1       9.208  -2.030  10.359  1.00  0.00     0.029 A 
ATOM     29  N   UNL     1       8.297  -0.272   9.344  1.00  0.00    -0.354 N 
ATOM     30  N   UNL     1       7.692   2.651   9.022  1.00  0.00    -0.248 NA
ATOM     31  C   UNL     1       7.900   4.849   9.794  1.00  0.00     0.031 C 
ATOM     32  C   UNL     1       9.479  -0.883  11.117  1.00  0.00     0.029 A 
ATOM     33  C   UNL     1       8.941   0.218  10.467  1.00  0.00     0.049 A 
ATOM     34  H   UNL     1       7.808   0.278   8.690  1.00  0.00     0.167 HD
ATOM     35  C   UNL     1       8.468   2.653  10.176  1.00  0.00     0.074 A 
ATOM     36  C   UNL     1       8.589   4.040  10.585  1.00  0.00     0.031 C 
ATOM     37  C   UNL     1       9.026   1.611  10.845  1.00  0.00     0.034 A 
BRANCH  24  38
ATOM     38  C   UNL     1       8.076  -3.975   8.254  1.00  0.00     0.023 A 
ATOM     39  C   UNL     1       8.732  -4.644   7.204  1.00  0.00     0.031 A 
ATOM     40  C   UNL     1       7.518  -4.753   9.283  1.00  0.00     0.131 A 
ATOM     41  C   UNL     1       8.739  -6.048   7.165  1.00  0.00     0.055 A 
ATOM     42  C   UNL     1       7.598  -6.147   9.279  1.00  0.00     0.041 A 
ATOM     43  F   UNL     1       6.853  -4.173  10.294  1.00  0.00    -0.206 F 
ATOM     44  C   UNL     1       8.195  -6.803   8.207  1.00  0.00     0.022 A 
BRANCH  41  45
ATOM     45  S   UNL     1       9.323  -6.875   5.659  1.00  0.00     0.124 S 
ATOM     46  O   UNL     1       8.399  -6.350   4.656  1.00  0.00    -0.237 OA
ATOM     47  O   UNL     1      10.703  -6.413   5.558  1.00  0.00    -0.237 OA
ATOM     48  O   UNL     1       9.162  -8.295   5.961  1.00  0.00    -0.744 OA
ENDBRANCH  41  45
ENDBRANCH  24  38
BRANCH  25  49
ATOM     49  C   UNL     1       6.267   5.955   7.593  1.00  0.00     0.023 A 
ATOM     50  C   UNL     1       7.295   6.898   7.435  1.00  0.00     0.031 A 
ATOM     51  C   UNL     1       4.949   6.437   7.712  1.00  0.00     0.131 A 
ATOM     52  C   UNL     1       6.993   8.271   7.436  1.00  0.00     0.055 A 
ATOM     53  C   UNL     1       4.648   7.799   7.657  1.00  0.00     0.041 A 
ATOM     54  F   UNL     1       3.925   5.584   7.874  1.00  0.00    -0.206 F 
ATOM     55  C   UNL     1       5.676   8.726   7.531  1.00  0.00     0.022 A 
BRANCH  52  56
ATOM     56  S   UNL     1       8.358   9.467   7.402  1.00  0.00     0.124 S 
ATOM     57  O   UNL     1       9.138   9.063   8.566  1.00  0.00    -0.237 OA
ATOM     58  O   UNL     1       8.961   9.203   6.100  1.00  0.00    -0.237 OA
ATOM     59  O   UNL     1       7.683  10.758   7.523  1.00  0.00    -0.744 OA
ENDBRANCH  52  56
ENDBRANCH  25  49
BRANCH  37  60
ATOM     60  C   UNL     1       9.835   1.957  12.067  1.00  0.00     0.023 A 
ATOM     61  C   UNL     1       9.228   2.458  13.231  1.00  0.00     0.031 A 
ATOM     62  C   UNL     1      11.231   1.794  12.059  1.00  0.00     0.131 A 
ATOM     63  C   UNL     1      10.023   2.830  14.324  1.00  0.00     0.055 A 
ATOM     64  C   UNL     1      12.010   2.112  13.170  1.00  0.00     0.041 A 
ATOM     65  F   UNL     1      11.857   1.319  10.970  1.00  0.00    -0.206 F 
ATOM     66  C   UNL     1      11.408   2.646  14.306  1.00  0.00     0.022 A 
BRANCH  63  67
ATOM     67  S   UNL     1       9.229   3.641  15.738  1.00  0.00     0.124 S 
ATOM     68  O   UNL     1       8.637   4.822  15.118  1.00  0.00    -0.237 OA
ATOM     69  O   UNL     1       8.289   2.623  16.195  1.00  0.00    -0.237 OA
ATOM     70  O   UNL     1      10.342   3.909  16.647  1.00  0.00    -0.744 OA
ENDBRANCH  63  67
ENDBRANCH  37  60
ENDBRANCH  11  12
ENDBRANCH   4   6
ENDBRANCH   3   4
ENDBRANCH   2   3
ENDBRANCH   1   2
BRANCH   1  71
ATOM     71  O   UNL     1       4.052   1.428  -0.946  1.00  0.00    -0.374 OA
BRANCH  71  72
ATOM     72  C   UNL     1       2.745   1.988  -1.072  1.00  0.00     0.202 C 
BRANCH  72  73
ATOM     73  C   UNL     1       2.870   3.430  -1.567  1.00  0.00     0.261 C 
BRANCH  73  74
ATOM     74  O   UNL     1       3.436   3.404  -2.891  1.00  0.00    -0.458 OA
BRANCH  74  75
ATOM     75  C   UNL     1       4.798   3.445  -2.935  1.00  0.00     0.358 C 
ATOM     76  O   UNL     1       5.547   3.869  -2.072  1.00  0.00    -0.244 OA
BRANCH  75  77
ATOM     77  C   UNL     1       5.226   2.738  -4.165  1.00  0.00     0.170 A 
ATOM     78  C   UNL     1       4.514   2.912  -5.346  1.00  0.00     0.147 A 
ATOM     79  N   UNL     1       6.271   1.866  -4.061  1.00  0.00    -0.203 NA
ATOM     80  N   UNL     1       4.812   2.234  -6.483  1.00  0.00    -0.257 NA
ATOM     81  C   UNL     1       6.563   1.185  -5.191  1.00  0.00     0.238 A 
ATOM     82  C   UNL     1       5.857   1.375  -6.374  1.00  0.00     0.179 A 
BRANCH  81  83
ATOM     83  O   UNL     1       7.625   0.293  -5.237  1.00  0.00    -0.434 OA
BRANCH  83  84
ATOM     84  C   UNL     1       7.988  -0.320  -4.063  1.00  0.00     0.168 A 
ATOM     85  C   UNL     1       7.154  -1.254  -3.447  1.00  0.00     0.089 A 
ATOM     86  C   UNL     1       9.280  -0.120  -3.575  1.00  0.00     0.166 A 
ATOM     87  C   UNL     1       7.613  -1.937  -2.322  1.00  0.00     0.127 A 
ATOM     88  C   UNL     1       9.737  -0.814  -2.456  1.00  0.00     0.046 A 
ATOM     89  F   UNL     1      10.111   0.722  -4.205  1.00  0.00    -0.203 F 
ATOM     90  F   UNL     1       6.804  -2.819  -1.722  1.00  0.00    -0.207 F 
ATOM     91  C   UNL     1       8.895  -1.728  -1.821  1.00  0.00     0.042 A 
ENDBRANCH  83  84
ENDBRANCH  81  83
ENDBRANCH  75  77
ENDBRANCH  74  75
ENDBRANCH  73  74
ENDBRANCH  72  73
ENDBRANCH  71  72
ENDBRANCH   1  71
TORSDOF 19
