REMARK SMILES NS(=O)(=O)c1ccc(/N=C/c2ccc(O)c(C(=O)OCCOCCOC(=O)c3ccc(-c4c5nc(c(-c6cc(S(=O)(=O)[O-])ccc6F)c6ccc([nH]6)c(-c6cc(S(=O)(=O)[O-])ccc6F)c6nc(c(-c7cc(S(=O)(=O)[O-])ccc7F)c7ccc4[nH]7)C=C6)C=C5)cc3)c2)cc1
REMARK SMILES IDX 21 1 20 2 19 3 17 4 18 5 16 6 11 7 12 8 91 9 13 10 14 11
REMARK SMILES IDX 10 12 9 13 8 14 5 15 6 16 93 17 7 18 92 19 2 20 3 21 4 22
REMARK SMILES IDX 1 23 15 26 22 28 23 29 24 30 25 31 26 32 27 33 28 34 29 35
REMARK SMILES IDX 90 36 30 37 89 38 31 39 32 40 33 41 83 42 34 43 88 44 82 45
REMARK SMILES IDX 84 46 35 47 87 48 81 49 80 50 36 52 68 53 48 54 67 55 49 56
REMARK SMILES IDX 52 57 66 58 85 59 50 60 51 61 65 63 86 64 53 65 37 66 38 67
REMARK SMILES IDX 46 68 39 69 45 70 47 71 44 72 40 73 41 74 42 75 43 76 69 77
REMARK SMILES IDX 70 78 78 79 71 80 77 81 79 82 76 83 72 84 73 85 74 86 75 87
REMARK SMILES IDX 54 88 55 89 63 90 56 91 62 92 64 93 61 94 57 95 58 96 59 97
REMARK SMILES IDX 60 98
REMARK H PARENT 1 24 1 25 15 27 84 51 52 62
REMARK Flexibility Score: inf
ROOT
ATOM      1  C   UNL     1       7.089   5.925  10.157  1.00  0.00     0.202 C 
ENDROOT
BRANCH   1   2
ATOM      2  C   UNL     1       5.957   4.918  10.393  1.00  0.00     0.261 C 
BRANCH   2   3
ATOM      3  O   UNL     1       4.874   5.129   9.467  1.00  0.00    -0.460 OA
BRANCH   3   4
ATOM      4  C   UNL     1       3.772   5.704   9.998  1.00  0.00     0.342 C 
ATOM      5  O   UNL     1       3.554   5.932  11.180  1.00  0.00    -0.246 OA
BRANCH   4   6
ATOM      6  C   UNL     1       2.917   6.286   8.941  1.00  0.00     0.102 A 
ATOM      7  C   UNL     1       1.918   6.292   6.740  1.00  0.00    -0.006 A 
ATOM      8  C   UNL     1       1.329   7.535   7.005  1.00  0.00     0.013 A 
ATOM      9  C   UNL     1       2.734   5.670   7.696  1.00  0.00     0.029 A 
ATOM     10  C   UNL     1       1.527   8.151   8.239  1.00  0.00     0.048 A 
ATOM     11  C   UNL     1       2.302   7.522   9.206  1.00  0.00     0.130 A 
BRANCH   7  12
ATOM     12  C   UNL     1       1.597   5.649   5.448  1.00  0.00     0.119 C 
ATOM     13  N   UNL     1       2.055   4.485   5.124  1.00  0.00    -0.256 NA
BRANCH  13  14
ATOM     14  C   UNL     1       1.660   3.889   3.910  1.00  0.00     0.063 A 
ATOM     15  C   UNL     1       0.926   2.528   1.560  1.00  0.00     0.082 A 
ATOM     16  C   UNL     1       1.222   1.805   2.715  1.00  0.00     0.024 A 
ATOM     17  C   UNL     1       1.007   3.922   1.561  1.00  0.00     0.024 A 
ATOM     18  C   UNL     1       1.586   2.490   3.879  1.00  0.00     0.030 A 
ATOM     19  C   UNL     1       1.381   4.595   2.731  1.00  0.00     0.030 A 
BRANCH  15  20
ATOM     20  S   UNL     1       0.506   1.697   0.056  1.00  0.00     0.238 S 
ATOM     21  O   UNL     1       1.096   2.420  -1.052  1.00  0.00    -0.207 OA
ATOM     22  O   UNL     1      -0.894   1.360   0.101  1.00  0.00    -0.207 OA
BRANCH  20  23
ATOM     23  N   UNL     1       1.348   0.249   0.140  1.00  0.00    -0.225 NA
ATOM     24  H   UNL     1       1.162  -0.302  -0.699  1.00  0.00     0.137 HD
ATOM     25  H   UNL     1       1.047  -0.273   0.963  1.00  0.00     0.137 HD
ENDBRANCH  20  23
ENDBRANCH  15  20
ENDBRANCH  13  14
ENDBRANCH   7  12
BRANCH  11  26
ATOM     26  O   UNL     1       2.436   8.191  10.395  1.00  0.00    -0.507 OA
ATOM     27  H   UNL     1       2.004   9.013  10.521  1.00  0.00     0.293 HD
ENDBRANCH  11  26
ENDBRANCH   4   6
ENDBRANCH   3   4
ENDBRANCH   2   3
ENDBRANCH   1   2
BRANCH   1  28
ATOM     28  O   UNL     1       6.756   7.289  10.422  1.00  0.00    -0.374 OA
BRANCH  28  29
ATOM     29  C   UNL     1       6.152   8.019   9.352  1.00  0.00     0.202 C 
BRANCH  29  30
ATOM     30  C   UNL     1       7.100   8.569   8.281  1.00  0.00     0.261 C 
BRANCH  30  31
ATOM     31  O   UNL     1       7.650   7.514   7.472  1.00  0.00    -0.460 OA
BRANCH  31  32
ATOM     32  C   UNL     1       8.954   7.240   7.720  1.00  0.00     0.338 C 
ATOM     33  O   UNL     1       9.695   7.848   8.475  1.00  0.00    -0.246 OA
BRANCH  32  34
ATOM     34  C   UNL     1       9.337   5.959   7.087  1.00  0.00     0.060 A 
ATOM     35  C   UNL     1      10.108   5.077   7.855  1.00  0.00     0.016 A 
ATOM     36  C   UNL     1       9.015   5.649   5.763  1.00  0.00     0.016 A 
ATOM     37  C   UNL     1      10.631   3.922   7.279  1.00  0.00     0.010 A 
ATOM     38  C   UNL     1       9.543   4.488   5.185  1.00  0.00     0.010 A 
ATOM     39  C   UNL     1      10.395   3.648   5.926  1.00  0.00    -0.014 A 
BRANCH  39  40
ATOM     40  C   UNL     1      11.216   2.612   5.250  1.00  0.00     0.031 A 
ATOM     41  C   UNL     1      12.414   3.055   4.451  1.00  0.00     0.074 A 
ATOM     42  C   UNL     1      10.949   1.302   5.399  1.00  0.00     0.049 A 
ATOM     43  N   UNL     1      13.283   2.341   3.783  1.00  0.00    -0.248 NA
ATOM     44  C   UNL     1      12.659   4.504   4.402  1.00  0.00     0.031 C 
ATOM     45  C   UNL     1       9.854   0.750   6.195  1.00  0.00     0.029 A 
ATOM     46  N   UNL     1      11.588   0.199   4.893  1.00  0.00    -0.354 N 
ATOM     47  C   UNL     1      14.180   3.254   3.235  1.00  0.00     0.074 A 
ATOM     48  C   UNL     1      13.713   4.573   3.605  1.00  0.00     0.031 C 
ATOM     49  C   UNL     1       9.902  -0.592   6.128  1.00  0.00     0.029 A 
ATOM     50  C   UNL     1      11.008  -0.992   5.259  1.00  0.00     0.049 A 
ATOM     51  H   UNL     1      12.387   0.255   4.321  1.00  0.00     0.167 HD
ATOM     52  C   UNL     1      15.300   3.015   2.508  1.00  0.00     0.034 A 
ATOM     53  C   UNL     1      11.329  -2.257   4.921  1.00  0.00     0.034 A 
ATOM     54  C   UNL     1      15.742   1.695   2.130  1.00  0.00     0.049 A 
ATOM     55  C   UNL     1      12.519  -2.497   4.023  1.00  0.00     0.074 A 
ATOM     56  C   UNL     1      16.847   1.334   1.379  1.00  0.00     0.029 A 
ATOM     57  N   UNL     1      15.092   0.513   2.468  1.00  0.00    -0.354 N 
ATOM     58  N   UNL     1      13.353  -1.627   3.501  1.00  0.00    -0.248 NA
ATOM     59  C   UNL     1      12.816  -3.894   3.680  1.00  0.00     0.031 C 
ATOM     60  C   UNL     1      16.828  -0.056   1.207  1.00  0.00     0.029 A 
ATOM     61  C   UNL     1      15.757  -0.573   1.919  1.00  0.00     0.049 A 
ATOM     62  H   UNL     1      14.277   0.456   3.017  1.00  0.00     0.167 HD
ATOM     63  C   UNL     1      14.299  -2.377   2.804  1.00  0.00     0.074 A 
ATOM     64  C   UNL     1      13.932  -3.768   2.978  1.00  0.00     0.031 C 
ATOM     65  C   UNL     1      15.378  -1.956   2.096  1.00  0.00     0.034 A 
BRANCH  52  66
ATOM     66  C   UNL     1      16.081   4.221   2.037  1.00  0.00     0.023 A 
ATOM     67  C   UNL     1      16.669   5.120   2.946  1.00  0.00     0.031 A 
ATOM     68  C   UNL     1      16.182   4.514   0.666  1.00  0.00     0.131 A 
ATOM     69  C   UNL     1      17.247   6.311   2.479  1.00  0.00     0.055 A 
ATOM     70  C   UNL     1      16.839   5.657   0.203  1.00  0.00     0.041 A 
ATOM     71  F   UNL     1      15.621   3.709  -0.249  1.00  0.00    -0.206 F 
ATOM     72  C   UNL     1      17.358   6.573   1.113  1.00  0.00     0.022 A 
BRANCH  69  73
ATOM     73  S   UNL     1      17.686   7.591   3.688  1.00  0.00     0.124 S 
ATOM     74  O   UNL     1      16.406   7.819   4.354  1.00  0.00    -0.237 OA
ATOM     75  O   UNL     1      18.714   6.932   4.485  1.00  0.00    -0.237 OA
ATOM     76  O   UNL     1      18.154   8.699   2.858  1.00  0.00    -0.744 OA
ENDBRANCH  69  73
ENDBRANCH  52  66
BRANCH  53  77
ATOM     77  C   UNL     1      10.509  -3.402   5.413  1.00  0.00     0.023 A 
ATOM     78  C   UNL     1      11.059  -4.373   6.264  1.00  0.00     0.031 A 
ATOM     79  C   UNL     1       9.177  -3.569   4.994  1.00  0.00     0.131 A 
ATOM     80  C   UNL     1      10.295  -5.491   6.634  1.00  0.00     0.055 A 
ATOM     81  C   UNL     1       8.405  -4.656   5.406  1.00  0.00     0.041 A 
ATOM     82  F   UNL     1       8.603  -2.669   4.179  1.00  0.00    -0.206 F 
ATOM     83  C   UNL     1       8.968  -5.633   6.221  1.00  0.00     0.022 A 
BRANCH  80  84
ATOM     84  S   UNL     1      11.088  -6.804   7.603  1.00  0.00     0.124 S 
ATOM     85  O   UNL     1      12.176  -7.208   6.720  1.00  0.00    -0.237 OA
ATOM     86  O   UNL     1      11.476  -6.091   8.816  1.00  0.00    -0.237 OA
ATOM     87  O   UNL     1      10.023  -7.789   7.776  1.00  0.00    -0.744 OA
ENDBRANCH  80  84
ENDBRANCH  53  77
BRANCH  65  88
ATOM     88  C   UNL     1      16.276  -3.021   1.511  1.00  0.00     0.023 A 
ATOM     89  C   UNL     1      15.845  -3.884   0.489  1.00  0.00     0.031 A 
ATOM     90  C   UNL     1      17.585  -3.182   2.001  1.00  0.00     0.131 A 
ATOM     91  C   UNL     1      16.691  -4.907   0.033  1.00  0.00     0.055 A 
ATOM     92  C   UNL     1      18.445  -4.160   1.500  1.00  0.00     0.041 A 
ATOM     93  F   UNL     1      18.052  -2.387   2.978  1.00  0.00    -0.206 F 
ATOM     94  C   UNL     1      17.994  -5.040   0.520  1.00  0.00     0.022 A 
BRANCH  91  95
ATOM     95  S   UNL     1      16.033  -6.128  -1.137  1.00  0.00     0.124 S 
ATOM     96  O   UNL     1      14.881  -6.654  -0.412  1.00  0.00    -0.237 OA
ATOM     97  O   UNL     1      15.730  -5.308  -2.306  1.00  0.00    -0.237 OA
ATOM     98  O   UNL     1      17.139  -7.068  -1.310  1.00  0.00    -0.744 OA
ENDBRANCH  91  95
ENDBRANCH  65  88
ENDBRANCH  39  40
ENDBRANCH  32  34
ENDBRANCH  31  32
ENDBRANCH  30  31
ENDBRANCH  29  30
ENDBRANCH  28  29
ENDBRANCH   1  28
TORSDOF 22
