REMARK SMILES O=C(OCCOCCOC(=O)c1ccc(-c2c3nc(c(-c4cc(S(=O)(=O)[O-])ccc4F)c4ccc([nH]4)c(-c4cc(S(=O)(=O)[O-])ccc4F)c4nc(c(-c5cc(S(=O)(=O)[O-])ccc5F)c5ccc2[nH]5)C=C4)C=C3)cc1)C1=Cc2c(cc(Cl)c(Cl)c2Cl)O[C@H]1C(F)(F)F
REMARK SMILES IDX 7 1 6 2 5 3 4 4 3 5 2 6 1 7 75 8 76 9 87 10 77 11 86 12
REMARK SMILES IDX 78 13 84 14 79 15 82 16 85 17 80 18 83 19 81 20 88 21 89 22
REMARK SMILES IDX 90 23 91 24 8 25 9 26 10 27 11 28 12 29 13 30 74 31 14 32
REMARK SMILES IDX 73 33 15 34 16 35 17 36 67 37 18 38 72 39 66 40 68 41 19 42
REMARK SMILES IDX 71 43 65 44 64 45 20 47 52 48 32 49 51 50 33 51 36 52 50 53
REMARK SMILES IDX 69 54 34 55 35 56 49 58 70 59 37 60 21 61 22 62 30 63 23 64
REMARK SMILES IDX 29 65 31 66 28 67 24 68 25 69 26 70 27 71 53 72 54 73 62 74
REMARK SMILES IDX 55 75 61 76 63 77 60 78 56 79 57 80 58 81 59 82 38 83 39 84
REMARK SMILES IDX 47 85 40 86 46 87 48 88 45 89 41 90 42 91 43 92 44 93
REMARK H PARENT 68 46 36 57
REMARK Flexibility Score: inf
ROOT
ATOM      1  C   UNL     1       1.552   1.932   2.815  1.00  0.00     0.202 C 
ENDROOT
BRANCH   1   2
ATOM      2  O   UNL     1       2.215   1.135   1.837  1.00  0.00    -0.374 OA
BRANCH   2   3
ATOM      3  C   UNL     1       2.302   1.770   0.561  1.00  0.00     0.202 C 
BRANCH   3   4
ATOM      4  C   UNL     1       1.876   0.832  -0.571  1.00  0.00     0.261 C 
BRANCH   4   5
ATOM      5  O   UNL     1       1.476  -0.474  -0.115  1.00  0.00    -0.460 OA
BRANCH   5   6
ATOM      6  C   UNL     1       2.285  -1.492   0.251  1.00  0.00     0.338 C 
ATOM      7  O   UNL     1       1.793  -2.594   0.493  1.00  0.00    -0.246 OA
BRANCH   6   8
ATOM      8  C   UNL     1       3.765  -1.384   0.234  1.00  0.00     0.087 C 
ATOM      9  C   UNL     1       4.458  -0.252   0.072  1.00  0.00     0.029 C 
ATOM     10  C   UNL     1       4.487  -2.713   0.246  1.00  0.00     0.316 C 
ATOM     11  C   UNL     1       5.545  -0.346  -0.906  1.00  0.00     0.038 A 
ATOM     12  O   UNL     1       5.876  -2.644  -0.219  1.00  0.00    -0.475 OA
ATOM     13  C   UNL     1       6.207  -1.569  -1.002  1.00  0.00     0.131 A 
ATOM     14  C   UNL     1       5.868   0.705  -1.792  1.00  0.00     0.072 A 
ATOM     15  C   UNL     1       7.247  -1.720  -1.909  1.00  0.00     0.069 A 
ATOM     16  C   UNL     1       6.893   0.544  -2.733  1.00  0.00     0.079 A 
ATOM     17  Cl  UNL     1       4.939   2.170  -1.782  1.00  0.00    -0.082 Cl
ATOM     18  C   UNL     1       7.588  -0.671  -2.773  1.00  0.00     0.064 A 
ATOM     19  Cl  UNL     1       7.275   1.821  -3.849  1.00  0.00    -0.081 Cl
ATOM     20  Cl  UNL     1       8.871  -0.958  -3.896  1.00  0.00    -0.083 Cl
BRANCH  10  21
ATOM     21  C   UNL     1       4.434  -3.357   1.658  1.00  0.00     0.430 C 
ATOM     22  F   UNL     1       3.645  -2.685   2.531  1.00  0.00    -0.167 F 
ATOM     23  F   UNL     1       3.976  -4.631   1.601  1.00  0.00    -0.167 F 
ATOM     24  F   UNL     1       5.663  -3.410   2.232  1.00  0.00    -0.167 F 
ENDBRANCH  10  21
ENDBRANCH   6   8
ENDBRANCH   5   6
ENDBRANCH   4   5
ENDBRANCH   3   4
ENDBRANCH   2   3
ENDBRANCH   1   2
BRANCH   1  25
ATOM     25  C   UNL     1       2.453   2.997   3.452  1.00  0.00     0.261 C 
BRANCH  25  26
ATOM     26  O   UNL     1       2.983   3.904   2.469  1.00  0.00    -0.460 OA
BRANCH  26  27
ATOM     27  C   UNL     1       4.318   3.812   2.207  1.00  0.00     0.338 C 
ATOM     28  O   UNL     1       5.108   3.073   2.759  1.00  0.00    -0.246 OA
BRANCH  27  29
ATOM     29  C   UNL     1       4.667   4.667   1.031  1.00  0.00     0.060 A 
ATOM     30  C   UNL     1       5.924   4.505   0.425  1.00  0.00     0.016 A 
ATOM     31  C   UNL     1       3.765   5.592   0.494  1.00  0.00     0.016 A 
ATOM     32  C   UNL     1       6.270   5.248  -0.716  1.00  0.00     0.010 A 
ATOM     33  C   UNL     1       4.112   6.337  -0.637  1.00  0.00     0.010 A 
ATOM     34  C   UNL     1       5.368   6.181  -1.246  1.00  0.00    -0.014 A 
BRANCH  34  35
ATOM     35  C   UNL     1       5.781   7.185  -2.263  1.00  0.00     0.031 A 
ATOM     36  C   UNL     1       6.310   8.497  -1.756  1.00  0.00     0.074 A 
ATOM     37  C   UNL     1       5.593   7.005  -3.584  1.00  0.00     0.049 A 
ATOM     38  N   UNL     1       6.542   9.612  -2.398  1.00  0.00    -0.248 NA
ATOM     39  C   UNL     1       6.582   8.556  -0.313  1.00  0.00     0.031 C 
ATOM     40  C   UNL     1       5.123   5.774  -4.213  1.00  0.00     0.029 A 
ATOM     41  N   UNL     1       5.747   7.883  -4.633  1.00  0.00    -0.354 N 
ATOM     42  C   UNL     1       6.973  10.514  -1.432  1.00  0.00     0.074 A 
ATOM     43  C   UNL     1       6.931   9.822  -0.162  1.00  0.00     0.031 C 
ATOM     44  C   UNL     1       5.000   5.983  -5.537  1.00  0.00     0.029 A 
ATOM     45  C   UNL     1       5.333   7.376  -5.845  1.00  0.00     0.049 A 
ATOM     46  H   UNL     1       6.119   8.788  -4.528  1.00  0.00     0.167 HD
ATOM     47  C   UNL     1       7.364  11.804  -1.586  1.00  0.00     0.034 A 
ATOM     48  C   UNL     1       5.198   7.975  -7.049  1.00  0.00     0.034 A 
ATOM     49  C   UNL     1       7.346  12.499  -2.848  1.00  0.00     0.049 A 
ATOM     50  C   UNL     1       5.539   9.445  -7.190  1.00  0.00     0.074 A 
ATOM     51  C   UNL     1       7.714  13.805  -3.117  1.00  0.00     0.029 A 
ATOM     52  N   UNL     1       6.906  11.955  -4.048  1.00  0.00    -0.354 N 
ATOM     53  N   UNL     1       5.957  10.290  -6.275  1.00  0.00    -0.248 NA
ATOM     54  C   UNL     1       5.386  10.043  -8.525  1.00  0.00     0.031 C 
ATOM     55  C   UNL     1       7.409  14.078  -4.455  1.00  0.00     0.029 A 
ATOM     56  C   UNL     1       6.953  12.912  -5.050  1.00  0.00     0.049 A 
ATOM     57  H   UNL     1       6.604  11.026  -4.170  1.00  0.00     0.167 HD
ATOM     58  C   UNL     1       6.152  11.505  -6.933  1.00  0.00     0.074 A 
ATOM     59  C   UNL     1       5.801  11.286  -8.320  1.00  0.00     0.031 C 
ATOM     60  C   UNL     1       6.598  12.689  -6.435  1.00  0.00     0.034 A 
BRANCH  47  61
ATOM     61  C   UNL     1       7.751  12.546  -0.328  1.00  0.00     0.023 A 
ATOM     62  C   UNL     1       8.810  12.108   0.488  1.00  0.00     0.031 A 
ATOM     63  C   UNL     1       6.981  13.633   0.121  1.00  0.00     0.131 A 
ATOM     64  C   UNL     1       8.986  12.667   1.761  1.00  0.00     0.055 A 
ATOM     65  C   UNL     1       7.235  14.258   1.343  1.00  0.00     0.041 A 
ATOM     66  F   UNL     1       5.941  14.080  -0.600  1.00  0.00    -0.206 F 
ATOM     67  C   UNL     1       8.225  13.758   2.184  1.00  0.00     0.022 A 
BRANCH  64  68
ATOM     68  S   UNL     1      10.060  11.798   2.939  1.00  0.00     0.124 S 
ATOM     69  O   UNL     1       9.453  10.469   2.964  1.00  0.00    -0.237 OA
ATOM     70  O   UNL     1      11.368  11.891   2.302  1.00  0.00    -0.237 OA
ATOM     71  O   UNL     1       9.907  12.566   4.173  1.00  0.00    -0.744 OA
ENDBRANCH  64  68
ENDBRANCH  47  61
BRANCH  48  72
ATOM     72  C   UNL     1       4.653   7.212  -8.214  1.00  0.00     0.023 A 
ATOM     73  C   UNL     1       5.428   6.960  -9.359  1.00  0.00     0.031 A 
ATOM     74  C   UNL     1       3.323   6.752  -8.210  1.00  0.00     0.131 A 
ATOM     75  C   UNL     1       4.859   6.292 -10.459  1.00  0.00     0.055 A 
ATOM     76  C   UNL     1       2.779   6.045  -9.284  1.00  0.00     0.041 A 
ATOM     77  F   UNL     1       2.531   6.975  -7.148  1.00  0.00    -0.206 F 
ATOM     78  C   UNL     1       3.546   5.818 -10.420  1.00  0.00     0.022 A 
BRANCH  75  79
ATOM     79  S   UNL     1       5.840   6.101 -11.976  1.00  0.00     0.124 S 
ATOM     80  O   UNL     1       6.066   7.490 -12.358  1.00  0.00    -0.237 OA
ATOM     81  O   UNL     1       7.006   5.368 -11.495  1.00  0.00    -0.237 OA
ATOM     82  O   UNL     1       4.955   5.346 -12.860  1.00  0.00    -0.744 OA
ENDBRANCH  75  79
ENDBRANCH  48  72
BRANCH  60  83
ATOM     83  C   UNL     1       6.811  13.833  -7.402  1.00  0.00     0.023 A 
ATOM     84  C   UNL     1       5.748  14.480  -8.057  1.00  0.00     0.031 A 
ATOM     85  C   UNL     1       8.115  14.315  -7.629  1.00  0.00     0.131 A 
ATOM     86  C   UNL     1       6.013  15.552  -8.928  1.00  0.00     0.055 A 
ATOM     87  C   UNL     1       8.365  15.417  -8.447  1.00  0.00     0.041 A 
ATOM     88  F   UNL     1       9.170  13.734  -7.035  1.00  0.00    -0.206 F 
ATOM     89  C   UNL     1       7.311  16.038  -9.108  1.00  0.00     0.022 A 
BRANCH  86  90
ATOM     90  S   UNL     1       4.645  16.269  -9.881  1.00  0.00     0.124 S 
ATOM     91  O   UNL     1       4.159  15.114 -10.630  1.00  0.00    -0.237 OA
ATOM     92  O   UNL     1       3.760  16.768  -8.834  1.00  0.00    -0.237 OA
ATOM     93  O   UNL     1       5.293  17.302 -10.688  1.00  0.00    -0.744 OA
ENDBRANCH  86  90
ENDBRANCH  60  83
ENDBRANCH  34  35
ENDBRANCH  27  29
ENDBRANCH  26  27
ENDBRANCH  25  26
ENDBRANCH   1  25
TORSDOF 18
