REMARK SMILES O=C(OCCOCCOC(=O)c1ccc(-c2c3nc(c(-c4cc(S(=O)(=O)[O-])ccc4F)c4ccc([nH]4)c(-c4cc(S(=O)(=O)[O-])ccc4F)c4nc(c(-c5cc(S(=O)(=O)[O-])ccc5F)c5ccc2[nH]5)C=C4)C=C3)cc1)C1=Cc2cc(C(F)(F)F)ccc2O[C@@H]1C(F)(F)F
REMARK SMILES IDX 7 1 6 2 5 3 4 4 3 5 2 6 1 7 75 8 76 9 88 10 77 11 87 12
REMARK SMILES IDX 78 13 86 14 79 15 85 16 84 17 89 18 90 19 91 20 92 21 80 22
REMARK SMILES IDX 81 23 82 24 83 25 8 26 9 27 10 28 11 29 12 30 13 31 74 32
REMARK SMILES IDX 14 33 73 34 15 35 16 36 17 37 67 38 18 39 72 40 66 41 68 42
REMARK SMILES IDX 19 43 71 44 65 45 64 46 20 48 52 49 32 50 51 51 33 52 36 53
REMARK SMILES IDX 50 54 69 55 34 56 35 57 49 59 70 60 37 61 21 62 22 63 30 64
REMARK SMILES IDX 23 65 29 66 31 67 28 68 24 69 25 70 26 71 27 72 53 73 54 74
REMARK SMILES IDX 62 75 55 76 61 77 63 78 60 79 56 80 57 81 58 82 59 83 38 84
REMARK SMILES IDX 39 85 47 86 40 87 46 88 48 89 45 90 41 91 42 92 43 93 44 94
REMARK H PARENT 68 47 36 58
REMARK Flexibility Score: inf
ROOT
ATOM      1  C   UNL     1       2.834   2.109  -2.316  1.00  0.00     0.202 C 
ENDROOT
BRANCH   1   2
ATOM      2  O   UNL     1       3.986   2.109  -1.449  1.00  0.00    -0.374 OA
BRANCH   2   3
ATOM      3  C   UNL     1       4.357   1.311  -0.081  1.00  0.00     0.202 C 
BRANCH   3   4
ATOM      4  C   UNL     1       3.434  -0.406   0.880  1.00  0.00     0.261 C 
BRANCH   4   5
ATOM      5  O   UNL     1       2.389  -0.376   2.008  1.00  0.00    -0.460 OA
BRANCH   5   6
ATOM      6  C   UNL     1       2.522   0.694   2.796  1.00  0.00     0.338 C 
ATOM      7  O   UNL     1       1.836   1.058   3.718  1.00  0.00    -0.246 OA
BRANCH   6   8
ATOM      8  C   UNL     1       3.461   1.395   1.948  1.00  0.00     0.087 C 
ATOM      9  C   UNL     1       4.832   0.876   2.111  1.00  0.00     0.027 C 
ATOM     10  C   UNL     1       2.414   1.258   0.329  1.00  0.00     0.316 C 
ATOM     11  C   UNL     1       5.652  -0.173   0.895  1.00  0.00     0.018 A 
ATOM     12  O   UNL     1       3.243   0.077  -0.962  1.00  0.00    -0.475 OA
ATOM     13  C   UNL     1       6.867  -0.716   1.206  1.00  0.00     0.025 A 
ATOM     14  C   UNL     1       4.867  -0.668  -0.569  1.00  0.00     0.128 A 
ATOM     15  C   UNL     1       7.361  -1.681   0.297  1.00  0.00     0.056 A 
ATOM     16  C   UNL     1       5.339  -1.695  -1.327  1.00  0.00     0.048 A 
ATOM     17  C   UNL     1       6.604  -2.169  -0.868  1.00  0.00     0.017 A 
BRANCH  10  18
ATOM     18  C   UNL     1       2.002   2.802   0.262  1.00  0.00     0.430 C 
ATOM     19  F   UNL     1       1.159   3.149  -0.726  1.00  0.00    -0.167 F 
ATOM     20  F   UNL     1       1.308   3.078   1.410  1.00  0.00    -0.167 F 
ATOM     21  F   UNL     1       3.034   3.676   0.282  1.00  0.00    -0.167 F 
ENDBRANCH  10  18
BRANCH  15  22
ATOM     22  C   UNL     1       8.761  -2.209   0.600  1.00  0.00     0.416 C 
ATOM     23  F   UNL     1       9.669  -1.192   0.693  1.00  0.00    -0.166 F 
ATOM     24  F   UNL     1       8.819  -2.854   1.798  1.00  0.00    -0.166 F 
ATOM     25  F   UNL     1       9.253  -3.066  -0.329  1.00  0.00    -0.166 F 
ENDBRANCH  15  22
ENDBRANCH   6   8
ENDBRANCH   5   6
ENDBRANCH   4   5
ENDBRANCH   3   4
ENDBRANCH   2   3
ENDBRANCH   1   2
BRANCH   1  26
ATOM     26  C   UNL     1       3.014   1.758  -3.787  1.00  0.00     0.261 C 
BRANCH  26  27
ATOM     27  O   UNL     1       3.557   0.467  -3.987  1.00  0.00    -0.460 OA
BRANCH  27  28
ATOM     28  C   UNL     1       4.891   0.473  -4.207  1.00  0.00     0.338 C 
ATOM     29  O   UNL     1       5.659   1.411  -4.095  1.00  0.00    -0.246 OA
BRANCH  28  30
ATOM     30  C   UNL     1       5.287  -0.892  -4.588  1.00  0.00     0.060 A 
ATOM     31  C   UNL     1       6.560  -1.329  -4.215  1.00  0.00     0.016 A 
ATOM     32  C   UNL     1       4.394  -1.749  -5.246  1.00  0.00     0.016 A 
ATOM     33  C   UNL     1       6.918  -2.654  -4.433  1.00  0.00     0.010 A 
ATOM     34  C   UNL     1       4.763  -3.066  -5.489  1.00  0.00     0.010 A 
ATOM     35  C   UNL     1       6.020  -3.522  -5.069  1.00  0.00    -0.014 A 
BRANCH  35  36
ATOM     36  C   UNL     1       6.454  -4.880  -5.434  1.00  0.00     0.031 A 
ATOM     37  C   UNL     1       7.092  -5.066  -6.774  1.00  0.00     0.074 A 
ATOM     38  C   UNL     1       6.268  -5.907  -4.587  1.00  0.00     0.049 A 
ATOM     39  N   UNL     1       7.508  -6.163  -7.341  1.00  0.00    -0.248 NA
ATOM     40  C   UNL     1       7.284  -3.850  -7.583  1.00  0.00     0.031 C 
ATOM     41  C   UNL     1       5.689  -5.804  -3.246  1.00  0.00     0.029 A 
ATOM     42  N   UNL     1       6.537  -7.243  -4.734  1.00  0.00    -0.354 N 
ATOM     43  C   UNL     1       8.018  -5.773  -8.572  1.00  0.00     0.074 A 
ATOM     44  C   UNL     1       7.838  -4.343  -8.680  1.00  0.00     0.031 C 
ATOM     45  C   UNL     1       5.636  -7.032  -2.700  1.00  0.00     0.029 A 
ATOM     46  C   UNL     1       6.130  -8.010  -3.667  1.00  0.00     0.049 A 
ATOM     47  H   UNL     1       6.980  -7.618  -5.529  1.00  0.00     0.167 HD
ATOM     48  C   UNL     1       8.584  -6.550  -9.523  1.00  0.00     0.034 A 
ATOM     49  C   UNL     1       6.126  -9.351  -3.517  1.00  0.00     0.034 A 
ATOM     50  C   UNL     1       8.717  -7.977  -9.401  1.00  0.00     0.049 A 
ATOM     51  C   UNL     1       6.663 -10.201  -4.650  1.00  0.00     0.074 A 
ATOM     52  C   UNL     1       9.287  -8.862 -10.297  1.00  0.00     0.029 A 
ATOM     53  N   UNL     1       8.249  -8.732  -8.334  1.00  0.00    -0.354 N 
ATOM     54  N   UNL     1       7.189  -9.819  -5.793  1.00  0.00    -0.248 NA
ATOM     55  C   UNL     1       6.608 -11.658  -4.475  1.00  0.00     0.031 C 
ATOM     56  C   UNL     1       9.075 -10.157  -9.820  1.00  0.00     0.029 A 
ATOM     57  C   UNL     1       8.467 -10.077  -8.576  1.00  0.00     0.049 A 
ATOM     58  H   UNL     1       7.825  -8.365  -7.525  1.00  0.00     0.167 HD
ATOM     59  C   UNL     1       7.553 -10.990  -6.454  1.00  0.00     0.074 A 
ATOM     60  C   UNL     1       7.214 -12.086  -5.572  1.00  0.00     0.031 C 
ATOM     61  C   UNL     1       8.113 -11.152  -7.681  1.00  0.00     0.034 A 
BRANCH  48  62
ATOM     62  C   UNL     1       9.032  -5.885 -10.795  1.00  0.00     0.023 A 
ATOM     63  C   UNL     1      10.087  -4.959 -10.817  1.00  0.00     0.031 A 
ATOM     64  C   UNL     1       8.395  -6.196 -12.009  1.00  0.00     0.131 A 
ATOM     65  C   UNL     1      10.451  -4.348 -12.027  1.00  0.00     0.055 A 
ATOM     66  C   UNL     1       8.812  -5.644 -13.219  1.00  0.00     0.041 A 
ATOM     67  F   UNL     1       7.355  -7.045 -12.036  1.00  0.00    -0.206 F 
ATOM     68  C   UNL     1       9.842  -4.709 -13.232  1.00  0.00     0.022 A 
BRANCH  65  69
ATOM     69  S   UNL     1      11.651  -2.991 -11.987  1.00  0.00     0.124 S 
ATOM     70  O   UNL     1      10.981  -2.030 -11.114  1.00  0.00    -0.237 OA
ATOM     71  O   UNL     1      12.838  -3.634 -11.436  1.00  0.00    -0.237 OA
ATOM     72  O   UNL     1      11.755  -2.584 -13.387  1.00  0.00    -0.744 OA
ENDBRANCH  65  69
ENDBRANCH  48  62
BRANCH  49  73
ATOM     73  C   UNL     1       5.541  -9.995  -2.301  1.00  0.00     0.023 A 
ATOM     74  C   UNL     1       6.298 -10.872  -1.508  1.00  0.00     0.031 A 
ATOM     75  C   UNL     1       4.180  -9.836  -1.980  1.00  0.00     0.131 A 
ATOM     76  C   UNL     1       5.675 -11.617  -0.493  1.00  0.00     0.055 A 
ATOM     77  C   UNL     1       3.583 -10.518  -0.918  1.00  0.00     0.041 A 
ATOM     78  F   UNL     1       3.399  -9.021  -2.708  1.00  0.00    -0.206 F 
ATOM     79  C   UNL     1       4.327 -11.432  -0.180  1.00  0.00     0.022 A 
BRANCH  76  80
ATOM     80  S   UNL     1       6.615 -12.949   0.305  1.00  0.00     0.124 S 
ATOM     81  O   UNL     1       7.017 -13.752  -0.844  1.00  0.00    -0.237 OA
ATOM     82  O   UNL     1       7.678 -12.208   0.976  1.00  0.00    -0.237 OA
ATOM     83  O   UNL     1       5.635 -13.572   1.192  1.00  0.00    -0.744 OA
ENDBRANCH  76  80
ENDBRANCH  49  73
BRANCH  61  84
ATOM     84  C   UNL     1       8.425 -12.562  -8.119  1.00  0.00     0.023 A 
ATOM     85  C   UNL     1       7.409 -13.507  -8.340  1.00  0.00     0.031 A 
ATOM     86  C   UNL     1       9.757 -12.962  -8.331  1.00  0.00     0.131 A 
ATOM     87  C   UNL     1       7.743 -14.820  -8.700  1.00  0.00     0.055 A 
ATOM     88  C   UNL     1      10.078 -14.247  -8.767  1.00  0.00     0.041 A 
ATOM     89  F   UNL     1      10.769 -12.103  -8.130  1.00  0.00    -0.206 F 
ATOM     90  C   UNL     1       9.069 -15.189  -8.941  1.00  0.00     0.022 A 
BRANCH  87  91
ATOM     91  S   UNL     1       6.429 -16.068  -8.745  1.00  0.00     0.124 S 
ATOM     92  O   UNL     1       5.916 -16.014  -7.381  1.00  0.00    -0.237 OA
ATOM     93  O   UNL     1       5.541 -15.550  -9.781  1.00  0.00    -0.237 OA
ATOM     94  O   UNL     1       7.137 -17.298  -9.094  1.00  0.00    -0.744 OA
ENDBRANCH  87  91
ENDBRANCH  61  84
ENDBRANCH  35  36
ENDBRANCH  28  30
ENDBRANCH  27  28
ENDBRANCH  26  27
ENDBRANCH   1  26
TORSDOF 19
