REMARK SMILES O=C(OCCOCCOC(=O)c1cc(-c2cc(Cl)ccc2Cl)cc([N+](=O)[O-])c1)c1ccc(-c2c3nc(c(-c4cc(S(=O)(=O)[O-])ccc4F)c4ccc([nH]4)c(-c4cc(S(=O)(=O)[O-])ccc4F)c4nc(c(-c5cc(S(=O)(=O)[O-])ccc5F)c5ccc2[nH]5)C=C4)C=C3)cc1
REMARK SMILES IDX 5 1 4 2 3 3 2 4 1 5 29 6 30 7 91 8 31 9 90 10 32 11 33 12
REMARK SMILES IDX 34 13 84 14 35 15 89 16 83 17 85 18 36 19 88 20 82 21 81 22
REMARK SMILES IDX 37 24 69 25 49 26 68 27 50 28 53 29 67 30 86 31 51 32 52 33
REMARK SMILES IDX 66 35 87 36 54 37 38 38 39 39 47 40 40 41 46 42 48 43 45 44
REMARK SMILES IDX 41 45 42 46 43 47 44 48 70 49 71 50 79 51 72 52 78 53 80 54
REMARK SMILES IDX 77 55 73 56 74 57 75 58 76 59 55 60 56 61 64 62 57 63 63 64
REMARK SMILES IDX 65 65 62 66 58 67 59 68 60 69 61 70 6 71 7 72 8 73 9 74
REMARK SMILES IDX 10 75 11 76 12 77 13 78 28 79 14 80 24 81 23 82 15 83 16 84
REMARK SMILES IDX 21 85 17 86 20 87 22 88 18 89 19 90 25 91 26 92 27 93
REMARK H PARENT 85 23 53 34
REMARK Flexibility Score: inf
ROOT
ATOM      1  C   UNL     1       4.298  -0.870  -1.255  1.00  0.00     0.202 C 
ENDROOT
BRANCH   1   2
ATOM      2  C   UNL     1       3.945  -1.330   0.165  1.00  0.00     0.261 C 
BRANCH   2   3
ATOM      3  O   UNL     1       2.553  -1.097   0.435  1.00  0.00    -0.460 OA
BRANCH   3   4
ATOM      4  C   UNL     1       1.997  -0.068   1.120  1.00  0.00     0.338 C 
ATOM      5  O   UNL     1       0.772  -0.026   1.225  1.00  0.00    -0.246 OA
BRANCH   4   6
ATOM      6  C   UNL     1       2.795   1.017   1.764  1.00  0.00     0.060 A 
ATOM      7  C   UNL     1       4.032   1.469   1.305  1.00  0.00     0.016 A 
ATOM      8  C   UNL     1       2.223   1.674   2.866  1.00  0.00     0.016 A 
ATOM      9  C   UNL     1       4.731   2.465   1.956  1.00  0.00     0.010 A 
ATOM     10  C   UNL     1       2.901   2.717   3.507  1.00  0.00     0.010 A 
ATOM     11  C   UNL     1       4.174   3.090   3.064  1.00  0.00    -0.014 A 
BRANCH  11  12
ATOM     12  C   UNL     1       5.056   4.003   3.809  1.00  0.00     0.031 A 
ATOM     13  C   UNL     1       5.684   3.488   5.067  1.00  0.00     0.074 A 
ATOM     14  C   UNL     1       5.433   5.162   3.240  1.00  0.00     0.049 A 
ATOM     15  N   UNL     1       6.513   4.077   5.881  1.00  0.00    -0.248 NA
ATOM     16  C   UNL     1       5.340   2.107   5.447  1.00  0.00     0.031 C 
ATOM     17  C   UNL     1       4.984   5.637   1.926  1.00  0.00     0.029 A 
ATOM     18  N   UNL     1       6.316   6.119   3.655  1.00  0.00    -0.354 N 
ATOM     19  C   UNL     1       6.766   3.153   6.889  1.00  0.00     0.074 A 
ATOM     20  C   UNL     1       5.994   1.969   6.588  1.00  0.00     0.031 C 
ATOM     21  C   UNL     1       5.627   6.778   1.630  1.00  0.00     0.029 A 
ATOM     22  C   UNL     1       6.464   7.155   2.762  1.00  0.00     0.049 A 
ATOM     23  H   UNL     1       6.800   6.071   4.511  1.00  0.00     0.167 HD
ATOM     24  C   UNL     1       7.566   3.300   7.971  1.00  0.00     0.034 A 
ATOM     25  C   UNL     1       7.174   8.293   2.877  1.00  0.00     0.034 A 
ATOM     26  C   UNL     1       8.306   4.511   8.224  1.00  0.00     0.049 A 
ATOM     27  C   UNL     1       7.962   8.484   4.149  1.00  0.00     0.074 A 
ATOM     28  C   UNL     1       9.085   4.842   9.315  1.00  0.00     0.029 A 
ATOM     29  N   UNL     1       8.350   5.600   7.356  1.00  0.00    -0.354 N 
ATOM     30  N   UNL     1       8.116   7.652   5.157  1.00  0.00    -0.248 NA
ATOM     31  C   UNL     1       8.663   9.760   4.305  1.00  0.00     0.031 C 
ATOM     32  C   UNL     1       9.538   6.155   9.141  1.00  0.00     0.029 A 
ATOM     33  C   UNL     1       9.120   6.613   7.899  1.00  0.00     0.049 A 
ATOM     34  H   UNL     1       7.899   5.643   6.482  1.00  0.00     0.167 HD
ATOM     35  C   UNL     1       8.961   8.295   6.055  1.00  0.00     0.074 A 
ATOM     36  C   UNL     1       9.294   9.574   5.455  1.00  0.00     0.031 C 
ATOM     37  C   UNL     1       9.425   7.875   7.262  1.00  0.00     0.034 A 
BRANCH  24  38
ATOM     38  C   UNL     1       7.554   2.181   8.985  1.00  0.00     0.023 A 
ATOM     39  C   UNL     1       7.993   0.880   8.676  1.00  0.00     0.031 A 
ATOM     40  C   UNL     1       6.975   2.394  10.249  1.00  0.00     0.131 A 
ATOM     41  C   UNL     1       7.757  -0.171   9.577  1.00  0.00     0.055 A 
ATOM     42  C   UNL     1       6.826   1.362  11.177  1.00  0.00     0.041 A 
ATOM     43  F   UNL     1       6.503   3.604  10.589  1.00  0.00    -0.206 F 
ATOM     44  C   UNL     1       7.200   0.066  10.836  1.00  0.00     0.022 A 
BRANCH  41  45
ATOM     45  S   UNL     1       8.011  -1.877   9.010  1.00  0.00     0.124 S 
ATOM     46  O   UNL     1       7.095  -1.949   7.874  1.00  0.00    -0.237 OA
ATOM     47  O   UNL     1       9.433  -1.894   8.686  1.00  0.00    -0.237 OA
ATOM     48  O   UNL     1       7.624  -2.685  10.165  1.00  0.00    -0.744 OA
ENDBRANCH  41  45
ENDBRANCH  24  38
BRANCH  25  49
ATOM     49  C   UNL     1       7.122   9.347   1.819  1.00  0.00     0.023 A 
ATOM     50  C   UNL     1       8.284   9.798   1.174  1.00  0.00     0.031 A 
ATOM     51  C   UNL     1       5.904   9.966   1.477  1.00  0.00     0.131 A 
ATOM     52  C   UNL     1       8.212  10.864   0.260  1.00  0.00     0.055 A 
ATOM     53  C   UNL     1       5.828  10.982   0.523  1.00  0.00     0.041 A 
ATOM     54  F   UNL     1       4.758   9.587   2.065  1.00  0.00    -0.206 F 
ATOM     55  C   UNL     1       6.990  11.448  -0.081  1.00  0.00     0.022 A 
BRANCH  52  56
ATOM     56  S   UNL     1       9.755  11.550  -0.403  1.00  0.00     0.124 S 
ATOM     57  O   UNL     1      10.470  11.907   0.817  1.00  0.00    -0.237 OA
ATOM     58  O   UNL     1      10.291  10.419  -1.153  1.00  0.00    -0.237 OA
ATOM     59  O   UNL     1       9.305  12.678  -1.216  1.00  0.00    -0.744 OA
ENDBRANCH  52  56
ENDBRANCH  25  49
BRANCH  37  60
ATOM     60  C   UNL     1      10.391   8.793   7.965  1.00  0.00     0.023 A 
ATOM     61  C   UNL     1      10.001  10.056   8.441  1.00  0.00     0.031 A 
ATOM     62  C   UNL     1      11.728   8.397   8.144  1.00  0.00     0.131 A 
ATOM     63  C   UNL     1      10.957  10.909   9.008  1.00  0.00     0.055 A 
ATOM     64  C   UNL     1      12.657   9.220   8.777  1.00  0.00     0.041 A 
ATOM     65  F   UNL     1      12.151   7.200   7.705  1.00  0.00    -0.206 F 
ATOM     66  C   UNL     1      12.277  10.491   9.198  1.00  0.00     0.022 A 
BRANCH  63  67
ATOM     67  S   UNL     1      10.480  12.617   9.382  1.00  0.00     0.124 S 
ATOM     68  O   UNL     1      10.010  13.091   8.084  1.00  0.00    -0.237 OA
ATOM     69  O   UNL     1       9.454  12.437  10.403  1.00  0.00    -0.237 OA
ATOM     70  O   UNL     1      11.723  13.225   9.851  1.00  0.00    -0.744 OA
ENDBRANCH  63  67
ENDBRANCH  37  60
ENDBRANCH  11  12
ENDBRANCH   4   6
ENDBRANCH   3   4
ENDBRANCH   2   3
ENDBRANCH   1   2
BRANCH   1  71
ATOM     71  O   UNL     1       4.036   0.506  -1.532  1.00  0.00    -0.374 OA
BRANCH  71  72
ATOM     72  C   UNL     1       2.703   0.827  -1.945  1.00  0.00     0.202 C 
BRANCH  72  73
ATOM     73  C   UNL     1       2.734   1.473  -3.331  1.00  0.00     0.261 C 
BRANCH  73  74
ATOM     74  O   UNL     1       3.285   0.525  -4.261  1.00  0.00    -0.460 OA
BRANCH  74  75
ATOM     75  C   UNL     1       4.637   0.564  -4.369  1.00  0.00     0.338 C 
ATOM     76  O   UNL     1       5.394   1.459  -4.041  1.00  0.00    -0.246 OA
BRANCH  75  77
ATOM     77  C   UNL     1       5.087  -0.784  -4.767  1.00  0.00     0.067 A 
ATOM     78  C   UNL     1       6.186  -1.343  -4.099  1.00  0.00     0.025 A 
ATOM     79  C   UNL     1       4.411  -1.503  -5.752  1.00  0.00     0.101 A 
ATOM     80  C   UNL     1       6.604  -2.653  -4.375  1.00  0.00    -0.009 A 
ATOM     81  C   UNL     1       4.847  -2.794  -6.056  1.00  0.00     0.270 A 
ATOM     82  C   UNL     1       5.917  -3.380  -5.360  1.00  0.00     0.094 A 
BRANCH  80  83
ATOM     83  C   UNL     1       7.778  -3.218  -3.693  1.00  0.00     0.002 A 
ATOM     84  C   UNL     1       7.655  -3.752  -2.396  1.00  0.00     0.030 A 
ATOM     85  C   UNL     1       9.053  -3.227  -4.296  1.00  0.00     0.048 A 
ATOM     86  C   UNL     1       8.770  -4.271  -1.731  1.00  0.00     0.041 A 
ATOM     87  C   UNL     1      10.164  -3.743  -3.623  1.00  0.00     0.023 A 
ATOM     88  Cl  UNL     1       9.307  -2.597  -5.889  1.00  0.00    -0.084 Cl
ATOM     89  Cl  UNL     1       8.595  -4.929  -0.152  1.00  0.00    -0.084 Cl
ATOM     90  C   UNL     1      10.024  -4.265  -2.338  1.00  0.00     0.022 A 
ENDBRANCH  80  83
BRANCH  81  91
ATOM     91  N   UNL     1       4.197  -3.531  -7.145  1.00  0.00     0.062 N 
ATOM     92  O   UNL     1       4.673  -4.630  -7.463  1.00  0.00    -0.258 OA
ATOM     93  O   UNL     1       3.214  -3.008  -7.689  1.00  0.00    -0.258 OA
ENDBRANCH  81  91
ENDBRANCH  75  77
ENDBRANCH  74  75
ENDBRANCH  73  74
ENDBRANCH  72  73
ENDBRANCH  71  72
ENDBRANCH   1  71
TORSDOF 19
