REMARK SMILES COc1cccc(C(=O)N2CCC(C(=O)N3CC[N@H+](C)[C@@H](C(=O)OCCOCCOC(=O)c4ccc(-c5c6nc(c(-c7cc(S(=O)(=O)[O-])ccc7F)c7ccc([nH]7)c(-c7cc(S(=O)(=O)[O-])ccc7F)c7nc(c(-c8cc(S(=O)(=O)[O-])ccc8F)c8ccc5[nH]8)C=C7)C=C6)cc4)C3)CC2)c1
REMARK SMILES IDX 26 1 25 2 24 3 22 4 23 5 21 6 16 7 17 8 96 9 18 10 19 11
REMARK SMILES IDX 20 12 14 14 15 15 13 16 8 17 9 18 10 19 11 20 98 21 12 22
REMARK SMILES IDX 97 23 7 24 3 25 4 26 99 27 5 28 6 29 2 30 1 31 27 32 28 33
REMARK SMILES IDX 29 34 30 35 31 36 32 37 33 38 34 39 95 40 35 41 94 42 36 43
REMARK SMILES IDX 37 44 38 45 88 46 39 47 93 48 87 49 89 50 40 51 92 52 86 53
REMARK SMILES IDX 85 54 41 56 73 57 53 58 72 59 54 60 57 61 71 62 90 63 55 64
REMARK SMILES IDX 56 65 70 67 91 68 58 69 42 70 43 71 51 72 44 73 50 74 52 75
REMARK SMILES IDX 49 76 45 77 46 78 47 79 48 80 74 81 75 82 83 83 76 84 82 85
REMARK SMILES IDX 84 86 81 87 77 88 78 89 79 90 80 91 59 92 60 93 68 94 61 95
REMARK SMILES IDX 67 96 69 97 66 98 62 99 63 100 64 101 65 102
REMARK H PARENT 19 13 89 55 57 66
REMARK Flexibility Score: inf
ROOT
ATOM      1  C   UNL     1      10.167   5.532   0.999  1.00  0.00     0.202 C 
ENDROOT
BRANCH   1   2
ATOM      2  C   UNL     1      11.199   4.799   0.130  1.00  0.00     0.261 C 
BRANCH   2   3
ATOM      3  O   UNL     1      10.940   3.403  -0.109  1.00  0.00    -0.459 OA
BRANCH   3   4
ATOM      4  C   UNL     1      11.630   2.560   0.711  1.00  0.00     0.366 C 
ATOM      5  O   UNL     1      12.292   2.927   1.680  1.00  0.00    -0.245 OA
BRANCH   4   6
ATOM      6  C   UNL     1      11.574   1.081   0.278  1.00  0.00     0.314 C 
ATOM      7  N   UNL     1      10.178   0.444  -1.820  1.00  0.00    -0.330 N 
ATOM      8  C   UNL     1      11.447   0.371  -2.553  1.00  0.00     0.181 C 
ATOM      9  C   UNL     1      10.241   0.587  -0.351  1.00  0.00     0.197 C 
ATOM     10  C   UNL     1      12.616   1.109  -1.897  1.00  0.00     0.284 C 
ATOM     11  N   UNL     1      12.813   0.775  -0.479  1.00  0.00    -0.323 N 
ATOM     12  C   UNL     1      13.236  -0.607  -0.282  1.00  0.00     0.333 C 
ATOM     13  H   UNL     1      13.575   1.352  -0.121  1.00  0.00     0.348 HD
BRANCH   7  14
ATOM     14  C   UNL     1       9.071  -0.046  -2.525  1.00  0.00     0.226 C 
ATOM     15  O   UNL     1       9.222  -0.576  -3.630  1.00  0.00    -0.275 OA
BRANCH  14  16
ATOM     16  C   UNL     1       7.662   0.063  -1.919  1.00  0.00     0.082 C 
ATOM     17  C   UNL     1       4.112   1.920  -2.933  1.00  0.00     0.253 C 
ATOM     18  O   UNL     1       4.489   3.017  -3.334  1.00  0.00    -0.269 OA
ATOM     19  N   UNL     1       4.930   1.088  -2.171  1.00  0.00    -0.339 N 
ATOM     20  C   UNL     1       5.869   1.695  -1.254  1.00  0.00     0.120 C 
ATOM     21  C   UNL     1       5.149  -0.322  -2.468  1.00  0.00     0.120 C 
ATOM     22  C   UNL     1       7.297   1.534  -1.744  1.00  0.00     0.035 C 
ATOM     23  C   UNL     1       6.611  -0.583  -2.870  1.00  0.00     0.035 C 
BRANCH  17  24
ATOM     24  C   UNL     1       2.676   1.562  -3.097  1.00  0.00     0.043 A 
ATOM     25  C   UNL     1       0.648   0.586  -2.196  1.00  0.00     0.119 A 
ATOM     26  C   UNL     1      -0.095   1.210  -3.199  1.00  0.00     0.046 A 
ATOM     27  C   UNL     1       2.034   0.747  -2.156  1.00  0.00     0.060 A 
ATOM     28  C   UNL     1       0.535   2.033  -4.134  1.00  0.00     0.005 A 
ATOM     29  C   UNL     1       1.918   2.216  -4.078  1.00  0.00     0.014 A 
BRANCH  25  30
ATOM     30  O   UNL     1      -0.066  -0.164  -1.299  1.00  0.00    -0.497 OA
ATOM     31  C   UNL     1       0.456  -0.155   0.027  1.00  0.00     0.278 C 
ENDBRANCH  25  30
ENDBRANCH  17  24
ENDBRANCH  14  16
ENDBRANCH   7  14
ENDBRANCH   4   6
ENDBRANCH   3   4
ENDBRANCH   2   3
ENDBRANCH   1   2
BRANCH   1  32
ATOM     32  O   UNL     1       9.707   4.866   2.170  1.00  0.00    -0.374 OA
BRANCH  32  33
ATOM     33  C   UNL     1       8.770   3.803   1.996  1.00  0.00     0.202 C 
BRANCH  33  34
ATOM     34  C   UNL     1       7.462   4.156   1.284  1.00  0.00     0.261 C 
BRANCH  34  35
ATOM     35  O   UNL     1       7.671   4.388  -0.123  1.00  0.00    -0.460 OA
BRANCH  35  36
ATOM     36  C   UNL     1       6.920   5.389  -0.644  1.00  0.00     0.338 C 
ATOM     37  O   UNL     1       6.058   6.031  -0.051  1.00  0.00    -0.246 OA
BRANCH  36  38
ATOM     38  C   UNL     1       7.355   5.706  -2.014  1.00  0.00     0.060 A 
ATOM     39  C   UNL     1       7.878   6.969  -2.294  1.00  0.00     0.016 A 
ATOM     40  C   UNL     1       7.115   4.812  -3.053  1.00  0.00     0.016 A 
ATOM     41  C   UNL     1       8.101   7.345  -3.622  1.00  0.00     0.010 A 
ATOM     42  C   UNL     1       7.375   5.165  -4.375  1.00  0.00     0.010 A 
ATOM     43  C   UNL     1       7.814   6.458  -4.673  1.00  0.00    -0.014 A 
BRANCH  43  44
ATOM     44  C   UNL     1       7.839   6.912  -6.084  1.00  0.00     0.031 A 
ATOM     45  C   UNL     1       6.540   7.138  -6.816  1.00  0.00     0.074 A 
ATOM     46  C   UNL     1       9.015   7.089  -6.711  1.00  0.00     0.049 A 
ATOM     47  N   UNL     1       6.340   7.567  -8.036  1.00  0.00    -0.248 NA
ATOM     48  C   UNL     1       5.304   6.824  -6.082  1.00  0.00     0.031 C 
ATOM     49  C   UNL     1      10.330   6.846  -6.117  1.00  0.00     0.029 A 
ATOM     50  N   UNL     1       9.294   7.503  -7.987  1.00  0.00    -0.354 N 
ATOM     51  C   UNL     1       4.960   7.576  -8.215  1.00  0.00     0.074 A 
ATOM     52  C   UNL     1       4.376   7.056  -6.998  1.00  0.00     0.031 C 
ATOM     53  C   UNL     1      11.278   7.120  -7.030  1.00  0.00     0.029 A 
ATOM     54  C   UNL     1      10.637   7.541  -8.273  1.00  0.00     0.049 A 
ATOM     55  H   UNL     1       8.597   7.750  -8.638  1.00  0.00     0.167 HD
ATOM     56  C   UNL     1       4.245   7.997  -9.289  1.00  0.00     0.034 A 
ATOM     57  C   UNL     1      11.276   7.876  -9.411  1.00  0.00     0.034 A 
ATOM     58  C   UNL     1       4.846   8.501 -10.500  1.00  0.00     0.049 A 
ATOM     59  C   UNL     1      10.465   8.335 -10.595  1.00  0.00     0.074 A 
ATOM     60  C   UNL     1       4.226   9.018 -11.624  1.00  0.00     0.029 A 
ATOM     61  N   UNL     1       6.213   8.534 -10.752  1.00  0.00    -0.354 N 
ATOM     62  N   UNL     1       9.161   8.423 -10.719  1.00  0.00    -0.248 NA
ATOM     63  C   UNL     1      11.215   8.760 -11.783  1.00  0.00     0.031 C 
ATOM     64  C   UNL     1       5.211   9.304 -12.578  1.00  0.00     0.029 A 
ATOM     65  C   UNL     1       6.452   9.031 -12.024  1.00  0.00     0.049 A 
ATOM     66  H   UNL     1       6.910   8.246 -10.119  1.00  0.00     0.167 HD
ATOM     67  C   UNL     1       8.935   8.939 -11.991  1.00  0.00     0.074 A 
ATOM     68  C   UNL     1      10.239   9.154 -12.588  1.00  0.00     0.031 C 
ATOM     69  C   UNL     1       7.759   9.218 -12.610  1.00  0.00     0.034 A 
BRANCH  56  70
ATOM     70  C   UNL     1       2.739   7.902  -9.205  1.00  0.00     0.023 A 
ATOM     71  C   UNL     1       2.002   8.643  -8.262  1.00  0.00     0.031 A 
ATOM     72  C   UNL     1       2.030   7.045 -10.066  1.00  0.00     0.131 A 
ATOM     73  C   UNL     1       0.613   8.464  -8.159  1.00  0.00     0.055 A 
ATOM     74  C   UNL     1       0.639   6.926 -10.005  1.00  0.00     0.041 A 
ATOM     75  F   UNL     1       2.677   6.299 -10.974  1.00  0.00    -0.206 F 
ATOM     76  C   UNL     1      -0.076   7.628  -9.039  1.00  0.00     0.022 A 
BRANCH  73  77
ATOM     77  S   UNL     1      -0.266   9.249  -6.779  1.00  0.00     0.124 S 
ATOM     78  O   UNL     1       0.400   8.652  -5.625  1.00  0.00    -0.237 OA
ATOM     79  O   UNL     1      -0.008  10.667  -7.005  1.00  0.00    -0.237 OA
ATOM     80  O   UNL     1      -1.653   8.830  -6.974  1.00  0.00    -0.744 OA
ENDBRANCH  73  77
ENDBRANCH  56  70
BRANCH  57  81
ATOM     81  C   UNL     1      12.760   7.796  -9.483  1.00  0.00     0.023 A 
ATOM     82  C   UNL     1      13.544   8.955  -9.589  1.00  0.00     0.031 A 
ATOM     83  C   UNL     1      13.415   6.552  -9.464  1.00  0.00     0.131 A 
ATOM     84  C   UNL     1      14.938   8.847  -9.707  1.00  0.00     0.055 A 
ATOM     85  C   UNL     1      14.805   6.451  -9.541  1.00  0.00     0.041 A 
ATOM     86  F   UNL     1      12.710   5.416  -9.352  1.00  0.00    -0.206 F 
ATOM     87  C   UNL     1      15.574   7.604  -9.674  1.00  0.00     0.022 A 
BRANCH  84  88
ATOM     88  S   UNL     1      15.908  10.358  -9.964  1.00  0.00     0.124 S 
ATOM     89  O   UNL     1      15.316  10.889 -11.186  1.00  0.00    -0.237 OA
ATOM     90  O   UNL     1      15.633  11.104  -8.740  1.00  0.00    -0.237 OA
ATOM     91  O   UNL     1      17.277   9.864 -10.096  1.00  0.00    -0.744 OA
ENDBRANCH  84  88
ENDBRANCH  57  81
BRANCH  69  92
ATOM     92  C   UNL     1       7.844   9.818 -13.990  1.00  0.00     0.023 A 
ATOM     93  C   UNL     1       8.310   9.077 -15.089  1.00  0.00     0.031 A 
ATOM     94  C   UNL     1       7.473  11.158 -14.202  1.00  0.00     0.131 A 
ATOM     95  C   UNL     1       8.447   9.696 -16.341  1.00  0.00     0.055 A 
ATOM     96  C   UNL     1       7.560  11.753 -15.461  1.00  0.00     0.041 A 
ATOM     97  F   UNL     1       7.022  11.911 -13.186  1.00  0.00    -0.206 F 
ATOM     98  C   UNL     1       8.062  11.025 -16.537  1.00  0.00     0.022 A 
BRANCH  95  99
ATOM     99  S   UNL     1       9.220   8.767 -17.693  1.00  0.00     0.124 S 
ATOM    100  O   UNL     1      10.532   8.453 -17.135  1.00  0.00    -0.237 OA
ATOM    101  O   UNL     1       8.311   7.637 -17.857  1.00  0.00    -0.237 OA
ATOM    102  O   UNL     1       9.230   9.719 -18.802  1.00  0.00    -0.744 OA
ENDBRANCH  95  99
ENDBRANCH  69  92
ENDBRANCH  43  44
ENDBRANCH  36  38
ENDBRANCH  35  36
ENDBRANCH  34  35
ENDBRANCH  33  34
ENDBRANCH  32  33
ENDBRANCH   1  32
TORSDOF 21
