REMARK SMILES O=C(COCCNS(=O)(=O)c1ccccc1)OCCOCCOC(=O)c1ccc(-c2c3nc(c(-c4cc(S(=O)(=O)[O-])ccc4F)c4ccc([nH]4)c(-c4cc(S(=O)(=O)[O-])ccc4F)c4nc(c(-c5cc(S(=O)(=O)[O-])ccc5F)c5ccc2[nH]5)C=C4)C=C3)cc1
REMARK SMILES IDX 18 1 17 2 2 3 1 4 3 5 4 6 5 7 6 8 7 9 8 11 9 12 10 13 11 14
REMARK SMILES IDX 12 15 16 16 13 17 15 18 14 19 19 20 20 21 21 22 22 23 23 24
REMARK SMILES IDX 24 25 25 26 26 27 27 28 88 29 28 30 87 31 29 32 30 33 31 34
REMARK SMILES IDX 81 35 32 36 86 37 80 38 82 39 33 40 85 41 79 42 78 43 34 45
REMARK SMILES IDX 66 46 46 47 65 48 47 49 50 50 64 51 83 52 48 53 49 54 63 56
REMARK SMILES IDX 84 57 51 58 35 59 36 60 44 61 37 62 43 63 45 64 42 65 38 66
REMARK SMILES IDX 39 67 40 68 41 69 67 70 68 71 76 72 69 73 75 74 77 75 74 76
REMARK SMILES IDX 70 77 71 78 72 79 73 80 52 81 53 82 61 83 54 84 60 85 62 86
REMARK SMILES IDX 59 87 55 88 56 89 57 90 58 91
REMARK H PARENT 7 10 82 44 50 55
REMARK Flexibility Score: inf
ROOT
ATOM      1  C   UNL     1       4.728   0.801   0.473  1.00  0.00     0.261 C 
ENDROOT
BRANCH   1   2
ATOM      2  O   UNL     1       3.343   1.041   0.187  1.00  0.00    -0.462 OA
BRANCH   2   3
ATOM      3  C   UNL     1       2.751   0.446  -0.870  1.00  0.00     0.332 C 
ATOM      4  O   UNL     1       1.523   0.465  -0.989  1.00  0.00    -0.250 OA
BRANCH   3   5
ATOM      5  C   UNL     1       3.636  -0.143  -1.970  1.00  0.00     0.282 C 
BRANCH   5   6
ATOM      6  O   UNL     1       4.008   0.798  -2.967  1.00  0.00    -0.368 OA
BRANCH   6   7
ATOM      7  C   UNL     1       2.906   1.397  -3.654  1.00  0.00     0.177 C 
BRANCH   7   8
ATOM      8  C   UNL     1       2.062   0.384  -4.441  1.00  0.00     0.127 C 
BRANCH   8   9
ATOM      9  N   UNL     1       1.086  -0.280  -3.566  1.00  0.00    -0.209 NA
ATOM     10  H   UNL     1       0.690   0.446  -2.969  1.00  0.00     0.141 HD
BRANCH   9  11
ATOM     11  S   UNL     1      -0.200  -1.123  -4.199  1.00  0.00     0.240 S 
ATOM     12  O   UNL     1       0.273  -1.831  -5.367  1.00  0.00    -0.207 OA
ATOM     13  O   UNL     1      -0.848  -1.800  -3.097  1.00  0.00    -0.207 OA
BRANCH  11  14
ATOM     14  C   UNL     1      -1.317   0.135  -4.760  1.00  0.00     0.082 A 
ATOM     15  C   UNL     1      -1.103   1.490  -4.485  1.00  0.00     0.022 A 
ATOM     16  C   UNL     1      -2.426  -0.272  -5.505  1.00  0.00     0.022 A 
ATOM     17  C   UNL     1      -1.973   2.444  -5.008  1.00  0.00     0.001 A 
ATOM     18  C   UNL     1      -3.307   0.686  -6.002  1.00  0.00     0.001 A 
ATOM     19  C   UNL     1      -3.072   2.042  -5.766  1.00  0.00     0.000 A 
ENDBRANCH  11  14
ENDBRANCH   9  11
ENDBRANCH   8   9
ENDBRANCH   7   8
ENDBRANCH   6   7
ENDBRANCH   5   6
ENDBRANCH   3   5
ENDBRANCH   2   3
ENDBRANCH   1   2
BRANCH   1  20
ATOM     20  C   UNL     1       4.902  -0.528   1.208  1.00  0.00     0.202 C 
BRANCH  20  21
ATOM     21  O   UNL     1       4.429  -1.687   0.512  1.00  0.00    -0.374 OA
BRANCH  21  22
ATOM     22  C   UNL     1       3.119  -2.151   0.872  1.00  0.00     0.202 C 
BRANCH  22  23
ATOM     23  C   UNL     1       3.020  -3.019   2.133  1.00  0.00     0.261 C 
BRANCH  23  24
ATOM     24  O   UNL     1       3.373  -2.274   3.305  1.00  0.00    -0.460 OA
BRANCH  24  25
ATOM     25  C   UNL     1       4.665  -2.428   3.687  1.00  0.00     0.338 C 
ATOM     26  O   UNL     1       5.469  -3.227   3.236  1.00  0.00    -0.246 OA
BRANCH  25  27
ATOM     27  C   UNL     1       5.049  -1.299   4.559  1.00  0.00     0.060 A 
ATOM     28  C   UNL     1       6.313  -0.734   4.342  1.00  0.00     0.016 A 
ATOM     29  C   UNL     1       4.206  -0.800   5.556  1.00  0.00     0.016 A 
ATOM     30  C   UNL     1       6.780   0.268   5.180  1.00  0.00     0.010 A 
ATOM     31  C   UNL     1       4.681   0.197   6.409  1.00  0.00     0.010 A 
ATOM     32  C   UNL     1       5.993   0.680   6.261  1.00  0.00    -0.014 A 
BRANCH  32  33
ATOM     33  C   UNL     1       6.667   1.372   7.381  1.00  0.00     0.031 A 
ATOM     34  C   UNL     1       7.114   0.530   8.546  1.00  0.00     0.074 A 
ATOM     35  C   UNL     1       6.950   2.683   7.317  1.00  0.00     0.049 A 
ATOM     36  N   UNL     1       7.742   0.881   9.636  1.00  0.00    -0.248 NA
ATOM     37  C   UNL     1       6.807  -0.908   8.468  1.00  0.00     0.031 C 
ATOM     38  C   UNL     1       6.617   3.565   6.199  1.00  0.00     0.029 A 
ATOM     39  N   UNL     1       7.596   3.496   8.210  1.00  0.00    -0.354 N 
ATOM     40  C   UNL     1       7.890  -0.287  10.378  1.00  0.00     0.074 A 
ATOM     41  C   UNL     1       7.250  -1.347   9.633  1.00  0.00     0.031 C 
ATOM     42  C   UNL     1       7.068   4.801   6.474  1.00  0.00     0.029 A 
ATOM     43  C   UNL     1       7.686   4.803   7.798  1.00  0.00     0.049 A 
ATOM     44  H   UNL     1       7.960   3.174   9.065  1.00  0.00     0.167 HD
ATOM     45  C   UNL     1       8.514  -0.458  11.568  1.00  0.00     0.034 A 
ATOM     46  C   UNL     1       8.198   5.876   8.433  1.00  0.00     0.034 A 
ATOM     47  C   UNL     1       9.142   0.621  12.289  1.00  0.00     0.049 A 
ATOM     48  C   UNL     1       8.819   5.675   9.796  1.00  0.00     0.074 A 
ATOM     49  C   UNL     1       9.813   0.576  13.497  1.00  0.00     0.029 A 
ATOM     50  N   UNL     1       9.163   1.946  11.870  1.00  0.00    -0.354 N 
ATOM     51  N   UNL     1       8.958   4.567  10.489  1.00  0.00    -0.248 NA
ATOM     52  C   UNL     1       9.366   6.868  10.451  1.00  0.00     0.031 C 
ATOM     53  C   UNL     1      10.165   1.883  13.848  1.00  0.00     0.029 A 
ATOM     54  C   UNL     1       9.803   2.734  12.813  1.00  0.00     0.049 A 
ATOM     55  H   UNL     1       8.779   2.278  11.026  1.00  0.00     0.167 HD
ATOM     56  C   UNL     1       9.648   4.926  11.646  1.00  0.00     0.074 A 
ATOM     57  C   UNL     1       9.905   6.349  11.544  1.00  0.00     0.031 C 
ATOM     58  C   UNL     1      10.041   4.154  12.693  1.00  0.00     0.034 A 
BRANCH  45  59
ATOM     59  C   UNL     1       8.478  -1.839  12.181  1.00  0.00     0.023 A 
ATOM     60  C   UNL     1       9.067  -2.953  11.555  1.00  0.00     0.031 A 
ATOM     61  C   UNL     1       7.796  -2.053  13.392  1.00  0.00     0.131 A 
ATOM     62  C   UNL     1       8.896  -4.235  12.101  1.00  0.00     0.055 A 
ATOM     63  C   UNL     1       7.705  -3.317  13.975  1.00  0.00     0.041 A 
ATOM     64  F   UNL     1       7.185  -1.036  14.021  1.00  0.00    -0.206 F 
ATOM     65  C   UNL     1       8.243  -4.421  13.322  1.00  0.00     0.022 A 
BRANCH  62  66
ATOM     66  S   UNL     1       9.398  -5.674  11.116  1.00  0.00     0.124 S 
ATOM     67  O   UNL     1       8.602  -5.494   9.904  1.00  0.00    -0.237 OA
ATOM     68  O   UNL     1      10.835  -5.473  10.973  1.00  0.00    -0.237 OA
ATOM     69  O   UNL     1       9.005  -6.812  11.946  1.00  0.00    -0.744 OA
ENDBRANCH  62  66
ENDBRANCH  45  59
BRANCH  46  70
ATOM     70  C   UNL     1       8.136   7.229   7.810  1.00  0.00     0.023 A 
ATOM     71  C   UNL     1       9.306   7.939   7.498  1.00  0.00     0.031 A 
ATOM     72  C   UNL     1       6.901   7.856   7.566  1.00  0.00     0.131 A 
ATOM     73  C   UNL     1       9.218   9.252   7.008  1.00  0.00     0.055 A 
ATOM     74  C   UNL     1       6.818   9.140   7.024  1.00  0.00     0.041 A 
ATOM     75  F   UNL     1       5.750   7.224   7.847  1.00  0.00    -0.206 F 
ATOM     76  C   UNL     1       7.983   9.852   6.756  1.00  0.00     0.022 A 
BRANCH  73  77
ATOM     77  S   UNL     1      10.749  10.201   6.794  1.00  0.00     0.124 S 
ATOM     78  O   UNL     1      11.310  10.167   8.139  1.00  0.00    -0.237 OA
ATOM     79  O   UNL     1      11.451   9.417   5.784  1.00  0.00    -0.237 OA
ATOM     80  O   UNL     1      10.277  11.510   6.346  1.00  0.00    -0.744 OA
ENDBRANCH  73  77
ENDBRANCH  46  70
BRANCH  58  81
ATOM     81  C   UNL     1      10.845   4.832  13.778  1.00  0.00     0.023 A 
ATOM     82  C   UNL     1      10.305   5.855  14.576  1.00  0.00     0.031 A 
ATOM     83  C   UNL     1      12.185   4.462  13.997  1.00  0.00     0.131 A 
ATOM     84  C   UNL     1      11.122   6.527  15.497  1.00  0.00     0.055 A 
ATOM     85  C   UNL     1      12.969   5.080  14.970  1.00  0.00     0.041 A 
ATOM     86  F   UNL     1      12.756   3.493  13.264  1.00  0.00    -0.206 F 
ATOM     87  C   UNL     1      12.444   6.132  15.714  1.00  0.00     0.022 A 
BRANCH  84  88
ATOM     88  S   UNL     1      10.472   8.011  16.312  1.00  0.00     0.124 S 
ATOM     89  O   UNL     1      10.091   8.839  15.172  1.00  0.00    -0.237 OA
ATOM     90  O   UNL     1       9.371   7.474  17.105  1.00  0.00    -0.237 OA
ATOM     91  O   UNL     1      11.610   8.505  17.084  1.00  0.00    -0.744 OA
ENDBRANCH  84  88
ENDBRANCH  58  81
ENDBRANCH  32  33
ENDBRANCH  25  27
ENDBRANCH  24  25
ENDBRANCH  23  24
ENDBRANCH  22  23
ENDBRANCH  21  22
ENDBRANCH  20  21
ENDBRANCH   1  20
TORSDOF 23
