REMARK SMILES O=C(OCCOCCOC(=O)c1c(C2CC2)nn(-c2ccc(Cl)c(F)c2)c1Cl)c1ccc(-c2c3nc(c(-c4cc(S(=O)(=O)[O-])ccc4F)c4ccc([nH]4)c(-c4cc(S(=O)(=O)[O-])ccc4F)c4nc(c(-c5cc(S(=O)(=O)[O-])ccc5F)c5ccc2[nH]5)C=C4)C=C3)cc1
REMARK SMILES IDX 5 1 4 2 3 3 2 4 1 5 29 6 30 7 91 8 31 9 90 10 32 11 33 12
REMARK SMILES IDX 34 13 84 14 35 15 89 16 83 17 85 18 36 19 88 20 82 21 81 22
REMARK SMILES IDX 37 24 69 25 49 26 68 27 50 28 53 29 67 30 86 31 51 32 52 33
REMARK SMILES IDX 66 35 87 36 54 37 38 38 39 39 47 40 40 41 46 42 48 43 45 44
REMARK SMILES IDX 41 45 42 46 43 47 44 48 70 49 71 50 79 51 72 52 78 53 80 54
REMARK SMILES IDX 77 55 73 56 74 57 75 58 76 59 55 60 56 61 64 62 57 63 63 64
REMARK SMILES IDX 65 65 62 66 58 67 59 68 60 69 61 70 6 71 7 72 8 73 9 74
REMARK SMILES IDX 10 75 11 76 12 77 13 78 27 79 17 80 18 81 28 82 14 83 15 84
REMARK SMILES IDX 16 85 19 86 20 87 26 88 21 89 24 90 22 91 25 92 23 93
REMARK H PARENT 85 23 53 34
REMARK Flexibility Score: inf
ROOT
ATOM      1  C   UNL     1       4.164  -0.524   0.664  1.00  0.00     0.202 C 
ENDROOT
BRANCH   1   2
ATOM      2  C   UNL     1       3.976   0.982   0.653  1.00  0.00     0.261 C 
BRANCH   2   3
ATOM      3  O   UNL     1       2.603   1.386   0.675  1.00  0.00    -0.460 OA
BRANCH   3   4
ATOM      4  C   UNL     1       1.730   0.761  -0.149  1.00  0.00     0.338 C 
ATOM      5  O   UNL     1       0.802   0.078   0.260  1.00  0.00    -0.246 OA
BRANCH   4   6
ATOM      6  C   UNL     1       1.757   1.341  -1.502  1.00  0.00     0.060 A 
ATOM      7  C   UNL     1       2.934   1.758  -2.124  1.00  0.00     0.016 A 
ATOM      8  C   UNL     1       0.512   1.607  -2.078  1.00  0.00     0.016 A 
ATOM      9  C   UNL     1       2.864   2.651  -3.164  1.00  0.00     0.010 A 
ATOM     10  C   UNL     1       0.440   2.438  -3.177  1.00  0.00     0.010 A 
ATOM     11  C   UNL     1       1.611   3.015  -3.659  1.00  0.00    -0.014 A 
BRANCH  11  12
ATOM     12  C   UNL     1       1.610   3.847  -4.844  1.00  0.00     0.031 A 
ATOM     13  C   UNL     1       2.328   3.205  -5.972  1.00  0.00     0.074 A 
ATOM     14  C   UNL     1       0.982   5.031  -4.931  1.00  0.00     0.049 A 
ATOM     15  N   UNL     1       3.476   3.542  -6.455  1.00  0.00    -0.248 NA
ATOM     16  C   UNL     1       1.841   1.899  -6.447  1.00  0.00     0.031 C 
ATOM     17  C   UNL     1       0.070   5.647  -3.970  1.00  0.00     0.029 A 
ATOM     18  N   UNL     1       0.963   5.903  -5.973  1.00  0.00    -0.354 N 
ATOM     19  C   UNL     1       3.727   2.643  -7.484  1.00  0.00     0.074 A 
ATOM     20  C   UNL     1       2.821   1.547  -7.279  1.00  0.00     0.031 C 
ATOM     21  C   UNL     1      -0.595   6.659  -4.576  1.00  0.00     0.029 A 
ATOM     22  C   UNL     1      -0.059   6.844  -5.917  1.00  0.00     0.049 A 
ATOM     23  H   UNL     1       1.618   5.871  -6.707  1.00  0.00     0.167 HD
ATOM     24  C   UNL     1       4.463   3.025  -8.563  1.00  0.00     0.034 A 
ATOM     25  C   UNL     1      -0.471   7.659  -6.928  1.00  0.00     0.034 A 
ATOM     26  C   UNL     1       5.263   4.192  -8.247  1.00  0.00     0.049 A 
ATOM     27  C   UNL     1       0.666   7.768  -7.880  1.00  0.00     0.074 A 
ATOM     28  C   UNL     1       6.216   4.471  -7.284  1.00  0.00     0.029 A 
ATOM     29  N   UNL     1       4.839   5.421  -8.709  1.00  0.00    -0.354 N 
ATOM     30  N   UNL     1       1.793   8.353  -7.578  1.00  0.00    -0.248 NA
ATOM     31  C   UNL     1       0.751   6.793  -8.960  1.00  0.00     0.031 C 
ATOM     32  C   UNL     1       5.934   5.804  -6.864  1.00  0.00     0.029 A 
ATOM     33  C   UNL     1       4.902   6.305  -7.660  1.00  0.00     0.049 A 
ATOM     34  H   UNL     1       4.545   5.628  -9.626  1.00  0.00     0.167 HD
ATOM     35  C   UNL     1       2.779   7.522  -8.088  1.00  0.00     0.074 A 
ATOM     36  C   UNL     1       2.077   6.627  -9.008  1.00  0.00     0.031 C 
ATOM     37  C   UNL     1       4.013   7.442  -7.506  1.00  0.00     0.034 A 
BRANCH  24  38
ATOM     38  C   UNL     1       4.123   2.634  -9.988  1.00  0.00     0.023 A 
ATOM     39  C   UNL     1       4.884   3.247 -11.000  1.00  0.00     0.031 A 
ATOM     40  C   UNL     1       2.943   1.986 -10.421  1.00  0.00     0.131 A 
ATOM     41  C   UNL     1       4.390   3.352 -12.310  1.00  0.00     0.055 A 
ATOM     42  C   UNL     1       2.489   2.035 -11.742  1.00  0.00     0.041 A 
ATOM     43  F   UNL     1       2.116   1.337  -9.596  1.00  0.00    -0.206 F 
ATOM     44  C   UNL     1       3.191   2.758 -12.688  1.00  0.00     0.022 A 
BRANCH  41  45
ATOM     45  S   UNL     1       5.251   4.461 -13.449  1.00  0.00     0.124 S 
ATOM     46  O   UNL     1       5.223   5.713 -12.701  1.00  0.00    -0.237 OA
ATOM     47  O   UNL     1       6.552   3.812 -13.571  1.00  0.00    -0.237 OA
ATOM     48  O   UNL     1       4.419   4.425 -14.649  1.00  0.00    -0.744 OA
ENDBRANCH  41  45
ENDBRANCH  24  38
BRANCH  25  49
ATOM     49  C   UNL     1      -1.873   8.040  -7.270  1.00  0.00     0.023 A 
ATOM     50  C   UNL     1      -2.192   9.114  -8.131  1.00  0.00     0.031 A 
ATOM     51  C   UNL     1      -2.935   7.169  -6.933  1.00  0.00     0.131 A 
ATOM     52  C   UNL     1      -3.516   9.278  -8.612  1.00  0.00     0.055 A 
ATOM     53  C   UNL     1      -4.237   7.336  -7.409  1.00  0.00     0.041 A 
ATOM     54  F   UNL     1      -2.727   6.068  -6.194  1.00  0.00    -0.206 F 
ATOM     55  C   UNL     1      -4.531   8.386  -8.261  1.00  0.00     0.022 A 
BRANCH  52  56
ATOM     56  S   UNL     1      -3.929  10.614  -9.786  1.00  0.00     0.124 S 
ATOM     57  O   UNL     1      -3.809  11.806  -8.954  1.00  0.00    -0.237 OA
ATOM     58  O   UNL     1      -2.922  10.443 -10.827  1.00  0.00    -0.237 OA
ATOM     59  O   UNL     1      -5.295  10.293 -10.201  1.00  0.00    -0.744 OA
ENDBRANCH  52  56
ENDBRANCH  25  49
BRANCH  37  60
ATOM     60  C   UNL     1       4.417   8.502  -6.498  1.00  0.00     0.023 A 
ATOM     61  C   UNL     1       3.694   8.849  -5.333  1.00  0.00     0.031 A 
ATOM     62  C   UNL     1       5.667   9.120  -6.694  1.00  0.00     0.131 A 
ATOM     63  C   UNL     1       4.223   9.795  -4.430  1.00  0.00     0.055 A 
ATOM     64  C   UNL     1       6.197  10.035  -5.787  1.00  0.00     0.041 A 
ATOM     65  F   UNL     1       6.416   8.819  -7.767  1.00  0.00    -0.206 F 
ATOM     66  C   UNL     1       5.473  10.383  -4.655  1.00  0.00     0.022 A 
BRANCH  63  67
ATOM     67  S   UNL     1       3.287  10.313  -2.954  1.00  0.00     0.124 S 
ATOM     68  O   UNL     1       1.927  10.486  -3.449  1.00  0.00    -0.237 OA
ATOM     69  O   UNL     1       3.498   9.194  -2.040  1.00  0.00    -0.237 OA
ATOM     70  O   UNL     1       3.952  11.556  -2.553  1.00  0.00    -0.744 OA
ENDBRANCH  63  67
ENDBRANCH  37  60
ENDBRANCH  11  12
ENDBRANCH   4   6
ENDBRANCH   3   4
ENDBRANCH   2   3
ENDBRANCH   1   2
BRANCH   1  71
ATOM     71  O   UNL     1       3.728  -1.235  -0.490  1.00  0.00    -0.374 OA
BRANCH  71  72
ATOM     72  C   UNL     1       2.832  -2.321  -0.204  1.00  0.00     0.202 C 
BRANCH  72  73
ATOM     73  C   UNL     1       3.382  -3.484   0.637  1.00  0.00     0.261 C 
BRANCH  73  74
ATOM     74  O   UNL     1       3.740  -3.077   1.971  1.00  0.00    -0.460 OA
BRANCH  74  75
ATOM     75  C   UNL     1       5.056  -2.850   2.277  1.00  0.00     0.343 C 
ATOM     76  O   UNL     1       5.987  -3.051   1.516  1.00  0.00    -0.246 OA
BRANCH  75  77
ATOM     77  C   UNL     1       5.199  -2.313   3.619  1.00  0.00     0.121 A 
ATOM     78  C   UNL     1       6.089  -1.380   4.239  1.00  0.00     0.082 A 
ATOM     79  C   UNL     1       4.433  -2.749   4.679  1.00  0.00     0.147 A 
ATOM     80  N   UNL     1       5.848  -1.245   5.555  1.00  0.00    -0.170 NA
ATOM     81  N   UNL     1       4.894  -2.152   5.819  1.00  0.00    -0.221 N 
ATOM     82  Cl  UNL     1       3.110  -3.841   4.751  1.00  0.00    -0.061 Cl
BRANCH  78  83
ATOM     83  C   UNL     1       7.237  -0.523   3.700  1.00  0.00     0.041 C 
ATOM     84  C   UNL     1       7.636  -0.369   2.263  1.00  0.00     0.011 C 
ATOM     85  C   UNL     1       6.912   0.746   2.952  1.00  0.00     0.011 C 
ENDBRANCH  78  83
BRANCH  81  86
ATOM     86  C   UNL     1       4.614  -2.511   7.150  1.00  0.00     0.069 A 
ATOM     87  C   UNL     1       4.167  -1.543   8.053  1.00  0.00     0.030 A 
ATOM     88  C   UNL     1       4.736  -3.854   7.523  1.00  0.00     0.069 A 
ATOM     89  C   UNL     1       3.741  -1.952   9.320  1.00  0.00     0.026 A 
ATOM     90  C   UNL     1       4.340  -4.238   8.793  1.00  0.00     0.143 A 
ATOM     91  C   UNL     1       3.818  -3.302   9.684  1.00  0.00     0.076 A 
ATOM     92  F   UNL     1       4.454  -5.530   9.133  1.00  0.00    -0.205 F 
ATOM     93  Cl  UNL     1       3.246  -3.801  11.228  1.00  0.00    -0.081 Cl
ENDBRANCH  81  86
ENDBRANCH  75  77
ENDBRANCH  74  75
ENDBRANCH  73  74
ENDBRANCH  72  73
ENDBRANCH  71  72
ENDBRANCH   1  71
TORSDOF 19
