REMARK SMILES Cc1ccc(C(=O)NC2CC2)cc1NC(=O)[C@@H]1[C@@H](C(=O)OCCOCCOC(=O)c2ccc(-c3c4nc(c(-c5cc(S(=O)(=O)[O-])ccc5F)c5ccc([nH]5)c(-c5cc(S(=O)(=O)[O-])ccc5F)c5nc(c(-c6cc(S(=O)(=O)[O-])ccc6F)c6ccc3[nH]6)C=C5)C=C4)cc2)[C@H]2C=C[C@@H]1C2
REMARK SMILES IDX 23 1 22 2 21 3 19 4 20 5 18 6 17 7 96 8 93 9 95 10 97 11
REMARK SMILES IDX 94 12 15 13 14 14 16 16 13 17 1 18 2 19 3 20 4 21 12 22 5 23
REMARK SMILES IDX 6 24 7 25 8 26 9 28 10 29 11 30 24 31 25 32 26 33 27 34
REMARK SMILES IDX 28 35 29 36 30 37 31 38 92 39 32 40 91 41 33 42 34 43 35 44
REMARK SMILES IDX 85 45 36 46 90 47 84 48 86 49 37 50 89 51 83 52 82 53 38 55
REMARK SMILES IDX 70 56 50 57 69 58 51 59 54 60 68 61 87 62 52 63 53 64 67 66
REMARK SMILES IDX 88 67 55 68 39 69 40 70 48 71 41 72 47 73 49 74 46 75 42 76
REMARK SMILES IDX 43 77 44 78 45 79 71 80 72 81 80 82 73 83 79 84 81 85 78 86
REMARK SMILES IDX 74 87 75 88 76 89 77 90 56 91 57 92 65 93 58 94 64 95 66 96
REMARK SMILES IDX 63 97 59 98 60 99 61 100 62 101
REMARK H PARENT 14 15 8 27 86 54 54 65
REMARK Flexibility Score: inf
ROOT
ATOM      1  C   UNL     1      -1.324   8.138  -1.596  1.00  0.00     0.202 C 
ENDROOT
BRANCH   1   2
ATOM      2  C   UNL     1      -2.424   7.331  -0.943  1.00  0.00     0.261 C 
BRANCH   2   3
ATOM      3  O   UNL     1      -1.928   6.612   0.194  1.00  0.00    -0.463 OA
BRANCH   3   4
ATOM      4  C   UNL     1      -1.420   5.380  -0.040  1.00  0.00     0.310 C 
ATOM      5  O   UNL     1      -1.511   4.760  -1.093  1.00  0.00    -0.252 OA
BRANCH   4   6
ATOM      6  C   UNL     1      -0.610   4.931   1.153  1.00  0.00     0.119 C 
ATOM      7  C   UNL     1      -0.204   3.429   1.036  1.00  0.00     0.100 C 
ATOM      8  C   UNL     1      -0.563   2.872   2.437  1.00  0.00     0.025 C 
ATOM      9  C   UNL     1      -1.372   4.963   2.499  1.00  0.00     0.027 C 
ATOM     10  C   UNL     1      -2.071   2.760   2.486  1.00  0.00    -0.027 C 
ATOM     11  C   UNL     1      -0.414   4.107   3.337  1.00  0.00     0.017 C 
ATOM     12  C   UNL     1      -2.554   4.012   2.493  1.00  0.00    -0.027 C 
BRANCH   7  13
ATOM     13  C   UNL     1       1.231   3.161   0.612  1.00  0.00     0.228 C 
ATOM     14  N   UNL     1       1.686   1.907   0.274  1.00  0.00    -0.326 N 
ATOM     15  H   UNL     1       2.646   1.892   0.054  1.00  0.00     0.169 HD
ATOM     16  O   UNL     1       2.069   4.070   0.598  1.00  0.00    -0.274 OA
BRANCH  14  17
ATOM     17  C   UNL     1       1.077   0.632   0.172  1.00  0.00     0.044 A 
ATOM     18  C   UNL     1       3.333  -0.582   0.276  1.00  0.00     0.046 C 
ATOM     19  C   UNL     1       1.832  -0.546   0.241  1.00  0.00    -0.027 A 
ATOM     20  C   UNL     1       1.160  -1.790   0.257  1.00  0.00     0.006 A 
ATOM     21  C   UNL     1      -0.236  -1.871   0.214  1.00  0.00     0.014 A 
ATOM     22  C   UNL     1      -0.294   0.491  -0.012  1.00  0.00     0.040 A 
ATOM     23  C   UNL     1      -0.991  -0.716   0.062  1.00  0.00     0.041 A 
BRANCH  23  24
ATOM     24  C   UNL     1      -2.489  -0.824   0.084  1.00  0.00     0.251 C 
ATOM     25  O   UNL     1      -2.987  -1.798   0.647  1.00  0.00    -0.269 OA
ATOM     26  N   UNL     1      -3.315   0.147  -0.450  1.00  0.00    -0.349 N 
ATOM     27  H   UNL     1      -4.280  -0.047  -0.434  1.00  0.00     0.164 HD
BRANCH  26  28
ATOM     28  C   UNL     1      -2.940   1.385  -1.016  1.00  0.00     0.082 C 
ATOM     29  C   UNL     1      -2.475   1.425  -2.410  1.00  0.00     0.027 C 
ATOM     30  C   UNL     1      -3.704   2.201  -2.013  1.00  0.00     0.027 C 
ENDBRANCH  26  28
ENDBRANCH  23  24
ENDBRANCH  14  17
ENDBRANCH   7  13
ENDBRANCH   4   6
ENDBRANCH   3   4
ENDBRANCH   2   3
ENDBRANCH   1   2
BRANCH   1  31
ATOM     31  O   UNL     1      -0.701   7.295  -2.572  1.00  0.00    -0.374 OA
BRANCH  31  32
ATOM     32  C   UNL     1       0.379   7.897  -3.271  1.00  0.00     0.202 C 
BRANCH  32  33
ATOM     33  C   UNL     1      -0.030   9.099  -4.135  1.00  0.00     0.261 C 
BRANCH  33  34
ATOM     34  O   UNL     1      -0.986   8.673  -5.122  1.00  0.00    -0.460 OA
BRANCH  34  35
ATOM     35  C   UNL     1      -2.225   9.235  -4.983  1.00  0.00     0.338 C 
ATOM     36  O   UNL     1      -2.459  10.413  -5.001  1.00  0.00    -0.246 OA
BRANCH  35  37
ATOM     37  C   UNL     1      -3.219   8.160  -4.684  1.00  0.00     0.060 A 
ATOM     38  C   UNL     1      -4.483   8.504  -4.178  1.00  0.00     0.016 A 
ATOM     39  C   UNL     1      -2.829   6.822  -4.726  1.00  0.00     0.016 A 
ATOM     40  C   UNL     1      -5.319   7.514  -3.639  1.00  0.00     0.010 A 
ATOM     41  C   UNL     1      -3.629   5.861  -4.137  1.00  0.00     0.010 A 
ATOM     42  C   UNL     1      -4.873   6.194  -3.578  1.00  0.00    -0.014 A 
BRANCH  42  43
ATOM     43  C   UNL     1      -5.585   5.107  -2.887  1.00  0.00     0.031 A 
ATOM     44  C   UNL     1      -6.033   3.916  -3.662  1.00  0.00     0.074 A 
ATOM     45  C   UNL     1      -5.549   5.046  -1.533  1.00  0.00     0.049 A 
ATOM     46  N   UNL     1      -6.774   2.966  -3.204  1.00  0.00    -0.248 NA
ATOM     47  C   UNL     1      -5.597   3.660  -5.030  1.00  0.00     0.031 C 
ATOM     48  C   UNL     1      -5.841   3.900  -0.664  1.00  0.00     0.029 A 
ATOM     49  N   UNL     1      -5.234   6.053  -0.615  1.00  0.00    -0.354 N 
ATOM     50  C   UNL     1      -6.580   1.851  -3.997  1.00  0.00     0.074 A 
ATOM     51  C   UNL     1      -5.905   2.368  -5.165  1.00  0.00     0.031 C 
ATOM     52  C   UNL     1      -5.909   4.296   0.616  1.00  0.00     0.029 A 
ATOM     53  C   UNL     1      -5.909   5.744   0.581  1.00  0.00     0.049 A 
ATOM     54  H   UNL     1      -4.651   6.830  -0.775  1.00  0.00     0.167 HD
ATOM     55  C   UNL     1      -6.871   0.607  -3.495  1.00  0.00     0.034 A 
ATOM     56  C   UNL     1      -6.952   6.521   0.983  1.00  0.00     0.034 A 
ATOM     57  C   UNL     1      -7.453   0.703  -2.132  1.00  0.00     0.049 A 
ATOM     58  C   UNL     1      -8.222   5.695   0.906  1.00  0.00     0.074 A 
ATOM     59  C   UNL     1      -7.097   0.205  -0.889  1.00  0.00     0.029 A 
ATOM     60  N   UNL     1      -8.489   1.621  -1.875  1.00  0.00    -0.354 N 
ATOM     61  N   UNL     1      -8.421   4.733   0.033  1.00  0.00    -0.248 NA
ATOM     62  C   UNL     1      -9.236   5.728   1.952  1.00  0.00     0.031 C 
ATOM     63  C   UNL     1      -7.796   0.947   0.107  1.00  0.00     0.029 A 
ATOM     64  C   UNL     1      -8.652   1.843  -0.520  1.00  0.00     0.049 A 
ATOM     65  H   UNL     1      -9.031   2.052  -2.574  1.00  0.00     0.167 HD
ATOM     66  C   UNL     1      -9.434   3.928   0.484  1.00  0.00     0.074 A 
ATOM     67  C   UNL     1      -9.958   4.636   1.649  1.00  0.00     0.031 C 
ATOM     68  C   UNL     1      -9.730   2.676   0.009  1.00  0.00     0.034 A 
BRANCH  55  69
ATOM     69  C   UNL     1      -6.366  -0.707  -4.124  1.00  0.00     0.023 A 
ATOM     70  C   UNL     1      -6.265  -1.898  -3.364  1.00  0.00     0.031 A 
ATOM     71  C   UNL     1      -5.951  -0.856  -5.466  1.00  0.00     0.131 A 
ATOM     72  C   UNL     1      -5.670  -3.075  -3.885  1.00  0.00     0.055 A 
ATOM     73  C   UNL     1      -5.296  -1.994  -5.965  1.00  0.00     0.041 A 
ATOM     74  F   UNL     1      -6.249   0.050  -6.403  1.00  0.00    -0.206 F 
ATOM     75  C   UNL     1      -5.139  -3.111  -5.169  1.00  0.00     0.022 A 
BRANCH  72  76
ATOM     76  S   UNL     1      -5.674  -4.616  -2.916  1.00  0.00     0.124 S 
ATOM     77  O   UNL     1      -4.633  -4.360  -1.929  1.00  0.00    -0.237 OA
ATOM     78  O   UNL     1      -7.044  -4.676  -2.419  1.00  0.00    -0.237 OA
ATOM     79  O   UNL     1      -5.342  -5.640  -3.909  1.00  0.00    -0.744 OA
ENDBRANCH  72  76
ENDBRANCH  55  69
BRANCH  56  80
ATOM     80  C   UNL     1      -6.708   7.970   0.706  1.00  0.00     0.023 A 
ATOM     81  C   UNL     1      -5.578   8.560   1.338  1.00  0.00     0.031 A 
ATOM     82  C   UNL     1      -7.234   8.630  -0.411  1.00  0.00     0.131 A 
ATOM     83  C   UNL     1      -4.939   9.682   0.781  1.00  0.00     0.055 A 
ATOM     84  C   UNL     1      -6.612   9.773  -0.945  1.00  0.00     0.041 A 
ATOM     85  F   UNL     1      -8.273   8.115  -1.084  1.00  0.00    -0.206 F 
ATOM     86  C   UNL     1      -5.441  10.278  -0.376  1.00  0.00     0.022 A 
BRANCH  83  87
ATOM     87  S   UNL     1      -3.294  10.197   1.387  1.00  0.00     0.124 S 
ATOM     88  O   UNL     1      -3.616  11.357   2.209  1.00  0.00    -0.237 OA
ATOM     89  O   UNL     1      -2.815   9.022   2.110  1.00  0.00    -0.237 OA
ATOM     90  O   UNL     1      -2.566  10.481   0.150  1.00  0.00    -0.744 OA
ENDBRANCH  83  87
ENDBRANCH  56  80
BRANCH  68  91
ATOM     91  C   UNL     1     -11.092   2.050   0.189  1.00  0.00     0.023 A 
ATOM     92  C   UNL     1     -12.213   2.820   0.525  1.00  0.00     0.031 A 
ATOM     93  C   UNL     1     -11.343   0.690  -0.106  1.00  0.00     0.131 A 
ATOM     94  C   UNL     1     -13.474   2.235   0.683  1.00  0.00     0.055 A 
ATOM     95  C   UNL     1     -12.618   0.125  -0.034  1.00  0.00     0.041 A 
ATOM     96  F   UNL     1     -10.374  -0.146  -0.506  1.00  0.00    -0.206 F 
ATOM     97  C   UNL     1     -13.693   0.894   0.384  1.00  0.00     0.022 A 
BRANCH  94  98
ATOM     98  S   UNL     1     -14.797   3.267   1.353  1.00  0.00     0.124 S 
ATOM     99  O   UNL     1     -14.316   3.518   2.709  1.00  0.00    -0.237 OA
ATOM    100  O   UNL     1     -14.787   4.418   0.456  1.00  0.00    -0.237 OA
ATOM    101  O   UNL     1     -15.979   2.414   1.258  1.00  0.00    -0.744 OA
ENDBRANCH  94  98
ENDBRANCH  68  91
ENDBRANCH  42  43
ENDBRANCH  35  37
ENDBRANCH  34  35
ENDBRANCH  33  34
ENDBRANCH  32  33
ENDBRANCH  31  32
ENDBRANCH   1  31
TORSDOF 21
