REMARK SMILES C[N@H+](CC(C)(C)C(=O)OCCOCCOC(=O)c1ccc(-c2c3nc(c(-c4cc(S(=O)(=O)[O-])ccc4F)c4ccc([nH]4)c(-c4cc(S(=O)(=O)[O-])ccc4F)c4nc(c(-c5cc(S(=O)(=O)[O-])ccc5F)c5ccc2[nH]5)C=C4)C=C3)cc1)[C@@H]1CCCC[C@@H]1C[NH3+]
REMARK SMILES IDX 11 1 10 2 9 3 7 4 8 5 4 6 5 7 6 8 3 9 2 10 1 11 81 13 82 14
REMARK SMILES IDX 86 15 83 16 85 17 84 18 87 19 88 20 12 24 13 25 14 26 15 27
REMARK SMILES IDX 16 28 17 29 18 30 19 31 80 32 20 33 79 34 21 35 22 36 23 37
REMARK SMILES IDX 73 38 24 39 78 40 72 41 74 42 25 43 77 44 71 45 70 46 26 48
REMARK SMILES IDX 58 49 38 50 57 51 39 52 42 53 56 54 75 55 40 56 41 57 55 59
REMARK SMILES IDX 76 60 43 61 27 62 28 63 36 64 29 65 35 66 37 67 34 68 30 69
REMARK SMILES IDX 31 70 32 71 33 72 59 73 60 74 68 75 61 76 67 77 69 78 66 79
REMARK SMILES IDX 62 80 63 81 64 82 65 83 44 84 45 85 53 86 46 87 52 88 54 89
REMARK SMILES IDX 51 90 47 91 48 92 49 93 50 94
REMARK H PARENT 2 12 88 21 88 22 88 23 74 47 42 58
REMARK Flexibility Score: inf
ROOT
ATOM      1  C   UNL     1      -1.138  -0.267   3.790  1.00  0.00     0.202 C 
ENDROOT
BRANCH   1   2
ATOM      2  C   UNL     1      -1.527   1.134   3.254  1.00  0.00     0.261 C 
BRANCH   2   3
ATOM      3  O   UNL     1      -2.208   1.202   1.987  1.00  0.00    -0.463 OA
BRANCH   3   4
ATOM      4  C   UNL     1      -1.334   1.179   0.939  1.00  0.00     0.317 C 
ATOM      5  O   UNL     1      -0.136   1.034   1.149  1.00  0.00    -0.251 OA
BRANCH   4   6
ATOM      6  C   UNL     1      -2.024   1.334  -0.454  1.00  0.00     0.111 C 
ATOM      7  C   UNL     1      -2.740   2.699  -0.591  1.00  0.00     0.029 C 
ATOM      8  C   UNL     1      -3.166   0.295  -0.594  1.00  0.00     0.029 C 
BRANCH   6   9
ATOM      9  C   UNL     1      -1.003   1.139  -1.643  1.00  0.00     0.280 C 
BRANCH   9  10
ATOM     10  N   UNL     1       0.418   1.208  -1.306  1.00  0.00    -0.334 N 
ATOM     11  C   UNL     1       1.077  -0.093  -1.233  1.00  0.00     0.333 C 
ATOM     12  H   UNL     1       0.311   1.552  -0.352  1.00  0.00     0.348 HD
BRANCH  10  13
ATOM     13  C   UNL     1       1.253   2.373  -1.641  1.00  0.00     0.192 C 
ATOM     14  C   UNL     1       2.722   2.230  -1.137  1.00  0.00     0.065 C 
ATOM     15  C   UNL     1       0.676   3.772  -1.241  1.00  0.00     0.102 C 
ATOM     16  C   UNL     1       3.630   3.425  -1.432  1.00  0.00     0.006 C 
ATOM     17  C   UNL     1       1.619   4.877  -1.758  1.00  0.00     0.015 C 
ATOM     18  C   UNL     1       3.005   4.781  -1.146  1.00  0.00     0.001 C 
BRANCH  15  19
ATOM     19  C   UNL     1       0.318   4.050   0.248  1.00  0.00     0.268 C 
BRANCH  19  20
ATOM     20  N   UNL     1       1.233   3.564   1.270  1.00  0.00    -0.357 N 
ATOM     21  H   UNL     1       1.255   2.545   1.249  1.00  0.00     0.344 HD
ATOM     22  H   UNL     1       0.916   3.879   2.187  1.00  0.00     0.344 HD
ATOM     23  H   UNL     1       2.168   3.929   1.089  1.00  0.00     0.344 HD
ENDBRANCH  19  20
ENDBRANCH  15  19
ENDBRANCH  10  13
ENDBRANCH   9  10
ENDBRANCH   6   9
ENDBRANCH   4   6
ENDBRANCH   3   4
ENDBRANCH   2   3
ENDBRANCH   1   2
BRANCH   1  24
ATOM     24  O   UNL     1      -0.958  -1.383   2.933  1.00  0.00    -0.374 OA
BRANCH  24  25
ATOM     25  C   UNL     1      -1.998  -1.767   2.050  1.00  0.00     0.202 C 
BRANCH  25  26
ATOM     26  C   UNL     1      -3.446  -1.890   2.543  1.00  0.00     0.261 C 
BRANCH  26  27
ATOM     27  O   UNL     1      -3.917  -0.745   3.273  1.00  0.00    -0.460 OA
BRANCH  27  28
ATOM     28  C   UNL     1      -4.318  -1.022   4.535  1.00  0.00     0.338 C 
ATOM     29  O   UNL     1      -4.420  -2.137   5.040  1.00  0.00    -0.246 OA
BRANCH  28  30
ATOM     30  C   UNL     1      -4.418   0.204   5.343  1.00  0.00     0.060 A 
ATOM     31  C   UNL     1      -3.628   0.263   6.498  1.00  0.00     0.016 A 
ATOM     32  C   UNL     1      -5.336   1.218   5.058  1.00  0.00     0.016 A 
ATOM     33  C   UNL     1      -3.808   1.291   7.414  1.00  0.00     0.010 A 
ATOM     34  C   UNL     1      -5.527   2.247   5.992  1.00  0.00     0.010 A 
ATOM     35  C   UNL     1      -4.803   2.252   7.198  1.00  0.00    -0.014 A 
BRANCH  35  36
ATOM     36  C   UNL     1      -5.197   3.099   8.352  1.00  0.00     0.031 A 
ATOM     37  C   UNL     1      -6.373   2.670   9.191  1.00  0.00     0.074 A 
ATOM     38  C   UNL     1      -4.439   4.145   8.726  1.00  0.00     0.049 A 
ATOM     39  N   UNL     1      -6.823   3.171  10.313  1.00  0.00    -0.248 NA
ATOM     40  C   UNL     1      -7.138   1.513   8.700  1.00  0.00     0.031 C 
ATOM     41  C   UNL     1      -3.249   4.617   8.019  1.00  0.00     0.029 A 
ATOM     42  N   UNL     1      -4.543   4.982   9.808  1.00  0.00    -0.354 N 
ATOM     43  C   UNL     1      -7.916   2.386  10.668  1.00  0.00     0.074 A 
ATOM     44  C   UNL     1      -8.088   1.407   9.616  1.00  0.00     0.031 C 
ATOM     45  C   UNL     1      -2.725   5.655   8.694  1.00  0.00     0.029 A 
ATOM     46  C   UNL     1      -3.553   5.934   9.866  1.00  0.00     0.049 A 
ATOM     47  H   UNL     1      -5.259   4.908  10.479  1.00  0.00     0.167 HD
ATOM     48  C   UNL     1      -8.695   2.464  11.775  1.00  0.00     0.034 A 
ATOM     49  C   UNL     1      -3.341   6.919  10.762  1.00  0.00     0.034 A 
ATOM     50  C   UNL     1      -8.518   3.457  12.808  1.00  0.00     0.049 A 
ATOM     51  C   UNL     1      -4.263   7.029  11.953  1.00  0.00     0.074 A 
ATOM     52  C   UNL     1      -9.251   3.636  13.969  1.00  0.00     0.029 A 
ATOM     53  N   UNL     1      -7.543   4.447  12.801  1.00  0.00    -0.354 N 
ATOM     54  N   UNL     1      -5.289   6.276  12.280  1.00  0.00    -0.248 NA
ATOM     55  C   UNL     1      -3.981   8.110  12.906  1.00  0.00     0.031 C 
ATOM     56  C   UNL     1      -8.765   4.774  14.624  1.00  0.00     0.029 A 
ATOM     57  C   UNL     1      -7.676   5.258  13.918  1.00  0.00     0.049 A 
ATOM     58  H   UNL     1      -6.858   4.558  12.103  1.00  0.00     0.167 HD
ATOM     59  C   UNL     1      -5.757   6.778  13.492  1.00  0.00     0.074 A 
ATOM     60  C   UNL     1      -4.885   7.879  13.847  1.00  0.00     0.031 C 
ATOM     61  C   UNL     1      -6.811   6.368  14.247  1.00  0.00     0.034 A 
BRANCH  48  62
ATOM     62  C   UNL     1      -9.841   1.485  11.886  1.00  0.00     0.023 A 
ATOM     63  C   UNL     1      -9.628   0.098  11.994  1.00  0.00     0.031 A 
ATOM     64  C   UNL     1     -11.169   1.944  11.844  1.00  0.00     0.131 A 
ATOM     65  C   UNL     1     -10.723  -0.781  11.986  1.00  0.00     0.055 A 
ATOM     66  C   UNL     1     -12.255   1.069  11.915  1.00  0.00     0.041 A 
ATOM     67  F   UNL     1     -11.436   3.253  11.715  1.00  0.00    -0.206 F 
ATOM     68  C   UNL     1     -12.035  -0.304  11.973  1.00  0.00     0.022 A 
BRANCH  65  69
ATOM     69  S   UNL     1     -10.408  -2.563  11.848  1.00  0.00     0.124 S 
ATOM     70  O   UNL     1      -9.662  -2.635  10.595  1.00  0.00    -0.237 OA
ATOM     71  O   UNL     1      -9.650  -2.844  13.062  1.00  0.00    -0.237 OA
ATOM     72  O   UNL     1     -11.748  -3.146  11.801  1.00  0.00    -0.744 OA
ENDBRANCH  65  69
ENDBRANCH  48  62
BRANCH  49  73
ATOM     73  C   UNL     1      -2.232   7.897  10.563  1.00  0.00     0.023 A 
ATOM     74  C   UNL     1      -1.173   8.003  11.478  1.00  0.00     0.031 A 
ATOM     75  C   UNL     1      -2.250   8.783   9.470  1.00  0.00     0.131 A 
ATOM     76  C   UNL     1      -0.200   9.002  11.308  1.00  0.00     0.055 A 
ATOM     77  C   UNL     1      -1.252   9.739   9.277  1.00  0.00     0.041 A 
ATOM     78  F   UNL     1      -3.241   8.725   8.565  1.00  0.00    -0.206 F 
ATOM     79  C   UNL     1      -0.226   9.862  10.208  1.00  0.00     0.022 A 
BRANCH  76  80
ATOM     80  S   UNL     1       1.059   9.220  12.597  1.00  0.00     0.124 S 
ATOM     81  O   UNL     1       0.238   9.473  13.775  1.00  0.00    -0.237 OA
ATOM     82  O   UNL     1       1.752   7.936  12.561  1.00  0.00    -0.237 OA
ATOM     83  O   UNL     1       1.838  10.361  12.121  1.00  0.00    -0.744 OA
ENDBRANCH  76  80
ENDBRANCH  49  73
BRANCH  61  84
ATOM     84  C   UNL     1      -7.044   7.103  15.546  1.00  0.00     0.023 A 
ATOM     85  C   UNL     1      -7.392   8.466  15.573  1.00  0.00     0.031 A 
ATOM     86  C   UNL     1      -6.872   6.444  16.776  1.00  0.00     0.131 A 
ATOM     87  C   UNL     1      -7.476   9.143  16.798  1.00  0.00     0.055 A 
ATOM     88  C   UNL     1      -7.027   7.106  17.995  1.00  0.00     0.041 A 
ATOM     89  F   UNL     1      -6.540   5.143  16.814  1.00  0.00    -0.206 F 
ATOM     90  C   UNL     1      -7.311   8.469  18.010  1.00  0.00     0.022 A 
BRANCH  87  91
ATOM     91  S   UNL     1      -7.670  10.947  16.782  1.00  0.00     0.124 S 
ATOM     92  O   UNL     1      -6.545  11.367  15.953  1.00  0.00    -0.237 OA
ATOM     93  O   UNL     1      -8.994  11.111  16.190  1.00  0.00    -0.237 OA
ATOM     94  O   UNL     1      -7.572  11.315  18.193  1.00  0.00    -0.744 OA
ENDBRANCH  87  91
ENDBRANCH  61  84
ENDBRANCH  35  36
ENDBRANCH  28  30
ENDBRANCH  27  28
ENDBRANCH  26  27
ENDBRANCH  25  26
ENDBRANCH  24  25
ENDBRANCH   1  24
TORSDOF 22
