REMARK SMILES [NH3+]C1CC[NH+](CC(=O)N2CCO[C@H](CC(=O)OCCOCCOC(=O)c3ccc(-c4c5nc(c(-c6cc(S(=O)(=O)[O-])ccc6F)c6ccc([nH]6)c(-c6cc(S(=O)(=O)[O-])ccc6F)c6nc(c(-c7cc(S(=O)(=O)[O-])ccc7F)c7ccc4[nH]7)C=C6)C=C5)cc3)C2)CC1
REMARK SMILES IDX 19 1 18 2 17 3 15 4 16 5 14 6 13 7 9 8 10 9 89 10 11 11
REMARK SMILES IDX 12 12 7 13 8 14 6 15 5 16 2 17 3 18 91 19 4 20 90 21 1 23
REMARK SMILES IDX 20 27 21 28 22 29 23 30 24 31 25 32 26 33 27 34 88 35 28 36
REMARK SMILES IDX 87 37 29 38 30 39 31 40 81 41 32 42 86 43 80 44 82 45 33 46
REMARK SMILES IDX 85 47 79 48 78 49 34 51 66 52 46 53 65 54 47 55 50 56 64 57
REMARK SMILES IDX 83 58 48 59 49 60 63 62 84 63 51 64 35 65 36 66 44 67 37 68
REMARK SMILES IDX 43 69 45 70 42 71 38 72 39 73 40 74 41 75 67 76 68 77 76 78
REMARK SMILES IDX 69 79 75 80 77 81 74 82 70 83 71 84 72 85 73 86 52 87 53 88
REMARK SMILES IDX 61 89 54 90 60 91 62 92 59 93 55 94 56 95 57 96 58 97
REMARK H PARENT 5 22 1 24 1 25 1 26 82 50 50 61
REMARK Flexibility Score: inf
ROOT
ATOM      1  C   UNL     1      -5.051  -0.545   2.042  1.00  0.00     0.202 C 
ENDROOT
BRANCH   1   2
ATOM      2  C   UNL     1      -3.529  -0.502   2.220  1.00  0.00     0.261 C 
BRANCH   2   3
ATOM      3  O   UNL     1      -2.931  -1.692   1.678  1.00  0.00    -0.463 OA
BRANCH   3   4
ATOM      4  C   UNL     1      -2.036  -2.327   2.471  1.00  0.00     0.308 C 
ATOM      5  O   UNL     1      -1.480  -1.826   3.442  1.00  0.00    -0.252 OA
BRANCH   4   6
ATOM      6  C   UNL     1      -1.881  -3.796   2.123  1.00  0.00     0.156 C 
BRANCH   6   7
ATOM      7  C   UNL     1      -1.864  -4.184   0.642  1.00  0.00     0.148 C 
ATOM      8  N   UNL     1      -0.839  -3.612  -1.546  1.00  0.00    -0.333 N 
ATOM      9  C   UNL     1      -2.163  -3.663  -2.168  1.00  0.00     0.148 C 
ATOM     10  C   UNL     1      -0.880  -3.315  -0.128  1.00  0.00     0.152 C 
ATOM     11  C   UNL     1      -3.130  -4.523  -1.334  1.00  0.00     0.182 C 
ATOM     12  O   UNL     1      -3.170  -4.126   0.052  1.00  0.00    -0.374 OA
BRANCH   8  13
ATOM     13  C   UNL     1       0.300  -3.419  -2.327  1.00  0.00     0.277 C 
ATOM     14  O   UNL     1       0.215  -3.143  -3.526  1.00  0.00    -0.268 OA
BRANCH  13  15
ATOM     15  C   UNL     1       1.665  -3.743  -1.691  1.00  0.00     0.363 C 
BRANCH  15  16
ATOM     16  N   UNL     1       2.526  -2.634  -1.260  1.00  0.00    -0.327 N 
ATOM     17  C   UNL     1       1.869   0.262  -1.168  1.00  0.00     0.192 C 
ATOM     18  C   UNL     1       2.224  -0.448  -2.481  1.00  0.00     0.126 C 
ATOM     19  C   UNL     1       1.321  -0.751  -0.166  1.00  0.00     0.126 C 
ATOM     20  C   UNL     1       3.031  -1.735  -2.296  1.00  0.00     0.268 C 
ATOM     21  C   UNL     1       2.238  -1.962  -0.006  1.00  0.00     0.268 C 
ATOM     22  H   UNL     1       3.323  -3.220  -1.010  1.00  0.00     0.348 HD
BRANCH  17  23
ATOM     23  N   UNL     1       3.000   1.001  -0.600  1.00  0.00    -0.355 N 
ATOM     24  H   UNL     1       3.348   1.670  -1.287  1.00  0.00     0.344 HD
ATOM     25  H   UNL     1       3.744   0.347  -0.354  1.00  0.00     0.344 HD
ATOM     26  H   UNL     1       2.695   1.499   0.236  1.00  0.00     0.344 HD
ENDBRANCH  17  23
ENDBRANCH  15  16
ENDBRANCH  13  15
ENDBRANCH   8  13
ENDBRANCH   6   7
ENDBRANCH   4   6
ENDBRANCH   3   4
ENDBRANCH   2   3
ENDBRANCH   1   2
BRANCH   1  27
ATOM     27  O   UNL     1      -5.718  -1.648   2.661  1.00  0.00    -0.374 OA
BRANCH  27  28
ATOM     28  C   UNL     1      -5.587  -2.929   2.040  1.00  0.00     0.202 C 
BRANCH  28  29
ATOM     29  C   UNL     1      -6.332  -3.145   0.718  1.00  0.00     0.261 C 
BRANCH  29  30
ATOM     30  O   UNL     1      -5.829  -2.311  -0.343  1.00  0.00    -0.460 OA
BRANCH  30  31
ATOM     31  C   UNL     1      -6.742  -1.469  -0.876  1.00  0.00     0.338 C 
ATOM     32  O   UNL     1      -7.942  -1.431  -0.617  1.00  0.00    -0.246 OA
BRANCH  31  33
ATOM     33  C   UNL     1      -6.087  -0.443  -1.708  1.00  0.00     0.060 A 
ATOM     34  C   UNL     1      -6.444   0.892  -1.474  1.00  0.00     0.016 A 
ATOM     35  C   UNL     1      -5.223  -0.769  -2.755  1.00  0.00     0.016 A 
ATOM     36  C   UNL     1      -6.003   1.897  -2.332  1.00  0.00     0.010 A 
ATOM     37  C   UNL     1      -4.782   0.242  -3.619  1.00  0.00     0.010 A 
ATOM     38  C   UNL     1      -5.212   1.571  -3.441  1.00  0.00    -0.014 A 
BRANCH  38  39
ATOM     39  C   UNL     1      -5.037   2.573  -4.525  1.00  0.00     0.031 A 
ATOM     40  C   UNL     1      -5.931   2.477  -5.735  1.00  0.00     0.074 A 
ATOM     41  C   UNL     1      -4.151   3.579  -4.421  1.00  0.00     0.049 A 
ATOM     42  N   UNL     1      -5.929   3.190  -6.832  1.00  0.00    -0.248 NA
ATOM     43  C   UNL     1      -6.966   1.432  -5.697  1.00  0.00     0.031 C 
ATOM     44  C   UNL     1      -3.284   3.826  -3.272  1.00  0.00     0.029 A 
ATOM     45  N   UNL     1      -3.835   4.583  -5.304  1.00  0.00    -0.354 N 
ATOM     46  C   UNL     1      -6.955   2.675  -7.618  1.00  0.00     0.074 A 
ATOM     47  C   UNL     1      -7.533   1.569  -6.885  1.00  0.00     0.031 C 
ATOM     48  C   UNL     1      -2.521   4.904  -3.526  1.00  0.00     0.029 A 
ATOM     49  C   UNL     1      -2.815   5.398  -4.871  1.00  0.00     0.049 A 
ATOM     50  H   UNL     1      -4.295   4.707  -6.165  1.00  0.00     0.167 HD
ATOM     51  C   UNL     1      -7.384   3.091  -8.835  1.00  0.00     0.034 A 
ATOM     52  C   UNL     1      -2.171   6.403  -5.502  1.00  0.00     0.034 A 
ATOM     53  C   UNL     1      -6.798   4.191  -9.559  1.00  0.00     0.049 A 
ATOM     54  C   UNL     1      -2.592   6.785  -6.902  1.00  0.00     0.074 A 
ATOM     55  C   UNL     1      -7.146   4.689 -10.803  1.00  0.00     0.029 A 
ATOM     56  N   UNL     1      -5.732   4.958  -9.108  1.00  0.00    -0.354 N 
ATOM     57  N   UNL     1      -3.546   6.274  -7.646  1.00  0.00    -0.248 NA
ATOM     58  C   UNL     1      -1.852   7.879  -7.547  1.00  0.00     0.031 C 
ATOM     59  C   UNL     1      -6.253   5.715 -11.129  1.00  0.00     0.029 A 
ATOM     60  C   UNL     1      -5.394   5.907 -10.059  1.00  0.00     0.049 A 
ATOM     61  H   UNL     1      -5.282   4.844  -8.240  1.00  0.00     0.167 HD
ATOM     62  C   UNL     1      -3.543   7.010  -8.829  1.00  0.00     0.074 A 
ATOM     63  C   UNL     1      -2.491   7.996  -8.703  1.00  0.00     0.031 C 
ATOM     64  C   UNL     1      -4.346   6.889  -9.916  1.00  0.00     0.034 A 
BRANCH  51  65
ATOM     65  C   UNL     1      -8.504   2.309  -9.475  1.00  0.00     0.023 A 
ATOM     66  C   UNL     1      -9.794   2.274  -8.919  1.00  0.00     0.031 A 
ATOM     67  C   UNL     1      -8.264   1.552 -10.635  1.00  0.00     0.131 A 
ATOM     68  C   UNL     1     -10.775   1.442  -9.480  1.00  0.00     0.055 A 
ATOM     69  C   UNL     1      -9.267   0.787 -11.234  1.00  0.00     0.041 A 
ATOM     70  F   UNL     1      -7.045   1.528 -11.196  1.00  0.00    -0.206 F 
ATOM     71  C   UNL     1     -10.527   0.717 -10.648  1.00  0.00     0.022 A 
BRANCH  68  72
ATOM     72  S   UNL     1     -12.332   1.207  -8.580  1.00  0.00     0.124 S 
ATOM     73  O   UNL     1     -11.857   0.683  -7.301  1.00  0.00    -0.237 OA
ATOM     74  O   UNL     1     -12.887   2.554  -8.552  1.00  0.00    -0.237 OA
ATOM     75  O   UNL     1     -13.063   0.247  -9.404  1.00  0.00    -0.744 OA
ENDBRANCH  68  72
ENDBRANCH  51  65
BRANCH  52  76
ATOM     76  C   UNL     1      -1.018   7.085  -4.847  1.00  0.00     0.023 A 
ATOM     77  C   UNL     1      -1.065   8.448  -4.516  1.00  0.00     0.031 A 
ATOM     78  C   UNL     1       0.176   6.385  -4.593  1.00  0.00     0.131 A 
ATOM     79  C   UNL     1       0.073   9.079  -3.987  1.00  0.00     0.055 A 
ATOM     80  C   UNL     1       1.288   7.004  -4.021  1.00  0.00     0.041 A 
ATOM     81  F   UNL     1       0.275   5.081  -4.894  1.00  0.00    -0.206 F 
ATOM     82  C   UNL     1       1.245   8.363  -3.726  1.00  0.00     0.022 A 
BRANCH  79  83
ATOM     83  S   UNL     1       0.029  10.872  -3.717  1.00  0.00     0.124 S 
ATOM     84  O   UNL     1      -0.256  11.368  -5.058  1.00  0.00    -0.237 OA
ATOM     85  O   UNL     1      -1.047  11.005  -2.740  1.00  0.00    -0.237 OA
ATOM     86  O   UNL     1       1.367  11.173  -3.211  1.00  0.00    -0.744 OA
ENDBRANCH  79  83
ENDBRANCH  52  76
BRANCH  64  87
ATOM     87  C   UNL     1      -4.171   7.892 -11.028  1.00  0.00     0.023 A 
ATOM     88  C   UNL     1      -3.059   7.869 -11.886  1.00  0.00     0.031 A 
ATOM     89  C   UNL     1      -5.164   8.863 -11.251  1.00  0.00     0.131 A 
ATOM     90  C   UNL     1      -2.954   8.820 -12.914  1.00  0.00     0.055 A 
ATOM     91  C   UNL     1      -5.075   9.777 -12.300  1.00  0.00     0.041 A 
ATOM     92  F   UNL     1      -6.248   8.925 -10.460  1.00  0.00    -0.206 F 
ATOM     93  C   UNL     1      -3.962   9.763 -13.135  1.00  0.00     0.022 A 
BRANCH  90  94
ATOM     94  S   UNL     1      -1.461   8.836 -13.945  1.00  0.00     0.124 S 
ATOM     95  O   UNL     1      -0.422   9.148 -12.969  1.00  0.00    -0.237 OA
ATOM     96  O   UNL     1      -1.439   7.482 -14.488  1.00  0.00    -0.237 OA
ATOM     97  O   UNL     1      -1.730   9.889 -14.923  1.00  0.00    -0.744 OA
ENDBRANCH  90  94
ENDBRANCH  64  87
ENDBRANCH  38  39
ENDBRANCH  31  33
ENDBRANCH  30  31
ENDBRANCH  29  30
ENDBRANCH  28  29
ENDBRANCH  27  28
ENDBRANCH   1  27
TORSDOF 22
