REMARK SMILES Cc1cccc(O[C@H]2CC[C@@]([NH2+]C(C)C)(C(=O)OCCOCCOC(=O)c3ccc(-c4c5nc(c(-c6cc(S(=O)(=O)[O-])ccc6F)c6ccc([nH]6)c(-c6cc(S(=O)(=O)[O-])ccc6F)c6nc(c(-c7cc(S(=O)(=O)[O-])ccc7F)c7ccc4[nH]7)C=C6)C=C5)cc3)C2)c1
REMARK SMILES IDX 22 1 21 2 20 3 19 4 18 5 16 6 17 7 11 8 8 9 9 10 90 11 10 12
REMARK SMILES IDX 7 13 6 14 1 15 2 16 3 17 91 18 4 19 5 20 12 21 13 24 14 25
REMARK SMILES IDX 15 26 23 27 24 28 25 29 26 30 27 31 28 32 89 33 29 34 88 35
REMARK SMILES IDX 30 36 31 37 32 38 82 39 33 40 87 41 81 42 83 43 34 44 86 45
REMARK SMILES IDX 80 46 79 47 35 49 67 50 47 51 66 52 48 53 51 54 65 55 84 56
REMARK SMILES IDX 49 57 50 58 64 60 85 61 52 62 36 63 37 64 45 65 38 66 44 67
REMARK SMILES IDX 46 68 43 69 39 70 40 71 41 72 42 73 68 74 69 75 77 76 70 77
REMARK SMILES IDX 76 78 78 79 75 80 71 81 72 82 73 83 74 84 53 85 54 86 62 87
REMARK SMILES IDX 55 88 61 89 63 90 60 91 56 92 57 93 58 94 59 95
REMARK H PARENT 12 22 12 23 83 48 51 59
REMARK Flexibility Score: inf
ROOT
ATOM      1  C   UNL     1      -2.134   7.157  -0.857  1.00  0.00     0.202 C 
ENDROOT
BRANCH   1   2
ATOM      2  O   UNL     1      -1.099   7.407   0.043  1.00  0.00    -0.374 OA
BRANCH   2   3
ATOM      3  C   UNL     1       0.106   7.897  -0.511  1.00  0.00     0.202 C 
BRANCH   3   4
ATOM      4  C   UNL     1       1.071   7.635   0.596  1.00  0.00     0.261 C 
BRANCH   4   5
ATOM      5  O   UNL     1       1.403   6.238   0.737  1.00  0.00    -0.459 OA
BRANCH   5   6
ATOM      6  C   UNL     1       0.526   5.356   1.307  1.00  0.00     0.368 C 
ATOM      7  O   UNL     1      -0.356   5.631   2.108  1.00  0.00    -0.245 OA
BRANCH   6   8
ATOM      8  C   UNL     1       0.830   3.916   0.815  1.00  0.00     0.198 C 
ATOM      9  C   UNL     1      -1.111   3.005  -0.460  1.00  0.00     0.180 C 
ATOM     10  C   UNL     1      -0.043   3.437  -1.461  1.00  0.00     0.052 C 
ATOM     11  C   UNL     1      -0.394   2.978   0.892  1.00  0.00     0.126 C 
ATOM     12  C   UNL     1       1.152   3.982  -0.696  1.00  0.00     0.085 C 
BRANCH   9  13
ATOM     13  O   UNL     1      -2.255   3.860  -0.375  1.00  0.00    -0.490 OA
BRANCH  13  14
ATOM     14  C   UNL     1      -3.121   3.936  -1.436  1.00  0.00     0.119 A 
ATOM     15  C   UNL     1      -5.981   6.346  -2.177  1.00  0.00     0.044 C 
ATOM     16  C   UNL     1      -4.974   5.245  -2.340  1.00  0.00    -0.047 A 
ATOM     17  C   UNL     1      -4.749   4.675  -3.594  1.00  0.00     0.003 A 
ATOM     18  C   UNL     1      -4.202   4.808  -1.255  1.00  0.00     0.049 A 
ATOM     19  C   UNL     1      -3.761   3.704  -3.754  1.00  0.00     0.004 A 
ATOM     20  C   UNL     1      -2.947   3.337  -2.679  1.00  0.00     0.046 A 
ENDBRANCH  13  14
ENDBRANCH   9  13
BRANCH   8  21
ATOM     21  N   UNL     1       2.005   3.342   1.535  1.00  0.00    -0.330 N 
ATOM     22  H   UNL     1       2.828   3.868   1.242  1.00  0.00     0.347 HD
ATOM     23  H   UNL     1       2.002   2.353   1.284  1.00  0.00     0.347 HD
BRANCH  21  24
ATOM     24  C   UNL     1       1.979   3.350   3.006  1.00  0.00     0.176 C 
ATOM     25  C   UNL     1       0.975   2.398   3.656  1.00  0.00     0.075 C 
ATOM     26  C   UNL     1       3.386   2.990   3.502  1.00  0.00     0.075 C 
ENDBRANCH  21  24
ENDBRANCH   8  21
ENDBRANCH   6   8
ENDBRANCH   5   6
ENDBRANCH   4   5
ENDBRANCH   3   4
ENDBRANCH   2   3
ENDBRANCH   1   2
BRANCH   1  27
ATOM     27  C   UNL     1      -2.729   8.432  -1.432  1.00  0.00     0.261 C 
BRANCH  27  28
ATOM     28  O   UNL     1      -3.423   9.164  -0.396  1.00  0.00    -0.460 OA
BRANCH  28  29
ATOM     29  C   UNL     1      -2.718  10.209   0.133  1.00  0.00     0.338 C 
ATOM     30  O   UNL     1      -2.478  11.240  -0.458  1.00  0.00    -0.246 OA
BRANCH  29  31
ATOM     31  C   UNL     1      -2.223   9.876   1.503  1.00  0.00     0.060 A 
ATOM     32  C   UNL     1      -1.177  10.622   2.076  1.00  0.00     0.016 A 
ATOM     33  C   UNL     1      -2.622   8.683   2.093  1.00  0.00     0.016 A 
ATOM     34  C   UNL     1      -0.419  10.083   3.129  1.00  0.00     0.010 A 
ATOM     35  C   UNL     1      -1.801   8.112   3.044  1.00  0.00     0.010 A 
ATOM     36  C   UNL     1      -0.673   8.780   3.549  1.00  0.00    -0.014 A 
BRANCH  36  37
ATOM     37  C   UNL     1       0.164   7.981   4.459  1.00  0.00     0.031 A 
ATOM     38  C   UNL     1      -0.482   7.479   5.697  1.00  0.00     0.074 A 
ATOM     39  C   UNL     1       1.390   7.498   4.118  1.00  0.00     0.049 A 
ATOM     40  N   UNL     1       0.151   6.900   6.650  1.00  0.00    -0.248 NA
ATOM     41  C   UNL     1      -1.909   7.608   5.996  1.00  0.00     0.031 C 
ATOM     42  C   UNL     1       2.151   6.413   4.740  1.00  0.00     0.029 A 
ATOM     43  N   UNL     1       2.264   7.893   3.099  1.00  0.00    -0.354 N 
ATOM     44  C   UNL     1      -0.762   6.276   7.462  1.00  0.00     0.074 A 
ATOM     45  C   UNL     1      -2.022   6.859   7.096  1.00  0.00     0.031 C 
ATOM     46  C   UNL     1       3.434   6.454   4.332  1.00  0.00     0.029 A 
ATOM     47  C   UNL     1       3.577   7.645   3.520  1.00  0.00     0.049 A 
ATOM     48  H   UNL     1       2.001   8.279   2.233  1.00  0.00     0.167 HD
ATOM     49  C   UNL     1      -0.314   5.255   8.246  1.00  0.00     0.034 A 
ATOM     50  C   UNL     1       4.464   8.661   3.675  1.00  0.00     0.034 A 
ATOM     51  C   UNL     1       1.162   5.188   8.196  1.00  0.00     0.049 A 
ATOM     52  C   UNL     1       4.790   8.699   5.148  1.00  0.00     0.074 A 
ATOM     53  C   UNL     1       2.076   4.282   7.684  1.00  0.00     0.029 A 
ATOM     54  N   UNL     1       1.892   6.349   8.475  1.00  0.00    -0.354 N 
ATOM     55  N   UNL     1       3.950   8.298   6.074  1.00  0.00    -0.248 NA
ATOM     56  C   UNL     1       6.130   8.939   5.666  1.00  0.00     0.031 C 
ATOM     57  C   UNL     1       3.334   4.954   7.565  1.00  0.00     0.029 A 
ATOM     58  C   UNL     1       3.196   6.255   8.034  1.00  0.00     0.049 A 
ATOM     59  H   UNL     1       1.520   7.138   8.931  1.00  0.00     0.167 HD
ATOM     60  C   UNL     1       4.646   8.034   7.218  1.00  0.00     0.074 A 
ATOM     61  C   UNL     1       5.992   8.524   6.938  1.00  0.00     0.031 C 
ATOM     62  C   UNL     1       4.147   7.337   8.285  1.00  0.00     0.034 A 
BRANCH  49  63
ATOM     63  C   UNL     1      -1.178   4.204   8.926  1.00  0.00     0.023 A 
ATOM     64  C   UNL     1      -0.540   3.138   9.598  1.00  0.00     0.031 A 
ATOM     65  C   UNL     1      -2.590   4.123   8.909  1.00  0.00     0.131 A 
ATOM     66  C   UNL     1      -1.272   2.082  10.183  1.00  0.00     0.055 A 
ATOM     67  C   UNL     1      -3.318   3.091   9.518  1.00  0.00     0.041 A 
ATOM     68  F   UNL     1      -3.364   5.011   8.285  1.00  0.00    -0.206 F 
ATOM     69  C   UNL     1      -2.661   2.058  10.156  1.00  0.00     0.022 A 
BRANCH  66  70
ATOM     70  S   UNL     1      -0.380   0.708  10.959  1.00  0.00     0.124 S 
ATOM     71  O   UNL     1       0.324   0.121   9.823  1.00  0.00    -0.237 OA
ATOM     72  O   UNL     1       0.443   1.392  11.950  1.00  0.00    -0.237 OA
ATOM     73  O   UNL     1      -1.449  -0.120  11.514  1.00  0.00    -0.744 OA
ENDBRANCH  66  70
ENDBRANCH  49  63
BRANCH  50  74
ATOM     74  C   UNL     1       4.235   9.752   2.669  1.00  0.00     0.023 A 
ATOM     75  C   UNL     1       4.457   9.425   1.298  1.00  0.00     0.031 A 
ATOM     76  C   UNL     1       3.384  10.833   2.935  1.00  0.00     0.131 A 
ATOM     77  C   UNL     1       3.727  10.061   0.271  1.00  0.00     0.055 A 
ATOM     78  C   UNL     1       2.675  11.477   1.906  1.00  0.00     0.041 A 
ATOM     79  F   UNL     1       3.104  11.186   4.198  1.00  0.00    -0.206 F 
ATOM     80  C   UNL     1       2.805  11.062   0.579  1.00  0.00     0.022 A 
BRANCH  77  81
ATOM     81  S   UNL     1       3.708   9.336  -1.419  1.00  0.00     0.124 S 
ATOM     82  O   UNL     1       4.809  10.033  -2.072  1.00  0.00    -0.237 OA
ATOM     83  O   UNL     1       3.914   7.912  -1.177  1.00  0.00    -0.237 OA
ATOM     84  O   UNL     1       2.371   9.668  -1.910  1.00  0.00    -0.744 OA
ENDBRANCH  77  81
ENDBRANCH  50  74
BRANCH  62  85
ATOM     85  C   UNL     1       4.601   7.600   9.697  1.00  0.00     0.023 A 
ATOM     86  C   UNL     1       5.463   8.657  10.008  1.00  0.00     0.031 A 
ATOM     87  C   UNL     1       4.073   6.893  10.803  1.00  0.00     0.131 A 
ATOM     88  C   UNL     1       5.862   8.907  11.324  1.00  0.00     0.055 A 
ATOM     89  C   UNL     1       4.383   7.217  12.125  1.00  0.00     0.041 A 
ATOM     90  F   UNL     1       3.210   5.878  10.659  1.00  0.00    -0.206 F 
ATOM     91  C   UNL     1       5.304   8.217  12.393  1.00  0.00     0.022 A 
BRANCH  88  92
ATOM     92  S   UNL     1       7.202  10.092  11.566  1.00  0.00     0.124 S 
ATOM     93  O   UNL     1       8.298   9.450  10.845  1.00  0.00    -0.237 OA
ATOM     94  O   UNL     1       6.669  11.304  10.953  1.00  0.00    -0.237 OA
ATOM     95  O   UNL     1       7.357  10.142  13.018  1.00  0.00    -0.744 OA
ENDBRANCH  88  92
ENDBRANCH  62  85
ENDBRANCH  36  37
ENDBRANCH  29  31
ENDBRANCH  28  29
ENDBRANCH  27  28
ENDBRANCH   1  27
TORSDOF 21
