REMARK SMILES CC[NH2+]C[C@@H](C)C(=O)N1CCO[C@@H](CC(=O)OCCOCCOC(=O)c2ccc(-c3c4nc(c(-c5cc(S(=O)(=O)[O-])ccc5F)c5ccc([nH]5)c(-c5cc(S(=O)(=O)[O-])ccc5F)c5nc(c(-c6cc(S(=O)(=O)[O-])ccc6F)c6ccc3[nH]6)C=C5)C=C4)cc2)C1
REMARK SMILES IDX 18 1 17 2 15 3 16 4 14 5 13 6 9 7 10 8 89 9 11 10 12 11 7 12
REMARK SMILES IDX 8 13 5 14 6 15 4 16 3 17 2 20 1 21 19 22 20 23 21 24 22 25
REMARK SMILES IDX 23 26 24 27 25 28 26 29 27 30 88 31 28 32 87 33 29 34 30 35
REMARK SMILES IDX 31 36 81 37 32 38 86 39 80 40 82 41 33 42 85 43 79 44 78 45
REMARK SMILES IDX 34 47 66 48 46 49 65 50 47 51 50 52 64 53 83 54 48 55 49 56
REMARK SMILES IDX 63 58 84 59 51 60 35 61 36 62 44 63 37 64 43 65 45 66 42 67
REMARK SMILES IDX 38 68 39 69 40 70 41 71 67 72 68 73 76 74 69 75 75 76 77 77
REMARK SMILES IDX 74 78 70 79 71 80 72 81 73 82 52 83 53 84 61 85 54 86 60 87
REMARK SMILES IDX 62 88 59 89 55 90 56 91 57 92 58 93
REMARK H PARENT 3 18 3 19 82 46 50 57
REMARK Flexibility Score: inf
ROOT
ATOM      1  C   UNL     1       2.675   3.580 -10.542  1.00  0.00     0.261 C 
ENDROOT
BRANCH   1   2
ATOM      2  O   UNL     1       2.294   2.262 -10.095  1.00  0.00    -0.463 OA
BRANCH   2   3
ATOM      3  C   UNL     1       3.026   1.231 -10.584  1.00  0.00     0.308 C 
ATOM      4  O   UNL     1       3.975   1.339 -11.350  1.00  0.00    -0.252 OA
BRANCH   3   5
ATOM      5  C   UNL     1       2.495  -0.101 -10.132  1.00  0.00     0.156 C 
BRANCH   5   6
ATOM      6  C   UNL     1       2.356  -0.318  -8.626  1.00  0.00     0.148 C 
ATOM      7  N   UNL     1       0.838  -0.188  -6.662  1.00  0.00    -0.337 N 
ATOM      8  C   UNL     1       0.790  -1.640  -6.632  1.00  0.00     0.148 C 
ATOM      9  C   UNL     1       1.087   0.340  -8.012  1.00  0.00     0.152 C 
ATOM     10  C   UNL     1       2.122  -2.183  -7.119  1.00  0.00     0.182 C 
ATOM     11  O   UNL     1       2.342  -1.765  -8.471  1.00  0.00    -0.374 OA
BRANCH   7  12
ATOM     12  C   UNL     1       0.293   0.626  -5.689  1.00  0.00     0.231 C 
ATOM     13  O   UNL     1      -0.467   1.545  -5.999  1.00  0.00    -0.274 OA
BRANCH  12  14
ATOM     14  C   UNL     1       0.818   0.527  -4.239  1.00  0.00     0.130 C 
ATOM     15  C   UNL     1       2.333   0.739  -4.232  1.00  0.00     0.024 C 
BRANCH  14  16
ATOM     16  C   UNL     1       0.385  -0.708  -3.439  1.00  0.00     0.273 C 
BRANCH  16  17
ATOM     17  N   UNL     1       0.827  -0.783  -2.039  1.00  0.00    -0.346 N 
ATOM     18  H   UNL     1       0.540  -1.686  -1.661  1.00  0.00     0.346 HD
ATOM     19  H   UNL     1       1.839  -0.662  -2.043  1.00  0.00     0.346 HD
BRANCH  17  20
ATOM     20  C   UNL     1       0.279   0.267  -1.186  1.00  0.00     0.257 C 
ATOM     21  C   UNL     1       0.761   0.038   0.240  1.00  0.00     0.071 C 
ENDBRANCH  17  20
ENDBRANCH  16  17
ENDBRANCH  14  16
ENDBRANCH  12  14
ENDBRANCH   7  12
ENDBRANCH   5   6
ENDBRANCH   3   5
ENDBRANCH   2   3
ENDBRANCH   1   2
BRANCH   1  22
ATOM     22  C   UNL     1       3.267   4.414  -9.405  1.00  0.00     0.202 C 
BRANCH  22  23
ATOM     23  O   UNL     1       4.568   4.017  -8.969  1.00  0.00    -0.374 OA
BRANCH  23  24
ATOM     24  C   UNL     1       4.632   2.914  -8.069  1.00  0.00     0.202 C 
BRANCH  24  25
ATOM     25  C   UNL     1       4.323   3.230  -6.603  1.00  0.00     0.261 C 
BRANCH  25  26
ATOM     26  O   UNL     1       2.944   3.598  -6.414  1.00  0.00    -0.460 OA
BRANCH  26  27
ATOM     27  C   UNL     1       2.739   4.894  -6.072  1.00  0.00     0.338 C 
ATOM     28  O   UNL     1       3.601   5.731  -5.835  1.00  0.00    -0.246 OA
BRANCH  27  29
ATOM     29  C   UNL     1       1.309   5.236  -6.195  1.00  0.00     0.060 A 
ATOM     30  C   UNL     1       0.967   6.356  -6.962  1.00  0.00     0.016 A 
ATOM     31  C   UNL     1       0.319   4.514  -5.530  1.00  0.00     0.016 A 
ATOM     32  C   UNL     1      -0.361   6.779  -7.030  1.00  0.00     0.010 A 
ATOM     33  C   UNL     1      -1.016   4.929  -5.612  1.00  0.00     0.010 A 
ATOM     34  C   UNL     1      -1.359   6.089  -6.328  1.00  0.00    -0.014 A 
BRANCH  34  35
ATOM     35  C   UNL     1      -2.723   6.672  -6.219  1.00  0.00     0.031 A 
ATOM     36  C   UNL     1      -3.132   7.334  -4.929  1.00  0.00     0.074 A 
ATOM     37  C   UNL     1      -3.577   6.643  -7.259  1.00  0.00     0.049 A 
ATOM     38  N   UNL     1      -4.265   7.905  -4.607  1.00  0.00    -0.248 NA
ATOM     39  C   UNL     1      -2.128   7.341  -3.856  1.00  0.00     0.031 C 
ATOM     40  C   UNL     1      -3.296   6.045  -8.563  1.00  0.00     0.029 A 
ATOM     41  N   UNL     1      -4.856   7.128  -7.379  1.00  0.00    -0.354 N 
ATOM     42  C   UNL     1      -4.112   8.333  -3.292  1.00  0.00     0.074 A 
ATOM     43  C   UNL     1      -2.797   7.906  -2.864  1.00  0.00     0.031 C 
ATOM     44  C   UNL     1      -4.373   6.199  -9.353  1.00  0.00     0.029 A 
ATOM     45  C   UNL     1      -5.429   6.875  -8.603  1.00  0.00     0.049 A 
ATOM     46  H   UNL     1      -5.318   7.612  -6.657  1.00  0.00     0.167 HD
ATOM     47  C   UNL     1      -4.980   9.032  -2.517  1.00  0.00     0.034 A 
ATOM     48  C   UNL     1      -6.670   7.141  -9.059  1.00  0.00     0.034 A 
ATOM     49  C   UNL     1      -6.293   9.444  -2.954  1.00  0.00     0.049 A 
ATOM     50  C   UNL     1      -7.647   7.862  -8.162  1.00  0.00     0.074 A 
ATOM     51  C   UNL     1      -7.239  10.184  -2.266  1.00  0.00     0.029 A 
ATOM     52  N   UNL     1      -6.854   9.137  -4.188  1.00  0.00    -0.354 N 
ATOM     53  N   UNL     1      -7.480   8.290  -6.931  1.00  0.00    -0.248 NA
ATOM     54  C   UNL     1      -8.976   8.143  -8.721  1.00  0.00     0.031 C 
ATOM     55  C   UNL     1      -8.395  10.260  -3.051  1.00  0.00     0.029 A 
ATOM     56  C   UNL     1      -8.145   9.639  -4.265  1.00  0.00     0.049 A 
ATOM     57  H   UNL     1      -6.400   8.636  -4.904  1.00  0.00     0.167 HD
ATOM     58  C   UNL     1      -8.675   8.913  -6.579  1.00  0.00     0.074 A 
ATOM     59  C   UNL     1      -9.548   8.816  -7.732  1.00  0.00     0.031 C 
ATOM     60  C   UNL     1      -9.017   9.518  -5.412  1.00  0.00     0.034 A 
BRANCH  47  61
ATOM     61  C   UNL     1      -4.543   9.343  -1.103  1.00  0.00     0.023 A 
ATOM     62  C   UNL     1      -3.412  10.135  -0.834  1.00  0.00     0.031 A 
ATOM     63  C   UNL     1      -5.232   8.790  -0.009  1.00  0.00     0.131 A 
ATOM     64  C   UNL     1      -2.950  10.271   0.484  1.00  0.00     0.055 A 
ATOM     65  C   UNL     1      -4.818   9.005   1.308  1.00  0.00     0.041 A 
ATOM     66  F   UNL     1      -6.306   8.008  -0.200  1.00  0.00    -0.206 F 
ATOM     67  C   UNL     1      -3.659   9.733   1.559  1.00  0.00     0.022 A 
BRANCH  64  68
ATOM     68  S   UNL     1      -1.314  11.009   0.755  1.00  0.00     0.124 S 
ATOM     69  O   UNL     1      -0.462  10.147  -0.060  1.00  0.00    -0.237 OA
ATOM     70  O   UNL     1      -1.498  12.371   0.269  1.00  0.00    -0.237 OA
ATOM     71  O   UNL     1      -1.115  10.882   2.198  1.00  0.00    -0.744 OA
ENDBRANCH  64  68
ENDBRANCH  47  61
BRANCH  48  72
ATOM     72  C   UNL     1      -7.077   6.695 -10.423  1.00  0.00     0.023 A 
ATOM     73  C   UNL     1      -7.371   7.620 -11.438  1.00  0.00     0.031 A 
ATOM     74  C   UNL     1      -7.204   5.326 -10.719  1.00  0.00     0.131 A 
ATOM     75  C   UNL     1      -7.809   7.164 -12.692  1.00  0.00     0.055 A 
ATOM     76  C   UNL     1      -7.595   4.877 -11.981  1.00  0.00     0.041 A 
ATOM     77  F   UNL     1      -6.934   4.402  -9.783  1.00  0.00    -0.206 F 
ATOM     78  C   UNL     1      -7.909   5.799 -12.974  1.00  0.00     0.022 A 
BRANCH  75  79
ATOM     79  S   UNL     1      -8.301   8.384 -13.941  1.00  0.00     0.124 S 
ATOM     80  O   UNL     1      -9.406   9.063 -13.274  1.00  0.00    -0.237 OA
ATOM     81  O   UNL     1      -7.076   9.160 -14.106  1.00  0.00    -0.237 OA
ATOM     82  O   UNL     1      -8.674   7.563 -15.091  1.00  0.00    -0.744 OA
ENDBRANCH  75  79
ENDBRANCH  48  72
BRANCH  60  83
ATOM     83  C   UNL     1     -10.384  10.157  -5.340  1.00  0.00     0.023 A 
ATOM     84  C   UNL     1     -11.564   9.393  -5.372  1.00  0.00     0.031 A 
ATOM     85  C   UNL     1     -10.505  11.556  -5.245  1.00  0.00     0.131 A 
ATOM     86  C   UNL     1     -12.813  10.035  -5.360  1.00  0.00     0.055 A 
ATOM     87  C   UNL     1     -11.749  12.184  -5.174  1.00  0.00     0.041 A 
ATOM     88  F   UNL     1      -9.413  12.336  -5.214  1.00  0.00    -0.206 F 
ATOM     89  C   UNL     1     -12.913  11.424  -5.244  1.00  0.00     0.022 A 
BRANCH  86  90
ATOM     90  S   UNL     1     -14.311   9.036  -5.588  1.00  0.00     0.124 S 
ATOM     91  O   UNL     1     -14.062   8.407  -6.881  1.00  0.00    -0.237 OA
ATOM     92  O   UNL     1     -14.276   8.150  -4.430  1.00  0.00    -0.237 OA
ATOM     93  O   UNL     1     -15.388  10.025  -5.578  1.00  0.00    -0.744 OA
ENDBRANCH  86  90
ENDBRANCH  60  83
ENDBRANCH  34  35
ENDBRANCH  27  29
ENDBRANCH  26  27
ENDBRANCH  25  26
ENDBRANCH  24  25
ENDBRANCH  23  24
ENDBRANCH  22  23
ENDBRANCH   1  22
TORSDOF 23
