REMARK SMILES Cc1ccc(S(=O)(=O)n2cc(C(=O)C(=O)N[C@@H](Cc3c[nH]c4ccccc34)C(=O)NCC(=O)OCCOCCOC(=O)c3ccc(-c4c5nc(c(-c6cc(S(=O)(=O)[O-])ccc6F)c6ccc([nH]6)c(-c6cc(S(=O)(=O)[O-])ccc6F)c6nc(c(-c7cc(S(=O)(=O)[O-])ccc7F)c7ccc4[nH]7)C=C6)C=C5)cc3)c3ccccc32)cc1
REMARK SMILES IDX 35 1 34 2 32 3 33 4 31 5 30 6 28 7 29 8 17 10 16 11 14 12
REMARK SMILES IDX 15 13 12 15 13 16 11 17 9 18 10 19 111 20 106 21 110 22
REMARK SMILES IDX 107 23 109 24 108 25 6 26 7 27 8 28 5 29 1 30 2 31 3 32
REMARK SMILES IDX 113 33 4 34 112 35 18 36 19 37 20 38 27 39 21 40 22 41 26 42
REMARK SMILES IDX 23 44 25 45 24 46 36 47 37 48 38 49 39 50 40 51 41 52 42 53
REMARK SMILES IDX 43 54 44 55 105 56 45 57 104 58 46 59 47 60 48 61 98 62
REMARK SMILES IDX 49 63 103 64 97 65 99 66 50 67 102 68 96 69 95 70 51 72
REMARK SMILES IDX 83 73 63 74 82 75 64 76 67 77 81 78 100 79 65 80 66 81 80 83
REMARK SMILES IDX 101 84 68 85 52 86 53 87 61 88 54 89 60 90 62 91 59 92 55 93
REMARK SMILES IDX 56 94 57 95 58 96 84 97 85 98 93 99 86 100 92 101 94 102
REMARK SMILES IDX 91 103 87 104 88 105 89 106 90 107 69 108 70 109 78 110
REMARK SMILES IDX 71 111 77 112 79 113 76 114 72 115 73 116 74 117 75 118
REMARK H PARENT 30 9 16 14 21 43 99 71 67 82
REMARK Flexibility Score: inf
ROOT
ATOM      1  C   UNL     1     -10.674   4.840  -2.996  1.00  0.00     0.261 C 
ENDROOT
BRANCH   1   2
ATOM      2  O   UNL     1     -11.032   4.316  -1.710  1.00  0.00    -0.462 OA
BRANCH   2   3
ATOM      3  C   UNL     1     -12.249   4.719  -1.279  1.00  0.00     0.325 C 
ATOM      4  O   UNL     1     -12.550   5.868  -0.988  1.00  0.00    -0.250 OA
BRANCH   3   5
ATOM      5  C   UNL     1     -13.220   3.569  -1.278  1.00  0.00     0.238 C 
BRANCH   5   6
ATOM      6  N   UNL     1     -12.778   2.249  -1.691  1.00  0.00    -0.343 N 
ATOM      7  C   UNL     1     -12.222   1.231  -0.983  1.00  0.00     0.243 C 
ATOM      8  O   UNL     1     -12.504   0.100  -1.409  1.00  0.00    -0.273 OA
ATOM      9  H   UNL     1     -12.902   2.059  -2.649  1.00  0.00     0.164 HD
BRANCH   7  10
ATOM     10  C   UNL     1     -11.432   1.384   0.352  1.00  0.00     0.176 C 
BRANCH  10  11
ATOM     11  N   UNL     1     -10.281   2.319   0.371  1.00  0.00    -0.337 N 
ATOM     12  C   UNL     1      -8.901   2.060   0.216  1.00  0.00     0.293 C 
ATOM     13  O   UNL     1      -8.091   2.897   0.615  1.00  0.00    -0.265 OA
ATOM     14  H   UNL     1     -10.514   3.265   0.514  1.00  0.00     0.164 HD
BRANCH  12  15
ATOM     15  C   UNL     1      -8.361   0.713  -0.335  1.00  0.00     0.252 C 
ATOM     16  O   UNL     1      -9.210  -0.065  -0.778  1.00  0.00    -0.283 OA
BRANCH  15  17
ATOM     17  C   UNL     1      -6.958   0.204  -0.132  1.00  0.00     0.054 A 
ATOM     18  N   UNL     1      -4.841  -0.269   0.545  1.00  0.00    -0.240 N 
ATOM     19  C   UNL     1      -5.686   0.768   0.126  1.00  0.00     0.117 A 
ATOM     20  C   UNL     1      -5.633  -1.432   0.635  1.00  0.00     0.065 A 
ATOM     21  C   UNL     1      -6.689  -1.197  -0.230  1.00  0.00     0.012 A 
ATOM     22  C   UNL     1      -5.328  -2.732   1.091  1.00  0.00     0.028 A 
ATOM     23  C   UNL     1      -7.294  -2.304  -0.860  1.00  0.00     0.011 A 
ATOM     24  C   UNL     1      -5.888  -3.805   0.404  1.00  0.00     0.002 A 
ATOM     25  C   UNL     1      -6.820  -3.592  -0.601  1.00  0.00     0.001 A 
BRANCH  18  26
ATOM     26  S   UNL     1      -3.205  -0.717   0.174  1.00  0.00     0.268 S 
ATOM     27  O   UNL     1      -3.374  -1.450  -1.076  1.00  0.00    -0.201 OA
ATOM     28  O   UNL     1      -2.877  -1.439   1.406  1.00  0.00    -0.201 OA
BRANCH  26  29
ATOM     29  C   UNL     1      -1.640   0.044  -0.065  1.00  0.00     0.088 A 
ATOM     30  C   UNL     1       2.657   0.673  -0.050  1.00  0.00     0.044 C 
ATOM     31  C   UNL     1       1.165   0.509  -0.123  1.00  0.00    -0.051 A 
ATOM     32  C   UNL     1       0.690  -0.777  -0.301  1.00  0.00     0.005 A 
ATOM     33  C   UNL     1       0.230   1.561   0.037  1.00  0.00     0.005 A 
ATOM     34  C   UNL     1      -0.676  -0.989  -0.287  1.00  0.00     0.022 A 
ATOM     35  C   UNL     1      -1.182   1.339   0.076  1.00  0.00     0.022 A 
ENDBRANCH  26  29
ENDBRANCH  18  26
ENDBRANCH  15  17
ENDBRANCH  12  15
ENDBRANCH  10  11
BRANCH  10  36
ATOM     36  C   UNL     1     -12.314   1.426   1.644  1.00  0.00     0.072 C 
BRANCH  36  37
ATOM     37  C   UNL     1     -13.352   2.502   1.813  1.00  0.00    -0.020 A 
ATOM     38  C   UNL     1     -14.720   2.371   1.612  1.00  0.00     0.087 A 
ATOM     39  C   UNL     1     -13.143   3.869   2.193  1.00  0.00     0.003 A 
ATOM     40  N   UNL     1     -15.294   3.615   1.687  1.00  0.00    -0.361 N 
ATOM     41  C   UNL     1     -14.336   4.560   1.954  1.00  0.00     0.046 A 
ATOM     42  C   UNL     1     -12.028   4.601   2.621  1.00  0.00     0.010 A 
ATOM     43  H   UNL     1     -16.253   3.803   1.566  1.00  0.00     0.166 HD
ATOM     44  C   UNL     1     -14.426   5.958   1.959  1.00  0.00     0.026 A 
ATOM     45  C   UNL     1     -12.146   5.985   2.744  1.00  0.00     0.001 A 
ATOM     46  C   UNL     1     -13.292   6.664   2.342  1.00  0.00     0.002 A 
ENDBRANCH  36  37
ENDBRANCH  10  36
ENDBRANCH   7  10
ENDBRANCH   5   6
ENDBRANCH   3   5
ENDBRANCH   2   3
ENDBRANCH   1   2
BRANCH   1  47
ATOM     47  C   UNL     1     -11.650   4.500  -4.093  1.00  0.00     0.202 C 
BRANCH  47  48
ATOM     48  O   UNL     1     -12.812   5.288  -3.831  1.00  0.00    -0.374 OA
BRANCH  48  49
ATOM     49  C   UNL     1     -13.924   5.087  -4.676  1.00  0.00     0.202 C 
BRANCH  49  50
ATOM     50  C   UNL     1     -13.634   5.427  -6.138  1.00  0.00     0.261 C 
BRANCH  50  51
ATOM     51  O   UNL     1     -13.337   6.833  -6.266  1.00  0.00    -0.460 OA
BRANCH  51  52
ATOM     52  C   UNL     1     -12.018   7.141  -6.393  1.00  0.00     0.338 C 
ATOM     53  O   UNL     1     -11.288   6.732  -7.289  1.00  0.00    -0.246 OA
BRANCH  52  54
ATOM     54  C   UNL     1     -11.551   7.902  -5.204  1.00  0.00     0.060 A 
ATOM     55  C   UNL     1     -10.174   8.070  -4.962  1.00  0.00     0.016 A 
ATOM     56  C   UNL     1     -12.475   8.198  -4.204  1.00  0.00     0.016 A 
ATOM     57  C   UNL     1      -9.721   8.382  -3.673  1.00  0.00     0.010 A 
ATOM     58  C   UNL     1     -12.020   8.390  -2.921  1.00  0.00     0.010 A 
ATOM     59  C   UNL     1     -10.646   8.443  -2.637  1.00  0.00    -0.014 A 
BRANCH  59  60
ATOM     60  C   UNL     1     -10.356   8.515  -1.204  1.00  0.00     0.031 A 
ATOM     61  C   UNL     1     -10.964   9.662  -0.492  1.00  0.00     0.074 A 
ATOM     62  C   UNL     1      -9.854   7.457  -0.522  1.00  0.00     0.049 A 
ATOM     63  N   UNL     1     -11.183   9.699   0.767  1.00  0.00    -0.248 NA
ATOM     64  C   UNL     1     -11.464  10.855  -1.178  1.00  0.00     0.031 C 
ATOM     65  C   UNL     1      -9.874   7.222   0.917  1.00  0.00     0.029 A 
ATOM     66  N   UNL     1      -9.149   6.345  -0.992  1.00  0.00    -0.354 N 
ATOM     67  C   UNL     1     -11.878  10.836   1.073  1.00  0.00     0.074 A 
ATOM     68  C   UNL     1     -12.092  11.497  -0.186  1.00  0.00     0.031 C 
ATOM     69  C   UNL     1      -9.035   6.224   1.244  1.00  0.00     0.029 A 
ATOM     70  C   UNL     1      -8.289   5.931   0.039  1.00  0.00     0.049 A 
ATOM     71  H   UNL     1      -9.238   5.930  -1.880  1.00  0.00     0.167 HD
ATOM     72  C   UNL     1     -12.167  11.042   2.384  1.00  0.00     0.034 A 
ATOM     73  C   UNL     1      -6.946   6.086  -0.103  1.00  0.00     0.034 A 
ATOM     74  C   UNL     1     -11.205  10.283   3.209  1.00  0.00     0.049 A 
ATOM     75  C   UNL     1      -6.547   7.137   0.921  1.00  0.00     0.074 A 
ATOM     76  C   UNL     1     -11.272   9.243   4.115  1.00  0.00     0.029 A 
ATOM     77  N   UNL     1      -9.838  10.440   2.916  1.00  0.00    -0.354 N 
ATOM     78  N   UNL     1      -7.254   8.212   1.220  1.00  0.00    -0.248 NA
ATOM     79  C   UNL     1      -5.539   6.813   1.928  1.00  0.00     0.031 C 
ATOM     80  C   UNL     1      -9.954   8.690   4.237  1.00  0.00     0.029 A 
ATOM     81  C   UNL     1      -9.075   9.415   3.438  1.00  0.00     0.049 A 
ATOM     82  H   UNL     1      -9.469  11.192   2.399  1.00  0.00     0.167 HD
ATOM     83  C   UNL     1      -6.931   8.597   2.505  1.00  0.00     0.074 A 
ATOM     84  C   UNL     1      -5.830   7.710   2.882  1.00  0.00     0.031 C 
ATOM     85  C   UNL     1      -7.618   9.439   3.346  1.00  0.00     0.034 A 
BRANCH  72  86
ATOM     86  C   UNL     1     -13.342  11.841   2.910  1.00  0.00     0.023 A 
ATOM     87  C   UNL     1     -13.645  11.784   4.288  1.00  0.00     0.031 A 
ATOM     88  C   UNL     1     -14.280  12.555   2.128  1.00  0.00     0.131 A 
ATOM     89  C   UNL     1     -14.805  12.393   4.817  1.00  0.00     0.055 A 
ATOM     90  C   UNL     1     -15.407  13.198   2.661  1.00  0.00     0.041 A 
ATOM     91  F   UNL     1     -14.196  12.640   0.797  1.00  0.00    -0.206 F 
ATOM     92  C   UNL     1     -15.680  13.115   4.013  1.00  0.00     0.022 A 
BRANCH  89  93
ATOM     93  S   UNL     1     -15.194  12.184   6.577  1.00  0.00     0.124 S 
ATOM     94  O   UNL     1     -15.419  10.746   6.671  1.00  0.00    -0.237 OA
ATOM     95  O   UNL     1     -13.992  12.696   7.225  1.00  0.00    -0.237 OA
ATOM     96  O   UNL     1     -16.389  13.007   6.761  1.00  0.00    -0.744 OA
ENDBRANCH  89  93
ENDBRANCH  72  86
BRANCH  73  97
ATOM     97  C   UNL     1      -6.524   5.798  -1.516  1.00  0.00     0.023 A 
ATOM     98  C   UNL     1      -6.733   4.463  -1.973  1.00  0.00     0.031 A 
ATOM     99  C   UNL     1      -6.441   6.788  -2.500  1.00  0.00     0.131 A 
ATOM    100  C   UNL     1      -7.036   4.185  -3.321  1.00  0.00     0.055 A 
ATOM    101  C   UNL     1      -6.694   6.497  -3.856  1.00  0.00     0.041 A 
ATOM    102  F   UNL     1      -6.272   8.074  -2.163  1.00  0.00    -0.206 F 
ATOM    103  C   UNL     1      -7.047   5.209  -4.263  1.00  0.00     0.022 A 
BRANCH 100 104
ATOM    104  S   UNL     1      -7.755   2.559  -3.763  1.00  0.00     0.124 S 
ATOM    105  O   UNL     1      -6.570   1.721  -3.877  1.00  0.00    -0.237 OA
ATOM    106  O   UNL     1      -8.620   2.281  -2.622  1.00  0.00    -0.237 OA
ATOM    107  O   UNL     1      -8.477   2.830  -5.005  1.00  0.00    -0.744 OA
ENDBRANCH 100 104
ENDBRANCH  73  97
BRANCH  85 108
ATOM    108  C   UNL     1      -6.864  10.333   4.306  1.00  0.00     0.023 A 
ATOM    109  C   UNL     1      -5.467  10.387   4.306  1.00  0.00     0.031 A 
ATOM    110  C   UNL     1      -7.514  11.257   5.157  1.00  0.00     0.131 A 
ATOM    111  C   UNL     1      -4.769  11.207   5.193  1.00  0.00     0.055 A 
ATOM    112  C   UNL     1      -6.816  12.152   5.971  1.00  0.00     0.041 A 
ATOM    113  F   UNL     1      -8.849  11.364   5.215  1.00  0.00    -0.206 F 
ATOM    114  C   UNL     1      -5.430  12.116   6.010  1.00  0.00     0.022 A 
BRANCH 111 115
ATOM    115  S   UNL     1      -2.984  10.963   5.292  1.00  0.00     0.124 S 
ATOM    116  O   UNL     1      -2.903   9.598   5.807  1.00  0.00    -0.237 OA
ATOM    117  O   UNL     1      -2.562  11.139   3.906  1.00  0.00    -0.237 OA
ATOM    118  O   UNL     1      -2.548  12.007   6.215  1.00  0.00    -0.744 OA
ENDBRANCH 111 115
ENDBRANCH  85 108
ENDBRANCH  59  60
ENDBRANCH  52  54
ENDBRANCH  51  52
ENDBRANCH  50  51
ENDBRANCH  49  50
ENDBRANCH  48  49
ENDBRANCH  47  48
ENDBRANCH   1  47
TORSDOF 26
