REMARK SMILES Cc1cc(C)c2c(c1)C=C(C(=O)OCCOCCOC(=O)c1ccc(-c3c4nc(c(-c5cc(S(=O)(=O)[O-])ccc5F)c5ccc([nH]5)c(-c5cc(S(=O)(=O)[O-])ccc5F)c5nc(c(-c6cc(S(=O)(=O)[O-])ccc6F)c6ccc3[nH]6)C=C5)C=C4)cc1)[C@@H](C(F)(F)F)O2
REMARK SMILES IDX 17 1 16 2 15 3 14 4 13 5 11 6 12 7 10 8 1 9 2 10 3 11 8 12
REMARK SMILES IDX 4 13 7 14 5 15 6 16 9 17 90 18 85 19 86 20 87 21 88 22 89 23
REMARK SMILES IDX 18 24 19 25 20 26 21 27 22 28 23 29 84 30 24 31 83 32 25 33
REMARK SMILES IDX 26 34 27 35 77 36 28 37 82 38 76 39 78 40 29 41 81 42 75 43
REMARK SMILES IDX 74 44 30 46 62 47 42 48 61 49 43 50 46 51 60 52 79 53 44 54
REMARK SMILES IDX 45 55 59 57 80 58 47 59 31 60 32 61 40 62 33 63 39 64 41 65
REMARK SMILES IDX 38 66 34 67 35 68 36 69 37 70 63 71 64 72 72 73 65 74 71 75
REMARK SMILES IDX 73 76 70 77 66 78 67 79 68 80 69 81 48 82 49 83 57 84 50 85
REMARK SMILES IDX 56 86 58 87 55 88 51 89 52 90 53 91 54 92
REMARK H PARENT 78 45 46 56
REMARK Flexibility Score: inf
ROOT
ATOM      1  C   UNL     1      -1.836  -2.759   6.925  1.00  0.00     0.202 C 
ENDROOT
BRANCH   1   2
ATOM      2  O   UNL     1      -3.179  -2.735   7.413  1.00  0.00    -0.374 OA
BRANCH   2   3
ATOM      3  C   UNL     1      -3.888  -3.971   7.474  1.00  0.00     0.202 C 
BRANCH   3   4
ATOM      4  C   UNL     1      -4.465  -4.505   6.159  1.00  0.00     0.261 C 
BRANCH   4   5
ATOM      5  O   UNL     1      -3.458  -4.630   5.143  1.00  0.00    -0.460 OA
BRANCH   5   6
ATOM      6  C   UNL     1      -3.574  -3.747   4.125  1.00  0.00     0.338 C 
ATOM      7  O   UNL     1      -4.486  -2.956   3.938  1.00  0.00    -0.246 OA
BRANCH   6   8
ATOM      8  C   UNL     1      -2.349  -3.767   3.303  1.00  0.00     0.087 C 
ATOM      9  C   UNL     1       1.088   0.060  -0.072  1.00  0.00     0.044 C 
ATOM     10  C   UNL     1       0.671  -1.249   0.527  1.00  0.00    -0.050 A 
ATOM     11  C   UNL     1       1.248  -2.446   0.086  1.00  0.00     0.010 A 
ATOM     12  C   UNL     1      -0.349  -1.300   1.481  1.00  0.00     0.015 A 
ATOM     13  C   UNL     1       0.839  -3.684   0.611  1.00  0.00    -0.008 A 
ATOM     14  C   UNL     1      -0.777  -2.528   1.999  1.00  0.00     0.018 A 
ATOM     15  C   UNL     1       1.456  -4.956   0.102  1.00  0.00     0.048 C 
ATOM     16  C   UNL     1      -0.168  -3.715   1.587  1.00  0.00     0.130 A 
ATOM     17  C   UNL     1      -1.905  -2.568   2.909  1.00  0.00     0.027 C 
ATOM     18  O   UNL     1      -0.506  -4.939   2.097  1.00  0.00    -0.475 OA
ATOM     19  C   UNL     1      -1.691  -5.067   2.934  1.00  0.00     0.316 C 
BRANCH  19  20
ATOM     20  C   UNL     1      -2.655  -6.045   2.247  1.00  0.00     0.430 C 
ATOM     21  F   UNL     1      -2.019  -7.183   1.879  1.00  0.00    -0.167 F 
ATOM     22  F   UNL     1      -3.670  -6.411   3.063  1.00  0.00    -0.167 F 
ATOM     23  F   UNL     1      -3.205  -5.510   1.132  1.00  0.00    -0.167 F 
ENDBRANCH  19  20
ENDBRANCH   6   8
ENDBRANCH   5   6
ENDBRANCH   4   5
ENDBRANCH   3   4
ENDBRANCH   2   3
ENDBRANCH   1   2
BRANCH   1  24
ATOM     24  C   UNL     1      -0.767  -3.413   7.809  1.00  0.00     0.261 C 
BRANCH  24  25
ATOM     25  O   UNL     1      -0.933  -4.840   7.901  1.00  0.00    -0.460 OA
BRANCH  25  26
ATOM     26  C   UNL     1      -1.202  -5.300   9.147  1.00  0.00     0.338 C 
ATOM     27  O   UNL     1      -1.254  -4.644  10.178  1.00  0.00    -0.246 OA
BRANCH  26  28
ATOM     28  C   UNL     1      -1.630  -6.708   9.079  1.00  0.00     0.060 A 
ATOM     29  C   UNL     1      -2.916  -7.021   9.537  1.00  0.00     0.016 A 
ATOM     30  C   UNL     1      -0.758  -7.714   8.659  1.00  0.00     0.016 A 
ATOM     31  C   UNL     1      -3.322  -8.351   9.613  1.00  0.00     0.010 A 
ATOM     32  C   UNL     1      -1.164  -9.050   8.750  1.00  0.00     0.010 A 
ATOM     33  C   UNL     1      -2.434  -9.375   9.259  1.00  0.00    -0.014 A 
BRANCH  33  34
ATOM     34  C   UNL     1      -2.786 -10.777   9.587  1.00  0.00     0.031 A 
ATOM     35  C   UNL     1      -2.249 -11.379  10.858  1.00  0.00     0.074 A 
ATOM     36  C   UNL     1      -3.628 -11.478   8.806  1.00  0.00     0.049 A 
ATOM     37  N   UNL     1      -2.430 -12.577  11.348  1.00  0.00    -0.248 NA
ATOM     38  C   UNL     1      -1.399 -10.510  11.689  1.00  0.00     0.031 C 
ATOM     39  C   UNL     1      -4.262 -10.976   7.588  1.00  0.00     0.029 A 
ATOM     40  N   UNL     1      -4.107 -12.758   8.932  1.00  0.00    -0.354 N 
ATOM     41  C   UNL     1      -1.728 -12.604  12.548  1.00  0.00     0.074 A 
ATOM     42  C   UNL     1      -1.083 -11.317  12.691  1.00  0.00     0.031 C 
ATOM     43  C   UNL     1      -5.057 -11.936   7.083  1.00  0.00     0.029 A 
ATOM     44  C   UNL     1      -4.961 -13.130   7.921  1.00  0.00     0.049 A 
ATOM     45  H   UNL     1      -3.861 -13.354   9.676  1.00  0.00     0.167 HD
ATOM     46  C   UNL     1      -1.644 -13.605  13.455  1.00  0.00     0.034 A 
ATOM     47  C   UNL     1      -5.583 -14.305   7.692  1.00  0.00     0.034 A 
ATOM     48  C   UNL     1      -2.288 -14.884  13.304  1.00  0.00     0.049 A 
ATOM     49  C   UNL     1      -5.375 -15.447   8.656  1.00  0.00     0.074 A 
ATOM     50  C   UNL     1      -2.269 -15.963  14.169  1.00  0.00     0.029 A 
ATOM     51  N   UNL     1      -3.059 -15.259  12.213  1.00  0.00    -0.354 N 
ATOM     52  N   UNL     1      -4.690 -15.465   9.776  1.00  0.00    -0.248 NA
ATOM     53  C   UNL     1      -6.012 -16.728   8.320  1.00  0.00     0.031 C 
ATOM     54  C   UNL     1      -2.976 -17.012  13.573  1.00  0.00     0.029 A 
ATOM     55  C   UNL     1      -3.489 -16.566  12.365  1.00  0.00     0.049 A 
ATOM     56  H   UNL     1      -3.270 -14.680  11.445  1.00  0.00     0.167 HD
ATOM     57  C   UNL     1      -4.825 -16.754  10.284  1.00  0.00     0.074 A 
ATOM     58  C   UNL     1      -5.665 -17.483   9.355  1.00  0.00     0.031 C 
ATOM     59  C   UNL     1      -4.306 -17.285  11.418  1.00  0.00     0.034 A 
BRANCH  46  60
ATOM     60  C   UNL     1      -0.800 -13.368  14.679  1.00  0.00     0.023 A 
ATOM     61  C   UNL     1      -1.194 -12.459  15.675  1.00  0.00     0.031 A 
ATOM     62  C   UNL     1       0.404 -14.071  14.858  1.00  0.00     0.131 A 
ATOM     63  C   UNL     1      -0.370 -12.248  16.790  1.00  0.00     0.055 A 
ATOM     64  C   UNL     1       1.190 -13.900  15.998  1.00  0.00     0.041 A 
ATOM     65  F   UNL     1       0.834 -14.935  13.925  1.00  0.00    -0.206 F 
ATOM     66  C   UNL     1       0.807 -12.979  16.970  1.00  0.00     0.022 A 
BRANCH  63  67
ATOM     67  S   UNL     1      -0.818 -10.945  17.969  1.00  0.00     0.124 S 
ATOM     68  O   UNL     1      -0.706  -9.748  17.140  1.00  0.00    -0.237 OA
ATOM     69  O   UNL     1      -2.170 -11.325  18.363  1.00  0.00    -0.237 OA
ATOM     70  O   UNL     1       0.193 -11.069  19.017  1.00  0.00    -0.744 OA
ENDBRANCH  63  67
ENDBRANCH  46  60
BRANCH  47  71
ATOM     71  C   UNL     1      -6.433 -14.479   6.482  1.00  0.00     0.023 A 
ATOM     72  C   UNL     1      -7.820 -14.660   6.590  1.00  0.00     0.031 A 
ATOM     73  C   UNL     1      -5.862 -14.484   5.196  1.00  0.00     0.131 A 
ATOM     74  C   UNL     1      -8.590 -14.861   5.433  1.00  0.00     0.055 A 
ATOM     75  C   UNL     1      -6.637 -14.646   4.047  1.00  0.00     0.041 A 
ATOM     76  F   UNL     1      -4.540 -14.316   5.040  1.00  0.00    -0.206 F 
ATOM     77  C   UNL     1      -8.009 -14.842   4.162  1.00  0.00     0.022 A 
BRANCH  74  78
ATOM     78  S   UNL     1     -10.366 -15.182   5.613  1.00  0.00     0.124 S 
ATOM     79  O   UNL     1     -10.366 -16.454   6.326  1.00  0.00    -0.237 OA
ATOM     80  O   UNL     1     -10.812 -14.019   6.372  1.00  0.00    -0.237 OA
ATOM     81  O   UNL     1     -10.842 -15.240   4.232  1.00  0.00    -0.744 OA
ENDBRANCH  74  78
ENDBRANCH  47  71
BRANCH  59  82
ATOM     82  C   UNL     1      -4.625 -18.722  11.728  1.00  0.00     0.023 A 
ATOM     83  C   UNL     1      -4.031 -19.771  11.007  1.00  0.00     0.031 A 
ATOM     84  C   UNL     1      -5.475 -19.047  12.800  1.00  0.00     0.131 A 
ATOM     85  C   UNL     1      -4.308 -21.100  11.357  1.00  0.00     0.055 A 
ATOM     86  C   UNL     1      -5.713 -20.370  13.171  1.00  0.00     0.041 A 
ATOM     87  F   UNL     1      -6.061 -18.079  13.523  1.00  0.00    -0.206 F 
ATOM     88  C   UNL     1      -5.130 -21.406  12.445  1.00  0.00     0.022 A 
BRANCH  85  89
ATOM     89  S   UNL     1      -3.588 -22.433  10.361  1.00  0.00     0.124 S 
ATOM     90  O   UNL     1      -4.258 -22.247   9.078  1.00  0.00    -0.237 OA
ATOM     91  O   UNL     1      -2.164 -22.116  10.387  1.00  0.00    -0.237 OA
ATOM     92  O   UNL     1      -3.963 -23.645  11.086  1.00  0.00    -0.744 OA
ENDBRANCH  85  89
ENDBRANCH  59  82
ENDBRANCH  33  34
ENDBRANCH  26  28
ENDBRANCH  25  26
ENDBRANCH  24  25
ENDBRANCH   1  24
TORSDOF 18
