REMARK SMILES CC[C@@](C)(NC(=O)Nc1c(C)cccc1Cl)C(=O)OCCOCCOC(=O)c1ccc(-c2c3nc(c(-c4cc(S(=O)(=O)[O-])ccc4F)c4ccc([nH]4)c(-c4cc(S(=O)(=O)[O-])ccc4F)c4nc(c(-c5cc(S(=O)(=O)[O-])ccc5F)c5ccc2[nH]5)C=C4)C=C3)cc1
REMARK SMILES IDX 23 1 22 2 21 3 20 4 19 5 17 6 18 7 3 8 4 9 2 10 1 11 5 12
REMARK SMILES IDX 6 13 7 15 8 16 9 18 10 19 15 20 11 21 12 22 14 23 16 24
REMARK SMILES IDX 13 25 24 26 25 27 26 28 27 29 28 30 29 31 90 32 30 33 89 34
REMARK SMILES IDX 31 35 32 36 33 37 83 38 34 39 88 40 82 41 84 42 35 43 87 44
REMARK SMILES IDX 81 45 80 46 36 48 68 49 48 50 67 51 49 52 52 53 66 54 85 55
REMARK SMILES IDX 50 56 51 57 65 59 86 60 53 61 37 62 38 63 46 64 39 65 45 66
REMARK SMILES IDX 47 67 44 68 40 69 41 70 42 71 43 72 69 73 70 74 78 75 71 76
REMARK SMILES IDX 77 77 79 78 76 79 72 80 73 81 74 82 75 83 54 84 55 85 63 86
REMARK SMILES IDX 56 87 62 88 64 89 61 90 57 91 58 92 59 93 60 94
REMARK H PARENT 5 14 8 17 84 47 52 58
REMARK Flexibility Score: inf
ROOT
ATOM      1  C   UNL     1       5.259   4.190   0.193  1.00  0.00     0.202 C 
ENDROOT
BRANCH   1   2
ATOM      2  O   UNL     1       4.443   4.284  -0.974  1.00  0.00    -0.374 OA
BRANCH   2   3
ATOM      3  C   UNL     1       4.836   3.586  -2.148  1.00  0.00     0.202 C 
BRANCH   3   4
ATOM      4  C   UNL     1       3.744   3.841  -3.235  1.00  0.00     0.261 C 
BRANCH   4   5
ATOM      5  O   UNL     1       2.426   3.473  -2.712  1.00  0.00    -0.462 OA
BRANCH   5   6
ATOM      6  C   UNL     1       1.426   2.693  -3.245  1.00  0.00     0.331 C 
ATOM      7  O   UNL     1       1.443   2.267  -4.391  1.00  0.00    -0.249 OA
BRANCH   6   8
ATOM      8  C   UNL     1       0.230   2.409  -2.182  1.00  0.00     0.136 C 
ATOM      9  C   UNL     1      -1.053   2.570  -3.031  1.00  0.00     0.047 C 
BRANCH   8  10
ATOM     10  C   UNL     1      -0.129   1.262  -1.155  1.00  0.00     0.037 C 
ATOM     11  C   UNL     1       0.055  -0.217  -1.373  1.00  0.00     0.007 C 
ENDBRANCH   8  10
BRANCH   8  12
ATOM     12  N   UNL     1       0.469   3.510  -1.290  1.00  0.00    -0.322 N 
ATOM     13  C   UNL     1       1.472   3.570  -0.379  1.00  0.00     0.320 C 
ATOM     14  H   UNL     1      -0.143   4.279  -1.344  1.00  0.00     0.166 HD
ATOM     15  O   UNL     1       1.493   4.558   0.329  1.00  0.00    -0.248 OA
ATOM     16  N   UNL     1       2.354   2.571  -0.111  1.00  0.00    -0.306 N 
ATOM     17  H   UNL     1       2.752   2.867   0.740  1.00  0.00     0.171 HD
BRANCH  16  18
ATOM     18  C   UNL     1       3.047   1.318  -0.356  1.00  0.00     0.064 A 
ATOM     19  C   UNL     1       3.377   0.485  -1.486  1.00  0.00    -0.026 A 
ATOM     20  C   UNL     1       3.620   0.860   0.883  1.00  0.00     0.064 A 
ATOM     21  C   UNL     1       3.084   0.553  -2.963  1.00  0.00     0.046 C 
ATOM     22  C   UNL     1       4.213  -0.662  -1.293  1.00  0.00     0.005 A 
ATOM     23  C   UNL     1       4.465  -0.247   1.013  1.00  0.00     0.023 A 
ATOM     24  Cl  UNL     1       3.272   1.677   2.394  1.00  0.00    -0.082 Cl
ATOM     25  C   UNL     1       4.769  -1.012  -0.084  1.00  0.00     0.002 A 
ENDBRANCH  16  18
ENDBRANCH   8  12
ENDBRANCH   6   8
ENDBRANCH   5   6
ENDBRANCH   4   5
ENDBRANCH   3   4
ENDBRANCH   2   3
ENDBRANCH   1   2
BRANCH   1  26
ATOM     26  C   UNL     1       4.676   5.221   1.187  1.00  0.00     0.261 C 
BRANCH  26  27
ATOM     27  O   UNL     1       4.441   6.466   0.496  1.00  0.00    -0.460 OA
BRANCH  27  28
ATOM     28  C   UNL     1       5.592   6.978   0.016  1.00  0.00     0.338 C 
ATOM     29  O   UNL     1       6.663   6.980   0.626  1.00  0.00    -0.246 OA
BRANCH  28  30
ATOM     30  C   UNL     1       5.501   7.173  -1.448  1.00  0.00     0.060 A 
ATOM     31  C   UNL     1       6.591   6.718  -2.206  1.00  0.00     0.016 A 
ATOM     32  C   UNL     1       4.407   7.767  -2.082  1.00  0.00     0.016 A 
ATOM     33  C   UNL     1       6.647   6.947  -3.577  1.00  0.00     0.010 A 
ATOM     34  C   UNL     1       4.475   8.026  -3.458  1.00  0.00     0.010 A 
ATOM     35  C   UNL     1       5.625   7.675  -4.195  1.00  0.00    -0.014 A 
BRANCH  35  36
ATOM     36  C   UNL     1       5.924   8.357  -5.480  1.00  0.00     0.031 A 
ATOM     37  C   UNL     1       6.485   9.754  -5.400  1.00  0.00     0.074 A 
ATOM     38  C   UNL     1       5.761   7.769  -6.677  1.00  0.00     0.049 A 
ATOM     39  N   UNL     1       6.760  10.602  -6.356  1.00  0.00    -0.248 NA
ATOM     40  C   UNL     1       6.772  10.255  -4.046  1.00  0.00     0.031 C 
ATOM     41  C   UNL     1       5.308   6.399  -6.896  1.00  0.00     0.029 A 
ATOM     42  N   UNL     1       5.950   8.272  -7.942  1.00  0.00    -0.354 N 
ATOM     43  C   UNL     1       7.237  11.742  -5.718  1.00  0.00     0.074 A 
ATOM     44  C   UNL     1       7.189  11.484  -4.296  1.00  0.00     0.031 C 
ATOM     45  C   UNL     1       5.217   6.181  -8.221  1.00  0.00     0.029 A 
ATOM     46  C   UNL     1       5.564   7.409  -8.940  1.00  0.00     0.049 A 
ATOM     47  H   UNL     1       6.327   9.165  -8.117  1.00  0.00     0.167 HD
ATOM     48  C   UNL     1       7.674  12.903  -6.265  1.00  0.00     0.034 A 
ATOM     49  C   UNL     1       5.454   7.605 -10.271  1.00  0.00     0.034 A 
ATOM     50  C   UNL     1       7.691  13.164  -7.681  1.00  0.00     0.049 A 
ATOM     51  C   UNL     1       5.830   8.946 -10.861  1.00  0.00     0.074 A 
ATOM     52  C   UNL     1       8.118  14.302  -8.342  1.00  0.00     0.029 A 
ATOM     53  N   UNL     1       7.237  12.284  -8.656  1.00  0.00    -0.354 N 
ATOM     54  N   UNL     1       6.274  10.023 -10.254  1.00  0.00    -0.248 NA
ATOM     55  C   UNL     1       5.689   9.097 -12.317  1.00  0.00     0.031 C 
ATOM     56  C   UNL     1       7.845  14.143  -9.705  1.00  0.00     0.029 A 
ATOM     57  C   UNL     1       7.332  12.871  -9.908  1.00  0.00     0.049 A 
ATOM     58  H   UNL     1       6.898  11.376  -8.482  1.00  0.00     0.167 HD
ATOM     59  C   UNL     1       6.490  10.967 -11.257  1.00  0.00     0.074 A 
ATOM     60  C   UNL     1       6.129  10.334 -12.508  1.00  0.00     0.031 C 
ATOM     61  C   UNL     1       6.959  12.238 -11.152  1.00  0.00     0.034 A 
BRANCH  48  62
ATOM     62  C   UNL     1       8.078  13.997  -5.306  1.00  0.00     0.023 A 
ATOM     63  C   UNL     1       9.158  13.846  -4.417  1.00  0.00     0.031 A 
ATOM     64  C   UNL     1       7.318  15.176  -5.226  1.00  0.00     0.131 A 
ATOM     65  C   UNL     1       9.386  14.813  -3.427  1.00  0.00     0.055 A 
ATOM     66  C   UNL     1       7.607  16.176  -4.296  1.00  0.00     0.041 A 
ATOM     67  F   UNL     1       6.259  15.364  -6.030  1.00  0.00    -0.206 F 
ATOM     68  C   UNL     1       8.633  15.988  -3.375  1.00  0.00     0.022 A 
BRANCH  65  69
ATOM     69  S   UNL     1      10.556  14.427  -2.094  1.00  0.00     0.124 S 
ATOM     70  O   UNL     1      10.023  13.164  -1.587  1.00  0.00    -0.237 OA
ATOM     71  O   UNL     1      11.826  14.344  -2.805  1.00  0.00    -0.237 OA
ATOM     72  O   UNL     1      10.422  15.560  -1.182  1.00  0.00    -0.744 OA
ENDBRANCH  65  69
ENDBRANCH  48  62
BRANCH  49  73
ATOM     73  C   UNL     1       4.879   6.533 -11.133  1.00  0.00     0.023 A 
ATOM     74  C   UNL     1       5.641   5.887 -12.119  1.00  0.00     0.031 A 
ATOM     75  C   UNL     1       3.527   6.166 -10.996  1.00  0.00     0.131 A 
ATOM     76  C   UNL     1       5.037   4.927 -12.948  1.00  0.00     0.055 A 
ATOM     77  C   UNL     1       2.945   5.179 -11.791  1.00  0.00     0.041 A 
ATOM     78  F   UNL     1       2.753   6.758 -10.072  1.00  0.00    -0.206 F 
ATOM     79  C   UNL     1       3.700   4.558 -12.781  1.00  0.00     0.022 A 
BRANCH  76  80
ATOM     80  S   UNL     1       6.012   4.195 -14.292  1.00  0.00     0.124 S 
ATOM     81  O   UNL     1       6.305   5.362 -15.116  1.00  0.00    -0.237 OA
ATOM     82  O   UNL     1       7.142   3.619 -13.570  1.00  0.00    -0.237 OA
ATOM     83  O   UNL     1       5.097   3.223 -14.887  1.00  0.00    -0.744 OA
ENDBRANCH  76  80
ENDBRANCH  49  73
BRANCH  61  84
ATOM     84  C   UNL     1       7.168  13.020 -12.428  1.00  0.00     0.023 A 
ATOM     85  C   UNL     1       6.096  13.471 -13.217  1.00  0.00     0.031 A 
ATOM     86  C   UNL     1       8.474  13.354 -12.835  1.00  0.00     0.131 A 
ATOM     87  C   UNL     1       6.350  14.207 -14.387  1.00  0.00     0.055 A 
ATOM     88  C   UNL     1       8.718  14.128 -13.970  1.00  0.00     0.041 A 
ATOM     89  F   UNL     1       9.536  12.948 -12.120  1.00  0.00    -0.206 F 
ATOM     90  C   UNL     1       7.653  14.553 -14.757  1.00  0.00     0.022 A 
BRANCH  87  91
ATOM     91  S   UNL     1       4.959  14.665 -15.458  1.00  0.00     0.124 S 
ATOM     92  O   UNL     1       4.412  13.361 -15.820  1.00  0.00    -0.237 OA
ATOM     93  O   UNL     1       4.134  15.479 -14.572  1.00  0.00    -0.237 OA
ATOM     94  O   UNL     1       5.594  15.394 -16.554  1.00  0.00    -0.744 OA
ENDBRANCH  87  91
ENDBRANCH  61  84
ENDBRANCH  35  36
ENDBRANCH  28  30
ENDBRANCH  27  28
ENDBRANCH  26  27
ENDBRANCH   1  26
TORSDOF 20
