REMARK SMILES [NH3+]CCOCC(=O)N[C@H](C(=O)OCCOCCOC(=O)c1ccc(-c2c3nc(c(-c4cc(S(=O)(=O)[O-])ccc4F)c4ccc([nH]4)c(-c4cc(S(=O)(=O)[O-])ccc4F)c4nc(c(-c5cc(S(=O)(=O)[O-])ccc5F)c5ccc2[nH]5)C=C4)C=C3)cc1)c1ccccc1
REMARK SMILES IDX 13 1 12 2 10 3 11 4 9 5 8 6 6 7 7 8 5 10 4 11 3 12 2 13 1 14
REMARK SMILES IDX 84 18 85 19 89 20 86 21 88 22 87 23 14 24 15 25 16 26 17 27
REMARK SMILES IDX 18 28 19 29 20 30 21 31 22 32 83 33 23 34 82 35 24 36 25 37
REMARK SMILES IDX 26 38 76 39 27 40 81 41 75 42 77 43 28 44 80 45 74 46 73 47
REMARK SMILES IDX 29 49 61 50 41 51 60 52 42 53 45 54 59 55 78 56 43 57 44 58
REMARK SMILES IDX 58 60 79 61 46 62 30 63 31 64 39 65 32 66 38 67 40 68 37 69
REMARK SMILES IDX 33 70 34 71 35 72 36 73 62 74 63 75 71 76 64 77 70 78 72 79
REMARK SMILES IDX 69 80 65 81 66 82 67 83 68 84 47 85 48 86 56 87 49 88 55 89
REMARK SMILES IDX 57 90 54 91 50 92 51 93 52 94 53 95
REMARK H PARENT 8 9 1 15 1 16 1 17 77 48 45 59
REMARK Flexibility Score: inf
ROOT
ATOM      1  C   UNL     1       6.051  -2.841   1.439  1.00  0.00     0.261 C 
ENDROOT
BRANCH   1   2
ATOM      2  O   UNL     1       5.119  -3.921   1.213  1.00  0.00    -0.461 OA
BRANCH   2   3
ATOM      3  C   UNL     1       3.971  -3.839   1.933  1.00  0.00     0.333 C 
ATOM      4  O   UNL     1       3.756  -2.953   2.756  1.00  0.00    -0.249 OA
BRANCH   3   5
ATOM      5  C   UNL     1       2.956  -4.989   1.634  1.00  0.00     0.223 C 
BRANCH   5   6
ATOM      6  N   UNL     1       3.226  -5.845   0.459  1.00  0.00    -0.337 N 
ATOM      7  C   UNL     1       3.166  -5.568  -0.872  1.00  0.00     0.246 C 
ATOM      8  O   UNL     1       3.029  -6.511  -1.655  1.00  0.00    -0.272 OA
ATOM      9  H   UNL     1       3.494  -6.768   0.675  1.00  0.00     0.164 HD
BRANCH   7  10
ATOM     10  C   UNL     1       3.282  -4.146  -1.388  1.00  0.00     0.260 C 
BRANCH  10  11
ATOM     11  O   UNL     1       2.106  -3.370  -1.279  1.00  0.00    -0.366 OA
BRANCH  11  12
ATOM     12  C   UNL     1       1.123  -3.637  -2.280  1.00  0.00     0.222 C 
BRANCH  12  13
ATOM     13  C   UNL     1       1.480  -3.104  -3.681  1.00  0.00     0.287 C 
BRANCH  13  14
ATOM     14  N   UNL     1       2.238  -4.031  -4.522  1.00  0.00    -0.356 N 
ATOM     15  H   UNL     1       2.427  -3.595  -5.424  1.00  0.00     0.344 HD
ATOM     16  H   UNL     1       1.696  -4.884  -4.663  1.00  0.00     0.344 HD
ATOM     17  H   UNL     1       3.120  -4.262  -4.064  1.00  0.00     0.344 HD
ENDBRANCH  13  14
ENDBRANCH  12  13
ENDBRANCH  11  12
ENDBRANCH  10  11
ENDBRANCH   7  10
ENDBRANCH   5   6
BRANCH   5  18
ATOM     18  C   UNL     1       2.782  -5.813   2.936  1.00  0.00    -0.014 A 
ATOM     19  C   UNL     1       2.987  -7.201   3.025  1.00  0.00     0.006 A 
ATOM     20  C   UNL     1       2.484  -5.138   4.139  1.00  0.00     0.006 A 
ATOM     21  C   UNL     1       2.979  -7.859   4.261  1.00  0.00     0.000 A 
ATOM     22  C   UNL     1       2.521  -5.786   5.376  1.00  0.00     0.000 A 
ATOM     23  C   UNL     1       2.780  -7.147   5.437  1.00  0.00     0.000 A 
ENDBRANCH   5  18
ENDBRANCH   3   5
ENDBRANCH   2   3
ENDBRANCH   1   2
BRANCH   1  24
ATOM     24  C   UNL     1       5.749  -1.641   0.535  1.00  0.00     0.202 C 
BRANCH  24  25
ATOM     25  O   UNL     1       4.725  -0.762   1.000  1.00  0.00    -0.374 OA
BRANCH  25  26
ATOM     26  C   UNL     1       3.441  -0.906   0.387  1.00  0.00     0.202 C 
BRANCH  26  27
ATOM     27  C   UNL     1       3.300  -0.294  -1.018  1.00  0.00     0.261 C 
BRANCH  27  28
ATOM     28  O   UNL     1       4.026  -1.039  -2.018  1.00  0.00    -0.460 OA
BRANCH  28  29
ATOM     29  C   UNL     1       5.195  -0.493  -2.436  1.00  0.00     0.338 C 
ATOM     30  O   UNL     1       5.648   0.596  -2.124  1.00  0.00    -0.246 OA
BRANCH  29  31
ATOM     31  C   UNL     1       5.977  -1.536  -3.138  1.00  0.00     0.060 A 
ATOM     32  C   UNL     1       7.267  -1.815  -2.671  1.00  0.00     0.016 A 
ATOM     33  C   UNL     1       5.459  -2.245  -4.222  1.00  0.00     0.016 A 
ATOM     34  C   UNL     1       8.044  -2.796  -3.290  1.00  0.00     0.010 A 
ATOM     35  C   UNL     1       6.235  -3.240  -4.833  1.00  0.00     0.010 A 
ATOM     36  C   UNL     1       7.546  -3.509  -4.389  1.00  0.00    -0.014 A 
BRANCH  36  37
ATOM     37  C   UNL     1       8.443  -4.423  -5.156  1.00  0.00     0.031 A 
ATOM     38  C   UNL     1       8.889  -4.021  -6.540  1.00  0.00     0.074 A 
ATOM     39  C   UNL     1       8.893  -5.579  -4.627  1.00  0.00     0.049 A 
ATOM     40  N   UNL     1       9.615  -4.682  -7.405  1.00  0.00    -0.248 NA
ATOM     41  C   UNL     1       8.448  -2.700  -7.011  1.00  0.00     0.031 C 
ATOM     42  C   UNL     1       8.581  -6.073  -3.286  1.00  0.00     0.029 A 
ATOM     43  N   UNL     1       9.710  -6.551  -5.156  1.00  0.00    -0.354 N 
ATOM     44  C   UNL     1       9.701  -3.867  -8.530  1.00  0.00     0.074 A 
ATOM     45  C   UNL     1       8.915  -2.684  -8.250  1.00  0.00     0.031 C 
ATOM     46  C   UNL     1       9.204  -7.250  -3.097  1.00  0.00     0.029 A 
ATOM     47  C   UNL     1       9.915  -7.625  -4.318  1.00  0.00     0.049 A 
ATOM     48  H   UNL     1      10.112  -6.485  -6.052  1.00  0.00     0.167 HD
ATOM     49  C   UNL     1      10.385  -4.073  -9.683  1.00  0.00     0.034 A 
ATOM     50  C   UNL     1      10.570  -8.789  -4.519  1.00  0.00     0.034 A 
ATOM     51  C   UNL     1      11.181  -5.245  -9.951  1.00  0.00     0.049 A 
ATOM     52  C   UNL     1      11.239  -9.043  -5.853  1.00  0.00     0.074 A 
ATOM     53  C   UNL     1      11.945  -5.526 -11.071  1.00  0.00     0.029 A 
ATOM     54  N   UNL     1      11.305  -6.338  -9.104  1.00  0.00    -0.354 N 
ATOM     55  N   UNL     1      11.328  -8.251  -6.897  1.00  0.00    -0.248 NA
ATOM     56  C   UNL     1      11.891 -10.348  -6.036  1.00  0.00     0.031 C 
ATOM     57  C   UNL     1      12.458  -6.819 -10.940  1.00  0.00     0.029 A 
ATOM     58  C   UNL     1      12.089  -7.314  -9.700  1.00  0.00     0.049 A 
ATOM     59  H   UNL     1      10.896  -6.409  -8.211  1.00  0.00     0.167 HD
ATOM     60  C   UNL     1      12.065  -8.957  -7.847  1.00  0.00     0.074 A 
ATOM     61  C   UNL     1      12.413 -10.226  -7.247  1.00  0.00     0.031 C 
ATOM     62  C   UNL     1      12.423  -8.585  -9.103  1.00  0.00     0.034 A 
BRANCH  49  63
ATOM     63  C   UNL     1      10.264  -3.025 -10.763  1.00  0.00     0.023 A 
ATOM     64  C   UNL     1      10.730  -1.712 -10.579  1.00  0.00     0.031 A 
ATOM     65  C   UNL     1       9.658  -3.342 -11.992  1.00  0.00     0.131 A 
ATOM     66  C   UNL     1      10.517  -0.748 -11.576  1.00  0.00     0.055 A 
ATOM     67  C   UNL     1       9.528  -2.401 -13.014  1.00  0.00     0.041 A 
ATOM     68  F   UNL     1       9.174  -4.574 -12.217  1.00  0.00    -0.206 F 
ATOM     69  C   UNL     1       9.945  -1.090 -12.803  1.00  0.00     0.022 A 
BRANCH  66  70
ATOM     70  S   UNL     1      10.863   0.989 -11.187  1.00  0.00     0.124 S 
ATOM     71  O   UNL     1      10.008   1.206 -10.022  1.00  0.00    -0.237 OA
ATOM     72  O   UNL     1      12.299   0.975 -10.931  1.00  0.00    -0.237 OA
ATOM     73  O   UNL     1      10.450   1.700 -12.395  1.00  0.00    -0.744 OA
ENDBRANCH  66  70
ENDBRANCH  49  63
BRANCH  50  74
ATOM     74  C   UNL     1      10.582  -9.848  -3.464  1.00  0.00     0.023 A 
ATOM     75  C   UNL     1      11.785 -10.303  -2.899  1.00  0.00     0.031 A 
ATOM     76  C   UNL     1       9.390 -10.477  -3.061  1.00  0.00     0.131 A 
ATOM     77  C   UNL     1      11.774 -11.384  -2.002  1.00  0.00     0.055 A 
ATOM     78  C   UNL     1       9.378 -11.510  -2.121  1.00  0.00     0.041 A 
ATOM     79  F   UNL     1       8.211 -10.094  -3.576  1.00  0.00    -0.206 F 
ATOM     80  C   UNL     1      10.578 -11.979  -1.596  1.00  0.00     0.022 A 
BRANCH  77  81
ATOM     81  S   UNL     1      13.359 -12.075  -1.450  1.00  0.00     0.124 S 
ATOM     82  O   UNL     1      13.974 -12.454  -2.717  1.00  0.00    -0.237 OA
ATOM     83  O   UNL     1      13.960 -10.939  -0.758  1.00  0.00    -0.237 OA
ATOM     84  O   UNL     1      12.964 -13.188  -0.590  1.00  0.00    -0.744 OA
ENDBRANCH  77  81
ENDBRANCH  50  74
BRANCH  62  85
ATOM     85  C   UNL     1      13.260  -9.551  -9.908  1.00  0.00     0.023 A 
ATOM     86  C   UNL     1      12.746 -10.781 -10.356  1.00  0.00     0.031 A 
ATOM     87  C   UNL     1      14.583  -9.224 -10.257  1.00  0.00     0.131 A 
ATOM     88  C   UNL     1      13.561 -11.653 -11.095  1.00  0.00     0.055 A 
ATOM     89  C   UNL     1      15.369 -10.068 -11.042  1.00  0.00     0.041 A 
ATOM     90  F   UNL     1      15.129  -8.065  -9.854  1.00  0.00    -0.206 F 
ATOM     91  C   UNL     1      14.862 -11.296 -11.458  1.00  0.00     0.022 A 
BRANCH  88  92
ATOM     92  S   UNL     1      12.923 -13.298 -11.519  1.00  0.00     0.124 S 
ATOM     93  O   UNL     1      12.674 -13.875 -10.202  1.00  0.00    -0.237 OA
ATOM     94  O   UNL     1      11.739 -12.980 -12.310  1.00  0.00    -0.237 OA
ATOM     95  O   UNL     1      14.020 -13.909 -12.267  1.00  0.00    -0.744 OA
ENDBRANCH  88  92
ENDBRANCH  62  85
ENDBRANCH  36  37
ENDBRANCH  29  31
ENDBRANCH  28  29
ENDBRANCH  27  28
ENDBRANCH  26  27
ENDBRANCH  25  26
ENDBRANCH  24  25
ENDBRANCH   1  24
TORSDOF 24
