REMARK SMILES O=C(OCCOCCOC(=O)[C@@H]1CCCN(C(=O)CCCc2ccc(Br)s2)C1)c1ccc(-c2c3nc(c(-c4cc(S(=O)(=O)[O-])ccc4F)c4ccc([nH]4)c(-c4cc(S(=O)(=O)[O-])ccc4F)c4nc(c(-c5cc(S(=O)(=O)[O-])ccc5F)c5ccc2[nH]5)C=C4)C=C3)cc1
REMARK SMILES IDX 7 1 6 2 5 3 4 4 3 5 2 6 1 7 29 8 30 9 91 10 31 11 90 12
REMARK SMILES IDX 32 13 33 14 34 15 84 16 35 17 89 18 83 19 85 20 36 21 88 22
REMARK SMILES IDX 82 23 81 24 37 26 69 27 49 28 68 29 50 30 53 31 67 32 86 33
REMARK SMILES IDX 51 34 52 35 66 37 87 38 54 39 38 40 39 41 47 42 40 43 46 44
REMARK SMILES IDX 48 45 45 46 41 47 42 48 43 49 44 50 70 51 71 52 79 53 72 54
REMARK SMILES IDX 78 55 80 56 77 57 73 58 74 59 75 60 76 61 55 62 56 63 64 64
REMARK SMILES IDX 57 65 63 66 65 67 62 68 58 69 59 70 60 71 61 72 8 73 9 74
REMARK SMILES IDX 10 75 11 76 12 77 13 78 28 79 14 80 16 81 15 82 17 83 18 84
REMARK SMILES IDX 19 85 20 86 21 87 22 88 23 89 27 90 24 91 25 92 26 93
REMARK H PARENT 85 25 53 36
REMARK Flexibility Score: inf
ROOT
ATOM      1  C   UNL     1       3.002  -1.524  -1.081  1.00  0.00     0.202 C 
ENDROOT
BRANCH   1   2
ATOM      2  O   UNL     1       4.387  -1.199  -0.934  1.00  0.00    -0.374 OA
BRANCH   2   3
ATOM      3  C   UNL     1       4.891  -0.871   0.364  1.00  0.00     0.202 C 
BRANCH   3   4
ATOM      4  C   UNL     1       4.359   0.358   1.119  1.00  0.00     0.261 C 
BRANCH   4   5
ATOM      5  O   UNL     1       2.931   0.469   1.076  1.00  0.00    -0.460 OA
BRANCH   5   6
ATOM      6  C   UNL     1       2.214   1.292   0.272  1.00  0.00     0.338 C 
ATOM      7  O   UNL     1       1.002   1.403   0.449  1.00  0.00    -0.246 OA
BRANCH   6   8
ATOM      8  C   UNL     1       2.833   2.036  -0.865  1.00  0.00     0.060 A 
ATOM      9  C   UNL     1       4.003   1.642  -1.514  1.00  0.00     0.016 A 
ATOM     10  C   UNL     1       2.146   3.144  -1.373  1.00  0.00     0.016 A 
ATOM     11  C   UNL     1       4.499   2.285  -2.618  1.00  0.00     0.010 A 
ATOM     12  C   UNL     1       2.641   3.825  -2.486  1.00  0.00     0.010 A 
ATOM     13  C   UNL     1       3.820   3.385  -3.098  1.00  0.00    -0.014 A 
BRANCH  13  14
ATOM     14  C   UNL     1       4.521   4.153  -4.119  1.00  0.00     0.031 A 
ATOM     15  C   UNL     1       5.298   5.332  -3.651  1.00  0.00     0.074 A 
ATOM     16  C   UNL     1       4.584   3.674  -5.369  1.00  0.00     0.049 A 
ATOM     17  N   UNL     1       5.875   6.267  -4.345  1.00  0.00    -0.248 NA
ATOM     18  C   UNL     1       5.447   5.470  -2.192  1.00  0.00     0.031 C 
ATOM     19  C   UNL     1       4.026   2.391  -5.810  1.00  0.00     0.029 A 
ATOM     20  N   UNL     1       5.152   4.200  -6.490  1.00  0.00    -0.354 N 
ATOM     21  C   UNL     1       6.405   7.143  -3.406  1.00  0.00     0.074 A 
ATOM     22  C   UNL     1       6.093   6.618  -2.097  1.00  0.00     0.031 C 
ATOM     23  C   UNL     1       4.249   2.251  -7.126  1.00  0.00     0.029 A 
ATOM     24  C   UNL     1       4.875   3.470  -7.620  1.00  0.00     0.049 A 
ATOM     25  H   UNL     1       5.701   5.017  -6.491  1.00  0.00     0.167 HD
ATOM     26  C   UNL     1       7.063   8.299  -3.651  1.00  0.00     0.034 A 
ATOM     27  C   UNL     1       5.036   3.815  -8.910  1.00  0.00     0.034 A 
ATOM     28  C   UNL     1       7.295   8.757  -4.997  1.00  0.00     0.049 A 
ATOM     29  C   UNL     1       5.636   5.171  -9.177  1.00  0.00     0.074 A 
ATOM     30  C   UNL     1       7.859   9.939  -5.432  1.00  0.00     0.029 A 
ATOM     31  N   UNL     1       6.946   8.034  -6.139  1.00  0.00    -0.354 N 
ATOM     32  N   UNL     1       6.036   6.077  -8.309  1.00  0.00    -0.248 NA
ATOM     33  C   UNL     1       5.800   5.562 -10.578  1.00  0.00     0.031 C 
ATOM     34  C   UNL     1       7.776   9.963  -6.829  1.00  0.00     0.029 A 
ATOM     35  C   UNL     1       7.252   8.755  -7.276  1.00  0.00     0.049 A 
ATOM     36  H   UNL     1       6.539   7.138  -6.135  1.00  0.00     0.167 HD
ATOM     37  C   UNL     1       6.528   7.137  -9.058  1.00  0.00     0.074 A 
ATOM     38  C   UNL     1       6.368   6.754 -10.451  1.00  0.00     0.031 C 
ATOM     39  C   UNL     1       7.071   8.312  -8.643  1.00  0.00     0.034 A 
BRANCH  26  40
ATOM     40  C   UNL     1       7.394   9.154  -2.453  1.00  0.00     0.023 A 
ATOM     41  C   UNL     1       8.216   8.692  -1.409  1.00  0.00     0.031 A 
ATOM     42  C   UNL     1       6.738  10.385  -2.273  1.00  0.00     0.131 A 
ATOM     43  C   UNL     1       8.258   9.389  -0.190  1.00  0.00     0.055 A 
ATOM     44  C   UNL     1       6.869  11.127  -1.098  1.00  0.00     0.041 A 
ATOM     45  F   UNL     1       5.908  10.862  -3.214  1.00  0.00    -0.206 F 
ATOM     46  C   UNL     1       7.611  10.617  -0.037  1.00  0.00     0.022 A 
BRANCH  43  47
ATOM     47  S   UNL     1       8.972   8.558   1.259  1.00  0.00     0.124 S 
ATOM     48  O   UNL     1       8.151   7.351   1.341  1.00  0.00    -0.237 OA
ATOM     49  O   UNL     1      10.360   8.359   0.857  1.00  0.00    -0.237 OA
ATOM     50  O   UNL     1       8.766   9.516   2.342  1.00  0.00    -0.744 OA
ENDBRANCH  43  47
ENDBRANCH  26  40
BRANCH  27  51
ATOM     51  C   UNL     1       4.524   2.924  -9.988  1.00  0.00     0.023 A 
ATOM     52  C   UNL     1       5.384   2.328 -10.921  1.00  0.00     0.031 A 
ATOM     53  C   UNL     1       3.148   2.630 -10.081  1.00  0.00     0.131 A 
ATOM     54  C   UNL     1       4.859   1.482 -11.913  1.00  0.00     0.055 A 
ATOM     55  C   UNL     1       2.638   1.751 -11.037  1.00  0.00     0.041 A 
ATOM     56  F   UNL     1       2.277   3.172  -9.214  1.00  0.00    -0.206 F 
ATOM     57  C   UNL     1       3.496   1.176 -11.967  1.00  0.00     0.022 A 
BRANCH  54  58
ATOM     58  S   UNL     1       5.980   0.820 -13.176  1.00  0.00     0.124 S 
ATOM     59  O   UNL     1       6.513   2.041 -13.770  1.00  0.00    -0.237 OA
ATOM     60  O   UNL     1       6.913   0.035 -12.373  1.00  0.00    -0.237 OA
ATOM     61  O   UNL     1       5.097   0.039 -14.041  1.00  0.00    -0.744 OA
ENDBRANCH  54  58
ENDBRANCH  27  51
BRANCH  39  62
ATOM     62  C   UNL     1       7.599   9.226  -9.714  1.00  0.00     0.023 A 
ATOM     63  C   UNL     1       6.746   9.928 -10.579  1.00  0.00     0.031 A 
ATOM     64  C   UNL     1       8.985   9.441  -9.813  1.00  0.00     0.131 A 
ATOM     65  C   UNL     1       7.295  10.799 -11.530  1.00  0.00     0.055 A 
ATOM     66  C   UNL     1       9.520  10.353 -10.719  1.00  0.00     0.041 A 
ATOM     67  F   UNL     1       9.837   8.788  -9.006  1.00  0.00    -0.206 F 
ATOM     68  C   UNL     1       8.673  11.034 -11.588  1.00  0.00     0.022 A 
BRANCH  65  69
ATOM     69  S   UNL     1       6.189  11.584 -12.731  1.00  0.00     0.124 S 
ATOM     70  O   UNL     1       5.629  10.428 -13.424  1.00  0.00    -0.237 OA
ATOM     71  O   UNL     1       5.267  12.322 -11.874  1.00  0.00    -0.237 OA
ATOM     72  O   UNL     1       7.087  12.413 -13.532  1.00  0.00    -0.744 OA
ENDBRANCH  65  69
ENDBRANCH  39  62
ENDBRANCH  13  14
ENDBRANCH   6   8
ENDBRANCH   5   6
ENDBRANCH   4   5
ENDBRANCH   3   4
ENDBRANCH   2   3
ENDBRANCH   1   2
BRANCH   1  73
ATOM     73  C   UNL     1       2.857  -2.795  -1.919  1.00  0.00     0.261 C 
BRANCH  73  74
ATOM     74  O   UNL     1       3.318  -3.897  -1.129  1.00  0.00    -0.463 OA
BRANCH  74  75
ATOM     75  C   UNL     1       4.668  -3.990  -1.030  1.00  0.00     0.310 C 
ATOM     76  O   UNL     1       5.448  -3.763  -1.941  1.00  0.00    -0.252 OA
BRANCH  75  77
ATOM     77  C   UNL     1       5.112  -4.474   0.342  1.00  0.00     0.119 C 
ATOM     78  C   UNL     1       5.419  -5.967   0.274  1.00  0.00     0.019 C 
ATOM     79  C   UNL     1       4.143  -4.199   1.500  1.00  0.00     0.134 C 
ATOM     80  C   UNL     1       4.129  -6.792   0.234  1.00  0.00     0.022 C 
ATOM     81  N   UNL     1       2.920  -4.975   1.396  1.00  0.00    -0.342 N 
ATOM     82  C   UNL     1       3.151  -6.407   1.354  1.00  0.00     0.119 C 
BRANCH  81  83
ATOM     83  C   UNL     1       1.714  -4.288   1.370  1.00  0.00     0.222 C 
ATOM     84  O   UNL     1       1.664  -3.064   1.521  1.00  0.00    -0.275 OA
BRANCH  83  85
ATOM     85  C   UNL     1       0.404  -5.021   1.199  1.00  0.00     0.100 C 
BRANCH  85  86
ATOM     86  C   UNL     1      -0.062  -5.295  -0.236  1.00  0.00     0.015 C 
BRANCH  86  87
ATOM     87  C   UNL     1       0.543  -6.468  -1.009  1.00  0.00     0.047 C 
BRANCH  87  88
ATOM     88  C   UNL     1       0.529  -7.842  -0.382  1.00  0.00     0.006 A 
ATOM     89  C   UNL     1       1.270  -8.936  -0.806  1.00  0.00     0.016 A 
ATOM     90  S   UNL     1      -0.395  -8.269   1.004  1.00  0.00    -0.133 S 
ATOM     91  C   UNL     1       1.314  -9.975   0.172  1.00  0.00     0.028 A 
ATOM     92  C   UNL     1       0.541  -9.656   1.258  1.00  0.00     0.070 A 
ATOM     93  Br  UNL     1       0.514 -10.643   2.847  1.00  0.00    -0.039 Br
ENDBRANCH  87  88
ENDBRANCH  86  87
ENDBRANCH  85  86
ENDBRANCH  83  85
ENDBRANCH  81  83
ENDBRANCH  75  77
ENDBRANCH  74  75
ENDBRANCH  73  74
ENDBRANCH   1  73
TORSDOF 22
