REMARK SMILES CC(C)Cc1cc2c(cc1Cl)C=C(C(=O)OCCOCCOC(=O)c1ccc(-c3c4nc(c(-c5cc(S(=O)(=O)[O-])ccc5F)c5ccc([nH]5)c(-c5cc(S(=O)(=O)[O-])ccc5F)c5nc(c(-c6cc(S(=O)(=O)[O-])ccc6F)c6ccc3[nH]6)C=C5)C=C4)cc1)[C@H](C(F)(F)F)O2
REMARK SMILES IDX 20 1 19 2 18 3 17 4 16 5 14 6 15 7 13 8 5 9 6 10 10 11 7 12
REMARK SMILES IDX 9 13 11 14 8 15 93 16 12 17 88 18 4 19 2 20 1 21 3 22 89 23
REMARK SMILES IDX 90 24 91 25 92 26 21 27 22 28 23 29 24 30 25 31 26 32 87 33
REMARK SMILES IDX 27 34 86 35 28 36 29 37 30 38 80 39 31 40 85 41 79 42 81 43
REMARK SMILES IDX 32 44 84 45 78 46 77 47 33 49 65 50 45 51 64 52 46 53 49 54
REMARK SMILES IDX 63 55 82 56 47 57 48 58 62 60 83 61 50 62 34 63 35 64 43 65
REMARK SMILES IDX 36 66 42 67 44 68 41 69 37 70 38 71 39 72 40 73 66 74 67 75
REMARK SMILES IDX 75 76 68 77 74 78 76 79 73 80 69 81 70 82 71 83 72 84 51 85
REMARK SMILES IDX 52 86 60 87 53 88 59 89 61 90 58 91 54 92 55 93 56 94 57 95
REMARK H PARENT 81 48 49 59
REMARK Flexibility Score: inf
ROOT
ATOM      1  C   UNL     1      -1.359   5.567   5.910  1.00  0.00     0.202 C 
ENDROOT
BRANCH   1   2
ATOM      2  O   UNL     1      -2.298   6.496   6.459  1.00  0.00    -0.374 OA
BRANCH   2   3
ATOM      3  C   UNL     1      -3.365   5.943   7.234  1.00  0.00     0.202 C 
BRANCH   3   4
ATOM      4  C   UNL     1      -4.631   5.595   6.447  1.00  0.00     0.261 C 
BRANCH   4   5
ATOM      5  O   UNL     1      -4.371   4.498   5.553  1.00  0.00    -0.460 OA
BRANCH   5   6
ATOM      6  C   UNL     1      -4.218   4.851   4.263  1.00  0.00     0.338 C 
ATOM      7  O   UNL     1      -4.519   5.930   3.773  1.00  0.00    -0.246 OA
BRANCH   6   8
ATOM      8  C   UNL     1      -3.519   3.791   3.507  1.00  0.00     0.087 C 
ATOM      9  C   UNL     1      -1.363   1.411  -0.362  1.00  0.00    -0.025 A 
ATOM     10  C   UNL     1      -2.099   0.991   0.767  1.00  0.00     0.052 A 
ATOM     11  C   UNL     1      -1.132   2.785  -0.539  1.00  0.00     0.045 A 
ATOM     12  C   UNL     1      -2.575   1.916   1.698  1.00  0.00     0.128 A 
ATOM     13  C   UNL     1      -1.572   3.704   0.412  1.00  0.00     0.032 A 
ATOM     14  Cl  UNL     1      -0.367   3.429  -1.950  1.00  0.00    -0.084 Cl
ATOM     15  C   UNL     1      -2.294   3.269   1.525  1.00  0.00     0.019 A 
ATOM     16  O   UNL     1      -3.376   1.443   2.705  1.00  0.00    -0.475 OA
ATOM     17  C   UNL     1      -2.858   4.242   2.433  1.00  0.00     0.027 C 
ATOM     18  C   UNL     1      -3.628   2.325   3.850  1.00  0.00     0.316 C 
BRANCH   9  19
ATOM     19  C   UNL     1      -0.862   0.373  -1.342  1.00  0.00     0.040 C 
BRANCH  19  20
ATOM     20  C   UNL     1       0.672   0.207  -1.358  1.00  0.00    -0.013 C 
ATOM     21  C   UNL     1       1.215  -0.286  -0.015  1.00  0.00     0.008 C 
ATOM     22  C   UNL     1       1.080  -0.753  -2.477  1.00  0.00     0.008 C 
ENDBRANCH  19  20
ENDBRANCH   9  19
BRANCH  18  23
ATOM     23  C   UNL     1      -2.744   1.838   5.019  1.00  0.00     0.430 C 
ATOM     24  F   UNL     1      -2.792   2.638   6.104  1.00  0.00    -0.167 F 
ATOM     25  F   UNL     1      -3.134   0.606   5.431  1.00  0.00    -0.167 F 
ATOM     26  F   UNL     1      -1.440   1.744   4.659  1.00  0.00    -0.167 F 
ENDBRANCH  18  23
ENDBRANCH   6   8
ENDBRANCH   5   6
ENDBRANCH   4   5
ENDBRANCH   3   4
ENDBRANCH   2   3
ENDBRANCH   1   2
BRANCH   1  27
ATOM     27  C   UNL     1      -0.273   5.048   6.862  1.00  0.00     0.261 C 
BRANCH  27  28
ATOM     28  O   UNL     1      -0.816   4.162   7.854  1.00  0.00    -0.460 OA
BRANCH  28  29
ATOM     29  C   UNL     1      -0.979   4.701   9.088  1.00  0.00     0.338 C 
ATOM     30  O   UNL     1      -0.612   5.807   9.453  1.00  0.00    -0.246 OA
BRANCH  29  31
ATOM     31  C   UNL     1      -1.876   3.835   9.890  1.00  0.00     0.060 A 
ATOM     32  C   UNL     1      -1.815   2.441   9.828  1.00  0.00     0.016 A 
ATOM     33  C   UNL     1      -2.819   4.460  10.717  1.00  0.00     0.016 A 
ATOM     34  C   UNL     1      -2.682   1.678  10.618  1.00  0.00     0.010 A 
ATOM     35  C   UNL     1      -3.674   3.696  11.515  1.00  0.00     0.010 A 
ATOM     36  C   UNL     1      -3.603   2.297  11.485  1.00  0.00    -0.014 A 
BRANCH  36  37
ATOM     37  C   UNL     1      -4.385   1.479  12.450  1.00  0.00     0.031 A 
ATOM     38  C   UNL     1      -5.868   1.290  12.312  1.00  0.00     0.074 A 
ATOM     39  C   UNL     1      -3.732   0.913  13.484  1.00  0.00     0.049 A 
ATOM     40  N   UNL     1      -6.663   0.522  13.012  1.00  0.00    -0.248 NA
ATOM     41  C   UNL     1      -6.550   2.065  11.265  1.00  0.00     0.031 C 
ATOM     42  C   UNL     1      -2.304   1.083  13.755  1.00  0.00     0.029 A 
ATOM     43  N   UNL     1      -4.166   0.083  14.487  1.00  0.00    -0.354 N 
ATOM     44  C   UNL     1      -7.935   0.701  12.483  1.00  0.00     0.074 A 
ATOM     45  C   UNL     1      -7.814   1.698  11.440  1.00  0.00     0.031 C 
ATOM     46  C   UNL     1      -1.972   0.346  14.824  1.00  0.00     0.029 A 
ATOM     47  C   UNL     1      -3.165  -0.322  15.340  1.00  0.00     0.049 A 
ATOM     48  H   UNL     1      -5.105  -0.197  14.587  1.00  0.00     0.167 HD
ATOM     49  C   UNL     1      -9.087   0.072  12.822  1.00  0.00     0.034 A 
ATOM     50  C   UNL     1      -3.193  -1.145  16.409  1.00  0.00     0.034 A 
ATOM     51  C   UNL     1      -9.188  -0.909  13.877  1.00  0.00     0.049 A 
ATOM     52  C   UNL     1      -4.488  -1.830  16.769  1.00  0.00     0.074 A 
ATOM     53  C   UNL     1     -10.302  -1.633  14.264  1.00  0.00     0.029 A 
ATOM     54  N   UNL     1      -8.152  -1.300  14.715  1.00  0.00    -0.354 N 
ATOM     55  N   UNL     1      -5.658  -1.742  16.181  1.00  0.00    -0.248 NA
ATOM     56  C   UNL     1      -4.465  -2.747  17.917  1.00  0.00     0.031 C 
ATOM     57  C   UNL     1      -9.965  -2.397  15.381  1.00  0.00     0.029 A 
ATOM     58  C   UNL     1      -8.612  -2.234  15.632  1.00  0.00     0.049 A 
ATOM     59  H   UNL     1      -7.228  -0.965  14.666  1.00  0.00     0.167 HD
ATOM     60  C   UNL     1      -6.497  -2.623  16.860  1.00  0.00     0.074 A 
ATOM     61  C   UNL     1      -5.694  -3.246  17.890  1.00  0.00     0.031 C 
ATOM     62  C   UNL     1      -7.810  -2.886  16.642  1.00  0.00     0.034 A 
BRANCH  49  63
ATOM     63  C   UNL     1     -10.344   0.377  12.040  1.00  0.00     0.023 A 
ATOM     64  C   UNL     1     -11.484   0.879  12.698  1.00  0.00     0.031 A 
ATOM     65  C   UNL     1     -10.467   0.013  10.687  1.00  0.00     0.131 A 
ATOM     66  C   UNL     1     -12.705   0.956  12.016  1.00  0.00     0.055 A 
ATOM     67  C   UNL     1     -11.674   0.139   9.998  1.00  0.00     0.041 A 
ATOM     68  F   UNL     1      -9.413  -0.479  10.014  1.00  0.00    -0.206 F 
ATOM     69  C   UNL     1     -12.804   0.597  10.668  1.00  0.00     0.022 A 
BRANCH  66  70
ATOM     70  S   UNL     1     -14.230   1.441  12.871  1.00  0.00     0.124 S 
ATOM     71  O   UNL     1     -14.648   2.609  12.098  1.00  0.00    -0.237 OA
ATOM     72  O   UNL     1     -15.063   0.254  12.705  1.00  0.00    -0.237 OA
ATOM     73  O   UNL     1     -13.794   1.722  14.234  1.00  0.00    -0.744 OA
ENDBRANCH  66  70
ENDBRANCH  49  63
BRANCH  50  74
ATOM     74  C   UNL     1      -1.923  -1.424  17.143  1.00  0.00     0.023 A 
ATOM     75  C   UNL     1      -1.210  -0.388  17.772  1.00  0.00     0.031 A 
ATOM     76  C   UNL     1      -1.350  -2.707  17.132  1.00  0.00     0.131 A 
ATOM     77  C   UNL     1       0.062  -0.638  18.301  1.00  0.00     0.055 A 
ATOM     78  C   UNL     1      -0.117  -2.969  17.731  1.00  0.00     0.041 A 
ATOM     79  F   UNL     1      -1.982  -3.726  16.527  1.00  0.00    -0.206 F 
ATOM     80  C   UNL     1       0.605  -1.927  18.304  1.00  0.00     0.022 A 
BRANCH  77  81
ATOM     81  S   UNL     1       1.113   0.724  18.876  1.00  0.00     0.124 S 
ATOM     82  O   UNL     1       1.354   0.357  20.268  1.00  0.00    -0.237 OA
ATOM     83  O   UNL     1       2.264   0.608  17.984  1.00  0.00    -0.237 OA
ATOM     84  O   UNL     1       0.286   1.908  18.670  1.00  0.00    -0.744 OA
ENDBRANCH  77  81
ENDBRANCH  50  74
BRANCH  62  85
ATOM     85  C   UNL     1      -8.502  -3.929  17.493  1.00  0.00     0.023 A 
ATOM     86  C   UNL     1      -9.091  -5.051  16.876  1.00  0.00     0.031 A 
ATOM     87  C   UNL     1      -8.723  -3.742  18.869  1.00  0.00     0.131 A 
ATOM     88  C   UNL     1      -9.910  -5.912  17.618  1.00  0.00     0.055 A 
ATOM     89  C   UNL     1      -9.491  -4.636  19.617  1.00  0.00     0.041 A 
ATOM     90  F   UNL     1      -8.202  -2.681  19.506  1.00  0.00    -0.206 F 
ATOM     91  C   UNL     1     -10.103  -5.717  18.989  1.00  0.00     0.022 A 
BRANCH  88  92
ATOM     92  S   UNL     1     -10.840  -7.245  16.812  1.00  0.00     0.124 S 
ATOM     93  O   UNL     1     -10.295  -8.432  17.468  1.00  0.00    -0.237 OA
ATOM     94  O   UNL     1     -12.218  -6.915  17.167  1.00  0.00    -0.237 OA
ATOM     95  O   UNL     1     -10.505  -7.106  15.399  1.00  0.00    -0.744 OA
ENDBRANCH  88  92
ENDBRANCH  62  85
ENDBRANCH  36  37
ENDBRANCH  29  31
ENDBRANCH  28  29
ENDBRANCH  27  28
ENDBRANCH   1  27
TORSDOF 20
