REMARK SMILES CCc1ncc(C[N@H+]2CCC[C@@H](c3cccc(C(=O)OCCOCCOC(=O)c4ccc(-c5c6nc(c(-c7cc(S(=O)(=O)[O-])ccc7F)c7ccc([nH]7)c(-c7cc(S(=O)(=O)[O-])ccc7F)c7nc(c(-c8cc(S(=O)(=O)[O-])ccc8F)c8ccc5[nH]8)C=C7)C=C6)cc4)c3)C2)cn1
REMARK SMILES IDX 22 1 21 2 20 3 18 4 19 5 17 6 13 7 14 8 92 9 15 10 16 11
REMARK SMILES IDX 12 12 8 13 9 14 93 15 10 17 11 18 7 19 6 20 3 21 4 22 95 23
REMARK SMILES IDX 5 24 94 25 2 26 1 27 23 28 24 29 25 30 26 31 27 32 28 33
REMARK SMILES IDX 29 34 30 35 91 36 31 37 90 38 32 39 33 40 34 41 84 42 35 43
REMARK SMILES IDX 89 44 83 45 85 46 36 47 88 48 82 49 81 50 37 52 69 53 49 54
REMARK SMILES IDX 68 55 50 56 53 57 67 58 86 59 51 60 52 61 66 63 87 64 54 65
REMARK SMILES IDX 38 66 39 67 47 68 40 69 46 70 48 71 45 72 41 73 42 74 43 75
REMARK SMILES IDX 44 76 70 77 71 78 79 79 72 80 78 81 80 82 77 83 73 84 74 85
REMARK SMILES IDX 75 86 76 87 55 88 56 89 64 90 57 91 63 92 65 93 62 94 58 95
REMARK SMILES IDX 59 96 60 97 61 98
REMARK H PARENT 8 16 85 51 53 62
REMARK Flexibility Score: inf
ROOT
ATOM      1  C   UNL     1       1.298 -11.215   8.947  1.00  0.00     0.202 C 
ENDROOT
BRANCH   1   2
ATOM      2  C   UNL     1       2.422 -10.394   8.305  1.00  0.00     0.261 C 
BRANCH   2   3
ATOM      3  O   UNL     1       1.941  -9.110   7.877  1.00  0.00    -0.460 OA
BRANCH   3   4
ATOM      4  C   UNL     1       1.908  -8.926   6.537  1.00  0.00     0.338 C 
ATOM      5  O   UNL     1       2.409  -9.642   5.680  1.00  0.00    -0.246 OA
BRANCH   4   6
ATOM      6  C   UNL     1       0.982  -7.819   6.211  1.00  0.00     0.060 A 
ATOM      7  C   UNL     1       0.016  -5.620   6.601  1.00  0.00    -0.038 A 
ATOM      8  C   UNL     1      -0.806  -5.816   5.475  1.00  0.00     0.004 A 
ATOM      9  C   UNL     1       0.894  -6.652   6.982  1.00  0.00     0.020 A 
ATOM     10  C   UNL     1      -0.737  -6.992   4.728  1.00  0.00     0.001 A 
ATOM     11  C   UNL     1       0.167  -7.984   5.085  1.00  0.00     0.016 A 
BRANCH   7  12
ATOM     12  C   UNL     1       0.142  -4.248   7.263  1.00  0.00     0.074 C 
ATOM     13  N   UNL     1       1.305  -2.041   6.779  1.00  0.00    -0.331 N 
ATOM     14  C   UNL     1       0.027  -1.333   6.880  1.00  0.00     0.262 C 
ATOM     15  C   UNL     1       1.121  -3.441   6.384  1.00  0.00     0.270 C 
ATOM     16  H   UNL     1       1.701  -2.035   7.719  1.00  0.00     0.348 HD
ATOM     17  C   UNL     1      -0.915  -2.035   7.864  1.00  0.00     0.062 C 
ATOM     18  C   UNL     1      -1.179  -3.482   7.446  1.00  0.00     0.020 C 
BRANCH  13  19
ATOM     19  C   UNL     1       2.298  -1.352   5.928  1.00  0.00     0.302 C 
BRANCH  19  20
ATOM     20  C   UNL     1       1.954  -1.223   4.470  1.00  0.00     0.043 A 
ATOM     21  C   UNL     1       1.128  -1.065   1.881  1.00  0.00     0.127 A 
ATOM     22  N   UNL     1       0.937   0.011   2.669  1.00  0.00    -0.241 NA
ATOM     23  N   UNL     1       1.738  -2.197   2.274  1.00  0.00    -0.241 NA
ATOM     24  C   UNL     1       1.365  -0.093   3.944  1.00  0.00     0.124 A 
ATOM     25  C   UNL     1       2.146  -2.242   3.558  1.00  0.00     0.124 A 
BRANCH  21  26
ATOM     26  C   UNL     1       0.541  -1.043   0.497  1.00  0.00     0.074 C 
ATOM     27  C   UNL     1       1.012   0.148  -0.320  1.00  0.00     0.012 C 
ENDBRANCH  21  26
ENDBRANCH  19  20
ENDBRANCH  13  19
ENDBRANCH   7  12
ENDBRANCH   4   6
ENDBRANCH   3   4
ENDBRANCH   2   3
ENDBRANCH   1   2
BRANCH   1  28
ATOM     28  O   UNL     1       0.202 -11.568   8.102  1.00  0.00    -0.374 OA
BRANCH  28  29
ATOM     29  C   UNL     1      -0.792 -10.570   7.870  1.00  0.00     0.202 C 
BRANCH  29  30
ATOM     30  C   UNL     1      -1.816 -10.318   8.983  1.00  0.00     0.261 C 
BRANCH  30  31
ATOM     31  O   UNL     1      -1.218  -9.763  10.167  1.00  0.00    -0.460 OA
BRANCH  31  32
ATOM     32  C   UNL     1      -1.118 -10.627  11.206  1.00  0.00     0.338 C 
ATOM     33  O   UNL     1      -1.533 -11.777  11.246  1.00  0.00    -0.246 OA
BRANCH  32  34
ATOM     34  C   UNL     1      -0.252 -10.054  12.253  1.00  0.00     0.060 A 
ATOM     35  C   UNL     1       0.822 -10.833  12.704  1.00  0.00     0.016 A 
ATOM     36  C   UNL     1      -0.517  -8.810  12.829  1.00  0.00     0.016 A 
ATOM     37  C   UNL     1       1.608 -10.392  13.765  1.00  0.00     0.010 A 
ATOM     38  C   UNL     1       0.269  -8.373  13.900  1.00  0.00     0.010 A 
ATOM     39  C   UNL     1       1.314  -9.176  14.395  1.00  0.00    -0.014 A 
BRANCH  39  40
ATOM     40  C   UNL     1       2.000  -8.819  15.662  1.00  0.00     0.031 A 
ATOM     41  C   UNL     1       1.272  -9.023  16.964  1.00  0.00     0.074 A 
ATOM     42  C   UNL     1       3.259  -8.345  15.656  1.00  0.00     0.049 A 
ATOM     43  N   UNL     1       1.645  -8.724  18.181  1.00  0.00    -0.248 NA
ATOM     44  C   UNL     1      -0.058  -9.646  16.875  1.00  0.00     0.031 C 
ATOM     45  C   UNL     1       4.082  -8.158  14.463  1.00  0.00     0.029 A 
ATOM     46  N   UNL     1       4.062  -7.930  16.688  1.00  0.00    -0.354 N 
ATOM     47  C   UNL     1       0.595  -9.117  19.006  1.00  0.00     0.074 A 
ATOM     48  C   UNL     1      -0.445  -9.636  18.142  1.00  0.00     0.031 C 
ATOM     49  C   UNL     1       5.274  -7.656  14.831  1.00  0.00     0.029 A 
ATOM     50  C   UNL     1       5.282  -7.444  16.277  1.00  0.00     0.049 A 
ATOM     51  H   UNL     1       3.792  -7.976  17.634  1.00  0.00     0.167 HD
ATOM     52  C   UNL     1       0.512  -9.059  20.358  1.00  0.00     0.034 A 
ATOM     53  C   UNL     1       6.276  -6.869  16.984  1.00  0.00     0.034 A 
ATOM     54  C   UNL     1       1.554  -8.527  21.203  1.00  0.00     0.049 A 
ATOM     55  C   UNL     1       6.118  -6.718  18.480  1.00  0.00     0.074 A 
ATOM     56  C   UNL     1       1.577  -8.424  22.583  1.00  0.00     0.029 A 
ATOM     57  N   UNL     1       2.754  -7.995  20.747  1.00  0.00    -0.354 N 
ATOM     58  N   UNL     1       5.120  -7.091  19.249  1.00  0.00    -0.248 NA
ATOM     59  C   UNL     1       7.223  -6.076  19.203  1.00  0.00     0.031 C 
ATOM     60  C   UNL     1       2.753  -7.764  22.955  1.00  0.00     0.029 A 
ATOM     61  C   UNL     1       3.507  -7.532  21.816  1.00  0.00     0.049 A 
ATOM     62  H   UNL     1       3.030  -7.954  19.803  1.00  0.00     0.167 HD
ATOM     63  C   UNL     1       5.498  -6.762  20.549  1.00  0.00     0.074 A 
ATOM     64  C   UNL     1       6.817  -6.171  20.460  1.00  0.00     0.031 C 
ATOM     65  C   UNL     1       4.821  -6.939  21.713  1.00  0.00     0.034 A 
BRANCH  52  66
ATOM     66  C   UNL     1      -0.772  -9.535  20.996  1.00  0.00     0.023 A 
ATOM     67  C   UNL     1      -1.196 -10.872  20.899  1.00  0.00     0.031 A 
ATOM     68  C   UNL     1      -1.599  -8.632  21.686  1.00  0.00     0.131 A 
ATOM     69  C   UNL     1      -2.443 -11.251  21.420  1.00  0.00     0.055 A 
ATOM     70  C   UNL     1      -2.800  -9.033  22.275  1.00  0.00     0.041 A 
ATOM     71  F   UNL     1      -1.260  -7.337  21.791  1.00  0.00    -0.206 F 
ATOM     72  C   UNL     1      -3.236 -10.347  22.130  1.00  0.00     0.022 A 
BRANCH  69  73
ATOM     73  S   UNL     1      -3.081 -12.903  21.027  1.00  0.00     0.124 S 
ATOM     74  O   UNL     1      -3.095 -12.874  19.566  1.00  0.00    -0.237 OA
ATOM     75  O   UNL     1      -2.089 -13.778  21.640  1.00  0.00    -0.237 OA
ATOM     76  O   UNL     1      -4.401 -12.919  21.654  1.00  0.00    -0.744 OA
ENDBRANCH  69  73
ENDBRANCH  52  66
BRANCH  53  77
ATOM     77  C   UNL     1       7.493  -6.348  16.296  1.00  0.00     0.023 A 
ATOM     78  C   UNL     1       8.766  -6.865  16.583  1.00  0.00     0.031 A 
ATOM     79  C   UNL     1       7.408  -5.277  15.388  1.00  0.00     0.131 A 
ATOM     80  C   UNL     1       9.905  -6.278  16.011  1.00  0.00     0.055 A 
ATOM     81  C   UNL     1       8.539  -4.736  14.775  1.00  0.00     0.041 A 
ATOM     82  F   UNL     1       6.216  -4.740  15.080  1.00  0.00    -0.206 F 
ATOM     83  C   UNL     1       9.800  -5.228  15.097  1.00  0.00     0.022 A 
BRANCH  80  84
ATOM     84  S   UNL     1      11.540  -6.843  16.558  1.00  0.00     0.124 S 
ATOM     85  O   UNL     1      11.473  -6.597  17.993  1.00  0.00    -0.237 OA
ATOM     86  O   UNL     1      11.530  -8.243  16.144  1.00  0.00    -0.237 OA
ATOM     87  O   UNL     1      12.462  -5.984  15.818  1.00  0.00    -0.744 OA
ENDBRANCH  80  84
ENDBRANCH  53  77
BRANCH  65  88
ATOM     88  C   UNL     1       5.524  -6.541  22.990  1.00  0.00     0.023 A 
ATOM     89  C   UNL     1       5.832  -5.201  23.284  1.00  0.00     0.031 A 
ATOM     90  C   UNL     1       5.893  -7.524  23.926  1.00  0.00     0.131 A 
ATOM     91  C   UNL     1       6.537  -4.888  24.457  1.00  0.00     0.055 A 
ATOM     92  C   UNL     1       6.537  -7.200  25.120  1.00  0.00     0.041 A 
ATOM     93  F   UNL     1       5.626  -8.820  23.696  1.00  0.00    -0.206 F 
ATOM     94  C   UNL     1       6.875  -5.876  25.385  1.00  0.00     0.022 A 
BRANCH  91  95
ATOM     95  S   UNL     1       7.090  -3.179  24.712  1.00  0.00     0.124 S 
ATOM     96  O   UNL     1       7.917  -2.949  23.532  1.00  0.00    -0.237 OA
ATOM     97  O   UNL     1       5.830  -2.446  24.760  1.00  0.00    -0.237 OA
ATOM     98  O   UNL     1       7.819  -3.240  25.978  1.00  0.00    -0.744 OA
ENDBRANCH  91  95
ENDBRANCH  65  88
ENDBRANCH  39  40
ENDBRANCH  32  34
ENDBRANCH  31  32
ENDBRANCH  30  31
ENDBRANCH  29  30
ENDBRANCH  28  29
ENDBRANCH   1  28
TORSDOF 21
