REMARK SMILES O=C(Nc1ccc(Br)cc1)Nc1ccc(CC(=O)OCCOCCOC(=O)c2ccc(-c3c4nc(c(-c5cc(S(=O)(=O)[O-])ccc5F)c5ccc([nH]5)c(-c5cc(S(=O)(=O)[O-])ccc5F)c5nc(c(-c6cc(S(=O)(=O)[O-])ccc6F)c6ccc3[nH]6)C=C5)C=C4)cc2)cc1
REMARK SMILES IDX 22 1 21 2 20 3 19 4 17 5 18 6 16 7 15 8 12 9 13 10 92 11
REMARK SMILES IDX 14 12 91 13 11 14 1 15 2 16 3 17 4 20 5 21 10 22 6 23 9 24
REMARK SMILES IDX 7 25 8 26 23 27 24 28 25 29 26 30 27 31 28 32 29 33 90 34
REMARK SMILES IDX 30 35 89 36 31 37 32 38 33 39 83 40 34 41 88 42 82 43 84 44
REMARK SMILES IDX 35 45 87 46 81 47 80 48 36 50 68 51 48 52 67 53 49 54 52 55
REMARK SMILES IDX 66 56 85 57 50 58 51 59 65 61 86 62 53 63 37 64 38 65 46 66
REMARK SMILES IDX 39 67 45 68 47 69 44 70 40 71 41 72 42 73 43 74 69 75 70 76
REMARK SMILES IDX 78 77 71 78 77 79 79 80 76 81 72 82 73 83 74 84 75 85 54 86
REMARK SMILES IDX 55 87 63 88 56 89 62 90 64 91 61 92 57 93 58 94 59 95 60 96
REMARK H PARENT 3 18 11 19 84 49 52 60
REMARK Flexibility Score: inf
ROOT
ATOM      1  O   UNL     1       3.083   3.715  -8.382  1.00  0.00    -0.374 OA
ENDROOT
BRANCH   1   2
ATOM      2  C   UNL     1       2.902   4.974  -7.734  1.00  0.00     0.202 C 
BRANCH   2   3
ATOM      3  C   UNL     1       1.484   5.302  -7.254  1.00  0.00     0.261 C 
BRANCH   3   4
ATOM      4  O   UNL     1       1.024   4.414  -6.214  1.00  0.00    -0.463 OA
BRANCH   4   5
ATOM      5  C   UNL     1      -0.069   3.668  -6.520  1.00  0.00     0.310 C 
ATOM      6  O   UNL     1      -0.680   3.732  -7.584  1.00  0.00    -0.252 OA
BRANCH   5   7
ATOM      7  C   UNL     1      -0.548   2.769  -5.407  1.00  0.00     0.158 C 
BRANCH   7   8
ATOM      8  C   UNL     1       0.421   2.295  -4.347  1.00  0.00    -0.037 A 
ATOM      9  C   UNL     1       1.962   1.163  -2.270  1.00  0.00     0.042 A 
ATOM     10  C   UNL     1       2.170   0.773  -3.594  1.00  0.00     0.026 A 
ATOM     11  C   UNL     1       1.034   2.165  -1.994  1.00  0.00     0.026 A 
ATOM     12  C   UNL     1       1.374   1.304  -4.617  1.00  0.00     0.006 A 
ATOM     13  C   UNL     1       0.286   2.743  -3.027  1.00  0.00     0.006 A 
BRANCH   9  14
ATOM     14  N   UNL     1       2.681   0.494  -1.261  1.00  0.00    -0.308 N 
ATOM     15  O   UNL     1       1.078   0.459   0.409  1.00  0.00    -0.248 OA
ATOM     16  C   UNL     1       2.222   0.250   0.012  1.00  0.00     0.323 C 
ATOM     17  N   UNL     1       3.083  -0.448   0.819  1.00  0.00    -0.308 N 
ATOM     18  H   UNL     1       2.650  -1.030   1.484  1.00  0.00     0.171 HD
ATOM     19  H   UNL     1       3.585   0.176  -1.485  1.00  0.00     0.171 HD
BRANCH  17  20
ATOM     20  C   UNL     1       4.486  -0.461   0.845  1.00  0.00     0.042 A 
ATOM     21  C   UNL     1       5.257   0.597   0.354  1.00  0.00     0.027 A 
ATOM     22  C   UNL     1       5.117  -1.540   1.473  1.00  0.00     0.027 A 
ATOM     23  C   UNL     1       6.649   0.570   0.479  1.00  0.00     0.018 A 
ATOM     24  C   UNL     1       6.510  -1.581   1.574  1.00  0.00     0.018 A 
ATOM     25  C   UNL     1       7.269  -0.522   1.081  1.00  0.00     0.018 A 
ATOM     26  Br  UNL     1       9.150  -0.562   1.252  1.00  0.00    -0.051 Br
ENDBRANCH  17  20
ENDBRANCH   9  14
ENDBRANCH   7   8
ENDBRANCH   5   7
ENDBRANCH   4   5
ENDBRANCH   3   4
ENDBRANCH   2   3
ENDBRANCH   1   2
BRANCH   1  27
ATOM     27  C   UNL     1       3.086   2.557  -7.551  1.00  0.00     0.202 C 
BRANCH  27  28
ATOM     28  C   UNL     1       4.357   2.286  -6.736  1.00  0.00     0.261 C 
BRANCH  28  29
ATOM     29  O   UNL     1       4.638   3.326  -5.784  1.00  0.00    -0.460 OA
BRANCH  29  30
ATOM     30  C   UNL     1       5.738   4.061  -6.085  1.00  0.00     0.338 C 
ATOM     31  O   UNL     1       6.521   3.853  -6.997  1.00  0.00    -0.246 OA
BRANCH  30  32
ATOM     32  C   UNL     1       5.804   5.288  -5.262  1.00  0.00     0.060 A 
ATOM     33  C   UNL     1       6.156   6.468  -5.931  1.00  0.00     0.016 A 
ATOM     34  C   UNL     1       5.638   5.285  -3.875  1.00  0.00     0.016 A 
ATOM     35  C   UNL     1       6.445   7.620  -5.208  1.00  0.00     0.010 A 
ATOM     36  C   UNL     1       5.930   6.447  -3.147  1.00  0.00     0.010 A 
ATOM     37  C   UNL     1       6.396   7.600  -3.809  1.00  0.00    -0.014 A 
BRANCH  37  38
ATOM     38  C   UNL     1       7.055   8.708  -3.071  1.00  0.00     0.031 A 
ATOM     39  C   UNL     1       8.465   8.501  -2.576  1.00  0.00     0.074 A 
ATOM     40  C   UNL     1       6.461   9.908  -2.942  1.00  0.00     0.049 A 
ATOM     41  N   UNL     1       9.273   9.341  -1.984  1.00  0.00    -0.248 NA
ATOM     42  C   UNL     1       9.038   7.161  -2.782  1.00  0.00     0.031 C 
ATOM     43  C   UNL     1       5.120  10.240  -3.423  1.00  0.00     0.029 A 
ATOM     44  N   UNL     1       6.917  11.075  -2.383  1.00  0.00    -0.354 N 
ATOM     45  C   UNL     1      10.450   8.636  -1.750  1.00  0.00     0.074 A 
ATOM     46  C   UNL     1      10.229   7.285  -2.219  1.00  0.00     0.031 C 
ATOM     47  C   UNL     1       4.865  11.530  -3.142  1.00  0.00     0.029 A 
ATOM     48  C   UNL     1       6.011  12.108  -2.444  1.00  0.00     0.049 A 
ATOM     49  H   UNL     1       7.809  11.165  -1.976  1.00  0.00     0.167 HD
ATOM     50  C   UNL     1      11.614   9.076  -1.211  1.00  0.00     0.034 A 
ATOM     51  C   UNL     1       6.098  13.373  -1.984  1.00  0.00     0.034 A 
ATOM     52  C   UNL     1      11.817  10.424  -0.739  1.00  0.00     0.049 A 
ATOM     53  C   UNL     1       7.382  13.826  -1.329  1.00  0.00     0.074 A 
ATOM     54  C   UNL     1      12.949  10.978  -0.167  1.00  0.00     0.029 A 
ATOM     55  N   UNL     1      10.860  11.431  -0.779  1.00  0.00    -0.354 N 
ATOM     56  N   UNL     1       8.489  13.149  -1.119  1.00  0.00    -0.248 NA
ATOM     57  C   UNL     1       7.434  15.220  -0.868  1.00  0.00     0.031 C 
ATOM     58  C   UNL     1      12.656  12.298   0.197  1.00  0.00     0.029 A 
ATOM     59  C   UNL     1      11.367  12.593  -0.220  1.00  0.00     0.049 A 
ATOM     60  H   UNL     1       9.954  11.332  -1.150  1.00  0.00     0.167 HD
ATOM     61  C   UNL     1       9.380  14.048  -0.537  1.00  0.00     0.074 A 
ATOM     62  C   UNL     1       8.684  15.315  -0.439  1.00  0.00     0.031 C 
ATOM     63  C   UNL     1      10.659  13.849  -0.127  1.00  0.00     0.034 A 
BRANCH  50  64
ATOM     64  C   UNL     1      12.729   8.067  -1.059  1.00  0.00     0.023 A 
ATOM     65  C   UNL     1      13.333   7.456  -2.172  1.00  0.00     0.031 A 
ATOM     66  C   UNL     1      13.162   7.676   0.221  1.00  0.00     0.131 A 
ATOM     67  C   UNL     1      14.278   6.435  -1.984  1.00  0.00     0.055 A 
ATOM     68  C   UNL     1      14.161   6.718   0.400  1.00  0.00     0.041 A 
ATOM     69  F   UNL     1      12.606   8.206   1.321  1.00  0.00    -0.206 F 
ATOM     70  C   UNL     1      14.714   6.079  -0.706  1.00  0.00     0.022 A 
BRANCH  67  71
ATOM     71  S   UNL     1      14.817   5.473  -3.425  1.00  0.00     0.124 S 
ATOM     72  O   UNL     1      13.550   4.928  -3.906  1.00  0.00    -0.237 OA
ATOM     73  O   UNL     1      15.438   6.488  -4.268  1.00  0.00    -0.237 OA
ATOM     74  O   UNL     1      15.734   4.487  -2.856  1.00  0.00    -0.744 OA
ENDBRANCH  67  71
ENDBRANCH  50  64
BRANCH  51  75
ATOM     75  C   UNL     1       4.937  14.302  -2.103  1.00  0.00     0.023 A 
ATOM     76  C   UNL     1       5.010  15.471  -2.877  1.00  0.00     0.031 A 
ATOM     77  C   UNL     1       3.748  14.055  -1.393  1.00  0.00     0.131 A 
ATOM     78  C   UNL     1       3.932  16.372  -2.886  1.00  0.00     0.055 A 
ATOM     79  C   UNL     1       2.661  14.929  -1.445  1.00  0.00     0.041 A 
ATOM     80  F   UNL     1       3.626  12.952  -0.637  1.00  0.00    -0.206 F 
ATOM     81  C   UNL     1       2.755  16.103  -2.186  1.00  0.00     0.022 A 
BRANCH  78  82
ATOM     82  S   UNL     1       4.123  17.948  -3.765  1.00  0.00     0.124 S 
ATOM     83  O   UNL     1       5.287  18.521  -3.099  1.00  0.00    -0.237 OA
ATOM     84  O   UNL     1       4.322  17.505  -5.140  1.00  0.00    -0.237 OA
ATOM     85  O   UNL     1       2.857  18.634  -3.510  1.00  0.00    -0.744 OA
ENDBRANCH  78  82
ENDBRANCH  51  75
BRANCH  63  86
ATOM     86  C   UNL     1      11.404  15.048   0.408  1.00  0.00     0.023 A 
ATOM     87  C   UNL     1      11.037  15.676   1.611  1.00  0.00     0.031 A 
ATOM     88  C   UNL     1      12.492  15.577  -0.309  1.00  0.00     0.131 A 
ATOM     89  C   UNL     1      11.713  16.832   2.030  1.00  0.00     0.055 A 
ATOM     90  C   UNL     1      13.199  16.692   0.143  1.00  0.00     0.041 A 
ATOM     91  F   UNL     1      12.887  15.018  -1.464  1.00  0.00    -0.206 F 
ATOM     92  C   UNL     1      12.801  17.335   1.312  1.00  0.00     0.022 A 
BRANCH  89  93
ATOM     93  S   UNL     1      11.088  17.732   3.476  1.00  0.00     0.124 S 
ATOM     94  O   UNL     1       9.707  18.005   3.091  1.00  0.00    -0.237 OA
ATOM     95  O   UNL     1      11.270  16.761   4.550  1.00  0.00    -0.237 OA
ATOM     96  O   UNL     1      11.954  18.907   3.550  1.00  0.00    -0.744 OA
ENDBRANCH  89  93
ENDBRANCH  63  86
ENDBRANCH  37  38
ENDBRANCH  30  32
ENDBRANCH  29  30
ENDBRANCH  28  29
ENDBRANCH  27  28
ENDBRANCH   1  27
TORSDOF 20
