REMARK SMILES COc1ccc2c(c1)[C@@](NC=O)(C(=O)OCCOCCOC(=O)c1ccc(-c3c4nc(c(-c5cc(S(=O)(=O)[O-])ccc5F)c5ccc([nH]5)c(-c5cc(S(=O)(=O)[O-])ccc5F)c5nc(c(-c6cc(S(=O)(=O)[O-])ccc6F)c6ccc3[nH]6)C=C5)C=C4)cc1)CCC2
REMARK SMILES IDX 19 1 18 2 17 3 16 4 15 5 13 6 14 7 9 8 3 9 4 10 8 11 5 12
REMARK SMILES IDX 7 13 6 14 89 15 87 16 88 17 2 18 1 19 10 20 11 21 12 23
REMARK SMILES IDX 20 24 21 25 22 26 23 27 24 28 25 29 86 30 26 31 85 32 27 33
REMARK SMILES IDX 28 34 29 35 79 36 30 37 84 38 78 39 80 40 31 41 83 42 77 43
REMARK SMILES IDX 76 44 32 46 64 47 44 48 63 49 45 50 48 51 62 52 81 53 46 54
REMARK SMILES IDX 47 55 61 57 82 58 49 59 33 60 34 61 42 62 35 63 41 64 43 65
REMARK SMILES IDX 40 66 36 67 37 68 38 69 39 70 65 71 66 72 74 73 67 74 73 75
REMARK SMILES IDX 75 76 72 77 68 78 69 79 70 80 71 81 50 82 51 83 59 84 52 85
REMARK SMILES IDX 58 86 60 87 57 88 53 89 54 90 55 91 56 92
REMARK H PARENT 10 22 80 45 48 56
REMARK Flexibility Score: inf
ROOT
ATOM      1  C   UNL     1       7.071  -4.683   2.636  1.00  0.00     0.202 C 
ENDROOT
BRANCH   1   2
ATOM      2  O   UNL     1       7.626  -3.395   2.879  1.00  0.00    -0.374 OA
BRANCH   2   3
ATOM      3  C   UNL     1       6.720  -2.388   3.336  1.00  0.00     0.202 C 
BRANCH   3   4
ATOM      4  C   UNL     1       5.826  -1.748   2.267  1.00  0.00     0.261 C 
BRANCH   4   5
ATOM      5  O   UNL     1       4.785  -2.643   1.819  1.00  0.00    -0.461 OA
BRANCH   5   6
ATOM      6  C   UNL     1       4.871  -3.073   0.528  1.00  0.00     0.336 C 
ATOM      7  O   UNL     1       5.798  -2.791  -0.227  1.00  0.00    -0.249 OA
BRANCH   6   8
ATOM      8  C   UNL     1       3.739  -4.076   0.137  1.00  0.00     0.164 C 
ATOM      9  C   UNL     1       0.622  -2.020   1.052  1.00  0.00     0.119 A 
ATOM     10  C   UNL     1      -0.243  -3.011   1.505  1.00  0.00     0.047 A 
ATOM     11  C   UNL     1       1.912  -2.366   0.649  1.00  0.00     0.053 A 
ATOM     12  C   UNL     1       0.157  -4.345   1.512  1.00  0.00     0.008 A 
ATOM     13  C   UNL     1       2.342  -3.711   0.650  1.00  0.00    -0.004 A 
ATOM     14  C   UNL     1       1.437  -4.712   1.070  1.00  0.00    -0.042 A 
ATOM     15  C   UNL     1       1.808  -6.175   1.136  1.00  0.00     0.036 C 
ATOM     16  C   UNL     1       4.152  -5.463   0.688  1.00  0.00     0.046 C 
ATOM     17  C   UNL     1       3.093  -6.516   0.393  1.00  0.00     0.008 C 
BRANCH   9  18
ATOM     18  O   UNL     1       0.109  -0.753   1.060  1.00  0.00    -0.497 OA
ATOM     19  C   UNL     1       0.726   0.177   0.178  1.00  0.00     0.278 C 
ENDBRANCH   9  18
BRANCH   8  20
ATOM     20  N   UNL     1       3.792  -4.157  -1.345  1.00  0.00    -0.339 N 
ATOM     21  C   UNL     1       2.987  -3.559  -2.259  1.00  0.00     0.338 C 
ATOM     22  H   UNL     1       4.509  -4.721  -1.714  1.00  0.00     0.164 HD
ATOM     23  O   UNL     1       3.300  -3.468  -3.440  1.00  0.00    -0.279 OA
ENDBRANCH   8  20
ENDBRANCH   6   8
ENDBRANCH   5   6
ENDBRANCH   4   5
ENDBRANCH   3   4
ENDBRANCH   2   3
ENDBRANCH   1   2
BRANCH   1  24
ATOM     24  C   UNL     1       6.891  -5.602   3.851  1.00  0.00     0.261 C 
BRANCH  24  25
ATOM     25  O   UNL     1       6.008  -5.040   4.836  1.00  0.00    -0.460 OA
BRANCH  25  26
ATOM     26  C   UNL     1       6.644  -4.543   5.924  1.00  0.00     0.338 C 
ATOM     27  O   UNL     1       7.845  -4.621   6.165  1.00  0.00    -0.246 OA
BRANCH  26  28
ATOM     28  C   UNL     1       5.732  -3.715   6.733  1.00  0.00     0.060 A 
ATOM     29  C   UNL     1       6.198  -2.452   7.119  1.00  0.00     0.016 A 
ATOM     30  C   UNL     1       4.490  -4.176   7.175  1.00  0.00     0.016 A 
ATOM     31  C   UNL     1       5.458  -1.673   8.004  1.00  0.00     0.010 A 
ATOM     32  C   UNL     1       3.748  -3.393   8.070  1.00  0.00     0.010 A 
ATOM     33  C   UNL     1       4.250  -2.158   8.521  1.00  0.00    -0.014 A 
BRANCH  33  34
ATOM     34  C   UNL     1       3.615  -1.441   9.656  1.00  0.00     0.031 A 
ATOM     35  C   UNL     1       3.824  -1.966  11.053  1.00  0.00     0.074 A 
ATOM     36  C   UNL     1       2.913  -0.311   9.452  1.00  0.00     0.049 A 
ATOM     37  N   UNL     1       3.365  -1.509  12.189  1.00  0.00    -0.248 NA
ATOM     38  C   UNL     1       4.662  -3.168  11.184  1.00  0.00     0.031 C 
ATOM     39  C   UNL     1       2.685   0.314   8.150  1.00  0.00     0.029 A 
ATOM     40  N   UNL     1       2.261   0.510  10.338  1.00  0.00    -0.354 N 
ATOM     41  C   UNL     1       3.845  -2.373  13.168  1.00  0.00     0.074 A 
ATOM     42  C   UNL     1       4.610  -3.396  12.488  1.00  0.00     0.031 C 
ATOM     43  C   UNL     1       1.933   1.416   8.322  1.00  0.00     0.029 A 
ATOM     44  C   UNL     1       1.596   1.554   9.737  1.00  0.00     0.049 A 
ATOM     45  H   UNL     1       2.269   0.366  11.312  1.00  0.00     0.167 HD
ATOM     46  C   UNL     1       3.667  -2.315  14.511  1.00  0.00     0.034 A 
ATOM     47  C   UNL     1       0.786   2.494  10.266  1.00  0.00     0.034 A 
ATOM     48  C   UNL     1       2.909  -1.282  15.174  1.00  0.00     0.049 A 
ATOM     49  C   UNL     1       0.551   2.498  11.759  1.00  0.00     0.074 A 
ATOM     50  C   UNL     1       2.704  -1.103  16.531  1.00  0.00     0.029 A 
ATOM     51  N   UNL     1       2.218  -0.264  14.531  1.00  0.00    -0.354 N 
ATOM     52  N   UNL     1       1.039   1.694  12.676  1.00  0.00    -0.248 NA
ATOM     53  C   UNL     1      -0.336   3.543  12.290  1.00  0.00     0.031 C 
ATOM     54  C   UNL     1       1.827  -0.027  16.703  1.00  0.00     0.029 A 
ATOM     55  C   UNL     1       1.550   0.519  15.460  1.00  0.00     0.049 A 
ATOM     56  H   UNL     1       2.204  -0.119  13.557  1.00  0.00     0.167 HD
ATOM     57  C   UNL     1       0.542   2.158  13.893  1.00  0.00     0.074 A 
ATOM     58  C   UNL     1      -0.267   3.320  13.594  1.00  0.00     0.031 C 
ATOM     59  C   UNL     1       0.740   1.672  15.145  1.00  0.00     0.034 A 
BRANCH  46  60
ATOM     60  C   UNL     1       4.249  -3.430  15.346  1.00  0.00     0.023 A 
ATOM     61  C   UNL     1       5.634  -3.631  15.468  1.00  0.00     0.031 A 
ATOM     62  C   UNL     1       3.392  -4.309  16.032  1.00  0.00     0.131 A 
ATOM     63  C   UNL     1       6.120  -4.716  16.215  1.00  0.00     0.055 A 
ATOM     64  C   UNL     1       3.882  -5.343  16.831  1.00  0.00     0.041 A 
ATOM     65  F   UNL     1       2.059  -4.180  15.933  1.00  0.00    -0.206 F 
ATOM     66  C   UNL     1       5.254  -5.558  16.918  1.00  0.00     0.022 A 
BRANCH  63  67
ATOM     67  S   UNL     1       7.895  -5.085  16.164  1.00  0.00     0.124 S 
ATOM     68  O   UNL     1       8.109  -5.313  14.737  1.00  0.00    -0.237 OA
ATOM     69  O   UNL     1       8.486  -3.869  16.713  1.00  0.00    -0.237 OA
ATOM     70  O   UNL     1       8.023  -6.274  17.004  1.00  0.00    -0.744 OA
ENDBRANCH  63  67
ENDBRANCH  46  60
BRANCH  47  71
ATOM     71  C   UNL     1       0.087   3.478   9.387  1.00  0.00     0.023 A 
ATOM     72  C   UNL     1       0.302   4.859   9.518  1.00  0.00     0.031 A 
ATOM     73  C   UNL     1      -0.871   3.048   8.450  1.00  0.00     0.131 A 
ATOM     74  C   UNL     1      -0.469   5.762   8.768  1.00  0.00     0.055 A 
ATOM     75  C   UNL     1      -1.592   3.947   7.663  1.00  0.00     0.041 A 
ATOM     76  F   UNL     1      -1.121   1.739   8.286  1.00  0.00    -0.206 F 
ATOM     77  C   UNL     1      -1.405   5.315   7.832  1.00  0.00     0.022 A 
BRANCH  74  78
ATOM     78  S   UNL     1      -0.311   7.536   9.114  1.00  0.00     0.124 S 
ATOM     79  O   UNL     1      -0.601   7.587  10.542  1.00  0.00    -0.237 OA
ATOM     80  O   UNL     1       1.072   7.796   8.729  1.00  0.00    -0.237 OA
ATOM     81  O   UNL     1      -1.322   8.142   8.249  1.00  0.00    -0.744 OA
ENDBRANCH  74  78
ENDBRANCH  47  71
BRANCH  59  82
ATOM     82  C   UNL     1       0.106   2.430  16.286  1.00  0.00     0.023 A 
ATOM     83  C   UNL     1      -1.288   2.496  16.450  1.00  0.00     0.031 A 
ATOM     84  C   UNL     1       0.914   3.103  17.221  1.00  0.00     0.131 A 
ATOM     85  C   UNL     1      -1.835   3.265  17.489  1.00  0.00     0.055 A 
ATOM     86  C   UNL     1       0.366   3.815  18.289  1.00  0.00     0.041 A 
ATOM     87  F   UNL     1       2.252   3.076  17.113  1.00  0.00    -0.206 F 
ATOM     88  C   UNL     1      -1.016   3.910  18.420  1.00  0.00     0.022 A 
BRANCH  85  89
ATOM     89  S   UNL     1      -3.634   3.489  17.555  1.00  0.00     0.124 S 
ATOM     90  O   UNL     1      -3.912   4.096  16.258  1.00  0.00    -0.237 OA
ATOM     91  O   UNL     1      -4.112   2.122  17.734  1.00  0.00    -0.237 OA
ATOM     92  O   UNL     1      -3.828   4.368  18.707  1.00  0.00    -0.744 OA
ENDBRANCH  85  89
ENDBRANCH  59  82
ENDBRANCH  33  34
ENDBRANCH  26  28
ENDBRANCH  25  26
ENDBRANCH  24  25
ENDBRANCH   1  24
TORSDOF 19
