REMARK SMILES CC(C)Oc1ccc(-c2ccc(/C(=C\c3ccc(S(C)(=O)=O)cc3)C(=O)OCCOCCOC(=O)c3ccc(-c4c5nc(c(-c6cc(S(=O)(=O)[O-])ccc6F)c6ccc([nH]6)c(-c6cc(S(=O)(=O)[O-])ccc6F)c6nc(c(-c7cc(S(=O)(=O)[O-])ccc7F)c7ccc4[nH]7)C=C6)C=C5)cc3)cc2)cc1
REMARK SMILES IDX 29 1 28 2 27 3 25 4 26 5 13 6 14 7 12 8 9 9 10 10 100 11
REMARK SMILES IDX 11 12 99 13 8 14 5 15 6 16 102 17 7 18 101 19 4 20 2 21 1 22
REMARK SMILES IDX 3 23 15 24 16 25 24 26 17 27 23 28 18 29 19 30 20 31 21 32
REMARK SMILES IDX 22 33 30 34 31 35 32 36 33 37 34 38 35 39 36 40 37 41 98 42
REMARK SMILES IDX 38 43 97 44 39 45 40 46 41 47 91 48 42 49 96 50 90 51 92 52
REMARK SMILES IDX 43 53 95 54 89 55 88 56 44 58 76 59 56 60 75 61 57 62 60 63
REMARK SMILES IDX 74 64 93 65 58 66 59 67 73 69 94 70 61 71 45 72 46 73 54 74
REMARK SMILES IDX 47 75 53 76 55 77 52 78 48 79 49 80 50 81 51 82 77 83 78 84
REMARK SMILES IDX 86 85 79 86 85 87 87 88 84 89 80 90 81 91 82 92 83 93 62 94
REMARK SMILES IDX 63 95 71 96 64 97 70 98 72 99 69 100 65 101 66 102 67 103
REMARK SMILES IDX 68 104
REMARK H PARENT 92 57 60 68
REMARK Flexibility Score: inf
ROOT
ATOM      1  C   UNL     1      -7.250  -6.661   7.111  1.00  0.00     0.202 C 
ENDROOT
BRANCH   1   2
ATOM      2  C   UNL     1      -8.337  -6.424   6.058  1.00  0.00     0.261 C 
BRANCH   2   3
ATOM      3  O   UNL     1      -7.906  -6.922   4.781  1.00  0.00    -0.460 OA
BRANCH   3   4
ATOM      4  C   UNL     1      -7.868  -6.005   3.780  1.00  0.00     0.338 C 
ATOM      5  O   UNL     1      -8.364  -4.888   3.813  1.00  0.00    -0.246 OA
BRANCH   4   6
ATOM      6  C   UNL     1      -6.983  -6.475   2.659  1.00  0.00     0.067 C 
ATOM      7  C   UNL     1      -7.081  -7.781   2.310  1.00  0.00     0.024 C 
BRANCH   6   8
ATOM      8  C   UNL     1      -6.070  -5.470   2.039  1.00  0.00    -0.011 A 
ATOM      9  C   UNL     1      -4.181  -3.605   0.955  1.00  0.00    -0.018 A 
ATOM     10  C   UNL     1      -4.868  -4.517   0.141  1.00  0.00     0.009 A 
ATOM     11  C   UNL     1      -4.486  -3.625   2.323  1.00  0.00     0.009 A 
ATOM     12  C   UNL     1      -5.820  -5.402   0.666  1.00  0.00     0.009 A 
ATOM     13  C   UNL     1      -5.404  -4.542   2.854  1.00  0.00     0.009 A 
BRANCH   9  14
ATOM     14  C   UNL     1      -3.219  -2.633   0.389  1.00  0.00    -0.018 A 
ATOM     15  C   UNL     1      -1.451  -0.678  -0.659  1.00  0.00     0.119 A 
ATOM     16  C   UNL     1      -2.562  -1.086  -1.390  1.00  0.00     0.047 A 
ATOM     17  C   UNL     1      -1.220  -1.230   0.595  1.00  0.00     0.047 A 
ATOM     18  C   UNL     1      -3.432  -2.053  -0.874  1.00  0.00     0.012 A 
ATOM     19  C   UNL     1      -2.083  -2.211   1.103  1.00  0.00     0.012 A 
BRANCH  15  20
ATOM     20  O   UNL     1      -0.735   0.363  -1.171  1.00  0.00    -0.491 OA
BRANCH  20  21
ATOM     21  C   UNL     1       0.668   0.183  -1.414  1.00  0.00     0.167 C 
ATOM     22  C   UNL     1       1.520   0.337  -0.159  1.00  0.00     0.052 C 
ATOM     23  C   UNL     1       1.010  -1.070  -2.216  1.00  0.00     0.052 C 
ENDBRANCH  20  21
ENDBRANCH  15  20
ENDBRANCH   9  14
ENDBRANCH   6   8
BRANCH   7  24
ATOM     24  C   UNL     1      -6.432  -8.423   1.156  1.00  0.00    -0.025 A 
ATOM     25  C   UNL     1      -7.265  -8.835   0.106  1.00  0.00     0.009 A 
ATOM     26  C   UNL     1      -5.040  -8.480   0.998  1.00  0.00     0.009 A 
ATOM     27  C   UNL     1      -6.723  -9.177  -1.132  1.00  0.00     0.021 A 
ATOM     28  C   UNL     1      -4.491  -8.817  -0.245  1.00  0.00     0.021 A 
ATOM     29  C   UNL     1      -5.339  -9.132  -1.310  1.00  0.00     0.067 A 
BRANCH  29  30
ATOM     30  S   UNL     1      -4.687  -9.307  -2.955  1.00  0.00     0.175 S 
ATOM     31  C   UNL     1      -4.783 -11.045  -3.276  1.00  0.00     0.163 C 
ATOM     32  O   UNL     1      -5.607  -8.630  -3.850  1.00  0.00    -0.224 OA
ATOM     33  O   UNL     1      -3.285  -8.935  -2.922  1.00  0.00    -0.224 OA
ENDBRANCH  29  30
ENDBRANCH   7  24
ENDBRANCH   4   6
ENDBRANCH   3   4
ENDBRANCH   2   3
ENDBRANCH   1   2
BRANCH   1  34
ATOM     34  O   UNL     1      -6.016  -5.971   6.892  1.00  0.00    -0.374 OA
BRANCH  34  35
ATOM     35  C   UNL     1      -5.107  -6.543   5.950  1.00  0.00     0.202 C 
BRANCH  35  36
ATOM     36  C   UNL     1      -4.262  -7.730   6.422  1.00  0.00     0.261 C 
BRANCH  36  37
ATOM     37  O   UNL     1      -5.060  -8.898   6.675  1.00  0.00    -0.460 OA
BRANCH  37  38
ATOM     38  C   UNL     1      -5.226  -9.186   7.987  1.00  0.00     0.338 C 
ATOM     39  O   UNL     1      -4.716  -8.599   8.935  1.00  0.00    -0.246 OA
BRANCH  38  40
ATOM     40  C   UNL     1      -6.273 -10.209   8.156  1.00  0.00     0.060 A 
ATOM     41  C   UNL     1      -7.250  -9.973   9.132  1.00  0.00     0.016 A 
ATOM     42  C   UNL     1      -6.270 -11.403   7.429  1.00  0.00     0.016 A 
ATOM     43  C   UNL     1      -8.184 -10.958   9.437  1.00  0.00     0.010 A 
ATOM     44  C   UNL     1      -7.207 -12.394   7.740  1.00  0.00     0.010 A 
ATOM     45  C   UNL     1      -8.137 -12.192   8.777  1.00  0.00    -0.014 A 
BRANCH  45  46
ATOM     46  C   UNL     1      -8.930 -13.328   9.309  1.00  0.00     0.031 A 
ATOM     47  C   UNL     1      -8.237 -14.341  10.182  1.00  0.00     0.074 A 
ATOM     48  C   UNL     1     -10.248 -13.430   9.063  1.00  0.00     0.049 A 
ATOM     49  N   UNL     1      -8.711 -15.425  10.737  1.00  0.00    -0.248 NA
ATOM     50  C   UNL     1      -6.813 -14.094  10.457  1.00  0.00     0.031 C 
ATOM     51  C   UNL     1     -11.035 -12.481   8.277  1.00  0.00     0.029 A 
ATOM     52  N   UNL     1     -11.156 -14.381   9.453  1.00  0.00    -0.354 N 
ATOM     53  C   UNL     1      -7.644 -15.994  11.426  1.00  0.00     0.074 A 
ATOM     54  C   UNL     1      -6.489 -15.157  11.177  1.00  0.00     0.031 C 
ATOM     55  C   UNL     1     -12.311 -12.902   8.238  1.00  0.00     0.029 A 
ATOM     56  C   UNL     1     -12.424 -14.165   8.965  1.00  0.00     0.049 A 
ATOM     57  H   UNL     1     -10.923 -15.145  10.027  1.00  0.00     0.167 HD
ATOM     58  C   UNL     1      -7.631 -17.105  12.204  1.00  0.00     0.034 A 
ATOM     59  C   UNL     1     -13.539 -14.914   9.078  1.00  0.00     0.034 A 
ATOM     60  C   UNL     1      -8.789 -17.935  12.431  1.00  0.00     0.049 A 
ATOM     61  C   UNL     1     -13.484 -16.192   9.882  1.00  0.00     0.074 A 
ATOM     62  C   UNL     1      -8.892 -19.086  13.193  1.00  0.00     0.029 A 
ATOM     63  N   UNL     1     -10.049 -17.707  11.889  1.00  0.00    -0.354 N 
ATOM     64  N   UNL     1     -12.469 -16.724  10.523  1.00  0.00    -0.248 NA
ATOM     65  C   UNL     1     -14.732 -16.959   9.990  1.00  0.00     0.031 C 
ATOM     66  C   UNL     1     -10.191 -19.589  13.056  1.00  0.00     0.029 A 
ATOM     67  C   UNL     1     -10.925 -18.708  12.279  1.00  0.00     0.049 A 
ATOM     68  H   UNL     1     -10.284 -16.944  11.312  1.00  0.00     0.167 HD
ATOM     69  C   UNL     1     -12.968 -17.867  11.144  1.00  0.00     0.074 A 
ATOM     70  C   UNL     1     -14.375 -17.940  10.805  1.00  0.00     0.031 C 
ATOM     71  C   UNL     1     -12.326 -18.770  11.931  1.00  0.00     0.034 A 
BRANCH  58  72
ATOM     72  C   UNL     1      -6.307 -17.506  12.812  1.00  0.00     0.023 A 
ATOM     73  C   UNL     1      -5.635 -16.683  13.734  1.00  0.00     0.031 A 
ATOM     74  C   UNL     1      -5.683 -18.706  12.427  1.00  0.00     0.131 A 
ATOM     75  C   UNL     1      -4.349 -17.030  14.176  1.00  0.00     0.055 A 
ATOM     76  C   UNL     1      -4.441 -19.087  12.937  1.00  0.00     0.041 A 
ATOM     77  F   UNL     1      -6.262 -19.521  11.531  1.00  0.00    -0.206 F 
ATOM     78  C   UNL     1      -3.758 -18.239  13.804  1.00  0.00     0.022 A 
BRANCH  75  79
ATOM     79  S   UNL     1      -3.394 -15.805  15.114  1.00  0.00     0.124 S 
ATOM     80  O   UNL     1      -3.359 -14.682  14.180  1.00  0.00    -0.237 OA
ATOM     81  O   UNL     1      -4.208 -15.618  16.309  1.00  0.00    -0.237 OA
ATOM     82  O   UNL     1      -2.108 -16.465  15.330  1.00  0.00    -0.744 OA
ENDBRANCH  75  79
ENDBRANCH  58  72
BRANCH  59  83
ATOM     83  C   UNL     1     -14.798 -14.501   8.394  1.00  0.00     0.023 A 
ATOM     84  C   UNL     1     -15.952 -14.180   9.127  1.00  0.00     0.031 A 
ATOM     85  C   UNL     1     -14.880 -14.473   6.990  1.00  0.00     0.131 A 
ATOM     86  C   UNL     1     -17.150 -13.892   8.454  1.00  0.00     0.055 A 
ATOM     87  C   UNL     1     -16.059 -14.135   6.326  1.00  0.00     0.041 A 
ATOM     88  F   UNL     1     -13.806 -14.771   6.241  1.00  0.00    -0.206 F 
ATOM     89  C   UNL     1     -17.208 -13.855   7.059  1.00  0.00     0.022 A 
BRANCH  86  90
ATOM     90  S   UNL     1     -18.658 -13.649   9.431  1.00  0.00     0.124 S 
ATOM     91  O   UNL     1     -18.757 -14.917  10.144  1.00  0.00    -0.237 OA
ATOM     92  O   UNL     1     -18.311 -12.484  10.238  1.00  0.00    -0.237 OA
ATOM     93  O   UNL     1     -19.686 -13.419   8.418  1.00  0.00    -0.744 OA
ENDBRANCH  86  90
ENDBRANCH  59  83
BRANCH  71  94
ATOM     94  C   UNL     1     -13.162 -19.875  12.533  1.00  0.00     0.023 A 
ATOM     95  C   UNL     1     -13.767 -20.869  11.744  1.00  0.00     0.031 A 
ATOM     96  C   UNL     1     -13.366 -19.922  13.924  1.00  0.00     0.131 A 
ATOM     97  C   UNL     1     -14.598 -21.828  12.344  1.00  0.00     0.055 A 
ATOM     98  C   UNL     1     -14.140 -20.917  14.522  1.00  0.00     0.041 A 
ATOM     99  F   UNL     1     -12.813 -18.999  14.728  1.00  0.00    -0.206 F 
ATOM    100  C   UNL     1     -14.775 -21.868  13.729  1.00  0.00     0.022 A 
BRANCH  97 101
ATOM    101  S   UNL     1     -15.532 -22.961  11.278  1.00  0.00     0.124 S 
ATOM    102  O   UNL     1     -16.273 -22.036  10.426  1.00  0.00    -0.237 OA
ATOM    103  O   UNL     1     -14.470 -23.719  10.624  1.00  0.00    -0.237 OA
ATOM    104  O   UNL     1     -16.348 -23.725  12.221  1.00  0.00    -0.744 OA
ENDBRANCH  97 101
ENDBRANCH  71  94
ENDBRANCH  45  46
ENDBRANCH  38  40
ENDBRANCH  37  38
ENDBRANCH  36  37
ENDBRANCH  35  36
ENDBRANCH  34  35
ENDBRANCH   1  34
TORSDOF 23
