REMARK SMILES Cc1cc(SC[C@H]([NH3+])C(=O)OCCOCCOC(=O)c2ccc(-c3c4nc(c(-c5cc(S(=O)(=O)[O-])ccc5F)c5ccc([nH]5)c(-c5cc(S(=O)(=O)[O-])ccc5F)c5nc(c(-c6cc(S(=O)(=O)[O-])ccc6F)c6ccc3[nH]6)C=C5)C=C4)cc2)ccc1N
REMARK SMILES IDX 13 1 12 2 11 3 9 4 10 5 7 6 6 7 5 8 4 9 1 10 2 11 3 12 85 13
REMARK SMILES IDX 84 14 83 15 86 16 8 19 14 23 15 24 16 25 17 26 18 27 19 28
REMARK SMILES IDX 20 29 21 30 82 31 22 32 81 33 23 34 24 35 25 36 75 37 26 38
REMARK SMILES IDX 80 39 74 40 76 41 27 42 79 43 73 44 72 45 28 47 60 48 40 49
REMARK SMILES IDX 59 50 41 51 44 52 58 53 77 54 42 55 43 56 57 58 78 59 45 60
REMARK SMILES IDX 29 61 30 62 38 63 31 64 37 65 39 66 36 67 32 68 33 69 34 70
REMARK SMILES IDX 35 71 61 72 62 73 70 74 63 75 69 76 71 77 68 78 64 79 65 80
REMARK SMILES IDX 66 81 67 82 46 83 47 84 55 85 48 86 54 87 56 88 53 89 49 90
REMARK SMILES IDX 50 91 51 92 52 93
REMARK H PARENT 86 17 86 18 8 20 8 21 8 22 76 46 44 57
REMARK Flexibility Score: inf
ROOT
ATOM      1  C   UNL     1      -3.073   7.469   0.790  1.00  0.00     0.202 C 
ENDROOT
BRANCH   1   2
ATOM      2  C   UNL     1      -2.312   6.484  -0.097  1.00  0.00     0.261 C 
BRANCH   2   3
ATOM      3  O   UNL     1      -2.065   5.144   0.341  1.00  0.00    -0.459 OA
BRANCH   3   4
ATOM      4  C   UNL     1      -2.118   4.737   1.629  1.00  0.00     0.365 C 
ATOM      5  O   UNL     1      -2.514   5.373   2.592  1.00  0.00    -0.245 OA
BRANCH   4   6
ATOM      6  C   UNL     1      -1.602   3.303   1.708  1.00  0.00     0.302 C 
BRANCH   6   7
ATOM      7  C   UNL     1      -0.094   3.297   1.397  1.00  0.00     0.152 C 
BRANCH   7   8
ATOM      8  S   UNL     1       0.991   4.012   2.703  1.00  0.00    -0.119 SA
BRANCH   8   9
ATOM      9  C   UNL     1       0.816   5.790   2.557  1.00  0.00     0.008 A 
ATOM     10  C   UNL     1       0.546   8.651   0.024  1.00  0.00     0.046 C 
ATOM     11  C   UNL     1       0.623   7.914   1.338  1.00  0.00    -0.027 A 
ATOM     12  C   UNL     1       0.775   6.504   1.354  1.00  0.00     0.020 A 
ATOM     13  C   UNL     1       0.514   8.617   2.550  1.00  0.00     0.034 A 
ATOM     14  C   UNL     1       0.659   7.910   3.744  1.00  0.00     0.027 A 
ATOM     15  C   UNL     1       0.794   6.518   3.749  1.00  0.00     0.017 A 
BRANCH  13  16
ATOM     16  N   UNL     1       0.392  10.000   2.593  1.00  0.00    -0.399 N 
ATOM     17  H   UNL     1       0.289  10.511   1.758  1.00  0.00     0.156 HD
ATOM     18  H   UNL     1       0.408  10.469   3.458  1.00  0.00     0.156 HD
ENDBRANCH  13  16
ENDBRANCH   8   9
ENDBRANCH   7   8
ENDBRANCH   6   7
BRANCH   6  19
ATOM     19  N   UNL     1      -2.341   2.449   0.730  1.00  0.00    -0.345 N 
ATOM     20  H   UNL     1      -2.200   2.811  -0.213  1.00  0.00     0.345 HD
ATOM     21  H   UNL     1      -3.336   2.459   0.953  1.00  0.00     0.345 HD
ATOM     22  H   UNL     1      -1.991   1.492   0.782  1.00  0.00     0.345 HD
ENDBRANCH   6  19
ENDBRANCH   4   6
ENDBRANCH   3   4
ENDBRANCH   2   3
ENDBRANCH   1   2
BRANCH   1  23
ATOM     23  O   UNL     1      -4.461   7.264   1.054  1.00  0.00    -0.374 OA
BRANCH  23  24
ATOM     24  C   UNL     1      -5.141   6.179   0.446  1.00  0.00     0.202 C 
BRANCH  24  25
ATOM     25  C   UNL     1      -5.794   6.513  -0.902  1.00  0.00     0.261 C 
BRANCH  25  26
ATOM     26  O   UNL     1      -4.846   6.716  -1.966  1.00  0.00    -0.460 OA
BRANCH  26  27
ATOM     27  C   UNL     1      -4.465   8.001  -2.183  1.00  0.00     0.338 C 
ATOM     28  O   UNL     1      -4.878   8.986  -1.591  1.00  0.00    -0.246 OA
BRANCH  27  29
ATOM     29  C   UNL     1      -3.343   8.059  -3.159  1.00  0.00     0.060 A 
ATOM     30  C   UNL     1      -2.390   9.077  -3.012  1.00  0.00     0.016 A 
ATOM     31  C   UNL     1      -3.237   7.162  -4.227  1.00  0.00     0.016 A 
ATOM     32  C   UNL     1      -1.381   9.249  -3.967  1.00  0.00     0.010 A 
ATOM     33  C   UNL     1      -2.228   7.336  -5.184  1.00  0.00     0.010 A 
ATOM     34  C   UNL     1      -1.321   8.408  -5.086  1.00  0.00    -0.014 A 
BRANCH  34  35
ATOM     35  C   UNL     1      -0.456   8.756  -6.247  1.00  0.00     0.031 A 
ATOM     36  C   UNL     1      -1.092   9.426  -7.439  1.00  0.00     0.074 A 
ATOM     37  C   UNL     1       0.866   8.501  -6.253  1.00  0.00     0.049 A 
ATOM     38  N   UNL     1      -0.572   9.739  -8.598  1.00  0.00    -0.248 NA
ATOM     39  C   UNL     1      -2.511   9.788  -7.299  1.00  0.00     0.031 C 
ATOM     40  C   UNL     1       1.619   7.919  -5.144  1.00  0.00     0.029 A 
ATOM     41  N   UNL     1       1.810   8.692  -7.234  1.00  0.00    -0.354 N 
ATOM     42  C   UNL     1      -1.599  10.330  -9.328  1.00  0.00     0.074 A 
ATOM     43  C   UNL     1      -2.781  10.295  -8.492  1.00  0.00     0.031 C 
ATOM     44  C   UNL     1       2.906   7.791  -5.511  1.00  0.00     0.029 A 
ATOM     45  C   UNL     1       3.063   8.235  -6.896  1.00  0.00     0.049 A 
ATOM     46  H   UNL     1       1.607   9.116  -8.099  1.00  0.00     0.167 HD
ATOM     47  C   UNL     1      -1.562  10.861 -10.576  1.00  0.00     0.034 A 
ATOM     48  C   UNL     1       4.195   8.153  -7.629  1.00  0.00     0.034 A 
ATOM     49  C   UNL     1      -0.384  10.875 -11.409  1.00  0.00     0.049 A 
ATOM     50  C   UNL     1       4.183   8.640  -9.063  1.00  0.00     0.074 A 
ATOM     51  C   UNL     1      -0.241  11.380 -12.691  1.00  0.00     0.029 A 
ATOM     52  N   UNL     1       0.850  10.349 -11.053  1.00  0.00    -0.354 N 
ATOM     53  N   UNL     1       3.202   9.186  -9.745  1.00  0.00    -0.248 NA
ATOM     54  C   UNL     1       5.433   8.500  -9.825  1.00  0.00     0.031 C 
ATOM     55  C   UNL     1       1.052  11.088 -13.137  1.00  0.00     0.029 A 
ATOM     56  C   UNL     1       1.747  10.484 -12.102  1.00  0.00     0.049 A 
ATOM     57  H   UNL     1       1.059   9.940 -10.182  1.00  0.00     0.167 HD
ATOM     58  C   UNL     1       3.732   9.490 -10.999  1.00  0.00     0.074 A 
ATOM     59  C   UNL     1       5.118   9.075 -10.976  1.00  0.00     0.031 C 
ATOM     60  C   UNL     1       3.130  10.067 -12.071  1.00  0.00     0.034 A 
BRANCH  47  61
ATOM     61  C   UNL     1      -2.851  11.417 -11.132  1.00  0.00     0.023 A 
ATOM     62  C   UNL     1      -3.493  12.525 -10.550  1.00  0.00     0.031 A 
ATOM     63  C   UNL     1      -3.462  10.815 -12.246  1.00  0.00     0.131 A 
ATOM     64  C   UNL     1      -4.738  12.948 -11.037  1.00  0.00     0.055 A 
ATOM     65  C   UNL     1      -4.661  11.294 -12.778  1.00  0.00     0.041 A 
ATOM     66  F   UNL     1      -2.911   9.739 -12.830  1.00  0.00    -0.206 F 
ATOM     67  C   UNL     1      -5.314  12.357 -12.164  1.00  0.00     0.022 A 
BRANCH  64  68
ATOM     68  S   UNL     1      -5.667  14.182 -10.086  1.00  0.00     0.124 S 
ATOM     69  O   UNL     1      -5.795  13.520  -8.790  1.00  0.00    -0.237 OA
ATOM     70  O   UNL     1      -4.784  15.342 -10.127  1.00  0.00    -0.237 OA
ATOM     71  O   UNL     1      -6.916  14.321 -10.832  1.00  0.00    -0.744 OA
ENDBRANCH  64  68
ENDBRANCH  47  61
BRANCH  48  72
ATOM     72  C   UNL     1       5.433   7.542  -7.057  1.00  0.00     0.023 A 
ATOM     73  C   UNL     1       6.625   8.278  -6.947  1.00  0.00     0.031 A 
ATOM     74  C   UNL     1       5.466   6.184  -6.691  1.00  0.00     0.131 A 
ATOM     75  C   UNL     1       7.808   7.641  -6.537  1.00  0.00     0.055 A 
ATOM     76  C   UNL     1       6.630   5.571  -6.223  1.00  0.00     0.041 A 
ATOM     77  F   UNL     1       4.361   5.427  -6.786  1.00  0.00    -0.206 F 
ATOM     78  C   UNL     1       7.815   6.297  -6.159  1.00  0.00     0.022 A 
BRANCH  75  79
ATOM     79  S   UNL     1       9.367   8.567  -6.614  1.00  0.00     0.124 S 
ATOM     80  O   UNL     1       9.419   8.940  -8.023  1.00  0.00    -0.237 OA
ATOM     81  O   UNL     1       9.120   9.653  -5.671  1.00  0.00    -0.237 OA
ATOM     82  O   UNL     1      10.365   7.589  -6.189  1.00  0.00    -0.744 OA
ENDBRANCH  75  79
ENDBRANCH  48  72
BRANCH  60  83
ATOM     83  C   UNL     1       3.983  10.342 -13.288  1.00  0.00     0.023 A 
ATOM     84  C   UNL     1       4.531   9.308 -14.066  1.00  0.00     0.031 A 
ATOM     85  C   UNL     1       4.242  11.669 -13.679  1.00  0.00     0.131 A 
ATOM     86  C   UNL     1       5.350   9.617 -15.165  1.00  0.00     0.055 A 
ATOM     87  C   UNL     1       5.005  11.970 -14.809  1.00  0.00     0.041 A 
ATOM     88  F   UNL     1       3.747  12.699 -12.973  1.00  0.00    -0.206 F 
ATOM     89  C   UNL     1       5.574  10.941 -15.552  1.00  0.00     0.022 A 
BRANCH  86  90
ATOM     90  S   UNL     1       6.193   8.266 -16.034  1.00  0.00     0.124 S 
ATOM     91  O   UNL     1       6.976   7.657 -14.963  1.00  0.00    -0.237 OA
ATOM     92  O   UNL     1       5.076   7.473 -16.537  1.00  0.00    -0.237 OA
ATOM     93  O   UNL     1       6.976   8.953 -17.060  1.00  0.00    -0.744 OA
ENDBRANCH  86  90
ENDBRANCH  60  83
ENDBRANCH  34  35
ENDBRANCH  27  29
ENDBRANCH  26  27
ENDBRANCH  25  26
ENDBRANCH  24  25
ENDBRANCH  23  24
ENDBRANCH   1  23
TORSDOF 22
