REMARK SMILES CNC(=O)NC1=[NH+]N=CN[C@@H]1C(=O)OCCOCCOC(=O)c1ccc(-c2c3nc(c(-c4cc(S(=O)(=O)[O-])ccc4F)c4ccc([nH]4)c(-c4cc(S(=O)(=O)[O-])ccc4F)c4nc(c(-c5cc(S(=O)(=O)[O-])ccc5F)c5ccc2[nH]5)C=C4)C=C3)cc1
REMARK SMILES IDX 18 1 17 2 16 3 15 4 14 5 12 6 13 7 11 8 1 9 2 10 3 11 4 13
REMARK SMILES IDX 5 14 6 15 7 17 8 18 10 20 9 21 19 23 20 24 21 25 22 26 23 27
REMARK SMILES IDX 24 28 85 29 25 30 84 31 26 32 27 33 28 34 78 35 29 36 83 37
REMARK SMILES IDX 77 38 79 39 30 40 82 41 76 42 75 43 31 45 63 46 43 47 62 48
REMARK SMILES IDX 44 49 47 50 61 51 80 52 45 53 46 54 60 56 81 57 48 58 32 59
REMARK SMILES IDX 33 60 41 61 34 62 40 63 42 64 39 65 35 66 36 67 37 68 38 69
REMARK SMILES IDX 64 70 65 71 73 72 66 73 72 74 74 75 71 76 67 77 68 78 69 79
REMARK SMILES IDX 70 80 49 81 50 82 58 83 51 84 57 85 59 86 56 87 52 88 53 89
REMARK SMILES IDX 54 90 55 91
REMARK H PARENT 2 12 5 16 7 19 10 22 79 44 47 55
REMARK Flexibility Score: inf
ROOT
ATOM      1  C   UNL     1      -2.446   0.694  -2.786  1.00  0.00     0.202 C 
ENDROOT
BRANCH   1   2
ATOM      2  O   UNL     1      -3.679   0.168  -2.299  1.00  0.00    -0.374 OA
BRANCH   2   3
ATOM      3  C   UNL     1      -4.567   1.039  -1.601  1.00  0.00     0.202 C 
BRANCH   3   4
ATOM      4  C   UNL     1      -4.191   1.408  -0.163  1.00  0.00     0.261 C 
BRANCH   4   5
ATOM      5  O   UNL     1      -2.873   1.970  -0.084  1.00  0.00    -0.461 OA
BRANCH   5   6
ATOM      6  C   UNL     1      -1.949   1.194   0.558  1.00  0.00     0.341 C 
ATOM      7  O   UNL     1      -2.211   0.125   1.096  1.00  0.00    -0.249 OA
BRANCH   6   8
ATOM      8  C   UNL     1      -0.524   1.728   0.402  1.00  0.00     0.308 C 
ATOM      9  C   UNL     1       1.834  -0.694   0.540  1.00  0.00     0.147 C 
ATOM     10  N   UNL     1       0.713  -1.077   1.368  1.00  0.00    -0.321 N 
ATOM     11  C   UNL     1       0.251  -0.448   2.478  1.00  0.00     0.406 C 
ATOM     12  H   UNL     1       0.228  -1.889   1.094  1.00  0.00     0.167 HD
ATOM     13  O   UNL     1      -0.299  -1.096   3.364  1.00  0.00    -0.221 OA
ATOM     14  N   UNL     1       0.440   0.899   2.595  1.00  0.00    -0.191 N 
ATOM     15  C   UNL     1       0.163   1.946   1.746  1.00  0.00     0.311 C 
ATOM     16  H   UNL     1       0.852   1.173   3.447  1.00  0.00     0.317 HD
ATOM     17  N   UNL     1       0.540   3.103   2.197  1.00  0.00    -0.148 N 
ATOM     18  N   UNL     1       0.380   4.247   1.401  1.00  0.00    -0.077 NA
ATOM     19  H   UNL     1       0.938   3.178   3.095  1.00  0.00     0.342 HD
ATOM     20  N   UNL     1      -0.469   2.954  -0.396  1.00  0.00    -0.350 N 
ATOM     21  C   UNL     1      -0.082   4.107   0.205  1.00  0.00     0.241 C 
ATOM     22  H   UNL     1      -0.710   2.943  -1.351  1.00  0.00     0.163 HD
ENDBRANCH   6   8
ENDBRANCH   5   6
ENDBRANCH   4   5
ENDBRANCH   3   4
ENDBRANCH   2   3
ENDBRANCH   1   2
BRANCH   1  23
ATOM     23  C   UNL     1      -2.498   1.796  -3.852  1.00  0.00     0.261 C 
BRANCH  23  24
ATOM     24  O   UNL     1      -3.019   3.037  -3.337  1.00  0.00    -0.460 OA
BRANCH  24  25
ATOM     25  C   UNL     1      -4.123   3.487  -3.987  1.00  0.00     0.338 C 
ATOM     26  O   UNL     1      -4.643   2.986  -4.977  1.00  0.00    -0.246 OA
BRANCH  25  27
ATOM     27  C   UNL     1      -4.769   4.571  -3.228  1.00  0.00     0.060 A 
ATOM     28  C   UNL     1      -6.080   4.357  -2.782  1.00  0.00     0.016 A 
ATOM     29  C   UNL     1      -4.153   5.811  -3.053  1.00  0.00     0.016 A 
ATOM     30  C   UNL     1      -6.796   5.396  -2.192  1.00  0.00     0.010 A 
ATOM     31  C   UNL     1      -4.880   6.858  -2.471  1.00  0.00     0.010 A 
ATOM     32  C   UNL     1      -6.214   6.664  -2.069  1.00  0.00    -0.014 A 
BRANCH  32  33
ATOM     33  C   UNL     1      -7.065   7.812  -1.663  1.00  0.00     0.031 A 
ATOM     34  C   UNL     1      -7.626   8.715  -2.729  1.00  0.00     0.074 A 
ATOM     35  C   UNL     1      -7.379   8.010  -0.370  1.00  0.00     0.049 A 
ATOM     36  N   UNL     1      -8.377   9.779  -2.606  1.00  0.00    -0.248 NA
ATOM     37  C   UNL     1      -7.296   8.369  -4.120  1.00  0.00     0.031 C 
ATOM     38  C   UNL     1      -6.938   7.169   0.742  1.00  0.00     0.029 A 
ATOM     39  N   UNL     1      -8.143   8.982   0.225  1.00  0.00    -0.354 N 
ATOM     40  C   UNL     1      -8.614  10.228  -3.901  1.00  0.00     0.074 A 
ATOM     41  C   UNL     1      -7.893   9.342  -4.791  1.00  0.00     0.031 C 
ATOM     42  C   UNL     1      -7.431   7.669   1.888  1.00  0.00     0.029 A 
ATOM     43  C   UNL     1      -8.191   8.884   1.597  1.00  0.00     0.049 A 
ATOM     44  H   UNL     1      -8.613   9.684  -0.281  1.00  0.00     0.167 HD
ATOM     45  C   UNL     1      -9.371  11.276  -4.310  1.00  0.00     0.034 A 
ATOM     46  C   UNL     1      -8.759   9.696   2.511  1.00  0.00     0.034 A 
ATOM     47  C   UNL     1     -10.072  12.160  -3.410  1.00  0.00     0.049 A 
ATOM     48  C   UNL     1      -9.519  10.912   2.036  1.00  0.00     0.074 A 
ATOM     49  C   UNL     1     -10.865  13.252  -3.716  1.00  0.00     0.029 A 
ATOM     50  N   UNL     1     -10.055  12.061  -2.024  1.00  0.00    -0.354 N 
ATOM     51  N   UNL     1      -9.736  11.325   0.807  1.00  0.00    -0.248 NA
ATOM     52  C   UNL     1     -10.118  11.766   3.070  1.00  0.00     0.031 C 
ATOM     53  C   UNL     1     -11.270  13.852  -2.519  1.00  0.00     0.029 A 
ATOM     54  C   UNL     1     -10.796  13.090  -1.463  1.00  0.00     0.049 A 
ATOM     55  H   UNL     1      -9.585  11.361  -1.515  1.00  0.00     0.167 HD
ATOM     56  C   UNL     1     -10.523  12.469   0.924  1.00  0.00     0.074 A 
ATOM     57  C   UNL     1     -10.756  12.668   2.340  1.00  0.00     0.031 C 
ATOM     58  C   UNL     1     -11.011  13.282  -0.048  1.00  0.00     0.034 A 
BRANCH  45  59
ATOM     59  C   UNL     1      -9.437  11.550  -5.793  1.00  0.00     0.023 A 
ATOM     60  C   UNL     1     -10.038  10.646  -6.687  1.00  0.00     0.031 A 
ATOM     61  C   UNL     1      -8.874  12.725  -6.322  1.00  0.00     0.131 A 
ATOM     62  C   UNL     1     -10.012  10.905  -8.066  1.00  0.00     0.055 A 
ATOM     63  C   UNL     1      -8.916  13.011  -7.688  1.00  0.00     0.041 A 
ATOM     64  F   UNL     1      -8.265  13.612  -5.520  1.00  0.00    -0.206 F 
ATOM     65  C   UNL     1      -9.477  12.092  -8.570  1.00  0.00     0.022 A 
BRANCH  62  66
ATOM     66  S   UNL     1     -10.576   9.609  -9.204  1.00  0.00     0.124 S 
ATOM     67  O   UNL     1      -9.665   8.514  -8.879  1.00  0.00    -0.237 OA
ATOM     68  O   UNL     1     -11.966   9.423  -8.807  1.00  0.00    -0.237 OA
ATOM     69  O   UNL     1     -10.378  10.203 -10.525  1.00  0.00    -0.744 OA
ENDBRANCH  62  66
ENDBRANCH  45  59
BRANCH  46  70
ATOM     70  C   UNL     1      -8.595   9.429   3.970  1.00  0.00     0.023 A 
ATOM     71  C   UNL     1      -9.703   9.177   4.795  1.00  0.00     0.031 A 
ATOM     72  C   UNL     1      -7.327   9.497   4.574  1.00  0.00     0.131 A 
ATOM     73  C   UNL     1      -9.528   9.057   6.183  1.00  0.00     0.055 A 
ATOM     74  C   UNL     1      -7.151   9.319   5.947  1.00  0.00     0.041 A 
ATOM     75  F   UNL     1      -6.234   9.740   3.833  1.00  0.00    -0.206 F 
ATOM     76  C   UNL     1      -8.258   9.113   6.763  1.00  0.00     0.022 A 
BRANCH  73  77
ATOM     77  S   UNL     1     -11.000   8.932   7.236  1.00  0.00     0.124 S 
ATOM     78  O   UNL     1     -11.732  10.138   6.867  1.00  0.00    -0.237 OA
ATOM     79  O   UNL     1     -11.581   7.669   6.794  1.00  0.00    -0.237 OA
ATOM     80  O   UNL     1     -10.451   8.923   8.590  1.00  0.00    -0.744 OA
ENDBRANCH  73  77
ENDBRANCH  46  70
BRANCH  58  81
ATOM     81  C   UNL     1     -11.882  14.433   0.394  1.00  0.00     0.023 A 
ATOM     82  C   UNL     1     -11.369  15.504   1.147  1.00  0.00     0.031 A 
ATOM     83  C   UNL     1     -13.251  14.450   0.070  1.00  0.00     0.131 A 
ATOM     84  C   UNL     1     -12.229  16.514   1.602  1.00  0.00     0.055 A 
ATOM     85  C   UNL     1     -14.090  15.489   0.473  1.00  0.00     0.041 A 
ATOM     86  F   UNL     1     -13.795  13.453  -0.647  1.00  0.00    -0.206 F 
ATOM     87  C   UNL     1     -13.583  16.523   1.256  1.00  0.00     0.022 A 
BRANCH  84  88
ATOM     88  S   UNL     1     -11.576  17.770   2.737  1.00  0.00     0.124 S 
ATOM     89  O   UNL     1     -11.088  16.955   3.844  1.00  0.00    -0.237 OA
ATOM     90  O   UNL     1     -10.552  18.421   1.925  1.00  0.00    -0.237 OA
ATOM     91  O   UNL     1     -12.742  18.598   3.042  1.00  0.00    -0.744 OA
ENDBRANCH  84  88
ENDBRANCH  58  81
ENDBRANCH  32  33
ENDBRANCH  25  27
ENDBRANCH  24  25
ENDBRANCH  23  24
ENDBRANCH   1  23
TORSDOF 17
