REMARK SMILES COc1ccc(NC(=O)NCc2ccc(C(=O)OCCOCCOC(=O)c3ccc(-c4c5nc(c(-c6cc(S(=O)(=O)[O-])ccc6F)c6ccc([nH]6)c(-c6cc(S(=O)(=O)[O-])ccc6F)c6nc(c(-c7cc(S(=O)(=O)[O-])ccc7F)c7ccc4[nH]7)C=C6)C=C5)cc3)cc2)c(OC)c1
REMARK SMILES IDX 20 1 19 2 18 3 16 4 17 5 15 6 12 7 13 8 91 9 14 10 90 11
REMARK SMILES IDX 11 12 10 13 7 14 8 15 9 17 6 19 3 20 4 21 95 22 5 23 92 24
REMARK SMILES IDX 2 25 1 26 93 27 94 28 21 29 22 30 23 31 24 32 25 33 26 34
REMARK SMILES IDX 27 35 28 36 89 37 29 38 88 39 30 40 31 41 32 42 82 43 33 44
REMARK SMILES IDX 87 45 81 46 83 47 34 48 86 49 80 50 79 51 35 53 67 54 47 55
REMARK SMILES IDX 66 56 48 57 51 58 65 59 84 60 49 61 50 62 64 64 85 65 52 66
REMARK SMILES IDX 36 67 37 68 45 69 38 70 44 71 46 72 43 73 39 74 40 75 41 76
REMARK SMILES IDX 42 77 68 78 69 79 77 80 70 81 76 82 78 83 75 84 71 85 72 86
REMARK SMILES IDX 73 87 74 88 53 89 54 90 62 91 55 92 61 93 63 94 60 95 56 96
REMARK SMILES IDX 57 97 58 98 59 99
REMARK H PARENT 7 16 10 18 83 52 51 63
REMARK Flexibility Score: inf
ROOT
ATOM      1  C   UNL     1      -7.547  -1.862  -4.284  1.00  0.00     0.202 C 
ENDROOT
BRANCH   1   2
ATOM      2  C   UNL     1      -6.637  -2.764  -5.123  1.00  0.00     0.261 C 
BRANCH   2   3
ATOM      3  O   UNL     1      -5.846  -3.647  -4.313  1.00  0.00    -0.460 OA
BRANCH   3   4
ATOM      4  C   UNL     1      -4.529  -3.335  -4.291  1.00  0.00     0.338 C 
ATOM      5  O   UNL     1      -3.966  -2.474  -4.950  1.00  0.00    -0.246 OA
BRANCH   4   6
ATOM      6  C   UNL     1      -3.837  -4.045  -3.196  1.00  0.00     0.060 A 
ATOM      7  C   UNL     1      -2.294  -5.259  -1.198  1.00  0.00    -0.029 A 
ATOM      8  C   UNL     1      -2.139  -3.894  -1.496  1.00  0.00     0.006 A 
ATOM      9  C   UNL     1      -3.281  -5.994  -1.868  1.00  0.00     0.006 A 
ATOM     10  C   UNL     1      -2.897  -3.293  -2.488  1.00  0.00     0.016 A 
ATOM     11  C   UNL     1      -4.061  -5.386  -2.865  1.00  0.00     0.016 A 
BRANCH   7  12
ATOM     12  C   UNL     1      -1.437  -5.834  -0.103  1.00  0.00     0.153 C 
BRANCH  12  13
ATOM     13  N   UNL     1      -0.551  -6.913  -0.479  1.00  0.00    -0.334 N 
ATOM     14  N   UNL     1       1.711  -6.133  -0.316  1.00  0.00    -0.305 N 
ATOM     15  C   UNL     1       0.780  -7.076  -0.561  1.00  0.00     0.319 C 
ATOM     16  H   UNL     1       2.605  -6.399  -0.630  1.00  0.00     0.172 HD
ATOM     17  O   UNL     1       1.176  -8.165  -0.995  1.00  0.00    -0.248 OA
ATOM     18  H   UNL     1      -1.043  -7.726  -0.737  1.00  0.00     0.165 HD
BRANCH  14  19
ATOM     19  C   UNL     1       1.714  -4.863   0.280  1.00  0.00     0.085 A 
ATOM     20  C   UNL     1       1.333  -2.179   0.938  1.00  0.00     0.122 A 
ATOM     21  C   UNL     1       0.717  -3.180   1.687  1.00  0.00     0.049 A 
ATOM     22  C   UNL     1       2.306  -2.531   0.006  1.00  0.00     0.095 A 
ATOM     23  C   UNL     1       0.937  -4.527   1.382  1.00  0.00     0.034 A 
ATOM     24  C   UNL     1       2.543  -3.880  -0.276  1.00  0.00     0.146 A 
BRANCH  20  25
ATOM     25  O   UNL     1       0.928  -0.901   1.207  1.00  0.00    -0.497 OA
ATOM     26  C   UNL     1       1.148   0.046   0.164  1.00  0.00     0.278 C 
ENDBRANCH  20  25
BRANCH  24  27
ATOM     27  O   UNL     1       3.518  -4.279  -1.159  1.00  0.00    -0.494 OA
ATOM     28  C   UNL     1       4.762  -3.608  -0.938  1.00  0.00     0.278 C 
ENDBRANCH  24  27
ENDBRANCH  14  19
ENDBRANCH  12  13
ENDBRANCH   7  12
ENDBRANCH   4   6
ENDBRANCH   3   4
ENDBRANCH   2   3
ENDBRANCH   1   2
BRANCH   1  29
ATOM     29  O   UNL     1      -6.932  -1.020  -3.312  1.00  0.00    -0.374 OA
BRANCH  29  30
ATOM     30  C   UNL     1      -6.503  -1.613  -2.086  1.00  0.00     0.202 C 
BRANCH  30  31
ATOM     31  C   UNL     1      -7.574  -2.095  -1.098  1.00  0.00     0.261 C 
BRANCH  31  32
ATOM     32  O   UNL     1      -8.290  -3.248  -1.573  1.00  0.00    -0.460 OA
BRANCH  32  33
ATOM     33  C   UNL     1      -9.591  -3.018  -1.886  1.00  0.00     0.338 C 
ATOM     34  O   UNL     1     -10.199  -1.970  -1.770  1.00  0.00    -0.246 OA
BRANCH  33  35
ATOM     35  C   UNL     1     -10.137  -4.187  -2.600  1.00  0.00     0.060 A 
ATOM     36  C   UNL     1     -10.648  -3.991  -3.890  1.00  0.00     0.016 A 
ATOM     37  C   UNL     1     -10.222  -5.434  -1.981  1.00  0.00     0.016 A 
ATOM     38  C   UNL     1     -11.286  -5.036  -4.554  1.00  0.00     0.010 A 
ATOM     39  C   UNL     1     -10.874  -6.477  -2.643  1.00  0.00     0.010 A 
ATOM     40  C   UNL     1     -11.439  -6.272  -3.917  1.00  0.00    -0.014 A 
BRANCH  40  41
ATOM     41  C   UNL     1     -12.342  -7.296  -4.497  1.00  0.00     0.031 A 
ATOM     42  C   UNL     1     -13.721  -7.447  -3.917  1.00  0.00     0.074 A 
ATOM     43  C   UNL     1     -11.945  -8.068  -5.523  1.00  0.00     0.049 A 
ATOM     44  N   UNL     1     -14.643  -8.335  -4.181  1.00  0.00    -0.248 NA
ATOM     45  C   UNL     1     -14.104  -6.465  -2.891  1.00  0.00     0.031 C 
ATOM     46  C   UNL     1     -10.657  -7.967  -6.206  1.00  0.00     0.029 A 
ATOM     47  N   UNL     1     -12.587  -9.098  -6.162  1.00  0.00    -0.354 N 
ATOM     48  C   UNL     1     -15.712  -8.029  -3.345  1.00  0.00     0.074 A 
ATOM     49  C   UNL     1     -15.304  -6.898  -2.539  1.00  0.00     0.031 C 
ATOM     50  C   UNL     1     -10.597  -8.909  -7.162  1.00  0.00     0.029 A 
ATOM     51  C   UNL     1     -11.820  -9.709  -7.126  1.00  0.00     0.049 A 
ATOM     52  H   UNL     1     -13.508  -9.374  -5.951  1.00  0.00     0.167 HD
ATOM     53  C   UNL     1     -16.924  -8.633  -3.266  1.00  0.00     0.034 A 
ATOM     54  C   UNL     1     -12.066 -10.809  -7.868  1.00  0.00     0.034 A 
ATOM     55  C   UNL     1     -17.304  -9.768  -4.071  1.00  0.00     0.049 A 
ATOM     56  C   UNL     1     -13.381 -11.531  -7.690  1.00  0.00     0.074 A 
ATOM     57  C   UNL     1     -18.503 -10.459  -4.078  1.00  0.00     0.029 A 
ATOM     58  N   UNL     1     -16.484 -10.390  -5.006  1.00  0.00    -0.354 N 
ATOM     59  N   UNL     1     -14.383 -11.244  -6.889  1.00  0.00    -0.248 NA
ATOM     60  C   UNL     1     -13.601 -12.723  -8.520  1.00  0.00     0.031 C 
ATOM     61  C   UNL     1     -18.380 -11.542  -4.955  1.00  0.00     0.029 A 
ATOM     62  C   UNL     1     -17.139 -11.475  -5.568  1.00  0.00     0.049 A 
ATOM     63  H   UNL     1     -15.571 -10.102  -5.235  1.00  0.00     0.167 HD
ATOM     64  C   UNL     1     -15.366 -12.196  -7.151  1.00  0.00     0.074 A 
ATOM     65  C   UNL     1     -14.837 -13.062  -8.185  1.00  0.00     0.031 C 
ATOM     66  C   UNL     1     -16.598 -12.334  -6.597  1.00  0.00     0.034 A 
BRANCH  53  67
ATOM     67  C   UNL     1     -17.891  -8.109  -2.230  1.00  0.00     0.023 A 
ATOM     68  C   UNL     1     -18.383  -6.792  -2.272  1.00  0.00     0.031 A 
ATOM     69  C   UNL     1     -18.291  -8.924  -1.156  1.00  0.00     0.131 A 
ATOM     70  C   UNL     1     -19.173  -6.305  -1.219  1.00  0.00     0.055 A 
ATOM     71  C   UNL     1     -19.152  -8.461  -0.159  1.00  0.00     0.041 A 
ATOM     72  F   UNL     1     -17.836 -10.182  -1.045  1.00  0.00    -0.206 F 
ATOM     73  C   UNL     1     -19.584  -7.139  -0.177  1.00  0.00     0.022 A 
BRANCH  70  74
ATOM     74  S   UNL     1     -19.515  -4.525  -1.146  1.00  0.00     0.124 S 
ATOM     75  O   UNL     1     -18.166  -3.966  -1.130  1.00  0.00    -0.237 OA
ATOM     76  O   UNL     1     -20.286  -4.302  -2.364  1.00  0.00    -0.237 OA
ATOM     77  O   UNL     1     -20.260  -4.370   0.102  1.00  0.00    -0.744 OA
ENDBRANCH  70  74
ENDBRANCH  53  67
BRANCH  54  78
ATOM     78  C   UNL     1     -11.039 -11.322  -8.818  1.00  0.00     0.023 A 
ATOM     79  C   UNL     1     -11.288 -11.369 -10.198  1.00  0.00     0.031 A 
ATOM     80  C   UNL     1      -9.807 -11.818  -8.354  1.00  0.00     0.131 A 
ATOM     81  C   UNL     1     -10.340 -11.940 -11.061  1.00  0.00     0.055 A 
ATOM     82  C   UNL     1      -8.843 -12.333  -9.223  1.00  0.00     0.041 A 
ATOM     83  F   UNL     1      -9.517 -11.799  -7.043  1.00  0.00    -0.206 F 
ATOM     84  C   UNL     1      -9.113 -12.408 -10.585  1.00  0.00     0.022 A 
BRANCH  81  85
ATOM     85  S   UNL     1     -10.771 -12.141 -12.812  1.00  0.00     0.124 S 
ATOM     86  O   UNL     1     -11.960 -12.980 -12.729  1.00  0.00    -0.237 OA
ATOM     87  O   UNL     1     -10.986 -10.761 -13.231  1.00  0.00    -0.237 OA
ATOM     88  O   UNL     1      -9.589 -12.786 -13.380  1.00  0.00    -0.744 OA
ENDBRANCH  81  85
ENDBRANCH  54  78
BRANCH  66  89
ATOM     89  C   UNL     1     -17.487 -13.425  -7.147  1.00  0.00     0.023 A 
ATOM     90  C   UNL     1     -17.187 -14.789  -6.986  1.00  0.00     0.031 A 
ATOM     91  C   UNL     1     -18.663 -13.085  -7.842  1.00  0.00     0.131 A 
ATOM     92  C   UNL     1     -18.025 -15.760  -7.556  1.00  0.00     0.055 A 
ATOM     93  C   UNL     1     -19.526 -14.057  -8.350  1.00  0.00     0.041 A 
ATOM     94  F   UNL     1     -18.999 -11.799  -8.030  1.00  0.00    -0.206 F 
ATOM     95  C   UNL     1     -19.203 -15.403  -8.219  1.00  0.00     0.022 A 
BRANCH  92  96
ATOM     96  S   UNL     1     -17.512 -17.499  -7.497  1.00  0.00     0.124 S 
ATOM     97  O   UNL     1     -16.224 -17.459  -8.180  1.00  0.00    -0.237 OA
ATOM     98  O   UNL     1     -17.465 -17.763  -6.062  1.00  0.00    -0.237 OA
ATOM     99  O   UNL     1     -18.575 -18.196  -8.220  1.00  0.00    -0.744 OA
ENDBRANCH  92  96
ENDBRANCH  66  89
ENDBRANCH  40  41
ENDBRANCH  33  35
ENDBRANCH  32  33
ENDBRANCH  31  32
ENDBRANCH  30  31
ENDBRANCH  29  30
ENDBRANCH   1  29
TORSDOF 22
