REMARK SMILES O=C(COc1ccccc1[C@@H]1[NH2+]CCc2cc(O)c(O)cc21)OCCOCCOC(=O)c1ccc(-c2c3nc(c(-c4cc(S(=O)(=O)[O-])ccc4F)c4ccc([nH]4)c(-c4cc(S(=O)(=O)[O-])ccc4F)c4nc(c(-c5cc(S(=O)(=O)[O-])ccc5F)c5ccc2[nH]5)C=C4)C=C3)cc1
REMARK SMILES IDX 25 1 24 2 23 3 2 4 1 5 3 6 4 7 5 8 6 9 10 10 7 11 9 12 8 13
REMARK SMILES IDX 11 14 12 15 22 16 13 17 15 20 21 21 14 22 16 23 19 24 17 25
REMARK SMILES IDX 20 26 18 28 26 30 27 31 28 32 29 33 30 34 31 35 32 36 33 37
REMARK SMILES IDX 94 38 34 39 93 40 35 41 36 42 37 43 87 44 38 45 92 46 86 47
REMARK SMILES IDX 88 48 39 49 91 50 85 51 84 52 40 54 72 55 52 56 71 57 53 58
REMARK SMILES IDX 56 59 70 60 89 61 54 62 55 63 69 65 90 66 57 67 41 68 42 69
REMARK SMILES IDX 50 70 43 71 49 72 51 73 48 74 44 75 45 76 46 77 47 78 73 79
REMARK SMILES IDX 74 80 82 81 75 82 81 83 83 84 80 85 76 86 77 87 78 88 79 89
REMARK SMILES IDX 58 90 59 91 67 92 60 93 66 94 68 95 65 96 61 97 62 98 63 99
REMARK SMILES IDX 64 100
REMARK H PARENT 12 18 12 19 20 27 18 29 88 53 56 64
REMARK Flexibility Score: inf
ROOT
ATOM      1  C   UNL     1       5.768   1.304   0.613  1.00  0.00     0.202 C 
ENDROOT
BRANCH   1   2
ATOM      2  C   UNL     1       5.832   0.287  -0.545  1.00  0.00     0.261 C 
BRANCH   2   3
ATOM      3  O   UNL     1       4.551   0.092  -1.162  1.00  0.00    -0.461 OA
BRANCH   3   4
ATOM      4  C   UNL     1       3.564  -0.173  -0.275  1.00  0.00     0.344 C 
ATOM      5  O   UNL     1       2.625   0.608  -0.143  1.00  0.00    -0.248 OA
BRANCH   4   6
ATOM      6  C   UNL     1       3.796  -1.469   0.527  1.00  0.00     0.351 C 
BRANCH   6   7
ATOM      7  O   UNL     1       3.938  -2.688  -0.141  1.00  0.00    -0.481 OA
BRANCH   7   8
ATOM      8  C   UNL     1       2.982  -3.305  -0.886  1.00  0.00     0.129 A 
ATOM      9  C   UNL     1       3.546  -4.502  -1.377  1.00  0.00     0.047 A 
ATOM     10  C   UNL     1       1.660  -2.952  -1.247  1.00  0.00     0.056 A 
ATOM     11  C   UNL     1       2.886  -5.309  -2.288  1.00  0.00     0.004 A 
ATOM     12  C   UNL     1       1.043  -3.757  -2.236  1.00  0.00     0.014 A 
ATOM     13  C   UNL     1       1.644  -4.913  -2.749  1.00  0.00     0.001 A 
BRANCH  10  14
ATOM     14  C   UNL     1       0.890  -1.729  -0.747  1.00  0.00     0.249 C 
ATOM     15  N   UNL     1       1.072  -1.473   0.694  1.00  0.00    -0.336 N 
ATOM     16  C   UNL     1      -0.623  -1.584  -0.968  1.00  0.00     0.021 A 
ATOM     17  C   UNL     1       0.363  -2.384   1.593  1.00  0.00     0.266 C 
ATOM     18  H   UNL     1       0.748  -0.526   0.887  1.00  0.00     0.347 HD
ATOM     19  H   UNL     1       2.065  -1.615   0.879  1.00  0.00     0.347 HD
ATOM     20  C   UNL     1      -1.476  -2.212  -0.024  1.00  0.00    -0.029 A 
ATOM     21  C   UNL     1      -1.132  -0.591  -1.819  1.00  0.00     0.060 A 
ATOM     22  C   UNL     1      -0.818  -3.132   0.969  1.00  0.00     0.097 C 
ATOM     23  C   UNL     1      -2.805  -1.810   0.109  1.00  0.00     0.054 A 
ATOM     24  C   UNL     1      -2.448  -0.177  -1.648  1.00  0.00     0.157 A 
ATOM     25  C   UNL     1      -3.264  -0.771  -0.683  1.00  0.00     0.157 A 
BRANCH  24  26
ATOM     26  O   UNL     1      -2.966   0.880  -2.346  1.00  0.00    -0.504 OA
ATOM     27  H   UNL     1      -3.857   1.139  -2.213  1.00  0.00     0.293 HD
ENDBRANCH  24  26
BRANCH  25  28
ATOM     28  O   UNL     1      -4.513  -0.265  -0.450  1.00  0.00    -0.504 OA
ATOM     29  H   UNL     1      -5.065  -0.659   0.197  1.00  0.00     0.293 HD
ENDBRANCH  25  28
ENDBRANCH  10  14
ENDBRANCH   7   8
ENDBRANCH   6   7
ENDBRANCH   4   6
ENDBRANCH   3   4
ENDBRANCH   2   3
ENDBRANCH   1   2
BRANCH   1  30
ATOM     30  O   UNL     1       5.403   0.827   1.907  1.00  0.00    -0.374 OA
BRANCH  30  31
ATOM     31  C   UNL     1       4.143   1.168   2.502  1.00  0.00     0.202 C 
BRANCH  31  32
ATOM     32  C   UNL     1       3.559   2.593   2.587  1.00  0.00     0.261 C 
BRANCH  32  33
ATOM     33  O   UNL     1       3.697   3.411   1.431  1.00  0.00    -0.460 OA
BRANCH  33  34
ATOM     34  C   UNL     1       4.824   4.160   1.423  1.00  0.00     0.338 C 
ATOM     35  O   UNL     1       5.687   4.202   2.289  1.00  0.00    -0.246 OA
BRANCH  34  36
ATOM     36  C   UNL     1       4.976   4.732   0.080  1.00  0.00     0.060 A 
ATOM     37  C   UNL     1       6.123   4.398  -0.655  1.00  0.00     0.016 A 
ATOM     38  C   UNL     1       4.006   5.587  -0.440  1.00  0.00     0.016 A 
ATOM     39  C   UNL     1       6.323   4.939  -1.914  1.00  0.00     0.010 A 
ATOM     40  C   UNL     1       4.227   6.167  -1.683  1.00  0.00     0.010 A 
ATOM     41  C   UNL     1       5.403   5.872  -2.399  1.00  0.00    -0.014 A 
BRANCH  41  42
ATOM     42  C   UNL     1       5.794   6.754  -3.511  1.00  0.00     0.031 A 
ATOM     43  C   UNL     1       6.348   8.099  -3.153  1.00  0.00     0.074 A 
ATOM     44  C   UNL     1       5.623   6.373  -4.784  1.00  0.00     0.049 A 
ATOM     45  N   UNL     1       6.576   9.134  -3.912  1.00  0.00    -0.248 NA
ATOM     46  C   UNL     1       6.661   8.307  -1.729  1.00  0.00     0.031 C 
ATOM     47  C   UNL     1       5.155   5.057  -5.214  1.00  0.00     0.029 A 
ATOM     48  N   UNL     1       5.790   7.076  -5.946  1.00  0.00    -0.354 N 
ATOM     49  C   UNL     1       7.029  10.130  -3.053  1.00  0.00     0.074 A 
ATOM     50  C   UNL     1       7.013   9.580  -1.716  1.00  0.00     0.031 C 
ATOM     51  C   UNL     1       5.027   5.063  -6.551  1.00  0.00     0.029 A 
ATOM     52  C   UNL     1       5.347   6.397  -7.054  1.00  0.00     0.049 A 
ATOM     53  H   UNL     1       6.188   7.976  -5.983  1.00  0.00     0.167 HD
ATOM     54  C   UNL     1       7.412  11.392  -3.365  1.00  0.00     0.034 A 
ATOM     55  C   UNL     1       5.164   6.834  -8.314  1.00  0.00     0.034 A 
ATOM     56  C   UNL     1       7.381  11.902  -4.713  1.00  0.00     0.049 A 
ATOM     57  C   UNL     1       5.512   8.266  -8.636  1.00  0.00     0.074 A 
ATOM     58  C   UNL     1       7.757  13.149  -5.174  1.00  0.00     0.029 A 
ATOM     59  N   UNL     1       6.923  11.189  -5.818  1.00  0.00    -0.354 N 
ATOM     60  N   UNL     1       5.939   9.213  -7.830  1.00  0.00    -0.248 NA
ATOM     61  C   UNL     1       5.360   8.687 -10.033  1.00  0.00     0.031 C 
ATOM     62  C   UNL     1       7.441  13.221  -6.535  1.00  0.00     0.029 A 
ATOM     63  C   UNL     1       6.967  11.984  -6.950  1.00  0.00     0.049 A 
ATOM     64  H   UNL     1       6.612  10.255  -5.797  1.00  0.00     0.167 HD
ATOM     65  C   UNL     1       6.142  10.335  -8.630  1.00  0.00     0.074 A 
ATOM     66  C   UNL     1       5.785   9.943  -9.981  1.00  0.00     0.031 C 
ATOM     67  C   UNL     1       6.596  11.568  -8.286  1.00  0.00     0.034 A 
BRANCH  54  68
ATOM     68  C   UNL     1       7.798  12.298  -2.220  1.00  0.00     0.023 A 
ATOM     69  C   UNL     1       8.854  11.986  -1.344  1.00  0.00     0.031 A 
ATOM     70  C   UNL     1       7.038  13.448  -1.942  1.00  0.00     0.131 A 
ATOM     71  C   UNL     1       9.049  12.748  -0.181  1.00  0.00     0.055 A 
ATOM     72  C   UNL     1       7.303  14.261  -0.838  1.00  0.00     0.041 A 
ATOM     73  F   UNL     1       5.997  13.786  -2.721  1.00  0.00    -0.206 F 
ATOM     74  C   UNL     1       8.299  13.899   0.064  1.00  0.00     0.022 A 
BRANCH  71  75
ATOM     75  S   UNL     1      10.152  12.094   1.104  1.00  0.00     0.124 S 
ATOM     76  O   UNL     1       9.567  10.778   1.354  1.00  0.00    -0.237 OA
ATOM     77  O   UNL     1      11.449  12.100   0.439  1.00  0.00    -0.237 OA
ATOM     78  O   UNL     1      10.006  13.050   2.200  1.00  0.00    -0.744 OA
ENDBRANCH  71  75
ENDBRANCH  54  68
BRANCH  55  79
ATOM     79  C   UNL     1       4.573   5.920  -9.330  1.00  0.00     0.023 A 
ATOM     80  C   UNL     1       5.322   5.464 -10.424  1.00  0.00     0.031 A 
ATOM     81  C   UNL     1       3.246   5.469  -9.201  1.00  0.00     0.131 A 
ATOM     82  C   UNL     1       4.733   4.597 -11.358  1.00  0.00     0.055 A 
ATOM     83  C   UNL     1       2.681   4.570 -10.106  1.00  0.00     0.041 A 
ATOM     84  F   UNL     1       2.488   5.872  -8.168  1.00  0.00    -0.206 F 
ATOM     85  C   UNL     1       3.425   4.133 -11.197  1.00  0.00     0.022 A 
BRANCH  82  86
ATOM     86  S   UNL     1       5.691   4.114 -12.819  1.00  0.00     0.124 S 
ATOM     87  O   UNL     1       5.944   5.406 -13.448  1.00  0.00    -0.237 OA
ATOM     88  O   UNL     1       6.847   3.454 -12.220  1.00  0.00    -0.237 OA
ATOM     89  O   UNL     1       4.781   3.232 -13.547  1.00  0.00    -0.744 OA
ENDBRANCH  82  86
ENDBRANCH  55  79
BRANCH  67  90
ATOM     90  C   UNL     1       6.799  12.566  -9.400  1.00  0.00     0.023 A 
ATOM     91  C   UNL     1       5.725  13.115 -10.121  1.00  0.00     0.031 A 
ATOM     92  C   UNL     1       8.101  12.998  -9.717  1.00  0.00     0.131 A 
ATOM     93  C   UNL     1       5.976  14.036 -11.150  1.00  0.00     0.055 A 
ATOM     94  C   UNL     1       8.338  13.963 -10.696  1.00  0.00     0.041 A 
ATOM     95  F   UNL     1       9.163  12.502  -9.063  1.00  0.00    -0.206 F 
ATOM     96  C   UNL     1       7.273  14.480 -11.425  1.00  0.00     0.022 A 
BRANCH  93  97
ATOM     97  S   UNL     1       4.593  14.589 -12.183  1.00  0.00     0.124 S 
ATOM     98  O   UNL     1       4.106  13.329 -12.736  1.00  0.00    -0.237 OA
ATOM     99  O   UNL     1       3.719  15.242 -11.214  1.00  0.00    -0.237 OA
ATOM    100  O   UNL     1       5.225  15.486 -13.150  1.00  0.00    -0.744 OA
ENDBRANCH  93  97
ENDBRANCH  67  90
ENDBRANCH  41  42
ENDBRANCH  34  36
ENDBRANCH  33  34
ENDBRANCH  32  33
ENDBRANCH  31  32
ENDBRANCH  30  31
ENDBRANCH   1  30
TORSDOF 22
