REMARK SMILES CCc1cc(N2CCC[C@H](C(=O)OCCOCCOC(=O)c3ccc(-c4c5nc(c(-c6cc(S(=O)(=O)[O-])ccc6F)c6ccc([nH]6)c(-c6cc(S(=O)(=O)[O-])ccc6F)c6nc(c(-c7cc(S(=O)(=O)[O-])ccc7F)c7ccc4[nH]7)C=C6)C=C5)cc3)C2)nc(-c2ccc(Cl)cc2)n1
REMARK SMILES IDX 17 1 16 2 15 3 14 4 13 5 11 6 12 7 10 8 6 9 7 10 85 11 8 12
REMARK SMILES IDX 9 13 5 14 3 15 4 16 95 17 87 18 86 19 2 20 1 21 88 22 89 23
REMARK SMILES IDX 94 24 90 25 93 26 91 27 92 28 18 29 19 30 20 31 21 32 22 33
REMARK SMILES IDX 23 34 84 35 24 36 83 37 25 38 26 39 27 40 77 41 28 42 82 43
REMARK SMILES IDX 76 44 78 45 29 46 81 47 75 48 74 49 30 51 62 52 42 53 61 54
REMARK SMILES IDX 43 55 46 56 60 57 79 58 44 59 45 60 59 62 80 63 47 64 31 65
REMARK SMILES IDX 32 66 40 67 33 68 39 69 41 70 38 71 34 72 35 73 36 74 37 75
REMARK SMILES IDX 63 76 64 77 72 78 65 79 71 80 73 81 70 82 66 83 67 84 68 85
REMARK SMILES IDX 69 86 48 87 49 88 57 89 50 90 56 91 58 92 55 93 51 94 52 95
REMARK SMILES IDX 53 96 54 97
REMARK H PARENT 78 50 46 61
REMARK Flexibility Score: inf
ROOT
ATOM      1  C   UNL     1       6.840   0.297  -8.219  1.00  0.00     0.202 C 
ENDROOT
BRANCH   1   2
ATOM      2  O   UNL     1       7.246  -0.727  -7.311  1.00  0.00    -0.374 OA
BRANCH   2   3
ATOM      3  C   UNL     1       6.226  -1.559  -6.771  1.00  0.00     0.202 C 
BRANCH   3   4
ATOM      4  C   UNL     1       5.290  -0.916  -5.749  1.00  0.00     0.261 C 
BRANCH   4   5
ATOM      5  O   UNL     1       4.673   0.285  -6.219  1.00  0.00    -0.463 OA
BRANCH   5   6
ATOM      6  C   UNL     1       4.819   1.387  -5.444  1.00  0.00     0.310 C 
ATOM      7  O   UNL     1       5.485   1.446  -4.414  1.00  0.00    -0.252 OA
BRANCH   6   8
ATOM      8  C   UNL     1       4.059   2.589  -5.973  1.00  0.00     0.118 C 
ATOM      9  N   UNL     1       1.803   1.943  -5.278  1.00  0.00    -0.356 N 
ATOM     10  C   UNL     1       1.271   1.844  -6.629  1.00  0.00     0.118 C 
ATOM     11  C   UNL     1       2.896   2.874  -5.027  1.00  0.00     0.133 C 
ATOM     12  C   UNL     1       2.381   1.607  -7.648  1.00  0.00     0.022 C 
ATOM     13  C   UNL     1       3.584   2.528  -7.432  1.00  0.00     0.019 C 
BRANCH   9  14
ATOM     14  C   UNL     1       1.468   0.994  -4.326  1.00  0.00     0.132 A 
ATOM     15  C   UNL     1       0.789   0.470  -2.116  1.00  0.00     0.046 A 
ATOM     16  C   UNL     1       1.157   1.419  -3.044  1.00  0.00     0.070 A 
ATOM     17  N   UNL     1       0.715  -0.830  -2.432  1.00  0.00    -0.233 NA
ATOM     18  C   UNL     1       1.058  -1.174  -3.685  1.00  0.00     0.161 A 
ATOM     19  N   UNL     1       1.434  -0.312  -4.655  1.00  0.00    -0.211 NA
BRANCH  15  20
ATOM     20  C   UNL     1       0.386   0.869  -0.722  1.00  0.00     0.053 C 
ATOM     21  C   UNL     1       0.954  -0.064   0.339  1.00  0.00     0.011 C 
ENDBRANCH  15  20
BRANCH  18  22
ATOM     22  C   UNL     1       1.096  -2.619  -3.945  1.00  0.00     0.019 A 
ATOM     23  C   UNL     1      -0.012  -3.438  -3.668  1.00  0.00     0.013 A 
ATOM     24  C   UNL     1       2.273  -3.249  -4.377  1.00  0.00     0.013 A 
ATOM     25  C   UNL     1       0.053  -4.828  -3.833  1.00  0.00     0.021 A 
ATOM     26  C   UNL     1       2.341  -4.634  -4.562  1.00  0.00     0.021 A 
ATOM     27  C   UNL     1       1.225  -5.418  -4.295  1.00  0.00     0.041 A 
ATOM     28  Cl  UNL     1       1.308  -7.119  -4.524  1.00  0.00    -0.084 Cl
ENDBRANCH  18  22
ENDBRANCH   9  14
ENDBRANCH   6   8
ENDBRANCH   5   6
ENDBRANCH   4   5
ENDBRANCH   3   4
ENDBRANCH   2   3
ENDBRANCH   1   2
BRANCH   1  29
ATOM     29  C   UNL     1       6.236  -0.145  -9.560  1.00  0.00     0.261 C 
BRANCH  29  30
ATOM     30  O   UNL     1       4.938  -0.768  -9.445  1.00  0.00    -0.460 OA
BRANCH  30  31
ATOM     31  C   UNL     1       4.878  -2.039  -9.910  1.00  0.00     0.338 C 
ATOM     32  O   UNL     1       5.813  -2.685 -10.385  1.00  0.00    -0.246 OA
BRANCH  31  33
ATOM     33  C   UNL     1       3.562  -2.658  -9.674  1.00  0.00     0.060 A 
ATOM     34  C   UNL     1       3.522  -3.860  -8.956  1.00  0.00     0.016 A 
ATOM     35  C   UNL     1       2.409  -2.170 -10.295  1.00  0.00     0.016 A 
ATOM     36  C   UNL     1       2.342  -4.605  -8.900  1.00  0.00     0.010 A 
ATOM     37  C   UNL     1       1.228  -2.925 -10.245  1.00  0.00     0.010 A 
ATOM     38  C   UNL     1       1.198  -4.165  -9.581  1.00  0.00    -0.014 A 
BRANCH  38  39
ATOM     39  C   UNL     1       0.023  -5.071  -9.703  1.00  0.00     0.031 A 
ATOM     40  C   UNL     1      -0.159  -5.887 -10.954  1.00  0.00     0.074 A 
ATOM     41  C   UNL     1      -0.862  -5.187  -8.696  1.00  0.00     0.049 A 
ATOM     42  N   UNL     1      -1.113  -6.728 -11.266  1.00  0.00    -0.248 NA
ATOM     43  C   UNL     1       0.861  -5.719 -11.999  1.00  0.00     0.031 C 
ATOM     44  C   UNL     1      -0.797  -4.446  -7.441  1.00  0.00     0.029 A 
ATOM     45  N   UNL     1      -1.985  -5.969  -8.569  1.00  0.00    -0.354 N 
ATOM     46  C   UNL     1      -0.821  -7.176 -12.550  1.00  0.00     0.074 A 
ATOM     47  C   UNL     1       0.390  -6.497 -12.963  1.00  0.00     0.031 C 
ATOM     48  C   UNL     1      -1.829  -4.820  -6.666  1.00  0.00     0.029 A 
ATOM     49  C   UNL     1      -2.630  -5.821  -7.363  1.00  0.00     0.049 A 
ATOM     50  H   UNL     1      -2.298  -6.579  -9.275  1.00  0.00     0.167 HD
ATOM     51  C   UNL     1      -1.502  -8.067 -13.314  1.00  0.00     0.034 A 
ATOM     52  C   UNL     1      -3.736  -6.417  -6.873  1.00  0.00     0.034 A 
ATOM     53  C   UNL     1      -2.712  -8.734 -12.895  1.00  0.00     0.049 A 
ATOM     54  C   UNL     1      -4.473  -7.409  -7.741  1.00  0.00     0.074 A 
ATOM     55  C   UNL     1      -3.481  -9.648 -13.596  1.00  0.00     0.029 A 
ATOM     56  N   UNL     1      -3.334  -8.558 -11.666  1.00  0.00    -0.354 N 
ATOM     57  N   UNL     1      -4.185  -7.818  -8.956  1.00  0.00    -0.248 NA
ATOM     58  C   UNL     1      -5.689  -8.011  -7.178  1.00  0.00     0.031 C 
ATOM     59  C   UNL     1      -4.596  -9.978 -12.817  1.00  0.00     0.029 A 
ATOM     60  C   UNL     1      -4.488  -9.326 -11.600  1.00  0.00     0.049 A 
ATOM     61  H   UNL     1      -3.005  -7.973 -10.946  1.00  0.00     0.167 HD
ATOM     62  C   UNL     1      -5.181  -8.730  -9.295  1.00  0.00     0.074 A 
ATOM     63  C   UNL     1      -6.056  -8.838  -8.146  1.00  0.00     0.031 C 
ATOM     64  C   UNL     1      -5.364  -9.409 -10.456  1.00  0.00     0.034 A 
BRANCH  51  65
ATOM     65  C   UNL     1      -0.982  -8.320 -14.708  1.00  0.00     0.023 A 
ATOM     66  C   UNL     1       0.255  -8.946 -14.937  1.00  0.00     0.031 A 
ATOM     67  C   UNL     1      -1.729  -7.905 -15.826  1.00  0.00     0.131 A 
ATOM     68  C   UNL     1       0.736  -9.083 -16.249  1.00  0.00     0.055 A 
ATOM     69  C   UNL     1      -1.278  -8.110 -17.131  1.00  0.00     0.041 A 
ATOM     70  F   UNL     1      -2.907  -7.281 -15.667  1.00  0.00    -0.206 F 
ATOM     71  C   UNL     1      -0.032  -8.691 -17.348  1.00  0.00     0.022 A 
BRANCH  68  72
ATOM     72  S   UNL     1       2.436  -9.667 -16.495  1.00  0.00     0.124 S 
ATOM     73  O   UNL     1       3.204  -8.640 -15.796  1.00  0.00    -0.237 OA
ATOM     74  O   UNL     1       2.412 -10.984 -15.870  1.00  0.00    -0.237 OA
ATOM     75  O   UNL     1       2.591  -9.669 -17.948  1.00  0.00    -0.744 OA
ENDBRANCH  68  72
ENDBRANCH  51  65
BRANCH  52  76
ATOM     76  C   UNL     1      -4.240  -6.092  -5.505  1.00  0.00     0.023 A 
ATOM     77  C   UNL     1      -4.326  -7.082  -4.511  1.00  0.00     0.031 A 
ATOM     78  C   UNL     1      -4.701  -4.803  -5.186  1.00  0.00     0.131 A 
ATOM     79  C   UNL     1      -4.906  -6.781  -3.267  1.00  0.00     0.055 A 
ATOM     80  C   UNL     1      -5.217  -4.491  -3.926  1.00  0.00     0.041 A 
ATOM     81  F   UNL     1      -4.649  -3.818  -6.096  1.00  0.00    -0.206 F 
ATOM     82  C   UNL     1      -5.336  -5.488  -2.963  1.00  0.00     0.022 A 
BRANCH  79  83
ATOM     83  S   UNL     1      -5.193  -8.130  -2.088  1.00  0.00     0.124 S 
ATOM     84  O   UNL     1      -5.995  -9.054  -2.882  1.00  0.00    -0.237 OA
ATOM     85  O   UNL     1      -3.832  -8.558  -1.783  1.00  0.00    -0.237 OA
ATOM     86  O   UNL     1      -5.900  -7.476  -0.989  1.00  0.00    -0.744 OA
ENDBRANCH  79  83
ENDBRANCH  52  76
BRANCH  64  87
ATOM     87  C   UNL     1      -6.549 -10.342 -10.523  1.00  0.00     0.023 A 
ATOM     88  C   UNL     1      -7.869  -9.857 -10.516  1.00  0.00     0.031 A 
ATOM     89  C   UNL     1      -6.354 -11.733 -10.580  1.00  0.00     0.131 A 
ATOM     90  C   UNL     1      -8.945 -10.758 -10.510  1.00  0.00     0.055 A 
ATOM     91  C   UNL     1      -7.429 -12.623 -10.628  1.00  0.00     0.041 A 
ATOM     92  F   UNL     1      -5.115 -12.250 -10.589  1.00  0.00    -0.206 F 
ATOM     93  C   UNL     1      -8.733 -12.137 -10.581  1.00  0.00     0.022 A 
BRANCH  90  94
ATOM     94  S   UNL     1     -10.628 -10.106 -10.328  1.00  0.00     0.124 S 
ATOM     95  O   UNL     1     -10.548  -9.407  -9.050  1.00  0.00    -0.237 OA
ATOM     96  O   UNL     1     -10.766  -9.261 -11.509  1.00  0.00    -0.237 OA
ATOM     97  O   UNL     1     -11.463 -11.307 -10.327  1.00  0.00    -0.744 OA
ENDBRANCH  90  94
ENDBRANCH  64  87
ENDBRANCH  38  39
ENDBRANCH  31  33
ENDBRANCH  30  31
ENDBRANCH  29  30
ENDBRANCH   1  29
TORSDOF 20
