REMARK SMILES O=C(OCCOCCOC(=O)c1ccc2c(=O)n(Cc3cccnc3)c(=O)[nH]c2c1)c1ccc(-c2c3nc(c(-c4cc(S(=O)(=O)[O-])ccc4F)c4ccc([nH]4)c(-c4cc(S(=O)(=O)[O-])ccc4F)c4nc(c(-c5cc(S(=O)(=O)[O-])ccc5F)c5ccc2[nH]5)C=C4)C=C3)cc1
REMARK SMILES IDX 5 1 4 2 3 3 2 4 1 5 31 6 32 7 93 8 33 9 92 10 34 11 35 12
REMARK SMILES IDX 36 13 86 14 37 15 91 16 85 17 87 18 38 19 90 20 84 21 83 22
REMARK SMILES IDX 39 24 71 25 51 26 70 27 52 28 55 29 69 30 88 31 53 32 54 33
REMARK SMILES IDX 68 35 89 36 56 37 40 38 41 39 49 40 42 41 48 42 50 43 47 44
REMARK SMILES IDX 43 45 44 46 45 47 46 48 72 49 73 50 81 51 74 52 80 53 82 54
REMARK SMILES IDX 79 55 75 56 76 57 77 58 78 59 57 60 58 61 66 62 59 63 65 64
REMARK SMILES IDX 67 65 64 66 60 67 61 68 62 69 63 70 6 71 7 72 8 73 9 74
REMARK SMILES IDX 10 75 11 76 12 77 13 78 30 79 14 80 29 81 15 82 28 83 16 84
REMARK SMILES IDX 26 85 17 87 18 88 27 89 19 90 20 91 21 92 25 93 22 94 24 95
REMARK SMILES IDX 23 96
REMARK H PARENT 87 23 55 34 28 86
REMARK Flexibility Score: inf
ROOT
ATOM      1  C   UNL     1       4.427  -1.290  -0.412  1.00  0.00     0.202 C 
ENDROOT
BRANCH   1   2
ATOM      2  C   UNL     1       4.263  -0.789   1.024  1.00  0.00     0.261 C 
BRANCH   2   3
ATOM      3  O   UNL     1       2.910  -0.412   1.290  1.00  0.00    -0.460 OA
BRANCH   3   4
ATOM      4  C   UNL     1       2.314   0.772   1.022  1.00  0.00     0.338 C 
ATOM      5  O   UNL     1       1.094   0.834   1.185  1.00  0.00    -0.246 OA
BRANCH   4   6
ATOM      6  C   UNL     1       3.011   2.007   0.523  1.00  0.00     0.060 A 
ATOM      7  C   UNL     1       2.258   3.195   0.573  1.00  0.00     0.016 A 
ATOM      8  C   UNL     1       4.274   2.074  -0.075  1.00  0.00     0.016 A 
ATOM      9  C   UNL     1       2.720   4.373  -0.017  1.00  0.00     0.010 A 
ATOM     10  C   UNL     1       4.740   3.236  -0.674  1.00  0.00     0.010 A 
ATOM     11  C   UNL     1       3.954   4.382  -0.668  1.00  0.00    -0.014 A 
BRANCH  11  12
ATOM     12  C   UNL     1       4.528   5.597  -1.262  1.00  0.00     0.031 A 
ATOM     13  C   UNL     1       4.585   5.759  -2.748  1.00  0.00     0.074 A 
ATOM     14  C   UNL     1       5.142   6.445  -0.419  1.00  0.00     0.049 A 
ATOM     15  N   UNL     1       5.084   6.745  -3.441  1.00  0.00    -0.248 NA
ATOM     16  C   UNL     1       4.037   4.664  -3.569  1.00  0.00     0.031 C 
ATOM     17  C   UNL     1       5.227   6.252   1.031  1.00  0.00     0.029 A 
ATOM     18  N   UNL     1       5.844   7.595  -0.647  1.00  0.00    -0.354 N 
ATOM     19  C   UNL     1       4.895   6.406  -4.776  1.00  0.00     0.074 A 
ATOM     20  C   UNL     1       4.288   5.095  -4.800  1.00  0.00     0.031 C 
ATOM     21  C   UNL     1       5.950   7.245   1.562  1.00  0.00     0.029 A 
ATOM     22  C   UNL     1       6.390   8.134   0.493  1.00  0.00     0.049 A 
ATOM     23  H   UNL     1       5.948   7.997  -1.540  1.00  0.00     0.167 HD
ATOM     24  C   UNL     1       5.190   7.152  -5.865  1.00  0.00     0.034 A 
ATOM     25  C   UNL     1       7.159   9.229   0.651  1.00  0.00     0.034 A 
ATOM     26  C   UNL     1       5.812   8.449  -5.767  1.00  0.00     0.049 A 
ATOM     27  C   UNL     1       7.426  10.068  -0.569  1.00  0.00     0.074 A 
ATOM     28  C   UNL     1       6.078   9.348  -6.781  1.00  0.00     0.029 A 
ATOM     29  N   UNL     1       6.273   9.024  -4.588  1.00  0.00    -0.354 N 
ATOM     30  N   UNL     1       7.093   9.825  -1.816  1.00  0.00    -0.248 NA
ATOM     31  C   UNL     1       8.130  11.339  -0.373  1.00  0.00     0.031 C 
ATOM     32  C   UNL     1       6.769  10.425  -6.231  1.00  0.00     0.029 A 
ATOM     33  C   UNL     1       6.848  10.252  -4.856  1.00  0.00     0.049 A 
ATOM     34  H   UNL     1       6.200   8.617  -3.695  1.00  0.00     0.167 HD
ATOM     35  C   UNL     1       7.514  10.926  -2.550  1.00  0.00     0.074 A 
ATOM     36  C   UNL     1       8.112  11.845  -1.601  1.00  0.00     0.031 C 
ATOM     37  C   UNL     1       7.415  11.157  -3.882  1.00  0.00     0.034 A 
BRANCH  24  38
ATOM     38  C   UNL     1       4.814   6.657  -7.243  1.00  0.00     0.023 A 
ATOM     39  C   UNL     1       5.799   6.532  -8.243  1.00  0.00     0.031 A 
ATOM     40  C   UNL     1       3.467   6.515  -7.621  1.00  0.00     0.131 A 
ATOM     41  C   UNL     1       5.418   6.340  -9.579  1.00  0.00     0.055 A 
ATOM     42  C   UNL     1       3.095   6.275  -8.945  1.00  0.00     0.041 A 
ATOM     43  F   UNL     1       2.486   6.632  -6.711  1.00  0.00    -0.206 F 
ATOM     44  C   UNL     1       4.072   6.207  -9.934  1.00  0.00     0.022 A 
BRANCH  41  45
ATOM     45  S   UNL     1       6.642   6.355 -10.918  1.00  0.00     0.124 S 
ATOM     46  O   UNL     1       6.390   5.073 -11.572  1.00  0.00    -0.237 OA
ATOM     47  O   UNL     1       6.243   7.533 -11.683  1.00  0.00    -0.237 OA
ATOM     48  O   UNL     1       7.921   6.454 -10.223  1.00  0.00    -0.744 OA
ENDBRANCH  41  45
ENDBRANCH  24  38
BRANCH  25  49
ATOM     49  C   UNL     1       7.593   9.605   2.026  1.00  0.00     0.023 A 
ATOM     50  C   UNL     1       8.407   8.743   2.786  1.00  0.00     0.031 A 
ATOM     51  C   UNL     1       7.058  10.737   2.661  1.00  0.00     0.131 A 
ATOM     52  C   UNL     1       8.597   8.987   4.153  1.00  0.00     0.055 A 
ATOM     53  C   UNL     1       7.312  11.018   4.005  1.00  0.00     0.041 A 
ATOM     54  F   UNL     1       6.249  11.571   1.989  1.00  0.00    -0.206 F 
ATOM     55  C   UNL     1       8.068  10.129   4.763  1.00  0.00     0.022 A 
BRANCH  52  56
ATOM     56  S   UNL     1       9.384   7.746   5.218  1.00  0.00     0.124 S 
ATOM     57  O   UNL     1      10.573   8.453   5.681  1.00  0.00    -0.237 OA
ATOM     58  O   UNL     1       8.352   7.517   6.228  1.00  0.00    -0.237 OA
ATOM     59  O   UNL     1       9.625   6.622   4.319  1.00  0.00    -0.744 OA
ENDBRANCH  52  56
ENDBRANCH  25  49
BRANCH  37  60
ATOM     60  C   UNL     1       7.945  12.459  -4.428  1.00  0.00     0.023 A 
ATOM     61  C   UNL     1       7.064  13.341  -5.081  1.00  0.00     0.031 A 
ATOM     62  C   UNL     1       9.323  12.717  -4.489  1.00  0.00     0.131 A 
ATOM     63  C   UNL     1       7.578  14.402  -5.832  1.00  0.00     0.055 A 
ATOM     64  C   UNL     1       9.827  13.814  -5.187  1.00  0.00     0.041 A 
ATOM     65  F   UNL     1      10.200  11.894  -3.891  1.00  0.00    -0.206 F 
ATOM     66  C   UNL     1       8.954  14.649  -5.881  1.00  0.00     0.022 A 
BRANCH  63  67
ATOM     67  S   UNL     1       6.493  15.418  -6.871  1.00  0.00     0.124 S 
ATOM     68  O   UNL     1       6.739  16.759  -6.343  1.00  0.00    -0.237 OA
ATOM     69  O   UNL     1       7.026  15.167  -8.207  1.00  0.00    -0.237 OA
ATOM     70  O   UNL     1       5.159  14.887  -6.614  1.00  0.00    -0.744 OA
ENDBRANCH  63  67
ENDBRANCH  37  60
ENDBRANCH  11  12
ENDBRANCH   4   6
ENDBRANCH   3   4
ENDBRANCH   2   3
ENDBRANCH   1   2
BRANCH   1  71
ATOM     71  O   UNL     1       3.995  -0.374  -1.414  1.00  0.00    -0.374 OA
BRANCH  71  72
ATOM     72  C   UNL     1       2.681  -0.579  -1.936  1.00  0.00     0.202 C 
BRANCH  72  73
ATOM     73  C   UNL     1       2.749  -1.098  -3.373  1.00  0.00     0.261 C 
BRANCH  73  74
ATOM     74  O   UNL     1       3.353  -2.401  -3.382  1.00  0.00    -0.460 OA
BRANCH  74  75
ATOM     75  C   UNL     1       4.704  -2.398  -3.478  1.00  0.00     0.338 C 
ATOM     76  O   UNL     1       5.448  -1.468  -3.731  1.00  0.00    -0.246 OA
BRANCH  75  77
ATOM     77  C   UNL     1       5.188  -3.712  -3.035  1.00  0.00     0.062 A 
ATOM     78  C   UNL     1       4.659  -4.878  -3.596  1.00  0.00     0.016 A 
ATOM     79  C   UNL     1       6.178  -3.764  -2.038  1.00  0.00     0.042 A 
ATOM     80  C   UNL     1       5.205  -6.102  -3.235  1.00  0.00     0.017 A 
ATOM     81  C   UNL     1       6.624  -4.998  -1.595  1.00  0.00     0.056 A 
ATOM     82  C   UNL     1       6.210  -6.137  -2.264  1.00  0.00     0.064 A 
ATOM     83  N   UNL     1       7.446  -5.130  -0.474  1.00  0.00    -0.307 N 
ATOM     84  C   UNL     1       6.928  -7.371  -1.969  1.00  0.00     0.264 A 
ATOM     85  C   UNL     1       7.817  -6.349   0.047  1.00  0.00     0.329 A 
ATOM     86  H   UNL     1       7.777  -4.313  -0.036  1.00  0.00     0.171 HD
ATOM     87  O   UNL     1       7.025  -8.211  -2.859  1.00  0.00    -0.268 OA
ATOM     88  N   UNL     1       7.491  -7.466  -0.708  1.00  0.00    -0.255 N 
ATOM     89  O   UNL     1       8.428  -6.391   1.113  1.00  0.00    -0.248 OA
BRANCH  88  90
ATOM     90  C   UNL     1       7.925  -8.787  -0.269  1.00  0.00     0.168 C 
BRANCH  90  91
ATOM     91  C   UNL     1       6.762  -9.681   0.108  1.00  0.00    -0.010 A 
ATOM     92  C   UNL     1       5.840 -10.150  -0.838  1.00  0.00     0.009 A 
ATOM     93  C   UNL     1       6.554 -10.074   1.424  1.00  0.00     0.116 A 
ATOM     94  C   UNL     1       4.753 -10.921  -0.448  1.00  0.00     0.020 A 
ATOM     95  N   UNL     1       5.522 -10.852   1.832  1.00  0.00    -0.264 NA
ATOM     96  C   UNL     1       4.639 -11.245   0.889  1.00  0.00     0.111 A 
ENDBRANCH  90  91
ENDBRANCH  88  90
ENDBRANCH  75  77
ENDBRANCH  74  75
ENDBRANCH  73  74
ENDBRANCH  72  73
ENDBRANCH  71  72
ENDBRANCH   1  71
TORSDOF 19
