REMARK SMILES CC(C)(C)c1cc2c(cc1Cl)C=C(C(=O)OCCOCCOC(=O)c1ccc(-c3c4nc(c(-c5cc(S(=O)(=O)[O-])ccc5F)c5ccc([nH]5)c(-c5cc(S(=O)(=O)[O-])ccc5F)c5nc(c(-c6cc(S(=O)(=O)[O-])ccc6F)c6ccc3[nH]6)C=C5)C=C4)cc1)[C@@H](C(F)(F)F)O2
REMARK SMILES IDX 20 1 19 2 18 3 17 4 16 5 14 6 15 7 13 8 5 9 6 10 10 11 7 12
REMARK SMILES IDX 9 13 11 14 8 15 93 16 12 17 88 18 2 19 1 20 3 21 4 22 89 23
REMARK SMILES IDX 90 24 91 25 92 26 21 27 22 28 23 29 24 30 25 31 26 32 87 33
REMARK SMILES IDX 27 34 86 35 28 36 29 37 30 38 80 39 31 40 85 41 79 42 81 43
REMARK SMILES IDX 32 44 84 45 78 46 77 47 33 49 65 50 45 51 64 52 46 53 49 54
REMARK SMILES IDX 63 55 82 56 47 57 48 58 62 60 83 61 50 62 34 63 35 64 43 65
REMARK SMILES IDX 36 66 42 67 44 68 41 69 37 70 38 71 39 72 40 73 66 74 67 75
REMARK SMILES IDX 75 76 68 77 74 78 76 79 73 80 69 81 70 82 71 83 72 84 51 85
REMARK SMILES IDX 52 86 60 87 53 88 59 89 61 90 58 91 54 92 55 93 56 94 57 95
REMARK H PARENT 81 48 49 59
REMARK Flexibility Score: inf
ROOT
ATOM      1  C   UNL     1       0.738   5.887   7.891  1.00  0.00     0.202 C 
ENDROOT
BRANCH   1   2
ATOM      2  O   UNL     1       1.694   6.580   8.692  1.00  0.00    -0.374 OA
BRANCH   2   3
ATOM      3  C   UNL     1       1.979   7.943   8.387  1.00  0.00     0.202 C 
BRANCH   3   4
ATOM      4  C   UNL     1       2.847   8.238   7.159  1.00  0.00     0.261 C 
BRANCH   4   5
ATOM      5  O   UNL     1       2.340   7.617   5.969  1.00  0.00    -0.460 OA
BRANCH   5   6
ATOM      6  C   UNL     1       3.087   6.580   5.524  1.00  0.00     0.338 C 
ATOM      7  O   UNL     1       4.163   6.208   5.964  1.00  0.00    -0.246 OA
BRANCH   6   8
ATOM      8  C   UNL     1       2.346   5.833   4.491  1.00  0.00     0.087 C 
ATOM      9  C   UNL     1       0.926   2.161   1.315  1.00  0.00    -0.020 A 
ATOM     10  C   UNL     1       0.716   3.567   1.411  1.00  0.00     0.053 A 
ATOM     11  C   UNL     1       1.547   1.556   2.427  1.00  0.00     0.045 A 
ATOM     12  C   UNL     1       1.175   4.333   2.487  1.00  0.00     0.128 A 
ATOM     13  C   UNL     1       1.999   2.329   3.511  1.00  0.00     0.032 A 
ATOM     14  Cl  UNL     1       1.828  -0.137   2.632  1.00  0.00    -0.084 Cl
ATOM     15  C   UNL     1       1.844   3.713   3.527  1.00  0.00     0.019 A 
ATOM     16  O   UNL     1       0.930   5.676   2.439  1.00  0.00    -0.475 OA
ATOM     17  C   UNL     1       2.428   4.501   4.590  1.00  0.00     0.027 C 
ATOM     18  C   UNL     1       1.596   6.550   3.402  1.00  0.00     0.316 C 
BRANCH   9  19
ATOM     19  C   UNL     1       0.447   1.468   0.014  1.00  0.00    -0.012 C 
ATOM     20  C   UNL     1       0.860  -0.004  -0.206  1.00  0.00     0.016 C 
ATOM     21  C   UNL     1       1.007   2.224  -1.223  1.00  0.00     0.016 C 
ATOM     22  C   UNL     1      -1.096   1.510  -0.026  1.00  0.00     0.016 C 
ENDBRANCH   9  19
BRANCH  18  23
ATOM     23  C   UNL     1       2.489   7.534   2.630  1.00  0.00     0.430 C 
ATOM     24  F   UNL     1       1.808   8.126   1.620  1.00  0.00    -0.167 F 
ATOM     25  F   UNL     1       2.951   8.524   3.427  1.00  0.00    -0.167 F 
ATOM     26  F   UNL     1       3.563   6.915   2.087  1.00  0.00    -0.167 F 
ENDBRANCH  18  23
ENDBRANCH   6   8
ENDBRANCH   5   6
ENDBRANCH   4   5
ENDBRANCH   3   4
ENDBRANCH   2   3
ENDBRANCH   1   2
BRANCH   1  27
ATOM     27  C   UNL     1      -0.739   6.295   7.974  1.00  0.00     0.261 C 
BRANCH  27  28
ATOM     28  O   UNL     1      -0.985   7.625   7.490  1.00  0.00    -0.460 OA
BRANCH  28  29
ATOM     29  C   UNL     1      -1.327   8.525   8.447  1.00  0.00     0.338 C 
ATOM     30  O   UNL     1      -1.464   8.309   9.642  1.00  0.00    -0.246 OA
BRANCH  29  31
ATOM     31  C   UNL     1      -1.305   9.880   7.867  1.00  0.00     0.060 A 
ATOM     32  C   UNL     1      -2.115  10.213   6.781  1.00  0.00     0.016 A 
ATOM     33  C   UNL     1      -0.476  10.841   8.462  1.00  0.00     0.016 A 
ATOM     34  C   UNL     1      -2.111  11.527   6.306  1.00  0.00     0.010 A 
ATOM     35  C   UNL     1      -0.471  12.149   7.982  1.00  0.00     0.010 A 
ATOM     36  C   UNL     1      -1.305  12.508   6.914  1.00  0.00    -0.014 A 
BRANCH  36  37
ATOM     37  C   UNL     1      -1.448  13.936   6.539  1.00  0.00     0.031 A 
ATOM     38  C   UNL     1      -0.390  14.653   5.757  1.00  0.00     0.074 A 
ATOM     39  C   UNL     1      -2.543  14.597   6.963  1.00  0.00     0.049 A 
ATOM     40  N   UNL     1      -0.387  15.889   5.329  1.00  0.00    -0.248 NA
ATOM     41  C   UNL     1       0.822  13.894   5.415  1.00  0.00     0.031 C 
ATOM     42  C   UNL     1      -3.609  14.001   7.770  1.00  0.00     0.029 A 
ATOM     43  N   UNL     1      -2.944  15.897   6.786  1.00  0.00    -0.354 N 
ATOM     44  C   UNL     1       0.815  16.056   4.653  1.00  0.00     0.074 A 
ATOM     45  C   UNL     1       1.538  14.808   4.771  1.00  0.00     0.031 C 
ATOM     46  C   UNL     1      -4.553  14.924   7.997  1.00  0.00     0.029 A 
ATOM     47  C   UNL     1      -4.143  16.191   7.393  1.00  0.00     0.049 A 
ATOM     48  H   UNL     1      -2.423  16.557   6.274  1.00  0.00     0.167 HD
ATOM     49  C   UNL     1       1.255  17.148   3.983  1.00  0.00     0.034 A 
ATOM     50  C   UNL     1      -4.836  17.347   7.465  1.00  0.00     0.034 A 
ATOM     51  C   UNL     1       0.517  18.385   3.890  1.00  0.00     0.049 A 
ATOM     52  C   UNL     1      -4.307  18.557   6.739  1.00  0.00     0.074 A 
ATOM     53  C   UNL     1       0.857  19.528   3.188  1.00  0.00     0.029 A 
ATOM     54  N   UNL     1      -0.691  18.652   4.520  1.00  0.00    -0.354 N 
ATOM     55  N   UNL     1      -3.223  18.667   6.007  1.00  0.00    -0.248 NA
ATOM     56  C   UNL     1      -5.093  19.795   6.830  1.00  0.00     0.031 C 
ATOM     57  C   UNL     1      -0.093  20.509   3.463  1.00  0.00     0.029 A 
ATOM     58  C   UNL     1      -1.085  19.954   4.255  1.00  0.00     0.049 A 
ATOM     59  H   UNL     1      -1.193  18.011   5.074  1.00  0.00     0.167 HD
ATOM     60  C   UNL     1      -3.213  19.974   5.527  1.00  0.00     0.074 A 
ATOM     61  C   UNL     1      -4.410  20.610   6.035  1.00  0.00     0.031 C 
ATOM     62  C   UNL     1      -2.292  20.584   4.740  1.00  0.00     0.034 A 
BRANCH  49  63
ATOM     63  C   UNL     1       2.581  17.081   3.262  1.00  0.00     0.023 A 
ATOM     64  C   UNL     1       3.612  17.981   3.596  1.00  0.00     0.031 A 
ATOM     65  C   UNL     1       2.760  16.256   2.137  1.00  0.00     0.131 A 
ATOM     66  C   UNL     1       4.750  18.070   2.784  1.00  0.00     0.055 A 
ATOM     67  C   UNL     1       3.918  16.314   1.361  1.00  0.00     0.041 A 
ATOM     68  F   UNL     1       1.804  15.387   1.770  1.00  0.00    -0.206 F 
ATOM     69  C   UNL     1       4.912  17.236   1.673  1.00  0.00     0.022 A 
BRANCH  66  70
ATOM     70  S   UNL     1       6.020  19.331   3.083  1.00  0.00     0.124 S 
ATOM     71  O   UNL     1       7.214  18.513   3.280  1.00  0.00    -0.237 OA
ATOM     72  O   UNL     1       5.987  20.097   1.840  1.00  0.00    -0.237 OA
ATOM     73  O   UNL     1       5.545  20.033   4.271  1.00  0.00    -0.744 OA
ENDBRANCH  66  70
ENDBRANCH  49  63
BRANCH  50  74
ATOM     74  C   UNL     1      -6.133  17.367   8.203  1.00  0.00     0.023 A 
ATOM     75  C   UNL     1      -6.186  17.055   9.575  1.00  0.00     0.031 A 
ATOM     76  C   UNL     1      -7.346  17.573   7.526  1.00  0.00     0.131 A 
ATOM     77  C   UNL     1      -7.426  16.879  10.202  1.00  0.00     0.055 A 
ATOM     78  C   UNL     1      -8.578  17.476   8.176  1.00  0.00     0.041 A 
ATOM     79  F   UNL     1      -7.349  17.856   6.214  1.00  0.00    -0.206 F 
ATOM     80  C   UNL     1      -8.622  17.107   9.517  1.00  0.00     0.022 A 
BRANCH  77  81
ATOM     81  S   UNL     1      -7.527  16.203  11.883  1.00  0.00     0.124 S 
ATOM     82  O   UNL     1      -8.242  17.258  12.594  1.00  0.00    -0.237 OA
ATOM     83  O   UNL     1      -8.277  14.969  11.661  1.00  0.00    -0.237 OA
ATOM     84  O   UNL     1      -6.131  16.018  12.265  1.00  0.00    -0.744 OA
ENDBRANCH  77  81
ENDBRANCH  50  74
BRANCH  62  85
ATOM     85  C   UNL     1      -2.511  22.025   4.335  1.00  0.00     0.023 A 
ATOM     86  C   UNL     1      -2.606  22.358   2.969  1.00  0.00     0.031 A 
ATOM     87  C   UNL     1      -2.430  23.072   5.269  1.00  0.00     0.131 A 
ATOM     88  C   UNL     1      -2.549  23.700   2.572  1.00  0.00     0.055 A 
ATOM     89  C   UNL     1      -2.435  24.410   4.871  1.00  0.00     0.041 A 
ATOM     90  F   UNL     1      -2.327  22.809   6.582  1.00  0.00    -0.206 F 
ATOM     91  C   UNL     1      -2.473  24.728   3.516  1.00  0.00     0.022 A 
BRANCH  88  92
ATOM     92  S   UNL     1      -2.453  24.152   0.817  1.00  0.00     0.124 S 
ATOM     93  O   UNL     1      -3.622  25.015   0.662  1.00  0.00    -0.237 OA
ATOM     94  O   UNL     1      -1.163  24.832   0.746  1.00  0.00    -0.237 OA
ATOM     95  O   UNL     1      -2.530  22.873   0.118  1.00  0.00    -0.744 OA
ENDBRANCH  88  92
ENDBRANCH  62  85
ENDBRANCH  36  37
ENDBRANCH  29  31
ENDBRANCH  28  29
ENDBRANCH  27  28
ENDBRANCH   1  27
TORSDOF 19
