REMARK SMILES C[C@H](C(=O)OCCOCCOC(=O)c1ccc(-c2c3nc(c(-c4cc(S(=O)(=O)[O-])ccc4F)c4ccc([nH]4)c(-c4cc(S(=O)(=O)[O-])ccc4F)c4nc(c(-c5cc(S(=O)(=O)[O-])ccc5F)c5ccc2[nH]5)C=C4)C=C3)cc1)c1ccc(-c2ccccc2)c(F)c1
REMARK SMILES IDX 9 1 8 2 7 3 6 4 5 5 3 6 4 7 2 8 1 9 77 10 78 11 89 12 79 13
REMARK SMILES IDX 87 14 80 15 88 16 81 17 82 18 86 19 83 20 85 21 84 22 10 23
REMARK SMILES IDX 11 24 12 25 13 26 14 27 15 28 76 29 16 30 75 31 17 32 18 33
REMARK SMILES IDX 19 34 69 35 20 36 74 37 68 38 70 39 21 40 73 41 67 42 66 43
REMARK SMILES IDX 22 45 54 46 34 47 53 48 35 49 38 50 52 51 71 52 36 53 37 54
REMARK SMILES IDX 51 56 72 57 39 58 23 59 24 60 32 61 25 62 31 63 33 64 30 65
REMARK SMILES IDX 26 66 27 67 28 68 29 69 55 70 56 71 64 72 57 73 63 74 65 75
REMARK SMILES IDX 62 76 58 77 59 78 60 79 61 80 40 81 41 82 49 83 42 84 48 85
REMARK SMILES IDX 50 86 47 87 43 88 44 89 45 90 46 91
REMARK H PARENT 70 44 38 55
REMARK Flexibility Score: inf
ROOT
ATOM      1  C   UNL     1       3.773  -0.959   0.928  1.00  0.00     0.202 C 
ENDROOT
BRANCH   1   2
ATOM      2  O   UNL     1       4.234   0.317   0.497  1.00  0.00    -0.374 OA
BRANCH   2   3
ATOM      3  C   UNL     1       3.323   1.411   0.667  1.00  0.00     0.202 C 
BRANCH   3   4
ATOM      4  C   UNL     1       2.117   1.453  -0.285  1.00  0.00     0.261 C 
BRANCH   4   5
ATOM      5  O   UNL     1       1.194   0.377  -0.005  1.00  0.00    -0.463 OA
BRANCH   5   6
ATOM      6  C   UNL     1       0.869  -0.432  -1.052  1.00  0.00     0.313 C 
ATOM      7  O   UNL     1       1.164  -0.209  -2.221  1.00  0.00    -0.252 OA
BRANCH   6   8
ATOM      8  C   UNL     1       0.092  -1.677  -0.625  1.00  0.00     0.126 C 
ATOM      9  C   UNL     1       0.649  -2.387   0.615  1.00  0.00     0.025 C 
BRANCH   8  10
ATOM     10  C   UNL     1      -1.404  -1.500  -0.466  1.00  0.00    -0.031 A 
ATOM     11  C   UNL     1      -2.021  -0.281  -0.163  1.00  0.00     0.005 A 
ATOM     12  C   UNL     1      -2.201  -2.653  -0.552  1.00  0.00     0.044 A 
ATOM     13  C   UNL     1      -3.406  -0.223   0.037  1.00  0.00     0.012 A 
ATOM     14  C   UNL     1      -3.568  -2.590  -0.331  1.00  0.00     0.131 A 
ATOM     15  C   UNL     1      -4.200  -1.378  -0.042  1.00  0.00     0.017 A 
ATOM     16  F   UNL     1      -4.273  -3.729  -0.406  1.00  0.00    -0.206 F 
BRANCH  15  17
ATOM     17  C   UNL     1      -5.650  -1.321   0.145  1.00  0.00    -0.015 A 
ATOM     18  C   UNL     1      -6.454  -0.623  -0.769  1.00  0.00     0.009 A 
ATOM     19  C   UNL     1      -6.271  -1.994   1.208  1.00  0.00     0.009 A 
ATOM     20  C   UNL     1      -7.842  -0.610  -0.631  1.00  0.00     0.001 A 
ATOM     21  C   UNL     1      -7.659  -1.978   1.349  1.00  0.00     0.001 A 
ATOM     22  C   UNL     1      -8.443  -1.288   0.427  1.00  0.00     0.000 A 
ENDBRANCH  15  17
ENDBRANCH   8  10
ENDBRANCH   6   8
ENDBRANCH   5   6
ENDBRANCH   4   5
ENDBRANCH   3   4
ENDBRANCH   2   3
ENDBRANCH   1   2
BRANCH   1  23
ATOM     23  C   UNL     1       3.907  -1.313   2.413  1.00  0.00     0.261 C 
BRANCH  23  24
ATOM     24  O   UNL     1       3.373  -0.298   3.271  1.00  0.00    -0.460 OA
BRANCH  24  25
ATOM     25  C   UNL     1       4.323   0.537   3.755  1.00  0.00     0.338 C 
ATOM     26  O   UNL     1       5.536   0.420   3.620  1.00  0.00    -0.246 OA
BRANCH  25  27
ATOM     27  C   UNL     1       3.707   1.740   4.336  1.00  0.00     0.060 A 
ATOM     28  C   UNL     1       4.290   2.966   3.996  1.00  0.00     0.016 A 
ATOM     29  C   UNL     1       2.640   1.682   5.238  1.00  0.00     0.016 A 
ATOM     30  C   UNL     1       3.869   4.132   4.622  1.00  0.00     0.010 A 
ATOM     31  C   UNL     1       2.216   2.857   5.867  1.00  0.00     0.010 A 
ATOM     32  C   UNL     1       2.867   4.075   5.599  1.00  0.00    -0.014 A 
BRANCH  32  33
ATOM     33  C   UNL     1       2.656   5.262   6.461  1.00  0.00     0.031 A 
ATOM     34  C   UNL     1       3.293   5.280   7.824  1.00  0.00     0.074 A 
ATOM     35  C   UNL     1       1.986   6.331   5.999  1.00  0.00     0.049 A 
ATOM     36  N   UNL     1       3.270   6.212   8.741  1.00  0.00    -0.248 NA
ATOM     37  C   UNL     1       4.062   4.083   8.202  1.00  0.00     0.031 C 
ATOM     38  C   UNL     1       1.378   6.434   4.673  1.00  0.00     0.029 A 
ATOM     39  N   UNL     1       1.712   7.537   6.590  1.00  0.00    -0.354 N 
ATOM     40  C   UNL     1       4.021   5.716   9.803  1.00  0.00     0.074 A 
ATOM     41  C   UNL     1       4.443   4.383   9.434  1.00  0.00     0.031 C 
ATOM     42  C   UNL     1       0.799   7.640   4.552  1.00  0.00     0.029 A 
ATOM     43  C   UNL     1       0.963   8.379   5.802  1.00  0.00     0.049 A 
ATOM     44  H   UNL     1       2.022   7.778   7.493  1.00  0.00     0.167 HD
ATOM     45  C   UNL     1       4.339   6.326  10.972  1.00  0.00     0.034 A 
ATOM     46  C   UNL     1       0.452   9.597   6.071  1.00  0.00     0.034 A 
ATOM     47  C   UNL     1       3.893   7.652  11.322  1.00  0.00     0.049 A 
ATOM     48  C   UNL     1       0.745  10.222   7.413  1.00  0.00     0.074 A 
ATOM     49  C   UNL     1       4.145   8.373  12.475  1.00  0.00     0.029 A 
ATOM     50  N   UNL     1       3.088   8.456  10.521  1.00  0.00    -0.354 N 
ATOM     51  N   UNL     1       1.456   9.744   8.411  1.00  0.00    -0.248 NA
ATOM     52  C   UNL     1       0.180  11.553   7.661  1.00  0.00     0.031 C 
ATOM     53  C   UNL     1       3.436   9.577  12.403  1.00  0.00     0.029 A 
ATOM     54  C   UNL     1       2.808   9.648  11.169  1.00  0.00     0.049 A 
ATOM     55  H   UNL     1       2.765   8.213   9.623  1.00  0.00     0.167 HD
ATOM     56  C   UNL     1       1.443  10.731   9.393  1.00  0.00     0.074 A 
ATOM     57  C   UNL     1       0.670  11.834   8.859  1.00  0.00     0.031 C 
ATOM     58  C   UNL     1       2.021  10.730  10.623  1.00  0.00     0.034 A 
BRANCH  45  59
ATOM     59  C   UNL     1       5.158   5.536  11.965  1.00  0.00     0.023 A 
ATOM     60  C   UNL     1       6.468   5.111  11.678  1.00  0.00     0.031 A 
ATOM     61  C   UNL     1       4.605   5.163  13.204  1.00  0.00     0.131 A 
ATOM     62  C   UNL     1       7.150   4.279  12.581  1.00  0.00     0.055 A 
ATOM     63  C   UNL     1       5.319   4.404  14.133  1.00  0.00     0.041 A 
ATOM     64  F   UNL     1       3.350   5.516  13.525  1.00  0.00    -0.206 F 
ATOM     65  C   UNL     1       6.594   3.944  13.817  1.00  0.00     0.022 A 
BRANCH  62  66
ATOM     66  S   UNL     1       8.709   3.517  12.053  1.00  0.00     0.124 S 
ATOM     67  O   UNL     1       8.289   2.779  10.864  1.00  0.00    -0.237 OA
ATOM     68  O   UNL     1       9.563   4.675  11.818  1.00  0.00    -0.237 OA
ATOM     69  O   UNL     1       9.087   2.683  13.192  1.00  0.00    -0.744 OA
ENDBRANCH  62  66
ENDBRANCH  45  59
BRANCH  46  70
ATOM     70  C   UNL     1      -0.419  10.284   5.075  1.00  0.00     0.023 A 
ATOM     71  C   UNL     1      -0.049  11.508   4.497  1.00  0.00     0.031 A 
ATOM     72  C   UNL     1      -1.665   9.736   4.715  1.00  0.00     0.131 A 
ATOM     73  C   UNL     1      -0.931  12.164   3.623  1.00  0.00     0.055 A 
ATOM     74  C   UNL     1      -2.515  10.366   3.805  1.00  0.00     0.041 A 
ATOM     75  F   UNL     1      -2.070   8.567   5.238  1.00  0.00    -0.206 F 
ATOM     76  C   UNL     1      -2.155  11.594   3.262  1.00  0.00     0.022 A 
BRANCH  73  77
ATOM     77  S   UNL     1      -0.492  13.819   3.023  1.00  0.00     0.124 S 
ATOM     78  O   UNL     1      -0.330  14.554   4.272  1.00  0.00    -0.237 OA
ATOM     79  O   UNL     1       0.729  13.552   2.271  1.00  0.00    -0.237 OA
ATOM     80  O   UNL     1      -1.648  14.205   2.216  1.00  0.00    -0.744 OA
ENDBRANCH  73  77
ENDBRANCH  46  70
BRANCH  58  81
ATOM     81  C   UNL     1       1.866  11.982  11.452  1.00  0.00     0.023 A 
ATOM     82  C   UNL     1       0.616  12.391  11.948  1.00  0.00     0.031 A 
ATOM     83  C   UNL     1       2.986  12.781  11.741  1.00  0.00     0.131 A 
ATOM     84  C   UNL     1       0.507  13.597  12.656  1.00  0.00     0.055 A 
ATOM     85  C   UNL     1       2.882  13.946  12.501  1.00  0.00     0.041 A 
ATOM     86  F   UNL     1       4.204  12.439  11.291  1.00  0.00    -0.206 F 
ATOM     87  C   UNL     1       1.634  14.368  12.952  1.00  0.00     0.022 A 
BRANCH  84  88
ATOM     88  S   UNL     1      -1.145  14.196  13.104  1.00  0.00     0.124 S 
ATOM     89  O   UNL     1      -1.795  14.294  11.801  1.00  0.00    -0.237 OA
ATOM     90  O   UNL     1      -1.634  13.139  13.982  1.00  0.00    -0.237 OA
ATOM     91  O   UNL     1      -0.880  15.474  13.762  1.00  0.00    -0.744 OA
ENDBRANCH  84  88
ENDBRANCH  58  81
ENDBRANCH  32  33
ENDBRANCH  25  27
ENDBRANCH  24  25
ENDBRANCH  23  24
ENDBRANCH   1  23
TORSDOF 19
