REMARK SMILES O=C(OCCOCCOC(=O)c1ccc2c(c1)[C@@H]1C=CC[C@@H]1[C@H](c1ccncc1)N2)c1ccc(-c2c3nc(c(-c4cc(S(=O)(=O)[O-])ccc4F)c4ccc([nH]4)c(-c4cc(S(=O)(=O)[O-])ccc4F)c4nc(c(-c5cc(S(=O)(=O)[O-])ccc5F)c5ccc2[nH]5)C=C4)C=C3)cc1
REMARK SMILES IDX 5 1 4 2 3 3 2 4 1 5 31 6 32 7 93 8 33 9 92 10 34 11 35 12
REMARK SMILES IDX 36 13 86 14 37 15 91 16 85 17 87 18 38 19 90 20 84 21 83 22
REMARK SMILES IDX 39 24 71 25 51 26 70 27 52 28 55 29 69 30 88 31 53 32 54 33
REMARK SMILES IDX 68 35 89 36 56 37 40 38 41 39 49 40 42 41 48 42 50 43 47 44
REMARK SMILES IDX 43 45 44 46 45 47 46 48 72 49 73 50 81 51 74 52 80 53 82 54
REMARK SMILES IDX 79 55 75 56 76 57 77 58 78 59 57 60 58 61 66 62 59 63 65 64
REMARK SMILES IDX 67 65 64 66 60 67 61 68 62 69 63 70 6 71 7 72 8 73 9 74
REMARK SMILES IDX 10 75 11 76 12 77 13 78 17 79 14 80 16 81 15 82 18 83 30 84
REMARK SMILES IDX 19 85 22 86 23 87 20 89 21 90 24 91 25 92 29 93 26 94 28 95
REMARK SMILES IDX 27 96
REMARK H PARENT 87 23 55 34 30 88
REMARK Flexibility Score: inf
ROOT
ATOM      1  C   UNL     1       4.120   0.824  -1.522  1.00  0.00     0.202 C 
ENDROOT
BRANCH   1   2
ATOM      2  C   UNL     1       3.780  -0.650  -1.289  1.00  0.00     0.261 C 
BRANCH   2   3
ATOM      3  O   UNL     1       2.407  -0.785  -0.883  1.00  0.00    -0.460 OA
BRANCH   3   4
ATOM      4  C   UNL     1       1.923  -1.082   0.346  1.00  0.00     0.338 C 
ATOM      5  O   UNL     1       0.710  -1.249   0.470  1.00  0.00    -0.246 OA
BRANCH   4   6
ATOM      6  C   UNL     1       2.775  -1.204   1.568  1.00  0.00     0.060 A 
ATOM      7  C   UNL     1       3.989  -0.543   1.763  1.00  0.00     0.016 A 
ATOM      8  C   UNL     1       2.264  -1.964   2.634  1.00  0.00     0.016 A 
ATOM      9  C   UNL     1       4.708  -0.674   2.940  1.00  0.00     0.010 A 
ATOM     10  C   UNL     1       2.959  -2.065   3.845  1.00  0.00     0.010 A 
ATOM     11  C   UNL     1       4.194  -1.425   3.992  1.00  0.00    -0.014 A 
BRANCH  11  12
ATOM     12  C   UNL     1       5.035  -1.582   5.193  1.00  0.00     0.031 A 
ATOM     13  C   UNL     1       5.771  -2.872   5.381  1.00  0.00     0.074 A 
ATOM     14  C   UNL     1       5.244  -0.520   5.993  1.00  0.00     0.049 A 
ATOM     15  N   UNL     1       6.557  -3.243   6.353  1.00  0.00    -0.248 NA
ATOM     16  C   UNL     1       5.611  -3.873   4.314  1.00  0.00     0.031 C 
ATOM     17  C   UNL     1       4.663   0.811   5.788  1.00  0.00     0.029 A 
ATOM     18  N   UNL     1       6.024  -0.373   7.107  1.00  0.00    -0.354 N 
ATOM     19  C   UNL     1       6.984  -4.523   6.021  1.00  0.00     0.074 A 
ATOM     20  C   UNL     1       6.347  -4.873   4.770  1.00  0.00     0.031 C 
ATOM     21  C   UNL     1       5.131   1.643   6.732  1.00  0.00     0.029 A 
ATOM     22  C   UNL     1       5.979   0.891   7.649  1.00  0.00     0.049 A 
ATOM     23  H   UNL     1       6.567  -1.102   7.485  1.00  0.00     0.167 HD
ATOM     24  C   UNL     1       7.833  -5.325   6.707  1.00  0.00     0.034 A 
ATOM     25  C   UNL     1       6.533   1.366   8.782  1.00  0.00     0.034 A 
ATOM     26  C   UNL     1       8.415  -4.943   7.969  1.00  0.00     0.049 A 
ATOM     27  C   UNL     1       7.366   0.407   9.598  1.00  0.00     0.074 A 
ATOM     28  C   UNL     1       9.186  -5.694   8.836  1.00  0.00     0.029 A 
ATOM     29  N   UNL     1       8.279  -3.683   8.546  1.00  0.00    -0.354 N 
ATOM     30  N   UNL     1       7.685  -0.842   9.331  1.00  0.00    -0.248 NA
ATOM     31  C   UNL     1       7.907   0.911  10.864  1.00  0.00     0.031 C 
ATOM     32  C   UNL     1       9.470  -4.906   9.959  1.00  0.00     0.029 A 
ATOM     33  C   UNL     1       8.937  -3.640   9.763  1.00  0.00     0.049 A 
ATOM     34  H   UNL     1       7.786  -2.930   8.146  1.00  0.00     0.167 HD
ATOM     35  C   UNL     1       8.478  -1.266  10.391  1.00  0.00     0.074 A 
ATOM     36  C   UNL     1       8.612  -0.130  11.283  1.00  0.00     0.031 C 
ATOM     37  C   UNL     1       9.039  -2.482  10.621  1.00  0.00     0.034 A 
BRANCH  24  38
ATOM     38  C   UNL     1       8.075  -6.700   6.136  1.00  0.00     0.023 A 
ATOM     39  C   UNL     1       8.716  -6.884   4.896  1.00  0.00     0.031 A 
ATOM     40  C   UNL     1       7.561  -7.836   6.786  1.00  0.00     0.131 A 
ATOM     41  C   UNL     1       8.746  -8.158   4.307  1.00  0.00     0.055 A 
ATOM     42  C   UNL     1       7.668  -9.113   6.231  1.00  0.00     0.041 A 
ATOM     43  F   UNL     1       6.911  -7.719   7.954  1.00  0.00    -0.206 F 
ATOM     44  C   UNL     1       8.247  -9.278   4.976  1.00  0.00     0.022 A 
BRANCH  41  45
ATOM     45  S   UNL     1       9.297  -8.306   2.583  1.00  0.00     0.124 S 
ATOM     46  O   UNL     1       8.319  -7.471   1.889  1.00  0.00    -0.237 OA
ATOM     47  O   UNL     1      10.657  -7.785   2.638  1.00  0.00    -0.237 OA
ATOM     48  O   UNL     1       9.188  -9.738   2.309  1.00  0.00    -0.744 OA
ENDBRANCH  41  45
ENDBRANCH  24  38
BRANCH  25  49
ATOM     49  C   UNL     1       6.260   2.759   9.251  1.00  0.00     0.023 A 
ATOM     50  C   UNL     1       7.297   3.674   9.490  1.00  0.00     0.031 A 
ATOM     51  C   UNL     1       4.945   3.176   9.537  1.00  0.00     0.131 A 
ATOM     52  C   UNL     1       7.010   4.934  10.044  1.00  0.00     0.055 A 
ATOM     53  C   UNL     1       4.658   4.451  10.026  1.00  0.00     0.041 A 
ATOM     54  F   UNL     1       3.909   2.344   9.343  1.00  0.00    -0.206 F 
ATOM     55  C   UNL     1       5.696   5.334  10.299  1.00  0.00     0.022 A 
BRANCH  52  56
ATOM     56  S   UNL     1       8.388   6.005  10.543  1.00  0.00     0.124 S 
ATOM     57  O   UNL     1       9.152   5.120  11.416  1.00  0.00    -0.237 OA
ATOM     58  O   UNL     1       9.001   6.327   9.260  1.00  0.00    -0.237 OA
ATOM     59  O   UNL     1       7.726   7.122  11.214  1.00  0.00    -0.744 OA
ENDBRANCH  52  56
ENDBRANCH  25  49
BRANCH  37  60
ATOM     60  C   UNL     1       9.874  -2.606  11.868  1.00  0.00     0.023 A 
ATOM     61  C   UNL     1       9.296  -2.549  13.148  1.00  0.00     0.031 A 
ATOM     62  C   UNL     1      11.267  -2.767  11.771  1.00  0.00     0.131 A 
ATOM     63  C   UNL     1      10.117  -2.590  14.283  1.00  0.00     0.055 A 
ATOM     64  C   UNL     1      12.072  -2.869  12.905  1.00  0.00     0.041 A 
ATOM     65  F   UNL     1      11.866  -2.827  10.571  1.00  0.00    -0.206 F 
ATOM     66  C   UNL     1      11.499  -2.766  14.170  1.00  0.00     0.022 A 
BRANCH  63  67
ATOM     67  S   UNL     1       9.363  -2.314  15.908  1.00  0.00     0.124 S 
ATOM     68  O   UNL     1       8.776  -0.987  15.749  1.00  0.00    -0.237 OA
ATOM     69  O   UNL     1       8.418  -3.422  16.006  1.00  0.00    -0.237 OA
ATOM     70  O   UNL     1      10.497  -2.384  16.828  1.00  0.00    -0.744 OA
ENDBRANCH  63  67
ENDBRANCH  37  60
ENDBRANCH  11  12
ENDBRANCH   4   6
ENDBRANCH   3   4
ENDBRANCH   2   3
ENDBRANCH   1   2
BRANCH   1  71
ATOM     71  O   UNL     1       3.946   1.659  -0.378  1.00  0.00    -0.374 OA
BRANCH  71  72
ATOM     72  C   UNL     1       2.630   2.185  -0.173  1.00  0.00     0.202 C 
BRANCH  72  73
ATOM     73  C   UNL     1       2.740   3.660   0.226  1.00  0.00     0.261 C 
BRANCH  73  74
ATOM     74  O   UNL     1       3.312   4.378  -0.878  1.00  0.00    -0.460 OA
BRANCH  74  75
ATOM     75  C   UNL     1       4.670   4.356  -0.921  1.00  0.00     0.338 C 
ATOM     76  O   UNL     1       5.442   4.213   0.011  1.00  0.00    -0.246 OA
BRANCH  75  77
ATOM     77  C   UNL     1       5.066   4.314  -2.343  1.00  0.00     0.060 A 
ATOM     78  C   UNL     1       6.115   3.478  -2.729  1.00  0.00     0.018 A 
ATOM     79  C   UNL     1       4.348   5.024  -3.305  1.00  0.00     0.022 A 
ATOM     80  C   UNL     1       6.437   3.348  -4.082  1.00  0.00     0.027 A 
ATOM     81  C   UNL     1       4.677   4.908  -4.663  1.00  0.00    -0.017 A 
ATOM     82  C   UNL     1       5.754   4.091  -5.054  1.00  0.00     0.038 A 
ATOM     83  C   UNL     1       3.888   5.704  -5.673  1.00  0.00     0.049 C 
ATOM     84  N   UNL     1       6.136   3.993  -6.393  1.00  0.00    -0.378 N 
ATOM     85  C   UNL     1       2.433   5.320  -5.737  1.00  0.00    -0.023 C 
ATOM     86  C   UNL     1       4.325   5.489  -7.130  1.00  0.00     0.031 C 
ATOM     87  C   UNL     1       5.811   5.135  -7.235  1.00  0.00     0.114 C 
ATOM     88  H   UNL     1       6.597   3.199  -6.747  1.00  0.00     0.161 HD
ATOM     89  C   UNL     1       2.135   4.651  -6.856  1.00  0.00    -0.030 C 
ATOM     90  C   UNL     1       3.344   4.458  -7.714  1.00  0.00     0.034 C 
BRANCH  87  91
ATOM     91  C   UNL     1       6.252   4.963  -8.678  1.00  0.00    -0.022 A 
ATOM     92  C   UNL     1       6.324   6.102  -9.494  1.00  0.00     0.026 A 
ATOM     93  C   UNL     1       6.567   3.729  -9.254  1.00  0.00     0.026 A 
ATOM     94  C   UNL     1       6.702   5.963 -10.819  1.00  0.00     0.111 A 
ATOM     95  C   UNL     1       6.949   3.694 -10.588  1.00  0.00     0.111 A 
ATOM     96  N   UNL     1       7.020   4.783 -11.385  1.00  0.00    -0.265 NA
ENDBRANCH  87  91
ENDBRANCH  75  77
ENDBRANCH  74  75
ENDBRANCH  73  74
ENDBRANCH  72  73
ENDBRANCH  71  72
ENDBRANCH   1  71
TORSDOF 18
