REMARK SMILES C[C@H]1[C@H](C(=O)OCCOCCOC(=O)c2ccc(-c3c4nc(c(-c5cc(S(=O)(=O)[O-])ccc5F)c5ccc([nH]5)c(-c5cc(S(=O)(=O)[O-])ccc5F)c5nc(c(-c6cc(S(=O)(=O)[O-])ccc6F)c6ccc3[nH]6)C=C5)C=C4)cc2)CC[N@@H+]1Cc1cscn1
REMARK SMILES IDX 10 1 9 2 8 3 7 4 6 5 4 6 5 7 3 8 1 9 2 10 80 11 78 12 79 13
REMARK SMILES IDX 81 15 82 16 83 17 86 18 84 19 85 20 11 21 12 22 13 23 14 24
REMARK SMILES IDX 15 25 16 26 77 27 17 28 76 29 18 30 19 31 20 32 70 33 21 34
REMARK SMILES IDX 75 35 69 36 71 37 22 38 74 39 68 40 67 41 23 43 55 44 35 45
REMARK SMILES IDX 54 46 36 47 39 48 53 49 72 50 37 51 38 52 52 54 73 55 40 56
REMARK SMILES IDX 24 57 25 58 33 59 26 60 32 61 34 62 31 63 27 64 28 65 29 66
REMARK SMILES IDX 30 67 56 68 57 69 65 70 58 71 64 72 66 73 63 74 59 75 60 76
REMARK SMILES IDX 61 77 62 78 41 79 42 80 50 81 43 82 49 83 51 84 48 85 44 86
REMARK SMILES IDX 45 87 46 88 47 89
REMARK H PARENT 80 14 71 42 39 53
REMARK Flexibility Score: inf
ROOT
ATOM      1  C   UNL     1       2.253   3.225   1.789  1.00  0.00     0.202 C 
ENDROOT
BRANCH   1   2
ATOM      2  O   UNL     1       1.586   4.250   2.523  1.00  0.00    -0.374 OA
BRANCH   2   3
ATOM      3  C   UNL     1       0.493   3.844   3.351  1.00  0.00     0.202 C 
BRANCH   3   4
ATOM      4  C   UNL     1      -0.824   3.582   2.615  1.00  0.00     0.261 C 
BRANCH   4   5
ATOM      5  O   UNL     1      -0.724   2.386   1.821  1.00  0.00    -0.463 OA
BRANCH   5   6
ATOM      6  C   UNL     1      -0.895   2.518   0.485  1.00  0.00     0.315 C 
ATOM      7  O   UNL     1      -1.273   3.540  -0.078  1.00  0.00    -0.252 OA
BRANCH   6   8
ATOM      8  C   UNL     1      -0.609   1.242  -0.282  1.00  0.00     0.162 C 
ATOM      9  C   UNL     1       1.647   0.092  -0.376  1.00  0.00     0.076 C 
ATOM     10  C   UNL     1       0.317   0.207   0.382  1.00  0.00     0.195 C 
ATOM     11  N   UNL     1      -0.360  -1.094   0.267  1.00  0.00    -0.327 N 
ATOM     12  C   UNL     1      -1.912   0.511  -0.553  1.00  0.00     0.083 C 
ATOM     13  C   UNL     1      -1.521  -0.950  -0.599  1.00  0.00     0.263 C 
ATOM     14  H   UNL     1       0.275  -1.753  -0.184  1.00  0.00     0.348 HD
BRANCH  11  15
ATOM     15  C   UNL     1      -0.588  -1.791   1.542  1.00  0.00     0.320 C 
BRANCH  15  16
ATOM     16  C   UNL     1      -1.368  -1.021   2.573  1.00  0.00     0.105 A 
ATOM     17  C   UNL     1      -2.734  -0.806   2.607  1.00  0.00     0.096 A 
ATOM     18  N   UNL     1      -0.683  -0.506   3.670  1.00  0.00    -0.244 NA
ATOM     19  S   UNL     1      -3.169   0.080   4.008  1.00  0.00    -0.130 S 
ATOM     20  C   UNL     1      -1.528   0.071   4.496  1.00  0.00     0.176 A 
ENDBRANCH  15  16
ENDBRANCH  11  15
ENDBRANCH   6   8
ENDBRANCH   5   6
ENDBRANCH   4   5
ENDBRANCH   3   4
ENDBRANCH   2   3
ENDBRANCH   1   2
BRANCH   1  21
ATOM     21  C   UNL     1       3.288   2.391   2.553  1.00  0.00     0.261 C 
BRANCH  21  22
ATOM     22  O   UNL     1       2.707   1.634   3.628  1.00  0.00    -0.460 OA
BRANCH  22  23
ATOM     23  C   UNL     1       2.963   2.137   4.858  1.00  0.00     0.338 C 
ATOM     24  O   UNL     1       3.671   3.107   5.113  1.00  0.00    -0.246 OA
BRANCH  23  25
ATOM     25  C   UNL     1       2.147   1.477   5.894  1.00  0.00     0.060 A 
ATOM     26  C   UNL     1       1.556   2.308   6.854  1.00  0.00     0.016 A 
ATOM     27  C   UNL     1       2.037   0.087   6.003  1.00  0.00     0.016 A 
ATOM     28  C   UNL     1       0.932   1.757   7.969  1.00  0.00     0.010 A 
ATOM     29  C   UNL     1       1.408  -0.466   7.128  1.00  0.00     0.010 A 
ATOM     30  C   UNL     1       0.902   0.367   8.142  1.00  0.00    -0.014 A 
BRANCH  30  31
ATOM     31  C   UNL     1       0.513  -0.169   9.472  1.00  0.00     0.031 A 
ATOM     32  C   UNL     1       1.598  -0.562  10.442  1.00  0.00     0.074 A 
ATOM     33  C   UNL     1      -0.778  -0.211   9.849  1.00  0.00     0.049 A 
ATOM     34  N   UNL     1       1.499  -0.972  11.681  1.00  0.00    -0.248 NA
ATOM     35  C   UNL     1       2.980  -0.478   9.945  1.00  0.00     0.031 C 
ATOM     36  C   UNL     1      -1.912   0.182   9.015  1.00  0.00     0.029 A 
ATOM     37  N   UNL     1      -1.350  -0.590  11.037  1.00  0.00    -0.354 N 
ATOM     38  C   UNL     1       2.804  -1.186  12.115  1.00  0.00     0.074 A 
ATOM     39  C   UNL     1       3.671  -0.911  10.989  1.00  0.00     0.031 C 
ATOM     40  C   UNL     1      -3.046   0.027   9.720  1.00  0.00     0.029 A 
ATOM     41  C   UNL     1      -2.721  -0.496  11.046  1.00  0.00     0.049 A 
ATOM     42  H   UNL     1      -0.827  -0.899  11.812  1.00  0.00     0.167 HD
ATOM     43  C   UNL     1       3.242  -1.561  13.343  1.00  0.00     0.034 A 
ATOM     44  C   UNL     1      -3.612  -0.801  12.011  1.00  0.00     0.034 A 
ATOM     45  C   UNL     1       2.367  -1.846  14.455  1.00  0.00     0.049 A 
ATOM     46  C   UNL     1      -3.106  -1.283  13.349  1.00  0.00     0.074 A 
ATOM     47  C   UNL     1       2.703  -2.229  15.742  1.00  0.00     0.029 A 
ATOM     48  N   UNL     1       0.979  -1.790  14.410  1.00  0.00    -0.354 N 
ATOM     49  N   UNL     1      -1.869  -1.464  13.751  1.00  0.00    -0.248 NA
ATOM     50  C   UNL     1      -4.119  -1.583  14.369  1.00  0.00     0.031 C 
ATOM     51  C   UNL     1       1.521  -2.471  16.452  1.00  0.00     0.029 A 
ATOM     52  C   UNL     1       0.445  -2.162  15.635  1.00  0.00     0.049 A 
ATOM     53  H   UNL     1       0.452  -1.525  13.622  1.00  0.00     0.167 HD
ATOM     54  C   UNL     1      -1.957  -1.867  15.082  1.00  0.00     0.074 A 
ATOM     55  C   UNL     1      -3.366  -1.884  15.416  1.00  0.00     0.031 C 
ATOM     56  C   UNL     1      -0.964  -2.189  15.952  1.00  0.00     0.034 A 
BRANCH  43  57
ATOM     57  C   UNL     1       4.733  -1.732  13.523  1.00  0.00     0.023 A 
ATOM     58  C   UNL     1       5.623  -0.649  13.403  1.00  0.00     0.031 A 
ATOM     59  C   UNL     1       5.275  -3.003  13.780  1.00  0.00     0.131 A 
ATOM     60  C   UNL     1       7.008  -0.871  13.467  1.00  0.00     0.055 A 
ATOM     61  C   UNL     1       6.650  -3.203  13.922  1.00  0.00     0.041 A 
ATOM     62  F   UNL     1       4.478  -4.078  13.882  1.00  0.00    -0.206 F 
ATOM     63  C   UNL     1       7.526  -2.136  13.751  1.00  0.00     0.022 A 
BRANCH  60  64
ATOM     64  S   UNL     1       8.127   0.490  13.033  1.00  0.00     0.124 S 
ATOM     65  O   UNL     1       7.704   0.794  11.668  1.00  0.00    -0.237 OA
ATOM     66  O   UNL     1       7.809   1.494  14.040  1.00  0.00    -0.237 OA
ATOM     67  O   UNL     1       9.455  -0.110  13.146  1.00  0.00    -0.744 OA
ENDBRANCH  60  64
ENDBRANCH  43  57
BRANCH  44  68
ATOM     68  C   UNL     1      -5.076  -0.686  11.751  1.00  0.00     0.023 A 
ATOM     69  C   UNL     1      -5.878   0.217  12.467  1.00  0.00     0.031 A 
ATOM     70  C   UNL     1      -5.705  -1.526  10.814  1.00  0.00     0.131 A 
ATOM     71  C   UNL     1      -7.269   0.225  12.271  1.00  0.00     0.055 A 
ATOM     72  C   UNL     1      -7.080  -1.479  10.586  1.00  0.00     0.041 A 
ATOM     73  F   UNL     1      -4.984  -2.406  10.101  1.00  0.00    -0.206 F 
ATOM     74  C   UNL     1      -7.873  -0.609  11.327  1.00  0.00     0.022 A 
BRANCH  71  75
ATOM     75  S   UNL     1      -8.291   1.285  13.330  1.00  0.00     0.124 S 
ATOM     76  O   UNL     1      -7.951   0.793  14.660  1.00  0.00    -0.237 OA
ATOM     77  O   UNL     1      -7.797   2.615  12.991  1.00  0.00    -0.237 OA
ATOM     78  O   UNL     1      -9.653   0.997  12.885  1.00  0.00    -0.744 OA
ENDBRANCH  71  75
ENDBRANCH  44  68
BRANCH  56  79
ATOM     79  C   UNL     1      -1.377  -2.545  17.361  1.00  0.00     0.023 A 
ATOM     80  C   UNL     1      -2.140  -3.692  17.643  1.00  0.00     0.031 A 
ATOM     81  C   UNL     1      -1.028  -1.705  18.434  1.00  0.00     0.131 A 
ATOM     82  C   UNL     1      -2.588  -3.930  18.952  1.00  0.00     0.055 A 
ATOM     83  C   UNL     1      -1.420  -1.982  19.744  1.00  0.00     0.041 A 
ATOM     84  F   UNL     1      -0.301  -0.595  18.225  1.00  0.00    -0.206 F 
ATOM     85  C   UNL     1      -2.219  -3.091  20.007  1.00  0.00     0.022 A 
BRANCH  82  86
ATOM     86  S   UNL     1      -3.756  -5.288  19.239  1.00  0.00     0.124 S 
ATOM     87  O   UNL     1      -4.840  -4.956  18.319  1.00  0.00    -0.237 OA
ATOM     88  O   UNL     1      -2.962  -6.461  18.890  1.00  0.00    -0.237 OA
ATOM     89  O   UNL     1      -4.087  -5.162  20.657  1.00  0.00    -0.744 OA
ENDBRANCH  82  86
ENDBRANCH  56  79
ENDBRANCH  30  31
ENDBRANCH  23  25
ENDBRANCH  22  23
ENDBRANCH  21  22
ENDBRANCH   1  21
TORSDOF 19
