REMARK SMILES Nc1nonc1C(=O)N1[C@@H]2CC[C@H]1C[C@H](CC(=O)OCCOCCOC(=O)c1ccc(-c3c4nc(c(-c5cc(S(=O)(=O)[O-])ccc5F)c5ccc([nH]5)c(-c5cc(S(=O)(=O)[O-])ccc5F)c5nc(c(-c6cc(S(=O)(=O)[O-])ccc6F)c6ccc3[nH]6)C=C5)C=C4)cc1)C2
REMARK SMILES IDX 21 1 20 2 19 3 17 4 18 5 16 6 15 7 9 8 10 9 13 10 11 11
REMARK SMILES IDX 91 12 12 13 14 14 7 15 8 16 6 17 2 18 3 19 4 20 5 21 1 22
REMARK SMILES IDX 22 25 23 26 24 27 25 28 26 29 27 30 28 31 29 32 90 33 30 34
REMARK SMILES IDX 89 35 31 36 32 37 33 38 83 39 34 40 88 41 82 42 84 43 35 44
REMARK SMILES IDX 87 45 81 46 80 47 36 49 68 50 48 51 67 52 49 53 52 54 66 55
REMARK SMILES IDX 85 56 50 57 51 58 65 60 86 61 53 62 37 63 38 64 46 65 39 66
REMARK SMILES IDX 45 67 47 68 44 69 40 70 41 71 42 72 43 73 69 74 70 75 78 76
REMARK SMILES IDX 71 77 77 78 79 79 76 80 72 81 73 82 74 83 75 84 54 85 55 86
REMARK SMILES IDX 63 87 56 88 62 89 64 90 61 91 57 92 58 93 59 94 60 95
REMARK H PARENT 1 23 1 24 84 48 52 59
REMARK Flexibility Score: inf
ROOT
ATOM      1  C   UNL     1       8.071  -0.162   0.291  1.00  0.00     0.202 C 
ENDROOT
BRANCH   1   2
ATOM      2  C   UNL     1       7.101   0.827  -0.361  1.00  0.00     0.261 C 
BRANCH   2   3
ATOM      3  O   UNL     1       5.877   0.166  -0.732  1.00  0.00    -0.463 OA
BRANCH   3   4
ATOM      4  C   UNL     1       5.666  -0.009  -2.058  1.00  0.00     0.306 C 
ATOM      5  O   UNL     1       6.362   0.450  -2.954  1.00  0.00    -0.252 OA
BRANCH   4   6
ATOM      6  C   UNL     1       4.411  -0.805  -2.336  1.00  0.00     0.126 C 
BRANCH   6   7
ATOM      7  C   UNL     1       4.123  -2.089  -1.516  1.00  0.00     0.004 C 
ATOM      8  N   UNL     1       1.630  -2.667  -0.311  1.00  0.00    -0.331 N 
ATOM      9  C   UNL     1       2.055  -3.632  -1.304  1.00  0.00     0.086 C 
ATOM     10  C   UNL     1       2.723  -2.591   0.646  1.00  0.00     0.086 C 
ATOM     11  C   UNL     1       2.797  -4.716  -0.515  1.00  0.00     0.027 C 
ATOM     12  C   UNL     1       2.972  -2.851  -2.238  1.00  0.00     0.029 C 
ATOM     13  C   UNL     1       3.115  -4.064   0.832  1.00  0.00     0.027 C 
ATOM     14  C   UNL     1       3.886  -1.812   0.003  1.00  0.00     0.029 C 
BRANCH   8  15
ATOM     15  C   UNL     1       0.286  -2.600   0.050  1.00  0.00     0.280 C 
ATOM     16  O   UNL     1      -0.412  -3.616   0.017  1.00  0.00    -0.267 OA
BRANCH  15  17
ATOM     17  C   UNL     1      -0.279  -1.271   0.308  1.00  0.00     0.216 A 
ATOM     18  C   UNL     1       0.237   0.040   0.122  1.00  0.00     0.201 A 
ATOM     19  N   UNL     1      -0.683   0.940   0.455  1.00  0.00    -0.032 NA
ATOM     20  O   UNL     1      -1.799   0.204   0.809  1.00  0.00    -0.242 OA
ATOM     21  N   UNL     1      -1.554  -1.155   0.715  1.00  0.00    -0.042 NA
BRANCH  18  22
ATOM     22  N   UNL     1       1.440   0.384  -0.360  1.00  0.00    -0.379 N 
ATOM     23  H   UNL     1       1.684   1.334  -0.442  1.00  0.00     0.158 HD
ATOM     24  H   UNL     1       2.079  -0.314  -0.632  1.00  0.00     0.158 HD
ENDBRANCH  18  22
ENDBRANCH  15  17
ENDBRANCH   8  15
ENDBRANCH   6   7
ENDBRANCH   4   6
ENDBRANCH   3   4
ENDBRANCH   2   3
ENDBRANCH   1   2
BRANCH   1  25
ATOM     25  O   UNL     1       8.653  -1.134  -0.581  1.00  0.00    -0.374 OA
BRANCH  25  26
ATOM     26  C   UNL     1       7.853  -2.265  -0.912  1.00  0.00     0.202 C 
BRANCH  26  27
ATOM     27  C   UNL     1       7.795  -3.405   0.112  1.00  0.00     0.261 C 
BRANCH  27  28
ATOM     28  O   UNL     1       7.178  -2.999   1.347  1.00  0.00    -0.460 OA
BRANCH  28  29
ATOM     29  C   UNL     1       8.058  -2.773   2.353  1.00  0.00     0.338 C 
ATOM     30  O   UNL     1       9.266  -2.970   2.316  1.00  0.00    -0.246 OA
BRANCH  29  31
ATOM     31  C   UNL     1       7.408  -2.051   3.465  1.00  0.00     0.060 A 
ATOM     32  C   UNL     1       8.107  -0.963   4.001  1.00  0.00     0.016 A 
ATOM     33  C   UNL     1       6.190  -2.451   4.024  1.00  0.00     0.016 A 
ATOM     34  C   UNL     1       7.639  -0.324   5.144  1.00  0.00     0.010 A 
ATOM     35  C   UNL     1       5.718  -1.802   5.174  1.00  0.00     0.010 A 
ATOM     36  C   UNL     1       6.467  -0.769   5.769  1.00  0.00    -0.014 A 
BRANCH  36  37
ATOM     37  C   UNL     1       6.154  -0.259   7.131  1.00  0.00     0.031 A 
ATOM     38  C   UNL     1       6.457  -1.126   8.326  1.00  0.00     0.074 A 
ATOM     39  C   UNL     1       5.710   0.999   7.312  1.00  0.00     0.049 A 
ATOM     40  N   UNL     1       6.347  -0.857   9.602  1.00  0.00    -0.248 NA
ATOM     41  C   UNL     1       6.951  -2.480   8.037  1.00  0.00     0.031 C 
ATOM     42  C   UNL     1       5.432   1.955   6.241  1.00  0.00     0.029 A 
ATOM     43  N   UNL     1       5.440   1.694   8.463  1.00  0.00    -0.354 N 
ATOM     44  C   UNL     1       6.764  -2.005  10.270  1.00  0.00     0.074 A 
ATOM     45  C   UNL     1       7.066  -2.990   9.253  1.00  0.00     0.031 C 
ATOM     46  C   UNL     1       5.055   3.123   6.789  1.00  0.00     0.029 A 
ATOM     47  C   UNL     1       5.029   2.988   8.244  1.00  0.00     0.049 A 
ATOM     48  H   UNL     1       5.531   1.304   9.362  1.00  0.00     0.167 HD
ATOM     49  C   UNL     1       6.905  -2.213  11.604  1.00  0.00     0.034 A 
ATOM     50  C   UNL     1       4.671   3.952   9.117  1.00  0.00     0.034 A 
ATOM     51  C   UNL     1       6.581  -1.228  12.610  1.00  0.00     0.049 A 
ATOM     52  C   UNL     1       4.728   3.662  10.597  1.00  0.00     0.074 A 
ATOM     53  C   UNL     1       6.682  -1.334  13.986  1.00  0.00     0.029 A 
ATOM     54  N   UNL     1       6.079   0.042  12.350  1.00  0.00    -0.354 N 
ATOM     55  N   UNL     1       5.130   2.575  11.216  1.00  0.00    -0.248 NA
ATOM     56  C   UNL     1       4.293   4.739  11.495  1.00  0.00     0.031 C 
ATOM     57  C   UNL     1       6.166  -0.165  14.558  1.00  0.00     0.029 A 
ATOM     58  C   UNL     1       5.830   0.712  13.539  1.00  0.00     0.049 A 
ATOM     59  H   UNL     1       5.922   0.412  11.451  1.00  0.00     0.167 HD
ATOM     60  C   UNL     1       5.035   2.857  12.578  1.00  0.00     0.074 A 
ATOM     61  C   UNL     1       4.550   4.218  12.685  1.00  0.00     0.031 C 
ATOM     62  C   UNL     1       5.330   2.065  13.642  1.00  0.00     0.034 A 
BRANCH  49  63
ATOM     63  C   UNL     1       7.379  -3.582  12.040  1.00  0.00     0.023 A 
ATOM     64  C   UNL     1       8.632  -4.091  11.650  1.00  0.00     0.031 A 
ATOM     65  C   UNL     1       6.543  -4.417  12.802  1.00  0.00     0.131 A 
ATOM     66  C   UNL     1       8.968  -5.423  11.937  1.00  0.00     0.055 A 
ATOM     67  C   UNL     1       6.926  -5.710  13.169  1.00  0.00     0.041 A 
ATOM     68  F   UNL     1       5.325  -4.001  13.185  1.00  0.00    -0.206 F 
ATOM     69  C   UNL     1       8.136  -6.227  12.718  1.00  0.00     0.022 A 
BRANCH  66  70
ATOM     70  S   UNL     1      10.415  -6.145  11.113  1.00  0.00     0.124 S 
ATOM     71  O   UNL     1      10.096  -5.915   9.705  1.00  0.00    -0.237 OA
ATOM     72  O   UNL     1      11.514  -5.357  11.657  1.00  0.00    -0.237 OA
ATOM     73  O   UNL     1      10.382  -7.546  11.529  1.00  0.00    -0.744 OA
ENDBRANCH  66  70
ENDBRANCH  49  63
BRANCH  50  74
ATOM     74  C   UNL     1       4.217   5.285   8.625  1.00  0.00     0.023 A 
ATOM     75  C   UNL     1       4.931   6.454   8.934  1.00  0.00     0.031 A 
ATOM     76  C   UNL     1       3.029   5.416   7.883  1.00  0.00     0.131 A 
ATOM     77  C   UNL     1       4.429   7.705   8.543  1.00  0.00     0.055 A 
ATOM     78  C   UNL     1       2.563   6.657   7.448  1.00  0.00     0.041 A 
ATOM     79  F   UNL     1       2.306   4.331   7.562  1.00  0.00    -0.206 F 
ATOM     80  C   UNL     1       3.258   7.813   7.789  1.00  0.00     0.022 A 
BRANCH  77  81
ATOM     81  S   UNL     1       5.290   9.200   9.103  1.00  0.00     0.124 S 
ATOM     82  O   UNL     1       5.213   9.060  10.553  1.00  0.00    -0.237 OA
ATOM     83  O   UNL     1       6.612   9.029   8.509  1.00  0.00    -0.237 OA
ATOM     84  O   UNL     1       4.491  10.284   8.536  1.00  0.00    -0.744 OA
ENDBRANCH  77  81
ENDBRANCH  50  74
BRANCH  62  85
ATOM     85  C   UNL     1       5.187   2.679  15.018  1.00  0.00     0.023 A 
ATOM     86  C   UNL     1       3.943   3.104  15.519  1.00  0.00     0.031 A 
ATOM     87  C   UNL     1       6.322   2.874  15.827  1.00  0.00     0.131 A 
ATOM     88  C   UNL     1       3.875   3.770  16.754  1.00  0.00     0.055 A 
ATOM     89  C   UNL     1       6.237   3.470  17.087  1.00  0.00     0.041 A 
ATOM     90  F   UNL     1       7.538   2.493  15.403  1.00  0.00    -0.206 F 
ATOM     91  C   UNL     1       5.011   3.938  17.549  1.00  0.00     0.022 A 
BRANCH  88  92
ATOM     92  S   UNL     1       2.303   4.527  17.249  1.00  0.00     0.124 S 
ATOM     93  O   UNL     1       2.017   5.402  16.116  1.00  0.00    -0.237 OA
ATOM     94  O   UNL     1       1.430   3.367  17.395  1.00  0.00    -0.237 OA
ATOM     95  O   UNL     1       2.631   5.216  18.496  1.00  0.00    -0.744 OA
ENDBRANCH  88  92
ENDBRANCH  62  85
ENDBRANCH  36  37
ENDBRANCH  29  31
ENDBRANCH  28  29
ENDBRANCH  27  28
ENDBRANCH  26  27
ENDBRANCH  25  26
ENDBRANCH   1  25
TORSDOF 21
