REMARK SMILES CC(=O)NS(=O)(=O)c1cc(-c2ccn(C(F)F)c(=O)c2)ccc1C(=O)OCCOCCOC(=O)c1ccc(-c2c3nc(c(-c4cc(S(=O)(=O)[O-])ccc4F)c4ccc([nH]4)c(-c4cc(S(=O)(=O)[O-])ccc4F)c4nc(c(-c5cc(S(=O)(=O)[O-])ccc5F)c5ccc2[nH]5)C=C4)C=C3)cc1
REMARK SMILES IDX 30 1 29 2 28 3 27 4 26 5 24 6 25 7 23 8 8 9 9 10 10 11 22 12
REMARK SMILES IDX 21 13 5 14 6 15 7 16 4 17 1 18 2 19 3 20 11 22 12 23 20 24
REMARK SMILES IDX 13 25 18 26 14 27 19 28 15 29 16 30 17 31 31 32 32 33 33 34
REMARK SMILES IDX 34 35 35 36 36 37 97 38 37 39 96 40 38 41 39 42 40 43 90 44
REMARK SMILES IDX 41 45 95 46 89 47 91 48 42 49 94 50 88 51 87 52 43 54 75 55
REMARK SMILES IDX 55 56 74 57 56 58 59 59 73 60 92 61 57 62 58 63 72 65 93 66
REMARK SMILES IDX 60 67 44 68 45 69 53 70 46 71 52 72 54 73 51 74 47 75 48 76
REMARK SMILES IDX 49 77 50 78 76 79 77 80 85 81 78 82 84 83 86 84 83 85 79 86
REMARK SMILES IDX 80 87 81 88 82 89 61 90 62 91 70 92 63 93 69 94 71 95 68 96
REMARK SMILES IDX 64 97 65 98 66 99 67 100
REMARK H PARENT 4 21 91 53 59 64
REMARK Flexibility Score: inf
ROOT
ATOM      1  C   UNL     1       0.249   5.197  -2.028  1.00  0.00     0.202 C 
ENDROOT
BRANCH   1   2
ATOM      2  O   UNL     1       1.014   6.010  -2.921  1.00  0.00    -0.374 OA
BRANCH   2   3
ATOM      3  C   UNL     1       1.591   5.312  -4.031  1.00  0.00     0.202 C 
BRANCH   3   4
ATOM      4  C   UNL     1       3.054   4.951  -3.783  1.00  0.00     0.261 C 
BRANCH   4   5
ATOM      5  O   UNL     1       3.111   3.874  -2.828  1.00  0.00    -0.460 OA
BRANCH   5   6
ATOM      6  C   UNL     1       3.597   4.161  -1.614  1.00  0.00     0.339 C 
ATOM      7  O   UNL     1       4.123   5.215  -1.288  1.00  0.00    -0.246 OA
BRANCH   6   8
ATOM      8  C   UNL     1       3.359   3.066  -0.623  1.00  0.00     0.080 A 
ATOM      9  C   UNL     1       2.926   1.749  -0.857  1.00  0.00     0.103 A 
ATOM     10  C   UNL     1       2.822   0.848   0.221  1.00  0.00     0.032 A 
ATOM     11  C   UNL     1       3.034   1.266   1.538  1.00  0.00    -0.017 A 
ATOM     12  C   UNL     1       3.604   3.456   0.713  1.00  0.00     0.018 A 
ATOM     13  C   UNL     1       3.422   2.579   1.782  1.00  0.00     0.010 A 
BRANCH   9  14
ATOM     14  S   UNL     1       2.375   1.195  -2.456  1.00  0.00     0.264 S 
ATOM     15  O   UNL     1       3.541   1.107  -3.299  1.00  0.00    -0.201 OA
ATOM     16  O   UNL     1       1.188   1.945  -2.802  1.00  0.00    -0.201 OA
BRANCH  14  17
ATOM     17  N   UNL     1       1.879  -0.388  -2.232  1.00  0.00    -0.249 N 
ATOM     18  C   UNL     1      -0.228  -0.092  -0.904  1.00  0.00     0.115 C 
ATOM     19  C   UNL     1       0.553  -0.795  -1.983  1.00  0.00     0.230 C 
ATOM     20  O   UNL     1       0.146  -1.831  -2.492  1.00  0.00    -0.274 OA
ATOM     21  H   UNL     1       2.567  -1.090  -2.277  1.00  0.00     0.183 HD
ENDBRANCH  14  17
ENDBRANCH   9  14
BRANCH  11  22
ATOM     22  C   UNL     1       2.735   0.359   2.655  1.00  0.00    -0.011 A 
ATOM     23  C   UNL     1       1.492   0.451   3.396  1.00  0.00     0.027 A 
ATOM     24  C   UNL     1       3.627  -0.591   2.976  1.00  0.00     0.080 A 
ATOM     25  C   UNL     1       1.231  -0.406   4.389  1.00  0.00     0.095 A 
ATOM     26  C   UNL     1       3.355  -1.544   4.089  1.00  0.00     0.255 A 
ATOM     27  N   UNL     1       2.137  -1.389   4.735  1.00  0.00    -0.258 N 
ATOM     28  O   UNL     1       4.204  -2.386   4.360  1.00  0.00    -0.269 OA
BRANCH  27  29
ATOM     29  C   UNL     1       1.848  -2.301   5.811  1.00  0.00     0.451 C 
ATOM     30  F   UNL     1       1.864  -3.586   5.385  1.00  0.00    -0.185 F 
ATOM     31  F   UNL     1       2.755  -2.176   6.811  1.00  0.00    -0.185 F 
ENDBRANCH  27  29
ENDBRANCH  11  22
ENDBRANCH   6   8
ENDBRANCH   5   6
ENDBRANCH   4   5
ENDBRANCH   3   4
ENDBRANCH   2   3
ENDBRANCH   1   2
BRANCH   1  32
ATOM     32  C   UNL     1      -1.220   5.050  -2.436  1.00  0.00     0.261 C 
BRANCH  32  33
ATOM     33  O   UNL     1      -1.349   4.197  -3.585  1.00  0.00    -0.460 OA
BRANCH  33  34
ATOM     34  C   UNL     1      -1.538   4.838  -4.765  1.00  0.00     0.338 C 
ATOM     35  O   UNL     1      -1.761   6.028  -4.915  1.00  0.00    -0.246 OA
BRANCH  34  36
ATOM     36  C   UNL     1      -1.278   3.910  -5.894  1.00  0.00     0.060 A 
ATOM     37  C   UNL     1      -0.824   4.468  -7.097  1.00  0.00     0.016 A 
ATOM     38  C   UNL     1      -1.464   2.526  -5.794  1.00  0.00     0.016 A 
ATOM     39  C   UNL     1      -0.598   3.656  -8.208  1.00  0.00     0.010 A 
ATOM     40  C   UNL     1      -1.243   1.712  -6.910  1.00  0.00     0.010 A 
ATOM     41  C   UNL     1      -0.838   2.278  -8.129  1.00  0.00    -0.014 A 
BRANCH  41  42
ATOM     42  C   UNL     1      -0.818   1.465  -9.368  1.00  0.00     0.031 A 
ATOM     43  C   UNL     1      -2.105   1.273 -10.122  1.00  0.00     0.074 A 
ATOM     44  C   UNL     1       0.326   0.930  -9.829  1.00  0.00     0.049 A 
ATOM     45  N   UNL     1      -2.328   0.623 -11.234  1.00  0.00    -0.248 NA
ATOM     46  C   UNL     1      -3.300   1.901  -9.538  1.00  0.00     0.031 C 
ATOM     47  C   UNL     1       1.638   1.065  -9.197  1.00  0.00     0.029 A 
ATOM     48  N   UNL     1       0.564   0.161 -10.939  1.00  0.00    -0.354 N 
ATOM     49  C   UNL     1      -3.685   0.775 -11.494  1.00  0.00     0.074 A 
ATOM     50  C   UNL     1      -4.240   1.545 -10.400  1.00  0.00     0.031 C 
ATOM     51  C   UNL     1       2.543   0.386  -9.925  1.00  0.00     0.029 A 
ATOM     52  C   UNL     1       1.873  -0.243 -11.061  1.00  0.00     0.049 A 
ATOM     53  H   UNL     1      -0.136  -0.080 -11.588  1.00  0.00     0.167 HD
ATOM     54  C   UNL     1      -4.403   0.324 -12.551  1.00  0.00     0.034 A 
ATOM     55  C   UNL     1       2.455  -1.041 -11.978  1.00  0.00     0.034 A 
ATOM     56  C   UNL     1      -3.851  -0.469 -13.620  1.00  0.00     0.049 A 
ATOM     57  C   UNL     1       1.622  -1.599 -13.105  1.00  0.00     0.074 A 
ATOM     58  C   UNL     1      -4.486  -0.974 -14.740  1.00  0.00     0.029 A 
ATOM     59  N   UNL     1      -2.529  -0.888 -13.689  1.00  0.00    -0.354 N 
ATOM     60  N   UNL     1       0.343  -1.428 -13.350  1.00  0.00    -0.248 NA
ATOM     61  C   UNL     1       2.314  -2.451 -14.082  1.00  0.00     0.031 C 
ATOM     62  C   UNL     1      -3.562  -1.741 -15.460  1.00  0.00     0.029 A 
ATOM     63  C   UNL     1      -2.336  -1.669 -14.817  1.00  0.00     0.049 A 
ATOM     64  H   UNL     1      -1.831  -0.663 -13.033  1.00  0.00     0.167 HD
ATOM     65  C   UNL     1       0.085  -2.132 -14.523  1.00  0.00     0.074 A 
ATOM     66  C   UNL     1       1.339  -2.728 -14.937  1.00  0.00     0.031 C 
ATOM     67  C   UNL     1      -1.081  -2.264 -15.204  1.00  0.00     0.034 A 
BRANCH  54  68
ATOM     68  C   UNL     1      -5.874   0.646 -12.559  1.00  0.00     0.023 A 
ATOM     69  C   UNL     1      -6.334   1.966 -12.716  1.00  0.00     0.031 A 
ATOM     70  C   UNL     1      -6.823  -0.368 -12.351  1.00  0.00     0.131 A 
ATOM     71  C   UNL     1      -7.703   2.245 -12.595  1.00  0.00     0.055 A 
ATOM     72  C   UNL     1      -8.190  -0.092 -12.297  1.00  0.00     0.041 A 
ATOM     73  F   UNL     1      -6.435  -1.640 -12.171  1.00  0.00    -0.206 F 
ATOM     74  C   UNL     1      -8.636   1.223 -12.405  1.00  0.00     0.022 A 
BRANCH  71  75
ATOM     75  S   UNL     1      -8.236   3.979 -12.559  1.00  0.00     0.124 S 
ATOM     76  O   UNL     1      -7.508   4.488 -11.399  1.00  0.00    -0.237 OA
ATOM     77  O   UNL     1      -7.794   4.472 -13.858  1.00  0.00    -0.237 OA
ATOM     78  O   UNL     1      -9.684   3.889 -12.385  1.00  0.00    -0.744 OA
ENDBRANCH  71  75
ENDBRANCH  54  68
BRANCH  55  79
ATOM     79  C   UNL     1       3.893  -1.403 -11.853  1.00  0.00     0.023 A 
ATOM     80  C   UNL     1       4.845  -0.941 -12.774  1.00  0.00     0.031 A 
ATOM     81  C   UNL     1       4.323  -2.265 -10.828  1.00  0.00     0.131 A 
ATOM     82  C   UNL     1       6.178  -1.371 -12.672  1.00  0.00     0.055 A 
ATOM     83  C   UNL     1       5.655  -2.661 -10.711  1.00  0.00     0.041 A 
ATOM     84  F   UNL     1       3.448  -2.732  -9.924  1.00  0.00    -0.206 F 
ATOM     85  C   UNL     1       6.590  -2.221 -11.643  1.00  0.00     0.022 A 
BRANCH  82  86
ATOM     86  S   UNL     1       7.360  -0.849 -13.945  1.00  0.00     0.124 S 
ATOM     87  O   UNL     1       6.750  -1.386 -15.157  1.00  0.00    -0.237 OA
ATOM     88  O   UNL     1       7.337   0.603 -13.804  1.00  0.00    -0.237 OA
ATOM     89  O   UNL     1       8.607  -1.493 -13.536  1.00  0.00    -0.744 OA
ENDBRANCH  82  86
ENDBRANCH  55  79
BRANCH  67  90
ATOM     90  C   UNL     1      -1.035  -3.050 -16.488  1.00  0.00     0.023 A 
ATOM     91  C   UNL     1      -0.914  -4.449 -16.492  1.00  0.00     0.031 A 
ATOM     92  C   UNL     1      -1.115  -2.382 -17.722  1.00  0.00     0.131 A 
ATOM     93  C   UNL     1      -0.839  -5.137 -17.712  1.00  0.00     0.055 A 
ATOM     94  C   UNL     1      -1.079  -3.075 -18.933  1.00  0.00     0.041 A 
ATOM     95  F   UNL     1      -1.233  -1.046 -17.769  1.00  0.00    -0.206 F 
ATOM     96  C   UNL     1      -0.932  -4.460 -18.932  1.00  0.00     0.022 A 
BRANCH  93  97
ATOM     97  S   UNL     1      -0.568  -6.931 -17.690  1.00  0.00     0.124 S 
ATOM     98  O   UNL     1       0.729  -7.035 -17.029  1.00  0.00    -0.237 OA
ATOM     99  O   UNL     1      -1.714  -7.412 -16.925  1.00  0.00    -0.237 OA
ATOM    100  O   UNL     1      -0.574  -7.297 -19.106  1.00  0.00    -0.744 OA
ENDBRANCH  93  97
ENDBRANCH  67  90
ENDBRANCH  41  42
ENDBRANCH  34  36
ENDBRANCH  33  34
ENDBRANCH  32  33
ENDBRANCH   1  32
TORSDOF 21
