REMARK SMILES CSc1ccccc1[C@H](C(=O)OCCOCCOC(=O)c1ccc(-c2c3nc(c(-c4cc(S(=O)(=O)[O-])ccc4F)c4ccc([nH]4)c(-c4cc(S(=O)(=O)[O-])ccc4F)c4nc(c(-c5cc(S(=O)(=O)[O-])ccc5F)c5ccc2[nH]5)C=C4)C=C3)cc1)[N@@H+](C)CCc1cnn(C)c1
REMARK SMILES IDX 14 1 13 2 12 3 10 4 11 5 9 6 8 7 3 8 4 9 5 10 7 11 6 12 2 13
REMARK SMILES IDX 1 14 84 15 85 16 86 18 87 19 88 20 89 21 93 22 90 23 91 24
REMARK SMILES IDX 92 25 15 26 16 27 17 28 18 29 19 30 20 31 21 32 22 33 83 34
REMARK SMILES IDX 23 35 82 36 24 37 25 38 26 39 76 40 27 41 81 42 75 43 77 44
REMARK SMILES IDX 28 45 80 46 74 47 73 48 29 50 61 51 41 52 60 53 42 54 45 55
REMARK SMILES IDX 59 56 78 57 43 58 44 59 58 61 79 62 46 63 30 64 31 65 39 66
REMARK SMILES IDX 32 67 38 68 40 69 37 70 33 71 34 72 35 73 36 74 62 75 63 76
REMARK SMILES IDX 71 77 64 78 70 79 72 80 69 81 65 82 66 83 67 84 68 85 47 86
REMARK SMILES IDX 48 87 56 88 49 89 55 90 57 91 54 92 50 93 51 94 52 95 53 96
REMARK H PARENT 84 17 77 49 45 60
REMARK Flexibility Score: inf
ROOT
ATOM      1  C   UNL     1       1.746   1.923   4.051  1.00  0.00     0.202 C 
ENDROOT
BRANCH   1   2
ATOM      2  C   UNL     1       1.926   2.123   2.543  1.00  0.00     0.261 C 
BRANCH   2   3
ATOM      3  O   UNL     1       1.607   3.471   2.124  1.00  0.00    -0.459 OA
BRANCH   3   4
ATOM      4  C   UNL     1       0.648   3.629   1.167  1.00  0.00     0.370 C 
ATOM      5  O   UNL     1      -0.114   2.724   0.829  1.00  0.00    -0.245 OA
BRANCH   4   6
ATOM      6  C   UNL     1       0.683   5.027   0.449  1.00  0.00     0.327 C 
BRANCH   6   7
ATOM      7  C   UNL     1      -0.715   5.611   0.131  1.00  0.00     0.034 A 
ATOM      8  C   UNL     1      -1.011   6.414  -1.006  1.00  0.00     0.017 A 
ATOM      9  C   UNL     1      -2.262   7.063  -1.081  1.00  0.00     0.015 A 
ATOM     10  C   UNL     1      -3.266   6.831  -0.147  1.00  0.00     0.001 A 
ATOM     11  C   UNL     1      -1.789   5.321   0.999  1.00  0.00     0.012 A 
ATOM     12  C   UNL     1      -3.047   5.910   0.858  1.00  0.00     0.001 A 
BRANCH   8  13
ATOM     13  S   UNL     1       0.115   6.491  -2.418  1.00  0.00    -0.129 SA
ATOM     14  C   UNL     1      -0.730   7.538  -3.632  1.00  0.00     0.091 C 
ENDBRANCH   8  13
ENDBRANCH   6   7
BRANCH   6  15
ATOM     15  N   UNL     1       1.715   5.964   0.998  1.00  0.00    -0.322 N 
ATOM     16  C   UNL     1       2.240   6.935   0.051  1.00  0.00     0.333 C 
ATOM     17  H   UNL     1       2.382   5.209   1.155  1.00  0.00     0.348 HD
BRANCH  15  18
ATOM     18  C   UNL     1       1.684   6.482   2.368  1.00  0.00     0.267 C 
BRANCH  18  19
ATOM     19  C   UNL     1       0.546   7.417   2.834  1.00  0.00     0.100 C 
BRANCH  19  20
ATOM     20  C   UNL     1      -0.553   6.738   3.578  1.00  0.00    -0.004 A 
ATOM     21  C   UNL     1      -0.511   5.489   4.226  1.00  0.00     0.139 A 
ATOM     22  C   UNL     1      -1.853   7.164   3.785  1.00  0.00     0.112 A 
ATOM     23  N   UNL     1      -1.704   5.090   4.661  1.00  0.00    -0.182 NA
ATOM     24  N   UNL     1      -2.504   6.127   4.391  1.00  0.00    -0.276 N 
ATOM     25  C   UNL     1      -3.919   5.980   4.622  1.00  0.00     0.173 C 
ENDBRANCH  19  20
ENDBRANCH  18  19
ENDBRANCH  15  18
ENDBRANCH   6  15
ENDBRANCH   4   6
ENDBRANCH   3   4
ENDBRANCH   2   3
ENDBRANCH   1   2
BRANCH   1  26
ATOM     26  O   UNL     1       0.584   1.142   4.366  1.00  0.00    -0.374 OA
BRANCH  26  27
ATOM     27  C   UNL     1      -0.610   1.903   4.588  1.00  0.00     0.202 C 
BRANCH  27  28
ATOM     28  C   UNL     1      -0.734   2.388   6.039  1.00  0.00     0.261 C 
BRANCH  28  29
ATOM     29  O   UNL     1       0.418   3.169   6.371  1.00  0.00    -0.460 OA
BRANCH  29  30
ATOM     30  C   UNL     1       0.321   4.003   7.423  1.00  0.00     0.338 C 
ATOM     31  O   UNL     1      -0.657   4.294   8.079  1.00  0.00    -0.246 OA
BRANCH  30  32
ATOM     32  C   UNL     1       1.704   4.421   7.706  1.00  0.00     0.060 A 
ATOM     33  C   UNL     1       2.599   3.441   8.148  1.00  0.00     0.016 A 
ATOM     34  C   UNL     1       2.097   5.756   7.589  1.00  0.00     0.016 A 
ATOM     35  C   UNL     1       3.871   3.811   8.567  1.00  0.00     0.010 A 
ATOM     36  C   UNL     1       3.392   6.119   7.974  1.00  0.00     0.010 A 
ATOM     37  C   UNL     1       4.260   5.158   8.527  1.00  0.00    -0.014 A 
BRANCH  37  38
ATOM     38  C   UNL     1       5.484   5.553   9.268  1.00  0.00     0.031 A 
ATOM     39  C   UNL     1       5.324   6.203  10.619  1.00  0.00     0.074 A 
ATOM     40  C   UNL     1       6.705   5.226   8.804  1.00  0.00     0.049 A 
ATOM     41  N   UNL     1       6.237   6.550  11.489  1.00  0.00    -0.248 NA
ATOM     42  C   UNL     1       3.947   6.498  11.046  1.00  0.00     0.031 C 
ATOM     43  C   UNL     1       6.968   4.553   7.532  1.00  0.00     0.029 A 
ATOM     44  N   UNL     1       7.948   5.393   9.359  1.00  0.00    -0.354 N 
ATOM     45  C   UNL     1       5.545   7.102  12.564  1.00  0.00     0.074 A 
ATOM     46  C   UNL     1       4.142   7.091  12.212  1.00  0.00     0.031 C 
ATOM     47  C   UNL     1       8.290   4.346   7.414  1.00  0.00     0.029 A 
ATOM     48  C   UNL     1       8.971   4.899   8.582  1.00  0.00     0.049 A 
ATOM     49  H   UNL     1       8.095   5.826  10.231  1.00  0.00     0.167 HD
ATOM     50  C   UNL     1       6.032   7.559  13.743  1.00  0.00     0.034 A 
ATOM     51  C   UNL     1      10.304   4.902   8.790  1.00  0.00     0.034 A 
ATOM     52  C   UNL     1       7.437   7.564  14.072  1.00  0.00     0.049 A 
ATOM     53  C   UNL     1      10.831   5.481  10.080  1.00  0.00     0.074 A 
ATOM     54  C   UNL     1       8.051   7.999  15.233  1.00  0.00     0.029 A 
ATOM     55  N   UNL     1       8.449   7.117  13.231  1.00  0.00    -0.354 N 
ATOM     56  N   UNL     1      10.164   5.996  11.089  1.00  0.00    -0.248 NA
ATOM     57  C   UNL     1      12.288   5.470  10.265  1.00  0.00     0.031 C 
ATOM     58  C   UNL     1       9.435   7.883  15.065  1.00  0.00     0.029 A 
ATOM     59  C   UNL     1       9.685   7.301  13.832  1.00  0.00     0.049 A 
ATOM     60  H   UNL     1       8.309   6.728  12.338  1.00  0.00     0.167 HD
ATOM     61  C   UNL     1      11.121   6.349  12.037  1.00  0.00     0.074 A 
ATOM     62  C   UNL     1      12.407   5.969  11.487  1.00  0.00     0.031 C 
ATOM     63  C   UNL     1      10.956   6.931  13.253  1.00  0.00     0.034 A 
BRANCH  50  64
ATOM     64  C   UNL     1       5.041   8.140  14.725  1.00  0.00     0.023 A 
ATOM     65  C   UNL     1       4.023   7.361  15.308  1.00  0.00     0.031 A 
ATOM     66  C   UNL     1       5.087   9.507  15.050  1.00  0.00     0.131 A 
ATOM     67  C   UNL     1       3.054   7.969  16.122  1.00  0.00     0.055 A 
ATOM     68  C   UNL     1       4.167  10.090  15.923  1.00  0.00     0.041 A 
ATOM     69  F   UNL     1       6.018  10.307  14.507  1.00  0.00    -0.206 F 
ATOM     70  C   UNL     1       3.133   9.324  16.453  1.00  0.00     0.022 A 
BRANCH  67  71
ATOM     71  S   UNL     1       1.605   6.999  16.625  1.00  0.00     0.124 S 
ATOM     72  O   UNL     1       1.043   6.614  15.333  1.00  0.00    -0.237 OA
ATOM     73  O   UNL     1       2.203   5.924  17.409  1.00  0.00    -0.237 OA
ATOM     74  O   UNL     1       0.801   7.953  17.387  1.00  0.00    -0.744 OA
ENDBRANCH  67  71
ENDBRANCH  50  64
BRANCH  51  75
ATOM     75  C   UNL     1      11.232   4.371   7.748  1.00  0.00     0.023 A 
ATOM     76  C   UNL     1      12.057   3.262   7.992  1.00  0.00     0.031 A 
ATOM     77  C   UNL     1      11.330   4.999   6.492  1.00  0.00     0.131 A 
ATOM     78  C   UNL     1      12.967   2.836   7.009  1.00  0.00     0.055 A 
ATOM     79  C   UNL     1      12.198   4.541   5.500  1.00  0.00     0.041 A 
ATOM     80  F   UNL     1      10.567   6.066   6.205  1.00  0.00    -0.206 F 
ATOM     81  C   UNL     1      13.032   3.459   5.761  1.00  0.00     0.022 A 
BRANCH  78  82
ATOM     82  S   UNL     1      14.124   1.497   7.411  1.00  0.00     0.124 S 
ATOM     83  O   UNL     1      14.811   2.036   8.579  1.00  0.00    -0.237 OA
ATOM     84  O   UNL     1      13.219   0.379   7.657  1.00  0.00    -0.237 OA
ATOM     85  O   UNL     1      14.941   1.380   6.205  1.00  0.00    -0.744 OA
ENDBRANCH  78  82
ENDBRANCH  51  75
BRANCH  63  86
ATOM     86  C   UNL     1      12.201   7.161  14.073  1.00  0.00     0.023 A 
ATOM     87  C   UNL     1      13.184   8.085  13.678  1.00  0.00     0.031 A 
ATOM     88  C   UNL     1      12.412   6.438  15.261  1.00  0.00     0.131 A 
ATOM     89  C   UNL     1      14.360   8.218  14.430  1.00  0.00     0.055 A 
ATOM     90  C   UNL     1      13.555   6.620  16.039  1.00  0.00     0.041 A 
ATOM     91  F   UNL     1      11.505   5.543  15.685  1.00  0.00    -0.206 F 
ATOM     92  C   UNL     1      14.545   7.504  15.617  1.00  0.00     0.022 A 
BRANCH  89  93
ATOM     93  S   UNL     1      15.691   9.269  13.786  1.00  0.00     0.124 S 
ATOM     94  O   UNL     1      15.970   8.648  12.496  1.00  0.00    -0.237 OA
ATOM     95  O   UNL     1      15.056  10.582  13.738  1.00  0.00    -0.237 OA
ATOM     96  O   UNL     1      16.751   9.130  14.783  1.00  0.00    -0.744 OA
ENDBRANCH  89  93
ENDBRANCH  63  86
ENDBRANCH  37  38
ENDBRANCH  30  32
ENDBRANCH  29  30
ENDBRANCH  28  29
ENDBRANCH  27  28
ENDBRANCH  26  27
ENDBRANCH   1  26
TORSDOF 23
