REMARK SMILES O=C(CC1=c2ccccc2=NC1)OCCOCCOC(=O)c1ccc(-c2c3nc(c(-c4cc(S(=O)(=O)[O-])ccc4F)c4ccc([nH]4)c(-c4cc(S(=O)(=O)[O-])ccc4F)c4nc(c(-c5cc(S(=O)(=O)[O-])ccc5F)c5ccc2[nH]5)C=C4)C=C3)cc1
REMARK SMILES IDX 17 1 16 2 15 3 14 4 13 5 2 6 1 7 3 8 4 9 5 10 12 11 6 12
REMARK SMILES IDX 10 13 11 14 7 15 9 16 8 17 18 18 19 19 20 20 21 21 22 22
REMARK SMILES IDX 23 23 84 24 24 25 83 26 25 27 26 28 27 29 77 30 28 31 82 32
REMARK SMILES IDX 76 33 78 34 29 35 81 36 75 37 74 38 30 40 62 41 42 42 61 43
REMARK SMILES IDX 43 44 46 45 60 46 79 47 44 48 45 49 59 51 80 52 47 53 31 54
REMARK SMILES IDX 32 55 40 56 33 57 39 58 41 59 38 60 34 61 35 62 36 63 37 64
REMARK SMILES IDX 63 65 64 66 72 67 65 68 71 69 73 70 70 71 66 72 67 73 68 74
REMARK SMILES IDX 69 75 48 76 49 77 57 78 50 79 56 80 58 81 55 82 51 83 52 84
REMARK SMILES IDX 53 85 54 86
REMARK H PARENT 78 39 46 50
REMARK Flexibility Score: inf
ROOT
ATOM      1  C   UNL     1       2.853   2.037  -1.107  1.00  0.00     0.202 C 
ENDROOT
BRANCH   1   2
ATOM      2  O   UNL     1       4.048   1.687  -0.392  1.00  0.00    -0.374 OA
BRANCH   2   3
ATOM      3  C   UNL     1       4.701   0.504  -0.845  1.00  0.00     0.202 C 
BRANCH   3   4
ATOM      4  C   UNL     1       4.324  -0.772  -0.104  1.00  0.00     0.261 C 
BRANCH   4   5
ATOM      5  O   UNL     1       2.907  -1.024  -0.112  1.00  0.00    -0.463 OA
BRANCH   5   6
ATOM      6  C   UNL     1       2.025  -0.631   0.831  1.00  0.00     0.310 C 
ATOM      7  O   UNL     1       0.829  -0.890   0.689  1.00  0.00    -0.252 OA
BRANCH   6   8
ATOM      8  C   UNL     1       2.482   0.190   2.024  1.00  0.00     0.156 C 
BRANCH   8   9
ATOM      9  C   UNL     1       3.521  -0.417   2.898  1.00  0.00    -0.028 C 
ATOM     10  C   UNL     1       4.588   0.183   3.421  1.00  0.00     0.001 A 
ATOM     11  C   UNL     1       3.492  -1.869   3.269  1.00  0.00     0.175 C 
ATOM     12  C   UNL     1       5.129   1.504   3.384  1.00  0.00     0.010 A 
ATOM     13  C   UNL     1       5.247  -0.908   4.154  1.00  0.00     0.065 A 
ATOM     14  N   UNL     1       4.690  -2.079   4.118  1.00  0.00    -0.280 NA
ATOM     15  C   UNL     1       6.258   1.754   4.066  1.00  0.00     0.001 A 
ATOM     16  C   UNL     1       6.490  -0.556   4.873  1.00  0.00     0.028 A 
ATOM     17  C   UNL     1       6.935   0.711   4.820  1.00  0.00     0.002 A 
ENDBRANCH   8   9
ENDBRANCH   6   8
ENDBRANCH   5   6
ENDBRANCH   4   5
ENDBRANCH   3   4
ENDBRANCH   2   3
ENDBRANCH   1   2
BRANCH   1  18
ATOM     18  C   UNL     1       3.074   2.684  -2.483  1.00  0.00     0.261 C 
BRANCH  18  19
ATOM     19  O   UNL     1       3.314   1.679  -3.486  1.00  0.00    -0.460 OA
BRANCH  19  20
ATOM     20  C   UNL     1       4.588   1.577  -3.943  1.00  0.00     0.338 C 
ATOM     21  O   UNL     1       5.516   2.326  -3.692  1.00  0.00    -0.246 OA
BRANCH  20  22
ATOM     22  C   UNL     1       4.742   0.241  -4.564  1.00  0.00     0.060 A 
ATOM     23  C   UNL     1       3.775  -0.279  -5.428  1.00  0.00     0.016 A 
ATOM     24  C   UNL     1       5.864  -0.524  -4.212  1.00  0.00     0.016 A 
ATOM     25  C   UNL     1       3.943  -1.561  -5.955  1.00  0.00     0.010 A 
ATOM     26  C   UNL     1       6.027  -1.807  -4.735  1.00  0.00     0.010 A 
ATOM     27  C   UNL     1       5.075  -2.326  -5.623  1.00  0.00    -0.014 A 
BRANCH  27  28
ATOM     28  C   UNL     1       5.353  -3.585  -6.352  1.00  0.00     0.031 A 
ATOM     29  C   UNL     1       5.127  -4.929  -5.736  1.00  0.00     0.074 A 
ATOM     30  C   UNL     1       5.859  -3.482  -7.595  1.00  0.00     0.049 A 
ATOM     31  N   UNL     1       5.249  -6.108  -6.287  1.00  0.00    -0.248 NA
ATOM     32  C   UNL     1       4.722  -4.959  -4.324  1.00  0.00     0.031 C 
ATOM     33  C   UNL     1       6.160  -2.213  -8.258  1.00  0.00     0.029 A 
ATOM     34  N   UNL     1       6.208  -4.435  -8.516  1.00  0.00    -0.354 N 
ATOM     35  C   UNL     1       4.929  -7.027  -5.296  1.00  0.00     0.074 A 
ATOM     36  C   UNL     1       4.647  -6.266  -4.097  1.00  0.00     0.031 C 
ATOM     37  C   UNL     1       6.630  -2.464  -9.486  1.00  0.00     0.029 A 
ATOM     38  C   UNL     1       6.697  -3.910  -9.688  1.00  0.00     0.049 A 
ATOM     39  H   UNL     1       6.118  -5.402  -8.353  1.00  0.00     0.167 HD
ATOM     40  C   UNL     1       4.868  -8.377  -5.396  1.00  0.00     0.034 A 
ATOM     41  C   UNL     1       7.149  -4.517 -10.805  1.00  0.00     0.034 A 
ATOM     42  C   UNL     1       5.166  -9.103  -6.608  1.00  0.00     0.049 A 
ATOM     43  C   UNL     1       7.080  -6.017 -10.892  1.00  0.00     0.074 A 
ATOM     44  C   UNL     1       5.044 -10.462  -6.838  1.00  0.00     0.029 A 
ATOM     45  N   UNL     1       5.666  -8.546  -7.778  1.00  0.00    -0.354 N 
ATOM     46  N   UNL     1       6.639  -6.869  -9.996  1.00  0.00    -0.248 NA
ATOM     47  C   UNL     1       7.548  -6.644 -12.134  1.00  0.00     0.031 C 
ATOM     48  C   UNL     1       5.554 -10.737  -8.106  1.00  0.00     0.029 A 
ATOM     49  C   UNL     1       5.908  -9.541  -8.712  1.00  0.00     0.049 A 
ATOM     50  H   UNL     1       5.825  -7.585  -7.923  1.00  0.00     0.167 HD
ATOM     51  C   UNL     1       6.757  -8.130 -10.571  1.00  0.00     0.074 A 
ATOM     52  C   UNL     1       7.297  -7.927 -11.900  1.00  0.00     0.031 C 
ATOM     53  C   UNL     1       6.444  -9.339 -10.040  1.00  0.00     0.034 A 
BRANCH  40  54
ATOM     54  C   UNL     1       4.458  -9.183  -4.186  1.00  0.00     0.023 A 
ATOM     55  C   UNL     1       5.336 -10.147  -3.652  1.00  0.00     0.031 A 
ATOM     56  C   UNL     1       3.158  -9.106  -3.655  1.00  0.00     0.131 A 
ATOM     57  C   UNL     1       4.894 -11.014  -2.644  1.00  0.00     0.055 A 
ATOM     58  C   UNL     1       2.736  -9.944  -2.620  1.00  0.00     0.041 A 
ATOM     59  F   UNL     1       2.276  -8.215  -4.136  1.00  0.00    -0.206 F 
ATOM     60  C   UNL     1       3.602 -10.911  -2.120  1.00  0.00     0.022 A 
BRANCH  57  61
ATOM     61  S   UNL     1       5.948 -12.357  -2.031  1.00  0.00     0.124 S 
ATOM     62  O   UNL     1       6.106 -11.993  -0.624  1.00  0.00    -0.237 OA
ATOM     63  O   UNL     1       5.122 -13.534  -2.281  1.00  0.00    -0.237 OA
ATOM     64  O   UNL     1       7.158 -12.252  -2.839  1.00  0.00    -0.744 OA
ENDBRANCH  57  61
ENDBRANCH  40  54
BRANCH  41  65
ATOM     65  C   UNL     1       7.615  -3.660 -11.931  1.00  0.00     0.023 A 
ATOM     66  C   UNL     1       8.715  -2.796 -11.762  1.00  0.00     0.031 A 
ATOM     67  C   UNL     1       6.859  -3.549 -13.108  1.00  0.00     0.131 A 
ATOM     68  C   UNL     1       8.962  -1.794 -12.708  1.00  0.00     0.055 A 
ATOM     69  C   UNL     1       7.159  -2.599 -14.086  1.00  0.00     0.041 A 
ATOM     70  F   UNL     1       5.793  -4.339 -13.304  1.00  0.00    -0.206 F 
ATOM     71  C   UNL     1       8.200  -1.699 -13.876  1.00  0.00     0.022 A 
BRANCH  68  72
ATOM     72  S   UNL     1      10.168  -0.479 -12.371  1.00  0.00     0.124 S 
ATOM     73  O   UNL     1      11.046  -0.565 -13.533  1.00  0.00    -0.237 OA
ATOM     74  O   UNL     1       9.309   0.701 -12.314  1.00  0.00    -0.237 OA
ATOM     75  O   UNL     1      10.765  -0.875 -11.100  1.00  0.00    -0.744 OA
ENDBRANCH  68  72
ENDBRANCH  41  65
BRANCH  53  76
ATOM     76  C   UNL     1       6.670 -10.582 -10.870  1.00  0.00     0.023 A 
ATOM     77  C   UNL     1       5.578 -11.408 -11.204  1.00  0.00     0.031 A 
ATOM     78  C   UNL     1       7.965 -11.046 -11.152  1.00  0.00     0.131 A 
ATOM     79  C   UNL     1       5.806 -12.684 -11.733  1.00  0.00     0.055 A 
ATOM     80  C   UNL     1       8.184 -12.297 -11.732  1.00  0.00     0.041 A 
ATOM     81  F   UNL     1       9.039 -10.300 -10.847  1.00  0.00    -0.206 F 
ATOM     82  C   UNL     1       7.102 -13.130 -12.006  1.00  0.00     0.022 A 
BRANCH  79  83
ATOM     83  S   UNL     1       4.437 -13.849 -11.984  1.00  0.00     0.124 S 
ATOM     84  O   UNL     1       4.556 -14.154 -13.408  1.00  0.00    -0.237 OA
ATOM     85  O   UNL     1       4.794 -14.939 -11.081  1.00  0.00    -0.237 OA
ATOM     86  O   UNL     1       3.251 -13.085 -11.611  1.00  0.00    -0.744 OA
ENDBRANCH  79  83
ENDBRANCH  53  76
ENDBRANCH  27  28
ENDBRANCH  20  22
ENDBRANCH  19  20
ENDBRANCH  18  19
ENDBRANCH   1  18
TORSDOF 18
