REMARK SMILES Nc1cc([N+](=O)[O-])ccc1[C@H]([NH3+])C(=O)OCCOCCOC(=O)c1ccc(-c2c3nc(c(-c4cc(S(=O)(=O)[O-])ccc4F)c4ccc([nH]4)c(-c4cc(S(=O)(=O)[O-])ccc4F)c4nc(c(-c5cc(S(=O)(=O)[O-])ccc5F)c5ccc2[nH]5)C=C4)C=C3)cc1
REMARK SMILES IDX 19 1 18 2 17 3 16 4 15 5 13 6 14 7 11 8 10 9 2 10 3 11 4 12
REMARK SMILES IDX 9 13 8 14 1 15 5 18 6 19 7 20 12 21 20 25 21 26 22 27 23 28
REMARK SMILES IDX 24 29 25 30 86 31 26 32 85 33 27 34 28 35 29 36 79 37 30 38
REMARK SMILES IDX 84 39 78 40 80 41 31 42 83 43 77 44 76 45 32 47 64 48 44 49
REMARK SMILES IDX 63 50 45 51 48 52 62 53 81 54 46 55 47 56 61 58 82 59 49 60
REMARK SMILES IDX 33 61 34 62 42 63 35 64 41 65 43 66 40 67 36 68 37 69 38 70
REMARK SMILES IDX 39 71 65 72 66 73 74 74 67 75 73 76 75 77 72 78 68 79 69 80
REMARK SMILES IDX 70 81 71 82 50 83 51 84 59 85 52 86 58 87 60 88 57 89 53 90
REMARK SMILES IDX 54 91 55 92 56 93
REMARK H PARENT 1 16 1 17 12 22 12 23 12 24 80 46 48 57
REMARK Flexibility Score: inf
ROOT
ATOM      1  C   UNL     1       1.023   2.137   3.478  1.00  0.00     0.202 C 
ENDROOT
BRANCH   1   2
ATOM      2  O   UNL     1       0.865   3.401   4.120  1.00  0.00    -0.374 OA
BRANCH   2   3
ATOM      3  C   UNL     1      -0.252   4.199   3.724  1.00  0.00     0.202 C 
BRANCH   3   4
ATOM      4  C   UNL     1      -0.095   4.992   2.424  1.00  0.00     0.261 C 
BRANCH   4   5
ATOM      5  O   UNL     1      -0.059   4.128   1.276  1.00  0.00    -0.459 OA
BRANCH   5   6
ATOM      6  C   UNL     1       1.162   3.957   0.690  1.00  0.00     0.369 C 
ATOM      7  O   UNL     1       2.184   4.561   1.004  1.00  0.00    -0.245 OA
BRANCH   6   8
ATOM      8  C   UNL     1       1.107   2.931  -0.474  1.00  0.00     0.325 C 
BRANCH   8   9
ATOM      9  C   UNL     1       0.696   3.559  -1.814  1.00  0.00     0.044 A 
ATOM     10  C   UNL     1       0.278   2.817  -2.944  1.00  0.00     0.048 A 
ATOM     11  C   UNL     1       0.060   3.480  -4.166  1.00  0.00     0.111 A 
ATOM     12  C   UNL     1       0.199   4.867  -4.271  1.00  0.00     0.271 A 
ATOM     13  C   UNL     1       0.846   4.962  -1.965  1.00  0.00     0.020 A 
ATOM     14  C   UNL     1       0.588   5.617  -3.168  1.00  0.00     0.086 A 
BRANCH  10  15
ATOM     15  N   UNL     1       0.220   1.426  -2.969  1.00  0.00    -0.398 N 
ATOM     16  H   UNL     1      -0.079   0.961  -3.784  1.00  0.00     0.156 HD
ATOM     17  H   UNL     1       0.477   0.908  -2.173  1.00  0.00     0.156 HD
ENDBRANCH  10  15
BRANCH  12  18
ATOM     18  N   UNL     1      -0.029   5.529  -5.558  1.00  0.00     0.062 N 
ATOM     19  O   UNL     1      -0.362   4.822  -6.520  1.00  0.00    -0.258 OA
ATOM     20  O   UNL     1       0.145   6.755  -5.616  1.00  0.00    -0.258 OA
ENDBRANCH  12  18
ENDBRANCH   8   9
BRANCH   8  21
ATOM     21  N   UNL     1       0.303   1.766  -0.038  1.00  0.00    -0.342 N 
ATOM     22  H   UNL     1      -0.646   2.070   0.180  1.00  0.00     0.345 HD
ATOM     23  H   UNL     1       0.727   1.353   0.793  1.00  0.00     0.345 HD
ATOM     24  H   UNL     1       0.275   1.073  -0.786  1.00  0.00     0.345 HD
ENDBRANCH   8  21
ENDBRANCH   6   8
ENDBRANCH   5   6
ENDBRANCH   4   5
ENDBRANCH   3   4
ENDBRANCH   2   3
ENDBRANCH   1   2
BRANCH   1  25
ATOM     25  C   UNL     1       0.122   0.991   3.955  1.00  0.00     0.261 C 
BRANCH  25  26
ATOM     26  O   UNL     1      -1.270   1.227   3.686  1.00  0.00    -0.460 OA
BRANCH  26  27
ATOM     27  C   UNL     1      -2.008   1.530   4.781  1.00  0.00     0.338 C 
ATOM     28  O   UNL     1      -1.621   1.550   5.942  1.00  0.00    -0.246 OA
BRANCH  27  29
ATOM     29  C   UNL     1      -3.336   2.029   4.380  1.00  0.00     0.060 A 
ATOM     30  C   UNL     1      -3.764   3.237   4.945  1.00  0.00     0.016 A 
ATOM     31  C   UNL     1      -4.177   1.304   3.532  1.00  0.00     0.016 A 
ATOM     32  C   UNL     1      -5.058   3.696   4.715  1.00  0.00     0.010 A 
ATOM     33  C   UNL     1      -5.480   1.764   3.308  1.00  0.00     0.010 A 
ATOM     34  C   UNL     1      -5.938   2.939   3.931  1.00  0.00    -0.014 A 
BRANCH  34  35
ATOM     35  C   UNL     1      -7.379   3.294   3.916  1.00  0.00     0.031 A 
ATOM     36  C   UNL     1      -8.322   2.530   4.805  1.00  0.00     0.074 A 
ATOM     37  C   UNL     1      -7.833   4.306   3.156  1.00  0.00     0.049 A 
ATOM     38  N   UNL     1      -9.617   2.647   4.942  1.00  0.00    -0.248 NA
ATOM     39  C   UNL     1      -7.716   1.488   5.646  1.00  0.00     0.031 C 
ATOM     40  C   UNL     1      -7.008   5.140   2.286  1.00  0.00     0.029 A 
ATOM     41  N   UNL     1      -9.103   4.796   2.992  1.00  0.00    -0.354 N 
ATOM     42  C   UNL     1      -9.983   1.696   5.889  1.00  0.00     0.074 A 
ATOM     43  C   UNL     1      -8.778   0.977   6.247  1.00  0.00     0.031 C 
ATOM     44  C   UNL     1      -7.798   6.030   1.661  1.00  0.00     0.029 A 
ATOM     45  C   UNL     1      -9.186   5.806   2.064  1.00  0.00     0.049 A 
ATOM     46  H   UNL     1      -9.881   4.457   3.491  1.00  0.00     0.167 HD
ATOM     47  C   UNL     1     -11.208   1.455   6.422  1.00  0.00     0.034 A 
ATOM     48  C   UNL     1     -10.261   6.455   1.573  1.00  0.00     0.034 A 
ATOM     49  C   UNL     1     -12.403   2.166   6.032  1.00  0.00     0.049 A 
ATOM     50  C   UNL     1     -11.629   6.115   2.110  1.00  0.00     0.074 A 
ATOM     51  C   UNL     1     -13.694   2.011   6.505  1.00  0.00     0.029 A 
ATOM     52  N   UNL     1     -12.456   3.157   5.059  1.00  0.00    -0.354 N 
ATOM     53  N   UNL     1     -11.965   5.223   3.013  1.00  0.00    -0.248 NA
ATOM     54  C   UNL     1     -12.761   6.879   1.569  1.00  0.00     0.031 C 
ATOM     55  C   UNL     1     -14.536   2.852   5.768  1.00  0.00     0.029 A 
ATOM     56  C   UNL     1     -13.761   3.595   4.891  1.00  0.00     0.049 A 
ATOM     57  H   UNL     1     -11.678   3.499   4.560  1.00  0.00     0.167 HD
ATOM     58  C   UNL     1     -13.345   5.334   3.164  1.00  0.00     0.074 A 
ATOM     59  C   UNL     1     -13.774   6.390   2.269  1.00  0.00     0.031 C 
ATOM     60  C   UNL     1     -14.180   4.633   3.975  1.00  0.00     0.034 A 
BRANCH  47  61
ATOM     61  C   UNL     1     -11.306   0.339   7.437  1.00  0.00     0.023 A 
ATOM     62  C   UNL     1     -10.598   0.381   8.652  1.00  0.00     0.031 A 
ATOM     63  C   UNL     1     -12.059  -0.816   7.157  1.00  0.00     0.131 A 
ATOM     64  C   UNL     1     -10.578  -0.744   9.492  1.00  0.00     0.055 A 
ATOM     65  C   UNL     1     -12.108  -1.896   8.041  1.00  0.00     0.041 A 
ATOM     66  F   UNL     1     -12.738  -0.927   6.005  1.00  0.00    -0.206 F 
ATOM     67  C   UNL     1     -11.348  -1.873   9.207  1.00  0.00     0.022 A 
BRANCH  64  68
ATOM     68  S   UNL     1      -9.386  -0.780  10.860  1.00  0.00     0.124 S 
ATOM     69  O   UNL     1      -8.124  -0.557  10.158  1.00  0.00    -0.237 OA
ATOM     70  O   UNL     1      -9.848   0.312  11.708  1.00  0.00    -0.237 OA
ATOM     71  O   UNL     1      -9.549  -2.119  11.421  1.00  0.00    -0.744 OA
ENDBRANCH  64  68
ENDBRANCH  47  61
BRANCH  48  72
ATOM     72  C   UNL     1     -10.089   7.452   0.479  1.00  0.00     0.023 A 
ATOM     73  C   UNL     1     -10.353   8.815   0.679  1.00  0.00     0.031 A 
ATOM     74  C   UNL     1      -9.667   7.040  -0.798  1.00  0.00     0.131 A 
ATOM     75  C   UNL     1     -10.217   9.715  -0.391  1.00  0.00     0.055 A 
ATOM     76  C   UNL     1      -9.490   7.944  -1.845  1.00  0.00     0.041 A 
ATOM     77  F   UNL     1      -9.398   5.746  -1.039  1.00  0.00    -0.206 F 
ATOM     78  C   UNL     1      -9.775   9.291  -1.646  1.00  0.00     0.022 A 
BRANCH  75  79
ATOM     79  S   UNL     1     -10.676  11.451  -0.132  1.00  0.00     0.124 S 
ATOM     80  O   UNL     1     -12.088  11.336   0.216  1.00  0.00    -0.237 OA
ATOM     81  O   UNL     1      -9.778  11.844   0.949  1.00  0.00    -0.237 OA
ATOM     82  O   UNL     1     -10.399  12.072  -1.425  1.00  0.00    -0.744 OA
ENDBRANCH  75  79
ENDBRANCH  48  72
BRANCH  60  83
ATOM     83  C   UNL     1     -15.642   5.014   3.951  1.00  0.00     0.023 A 
ATOM     84  C   UNL     1     -16.446   4.802   2.817  1.00  0.00     0.031 A 
ATOM     85  C   UNL     1     -16.237   5.605   5.080  1.00  0.00     0.131 A 
ATOM     86  C   UNL     1     -17.784   5.225   2.818  1.00  0.00     0.055 A 
ATOM     87  C   UNL     1     -17.584   5.970   5.097  1.00  0.00     0.041 A 
ATOM     88  F   UNL     1     -15.517   5.835   6.190  1.00  0.00    -0.206 F 
ATOM     89  C   UNL     1     -18.362   5.792   3.957  1.00  0.00     0.022 A 
BRANCH  86  90
ATOM     90  S   UNL     1     -18.738   5.109   1.280  1.00  0.00     0.124 S 
ATOM     91  O   UNL     1     -17.937   5.916   0.365  1.00  0.00    -0.237 OA
ATOM     92  O   UNL     1     -18.746   3.673   1.024  1.00  0.00    -0.237 OA
ATOM     93  O   UNL     1     -20.035   5.681   1.637  1.00  0.00    -0.744 OA
ENDBRANCH  86  90
ENDBRANCH  60  83
ENDBRANCH  34  35
ENDBRANCH  27  29
ENDBRANCH  26  27
ENDBRANCH  25  26
ENDBRANCH   1  25
TORSDOF 21
