REMARK SMILES Cc1c(CC(=O)N[C@@H](CCO)C(=O)OCCOCCOC(=O)c2ccc(-c3c4nc(c(-c5cc(S(=O)(=O)[O-])ccc5F)c5ccc([nH]5)c(-c5cc(S(=O)(=O)[O-])ccc5F)c5nc(c(-c6cc(S(=O)(=O)[O-])ccc6F)c6ccc3[nH]6)C=C5)C=C4)cc2)cc(-c2ccc(S(C)(=O)=O)cc2)n1-c1ccc(F)cc1
REMARK SMILES IDX 16 1 15 2 14 3 12 4 13 5 8 6 7 7 5 8 6 9 4 11 3 12 1 13 2 14
REMARK SMILES IDX 98 15 86 16 87 17 99 18 100 19 105 20 101 21 104 22 102 23
REMARK SMILES IDX 103 24 88 25 89 26 97 27 90 28 96 29 91 30 92 31 93 32 94 33
REMARK SMILES IDX 95 34 9 35 10 36 11 37 17 39 18 40 19 41 20 42 21 43 22 44
REMARK SMILES IDX 23 45 24 46 85 47 25 48 84 49 26 50 27 51 28 52 78 53 29 54
REMARK SMILES IDX 83 55 77 56 79 57 30 58 82 59 76 60 75 61 31 63 63 64 43 65
REMARK SMILES IDX 62 66 44 67 47 68 61 69 80 70 45 71 46 72 60 74 81 75 48 76
REMARK SMILES IDX 32 77 33 78 41 79 34 80 40 81 42 82 39 83 35 84 36 85 37 86
REMARK SMILES IDX 38 87 64 88 65 89 73 90 66 91 72 92 74 93 71 94 67 95 68 96
REMARK SMILES IDX 69 97 70 98 49 99 50 100 58 101 51 102 57 103 59 104 56 105
REMARK SMILES IDX 52 106 53 107 54 108 55 109
REMARK H PARENT 7 10 11 38 79 62 47 73
REMARK Flexibility Score: inf
ROOT
ATOM      1  C   UNL     1       5.117  -5.972  -4.833  1.00  0.00     0.202 C 
ENDROOT
BRANCH   1   2
ATOM      2  C   UNL     1       5.060  -4.594  -5.514  1.00  0.00     0.261 C 
BRANCH   2   3
ATOM      3  O   UNL     1       4.611  -3.586  -4.594  1.00  0.00    -0.462 OA
BRANCH   3   4
ATOM      4  C   UNL     1       3.562  -2.825  -5.013  1.00  0.00     0.328 C 
ATOM      5  O   UNL     1       3.148  -2.761  -6.166  1.00  0.00    -0.250 OA
BRANCH   4   6
ATOM      6  C   UNL     1       3.011  -1.943  -3.881  1.00  0.00     0.194 C 
BRANCH   6   7
ATOM      7  N   UNL     1       3.200  -2.444  -2.512  1.00  0.00    -0.342 N 
ATOM      8  C   UNL     1       2.273  -2.728  -1.549  1.00  0.00     0.225 C 
ATOM      9  O   UNL     1       2.682  -3.167  -0.471  1.00  0.00    -0.275 OA
ATOM     10  H   UNL     1       4.136  -2.598  -2.250  1.00  0.00     0.164 HD
BRANCH   8  11
ATOM     11  C   UNL     1       0.781  -2.580  -1.813  1.00  0.00     0.137 C 
BRANCH  11  12
ATOM     12  C   UNL     1       0.372  -1.181  -2.159  1.00  0.00    -0.017 A 
ATOM     13  C   UNL     1       1.097   0.085  -0.022  1.00  0.00     0.065 C 
ATOM     14  C   UNL     1       0.575  -0.025  -1.419  1.00  0.00     0.024 A 
ATOM     15  N   UNL     1       0.168   1.061  -2.188  1.00  0.00    -0.314 N 
ATOM     16  C   UNL     1      -0.298  -0.796  -3.347  1.00  0.00     0.033 A 
ATOM     17  C   UNL     1      -0.340   0.584  -3.397  1.00  0.00     0.053 A 
BRANCH  15  18
ATOM     18  C   UNL     1       0.285   2.433  -1.837  1.00  0.00     0.046 A 
ATOM     19  C   UNL     1      -0.810   3.288  -2.026  1.00  0.00     0.029 A 
ATOM     20  C   UNL     1       1.506   2.932  -1.365  1.00  0.00     0.029 A 
ATOM     21  C   UNL     1      -0.680   4.646  -1.740  1.00  0.00     0.041 A 
ATOM     22  C   UNL     1       1.632   4.296  -1.101  1.00  0.00     0.041 A 
ATOM     23  C   UNL     1       0.539   5.138  -1.290  1.00  0.00     0.123 A 
ATOM     24  F   UNL     1       0.666   6.448  -1.042  1.00  0.00    -0.207 F 
ENDBRANCH  15  18
BRANCH  17  25
ATOM     25  C   UNL     1      -0.665   1.401  -4.571  1.00  0.00    -0.001 A 
ATOM     26  C   UNL     1       0.311   2.226  -5.152  1.00  0.00     0.011 A 
ATOM     27  C   UNL     1      -1.930   1.315  -5.165  1.00  0.00     0.011 A 
ATOM     28  C   UNL     1       0.024   2.973  -6.296  1.00  0.00     0.021 A 
ATOM     29  C   UNL     1      -2.228   2.064  -6.307  1.00  0.00     0.021 A 
ATOM     30  C   UNL     1      -1.250   2.894  -6.862  1.00  0.00     0.067 A 
BRANCH  30  31
ATOM     31  S   UNL     1      -1.607   3.820  -8.335  1.00  0.00     0.175 S 
ATOM     32  C   UNL     1      -1.463   5.514  -7.832  1.00  0.00     0.163 C 
ATOM     33  O   UNL     1      -0.536   3.539  -9.283  1.00  0.00    -0.224 OA
ATOM     34  O   UNL     1      -2.990   3.588  -8.685  1.00  0.00    -0.224 OA
ENDBRANCH  30  31
ENDBRANCH  17  25
ENDBRANCH  11  12
ENDBRANCH   8  11
ENDBRANCH   6   7
BRANCH   6  35
ATOM     35  C   UNL     1       3.574  -0.521  -3.995  1.00  0.00     0.065 C 
BRANCH  35  36
ATOM     36  C   UNL     1       5.073  -0.411  -3.717  1.00  0.00     0.159 C 
BRANCH  36  37
ATOM     37  O   UNL     1       5.834  -1.035  -4.737  1.00  0.00    -0.396 OA
ATOM     38  H   UNL     1       5.608  -1.978  -4.779  1.00  0.00     0.210 HD
ENDBRANCH  36  37
ENDBRANCH  35  36
ENDBRANCH   6  35
ENDBRANCH   4   6
ENDBRANCH   3   4
ENDBRANCH   2   3
ENDBRANCH   1   2
BRANCH   1  39
ATOM     39  O   UNL     1       3.929  -6.358  -4.146  1.00  0.00    -0.374 OA
BRANCH  39  40
ATOM     40  C   UNL     1       3.727  -5.808  -2.832  1.00  0.00     0.202 C 
BRANCH  40  41
ATOM     41  C   UNL     1       4.534  -6.394  -1.625  1.00  0.00     0.261 C 
BRANCH  41  42
ATOM     42  O   UNL     1       5.548  -5.568  -0.898  1.00  0.00    -0.460 OA
BRANCH  42  43
ATOM     43  C   UNL     1       6.762  -6.183  -0.613  1.00  0.00     0.338 C 
ATOM     44  O   UNL     1       7.173  -7.099  -1.317  1.00  0.00    -0.246 OA
BRANCH  43  45
ATOM     45  C   UNL     1       7.661  -5.651   0.563  1.00  0.00     0.060 A 
ATOM     46  C   UNL     1       8.953  -5.212   0.282  1.00  0.00     0.016 A 
ATOM     47  C   UNL     1       7.459  -5.850   1.951  1.00  0.00     0.016 A 
ATOM     48  C   UNL     1       9.944  -4.932   1.325  1.00  0.00     0.010 A 
ATOM     49  C   UNL     1       8.513  -5.630   3.018  1.00  0.00     0.010 A 
ATOM     50  C   UNL     1       9.819  -5.155   2.758  1.00  0.00    -0.014 A 
BRANCH  50  51
ATOM     51  C   UNL     1      11.272  -5.282   3.676  1.00  0.00     0.031 A 
ATOM     52  C   UNL     1      12.124  -6.010   2.689  1.00  0.00     0.074 A 
ATOM     53  C   UNL     1      11.941  -5.112   4.933  1.00  0.00     0.049 A 
ATOM     54  N   UNL     1      11.688  -7.134   2.190  1.00  0.00    -0.248 NA
ATOM     55  C   UNL     1      13.196  -5.383   1.913  1.00  0.00     0.031 C 
ATOM     56  C   UNL     1      11.370  -4.663   6.224  1.00  0.00     0.029 A 
ATOM     57  N   UNL     1      13.330  -5.311   5.402  1.00  0.00    -0.354 N 
ATOM     58  C   UNL     1      12.631  -7.546   1.286  1.00  0.00     0.074 A 
ATOM     59  C   UNL     1      13.369  -6.325   0.977  1.00  0.00     0.031 C 
ATOM     60  C   UNL     1      12.316  -4.484   7.206  1.00  0.00     0.029 A 
ATOM     61  C   UNL     1      13.675  -4.835   6.765  1.00  0.00     0.049 A 
ATOM     62  H   UNL     1      14.004  -5.744   4.829  1.00  0.00     0.167 HD
ATOM     63  C   UNL     1      13.124  -8.799   1.518  1.00  0.00     0.034 A 
ATOM     64  C   UNL     1      14.886  -4.791   7.521  1.00  0.00     0.034 A 
ATOM     65  C   UNL     1      14.394  -8.751   2.191  1.00  0.00     0.049 A 
ATOM     66  C   UNL     1      15.752  -5.842   6.999  1.00  0.00     0.074 A 
ATOM     67  C   UNL     1      15.519  -7.974   2.002  1.00  0.00     0.029 A 
ATOM     68  N   UNL     1      14.447  -9.223   3.486  1.00  0.00    -0.354 N 
ATOM     69  N   UNL     1      15.607  -7.074   7.367  1.00  0.00    -0.248 NA
ATOM     70  C   UNL     1      16.886  -5.573   6.125  1.00  0.00     0.031 C 
ATOM     71  C   UNL     1      15.905  -7.594   3.303  1.00  0.00     0.029 A 
ATOM     72  C   UNL     1      15.333  -8.466   4.221  1.00  0.00     0.049 A 
ATOM     73  H   UNL     1      13.929  -9.985   3.833  1.00  0.00     0.167 HD
ATOM     74  C   UNL     1      16.174  -7.744   6.332  1.00  0.00     0.074 A 
ATOM     75  C   UNL     1      17.178  -6.835   5.802  1.00  0.00     0.031 C 
ATOM     76  C   UNL     1      15.342  -8.584   5.665  1.00  0.00     0.034 A 
BRANCH  63  77
ATOM     77  C   UNL     1      12.046  -9.816   1.795  1.00  0.00     0.023 A 
ATOM     78  C   UNL     1      11.711 -10.736   0.796  1.00  0.00     0.031 A 
ATOM     79  C   UNL     1      11.239  -9.781   2.955  1.00  0.00     0.131 A 
ATOM     80  C   UNL     1      10.559 -11.528   0.938  1.00  0.00     0.055 A 
ATOM     81  C   UNL     1      10.064 -10.521   3.064  1.00  0.00     0.041 A 
ATOM     82  F   UNL     1      11.572  -9.003   3.999  1.00  0.00    -0.206 F 
ATOM     83  C   UNL     1       9.711 -11.395   2.043  1.00  0.00     0.022 A 
BRANCH  80  84
ATOM     84  S   UNL     1      10.189 -12.752  -0.345  1.00  0.00     0.124 S 
ATOM     85  O   UNL     1       9.959 -11.917  -1.520  1.00  0.00    -0.237 OA
ATOM     86  O   UNL     1      11.411 -13.551  -0.370  1.00  0.00    -0.237 OA
ATOM     87  O   UNL     1       9.009 -13.447   0.166  1.00  0.00    -0.744 OA
ENDBRANCH  80  84
ENDBRANCH  63  77
BRANCH  64  88
ATOM     88  C   UNL     1      15.670  -4.215   8.818  1.00  0.00     0.023 A 
ATOM     89  C   UNL     1      16.792  -4.910   9.483  1.00  0.00     0.031 A 
ATOM     90  C   UNL     1      15.629  -2.847   9.117  1.00  0.00     0.131 A 
ATOM     91  C   UNL     1      17.762  -4.247  10.318  1.00  0.00     0.055 A 
ATOM     92  C   UNL     1      16.592  -2.199   9.945  1.00  0.00     0.041 A 
ATOM     93  F   UNL     1      14.719  -2.059   8.529  1.00  0.00    -0.206 F 
ATOM     94  C   UNL     1      17.660  -2.881  10.529  1.00  0.00     0.022 A 
BRANCH  91  95
ATOM     95  S   UNL     1      19.293  -5.066  11.009  1.00  0.00     0.124 S 
ATOM     96  O   UNL     1      18.782  -5.835  12.136  1.00  0.00    -0.237 OA
ATOM     97  O   UNL     1      19.807  -5.826   9.875  1.00  0.00    -0.237 OA
ATOM     98  O   UNL     1      20.145  -3.935  11.395  1.00  0.00    -0.744 OA
ENDBRANCH  91  95
ENDBRANCH  64  88
BRANCH  76  99
ATOM     99  C   UNL     1      14.384  -9.432   6.509  1.00  0.00     0.023 A 
ATOM    100  C   UNL     1      13.618  -8.992   7.627  1.00  0.00     0.031 A 
ATOM    101  C   UNL     1      14.315 -10.803   6.220  1.00  0.00     0.131 A 
ATOM    102  C   UNL     1      12.881  -9.901   8.415  1.00  0.00     0.055 A 
ATOM    103  C   UNL     1      13.549 -11.697   6.971  1.00  0.00     0.041 A 
ATOM    104  F   UNL     1      15.015 -11.311   5.194  1.00  0.00    -0.206 F 
ATOM    105  C   UNL     1      12.843 -11.253   8.083  1.00  0.00     0.022 A 
BRANCH 102 106
ATOM    106  S   UNL     1      12.040  -9.353   9.943  1.00  0.00     0.124 S 
ATOM    107  O   UNL     1      13.018  -8.480  10.580  1.00  0.00    -0.237 OA
ATOM    108  O   UNL     1      10.842  -8.696   9.427  1.00  0.00    -0.237 OA
ATOM    109  O   UNL     1      11.788 -10.606  10.657  1.00  0.00    -0.744 OA
ENDBRANCH 102 106
ENDBRANCH  76  99
ENDBRANCH  50  51
ENDBRANCH  43  45
ENDBRANCH  42  43
ENDBRANCH  41  42
ENDBRANCH  40  41
ENDBRANCH  39  40
ENDBRANCH   1  39
TORSDOF 26
