REMARK SMILES O=CN1CCN(S(=O)(=O)c2ccc(C(=O)OCCOCCOC(=O)c3ccc(-c4c5nc(c(-c6cc(S(=O)(=O)[O-])ccc6F)c6ccc([nH]6)c(-c6cc(S(=O)(=O)[O-])ccc6F)c6nc(c(-c7cc(S(=O)(=O)[O-])ccc7F)c7ccc4[nH]7)C=C6)C=C5)cc3)cc2)CC1
REMARK SMILES IDX 20 1 19 2 18 3 17 4 16 5 14 6 15 7 13 8 10 9 11 10 89 11
REMARK SMILES IDX 12 12 88 13 7 14 8 15 9 16 6 17 1 18 2 19 3 20 4 21 91 22
REMARK SMILES IDX 5 23 90 24 21 25 22 26 23 27 24 28 25 29 26 30 87 31 27 32
REMARK SMILES IDX 86 33 28 34 29 35 30 36 80 37 31 38 85 39 79 40 81 41 32 42
REMARK SMILES IDX 84 43 78 44 77 45 33 47 65 48 45 49 64 50 46 51 49 52 63 53
REMARK SMILES IDX 82 54 47 55 48 56 62 58 83 59 50 60 34 61 35 62 43 63 36 64
REMARK SMILES IDX 42 65 44 66 41 67 37 68 38 69 39 70 40 71 66 72 67 73 75 74
REMARK SMILES IDX 68 75 74 76 76 77 73 78 69 79 70 80 71 81 72 82 51 83 52 84
REMARK SMILES IDX 60 85 53 86 59 87 61 88 58 89 54 90 55 91 56 92 57 93
REMARK H PARENT 81 46 49 57
REMARK Flexibility Score: inf
ROOT
ATOM      1  C   UNL     1       5.376 -10.767  -0.046  1.00  0.00     0.202 C 
ENDROOT
BRANCH   1   2
ATOM      2  O   UNL     1       4.842 -11.977   0.496  1.00  0.00    -0.374 OA
BRANCH   2   3
ATOM      3  C   UNL     1       3.432 -12.171   0.374  1.00  0.00     0.202 C 
BRANCH   3   4
ATOM      4  C   UNL     1       2.574 -11.503   1.452  1.00  0.00     0.261 C 
BRANCH   4   5
ATOM      5  O   UNL     1       2.751 -10.078   1.438  1.00  0.00    -0.460 OA
BRANCH   5   6
ATOM      6  C   UNL     1       3.416  -9.569   2.502  1.00  0.00     0.338 C 
ATOM      7  O   UNL     1       3.728 -10.161   3.523  1.00  0.00    -0.246 OA
BRANCH   6   8
ATOM      8  C   UNL     1       3.842  -8.172   2.228  1.00  0.00     0.060 A 
ATOM      9  C   UNL     1       4.697  -5.540   1.873  1.00  0.00     0.082 A 
ATOM     10  C   UNL     1       5.312  -6.338   2.839  1.00  0.00     0.022 A 
ATOM     11  C   UNL     1       3.723  -6.076   1.021  1.00  0.00     0.022 A 
ATOM     12  C   UNL     1       4.885  -7.654   3.011  1.00  0.00     0.017 A 
ATOM     13  C   UNL     1       3.275  -7.386   1.217  1.00  0.00     0.017 A 
BRANCH   9  14
ATOM     14  S   UNL     1       5.192  -3.843   1.696  1.00  0.00     0.243 S 
ATOM     15  O   UNL     1       5.173  -3.520   0.288  1.00  0.00    -0.207 OA
ATOM     16  O   UNL     1       6.402  -3.652   2.472  1.00  0.00    -0.207 OA
BRANCH  14  17
ATOM     17  N   UNL     1       3.951  -2.970   2.487  1.00  0.00    -0.194 NA
ATOM     18  O   UNL     1       1.253   0.112  -0.501  1.00  0.00    -0.279 OA
ATOM     19  C   UNL     1       2.274   0.196   0.167  1.00  0.00     0.340 C 
ATOM     20  N   UNL     1       2.895  -0.846   0.818  1.00  0.00    -0.343 N 
ATOM     21  C   UNL     1       4.183  -0.673   1.490  1.00  0.00     0.136 C 
ATOM     22  C   UNL     1       2.404  -2.213   0.644  1.00  0.00     0.136 C 
ATOM     23  C   UNL     1       4.295  -1.534   2.758  1.00  0.00     0.124 C 
ATOM     24  C   UNL     1       2.561  -3.043   1.924  1.00  0.00     0.124 C 
ENDBRANCH  14  17
ENDBRANCH   9  14
ENDBRANCH   6   8
ENDBRANCH   5   6
ENDBRANCH   4   5
ENDBRANCH   3   4
ENDBRANCH   2   3
ENDBRANCH   1   2
BRANCH   1  25
ATOM     25  C   UNL     1       5.565 -10.724  -1.567  1.00  0.00     0.261 C 
BRANCH  25  26
ATOM     26  O   UNL     1       4.307 -10.679  -2.264  1.00  0.00    -0.460 OA
BRANCH  26  27
ATOM     27  C   UNL     1       3.994 -11.813  -2.940  1.00  0.00     0.338 C 
ATOM     28  O   UNL     1       4.692 -12.804  -3.070  1.00  0.00    -0.246 OA
BRANCH  27  29
ATOM     29  C   UNL     1       2.577 -11.775  -3.356  1.00  0.00     0.060 A 
ATOM     30  C   UNL     1       1.780 -12.882  -3.034  1.00  0.00     0.016 A 
ATOM     31  C   UNL     1       2.049 -10.714  -4.096  1.00  0.00     0.016 A 
ATOM     32  C   UNL     1       0.466 -12.954  -3.491  1.00  0.00     0.010 A 
ATOM     33  C   UNL     1       0.730 -10.794  -4.561  1.00  0.00     0.010 A 
ATOM     34  C   UNL     1      -0.057 -11.928  -4.288  1.00  0.00    -0.014 A 
BRANCH  34  35
ATOM     35  C   UNL     1      -1.369 -12.115  -4.957  1.00  0.00     0.031 A 
ATOM     36  C   UNL     1      -1.395 -12.533  -6.402  1.00  0.00     0.074 A 
ATOM     37  C   UNL     1      -2.519 -11.949  -4.278  1.00  0.00     0.049 A 
ATOM     38  N   UNL     1      -2.418 -12.710  -7.199  1.00  0.00    -0.248 NA
ATOM     39  C   UNL     1      -0.090 -12.783  -7.033  1.00  0.00     0.031 C 
ATOM     40  C   UNL     1      -2.620 -11.597  -2.862  1.00  0.00     0.029 A 
ATOM     41  N   UNL     1      -3.824 -12.050  -4.692  1.00  0.00    -0.354 N 
ATOM     42  C   UNL     1      -1.882 -13.091  -8.425  1.00  0.00     0.074 A 
ATOM     43  C   UNL     1      -0.442 -13.081  -8.275  1.00  0.00     0.031 C 
ATOM     44  C   UNL     1      -3.918 -11.502  -2.528  1.00  0.00     0.029 A 
ATOM     45  C   UNL     1      -4.740 -11.746  -3.712  1.00  0.00     0.049 A 
ATOM     46  H   UNL     1      -4.081 -12.316  -5.605  1.00  0.00     0.167 HD
ATOM     47  C   UNL     1      -2.532 -13.427  -9.566  1.00  0.00     0.034 A 
ATOM     48  C   UNL     1      -6.084 -11.649  -3.772  1.00  0.00     0.034 A 
ATOM     49  C   UNL     1      -3.968 -13.421  -9.705  1.00  0.00     0.049 A 
ATOM     50  C   UNL     1      -6.781 -11.936  -5.082  1.00  0.00     0.074 A 
ATOM     51  C   UNL     1      -4.729 -13.746 -10.815  1.00  0.00     0.029 A 
ATOM     52  N   UNL     1      -4.862 -13.061  -8.704  1.00  0.00    -0.354 N 
ATOM     53  N   UNL     1      -6.262 -12.295  -6.234  1.00  0.00    -0.248 NA
ATOM     54  C   UNL     1      -8.245 -11.811  -5.097  1.00  0.00     0.031 C 
ATOM     55  C   UNL     1      -6.074 -13.517 -10.507  1.00  0.00     0.029 A 
ATOM     56  C   UNL     1      -6.162 -13.126  -9.181  1.00  0.00     0.049 A 
ATOM     57  H   UNL     1      -4.609 -12.798  -7.790  1.00  0.00     0.167 HD
ATOM     58  C   UNL     1      -7.341 -12.473  -7.098  1.00  0.00     0.074 A 
ATOM     59  C   UNL     1      -8.537 -12.194  -6.331  1.00  0.00     0.031 C 
ATOM     60  C   UNL     1      -7.346 -12.840  -8.405  1.00  0.00     0.034 A 
BRANCH  47  61
ATOM     61  C   UNL     1      -1.688 -13.780 -10.767  1.00  0.00     0.023 A 
ATOM     62  C   UNL     1      -0.863 -14.918 -10.784  1.00  0.00     0.031 A 
ATOM     63  C   UNL     1      -1.695 -12.954 -11.906  1.00  0.00     0.131 A 
ATOM     64  C   UNL     1      -0.035 -15.166 -11.890  1.00  0.00     0.055 A 
ATOM     65  C   UNL     1      -0.925 -13.247 -13.033  1.00  0.00     0.041 A 
ATOM     66  F   UNL     1      -2.445 -11.841 -11.938  1.00  0.00    -0.206 F 
ATOM     67  C   UNL     1      -0.079 -14.352 -13.024  1.00  0.00     0.022 A 
BRANCH  64  68
ATOM     68  S   UNL     1       1.195 -16.494 -11.773  1.00  0.00     0.124 S 
ATOM     69  O   UNL     1       1.991 -16.059 -10.628  1.00  0.00    -0.237 OA
ATOM     70  O   UNL     1       0.365 -17.675 -11.564  1.00  0.00    -0.237 OA
ATOM     71  O   UNL     1       1.884 -16.436 -13.061  1.00  0.00    -0.744 OA
ENDBRANCH  64  68
ENDBRANCH  47  61
BRANCH  48  72
ATOM     72  C   UNL     1      -6.870 -11.220  -2.578  1.00  0.00     0.023 A 
ATOM     73  C   UNL     1      -7.827 -12.065  -1.995  1.00  0.00     0.031 A 
ATOM     74  C   UNL     1      -6.725  -9.925  -2.048  1.00  0.00     0.131 A 
ATOM     75  C   UNL     1      -8.640 -11.589  -0.954  1.00  0.00     0.055 A 
ATOM     76  C   UNL     1      -7.496  -9.476  -0.975  1.00  0.00     0.041 A 
ATOM     77  F   UNL     1      -5.826  -9.074  -2.568  1.00  0.00    -0.206 F 
ATOM     78  C   UNL     1      -8.472 -10.304  -0.432  1.00  0.00     0.022 A 
BRANCH  75  79
ATOM     79  S   UNL     1      -9.994 -12.640  -0.359  1.00  0.00     0.124 S 
ATOM     80  O   UNL     1     -10.751 -12.870  -1.585  1.00  0.00    -0.237 OA
ATOM     81  O   UNL     1      -9.271 -13.789   0.175  1.00  0.00    -0.237 OA
ATOM     82  O   UNL     1     -10.659 -11.805   0.639  1.00  0.00    -0.744 OA
ENDBRANCH  75  79
ENDBRANCH  48  72
BRANCH  60  83
ATOM     83  C   UNL     1      -8.691 -13.012  -9.068  1.00  0.00     0.023 A 
ATOM     84  C   UNL     1      -9.551 -11.925  -9.299  1.00  0.00     0.031 A 
ATOM     85  C   UNL     1      -9.121 -14.291  -9.467  1.00  0.00     0.131 A 
ATOM     86  C   UNL     1     -10.819 -12.143  -9.861  1.00  0.00     0.055 A 
ATOM     87  C   UNL     1     -10.358 -14.493 -10.081  1.00  0.00     0.041 A 
ATOM     88  F   UNL     1      -8.342 -15.366  -9.269  1.00  0.00    -0.206 F 
ATOM     89  C   UNL     1     -11.220 -13.418 -10.269  1.00  0.00     0.022 A 
BRANCH  86  90
ATOM     90  S   UNL     1     -11.975 -10.749  -9.973  1.00  0.00     0.124 S 
ATOM     91  O   UNL     1     -12.091 -10.339  -8.578  1.00  0.00    -0.237 OA
ATOM     92  O   UNL     1     -11.266  -9.825 -10.852  1.00  0.00    -0.237 OA
ATOM     93  O   UNL     1     -13.179 -11.347 -10.546  1.00  0.00    -0.744 OA
ENDBRANCH  86  90
ENDBRANCH  60  83
ENDBRANCH  34  35
ENDBRANCH  27  29
ENDBRANCH  26  27
ENDBRANCH  25  26
ENDBRANCH   1  25
TORSDOF 19
