REMARK SMILES C[C@@H](C(=O)OCCOCCOC(=O)c1ccc(-c2c3nc(c(-c4cc(S(=O)(=O)[O-])ccc4F)c4ccc([nH]4)c(-c4cc(S(=O)(=O)[O-])ccc4F)c4nc(c(-c5cc(S(=O)(=O)[O-])ccc5F)c5ccc2[nH]5)C=C4)C=C3)cc1)c1ccc(C(=O)c2cccs2)cc1
REMARK SMILES IDX 8 1 7 2 6 3 5 4 3 5 4 6 2 7 1 8 77 9 78 10 89 11 79 12 88 13
REMARK SMILES IDX 80 14 81 15 82 16 83 17 84 18 87 19 85 20 86 21 9 22 10 23
REMARK SMILES IDX 11 24 12 25 13 26 14 27 15 28 76 29 16 30 75 31 17 32 18 33
REMARK SMILES IDX 19 34 69 35 20 36 74 37 68 38 70 39 21 40 73 41 67 42 66 43
REMARK SMILES IDX 22 45 54 46 34 47 53 48 35 49 38 50 52 51 71 52 36 53 37 54
REMARK SMILES IDX 51 56 72 57 39 58 23 59 24 60 32 61 25 62 31 63 33 64 30 65
REMARK SMILES IDX 26 66 27 67 28 68 29 69 55 70 56 71 64 72 57 73 63 74 65 75
REMARK SMILES IDX 62 76 58 77 59 78 60 79 61 80 40 81 41 82 49 83 42 84 48 85
REMARK SMILES IDX 50 86 47 87 43 88 44 89 45 90 46 91
REMARK H PARENT 70 44 38 55
REMARK Flexibility Score: inf
ROOT
ATOM      1  O   UNL     1       0.771   0.539  -4.544  1.00  0.00    -0.374 OA
ENDROOT
BRANCH   1   2
ATOM      2  C   UNL     1       2.051   1.161  -4.425  1.00  0.00     0.202 C 
BRANCH   2   3
ATOM      3  C   UNL     1       2.147   2.325  -3.435  1.00  0.00     0.261 C 
BRANCH   3   4
ATOM      4  O   UNL     1       1.863   1.885  -2.094  1.00  0.00    -0.463 OA
BRANCH   4   5
ATOM      5  C   UNL     1       0.891   2.573  -1.438  1.00  0.00     0.313 C 
ATOM      6  O   UNL     1       0.391   3.618  -1.846  1.00  0.00    -0.252 OA
BRANCH   5   7
ATOM      7  C   UNL     1       0.454   1.893  -0.130  1.00  0.00     0.126 C 
ATOM      8  C   UNL     1       1.284   0.660   0.250  1.00  0.00     0.025 C 
BRANCH   7   9
ATOM      9  C   UNL     1      -1.062   1.664  -0.120  1.00  0.00    -0.034 A 
ATOM     10  C   UNL     1      -1.903   2.783  -0.003  1.00  0.00     0.005 A 
ATOM     11  C   UNL     1      -1.664   0.408  -0.281  1.00  0.00     0.005 A 
ATOM     12  C   UNL     1      -3.293   2.655  -0.055  1.00  0.00     0.012 A 
ATOM     13  C   UNL     1      -3.063   0.277  -0.336  1.00  0.00     0.012 A 
ATOM     14  C   UNL     1      -3.891   1.400  -0.220  1.00  0.00     0.023 A 
BRANCH  14  15
ATOM     15  C   UNL     1      -5.388   1.344  -0.331  1.00  0.00     0.202 C 
ATOM     16  O   UNL     1      -5.999   2.410  -0.409  1.00  0.00    -0.288 OA
BRANCH  15  17
ATOM     17  C   UNL     1      -6.069   0.062  -0.353  1.00  0.00     0.075 A 
ATOM     18  C   UNL     1      -6.013  -0.989   0.543  1.00  0.00     0.024 A 
ATOM     19  S   UNL     1      -7.177  -0.253  -1.623  1.00  0.00    -0.140 S 
ATOM     20  C   UNL     1      -6.860  -2.071   0.159  1.00  0.00     0.012 A 
ATOM     21  C   UNL     1      -7.542  -1.804  -1.007  1.00  0.00     0.065 A 
ENDBRANCH  15  17
ENDBRANCH  14  15
ENDBRANCH   7   9
ENDBRANCH   5   7
ENDBRANCH   4   5
ENDBRANCH   3   4
ENDBRANCH   2   3
ENDBRANCH   1   2
BRANCH   1  22
ATOM     22  C   UNL     1       0.362  -0.331  -3.489  1.00  0.00     0.202 C 
BRANCH  22  23
ATOM     23  C   UNL     1       1.029  -1.712  -3.428  1.00  0.00     0.261 C 
BRANCH  23  24
ATOM     24  O   UNL     1       2.439  -1.639  -3.147  1.00  0.00    -0.460 OA
BRANCH  24  25
ATOM     25  C   UNL     1       3.237  -2.042  -4.167  1.00  0.00     0.338 C 
ATOM     26  O   UNL     1       2.872  -2.519  -5.235  1.00  0.00    -0.246 OA
BRANCH  25  27
ATOM     27  C   UNL     1       4.638  -1.658  -3.914  1.00  0.00     0.060 A 
ATOM     28  C   UNL     1       5.293  -0.921  -4.910  1.00  0.00     0.016 A 
ATOM     29  C   UNL     1       5.329  -2.076  -2.775  1.00  0.00     0.016 A 
ATOM     30  C   UNL     1       6.653  -0.640  -4.794  1.00  0.00     0.010 A 
ATOM     31  C   UNL     1       6.699  -1.801  -2.665  1.00  0.00     0.010 A 
ATOM     32  C   UNL     1       7.374  -1.113  -3.690  1.00  0.00    -0.014 A 
BRANCH  32  33
ATOM     33  C   UNL     1       8.857  -1.020  -3.698  1.00  0.00     0.031 A 
ATOM     34  C   UNL     1       9.659  -2.231  -4.096  1.00  0.00     0.074 A 
ATOM     35  C   UNL     1       9.479   0.135  -3.403  1.00  0.00     0.049 A 
ATOM     36  N   UNL     1      10.957  -2.387  -4.154  1.00  0.00    -0.248 NA
ATOM     37  C   UNL     1       8.890  -3.425  -4.477  1.00  0.00     0.031 C 
ATOM     38  C   UNL     1       8.809   1.387  -3.052  1.00  0.00     0.029 A 
ATOM     39  N   UNL     1      10.816   0.443  -3.351  1.00  0.00    -0.354 N 
ATOM     40  C   UNL     1      11.162  -3.695  -4.581  1.00  0.00     0.074 A 
ATOM     41  C   UNL     1       9.854  -4.299  -4.723  1.00  0.00     0.031 C 
ATOM     42  C   UNL     1       9.741   2.326  -2.810  1.00  0.00     0.029 A 
ATOM     43  C   UNL     1      11.070   1.735  -2.953  1.00  0.00     0.049 A 
ATOM     44  H   UNL     1      11.526  -0.201  -3.576  1.00  0.00     0.167 HD
ATOM     45  C   UNL     1      12.332  -4.330  -4.841  1.00  0.00     0.034 A 
ATOM     46  C   UNL     1      12.240   2.360  -2.709  1.00  0.00     0.034 A 
ATOM     47  C   UNL     1      13.630  -3.720  -4.681  1.00  0.00     0.049 A 
ATOM     48  C   UNL     1      13.532   1.606  -2.916  1.00  0.00     0.074 A 
ATOM     49  C   UNL     1      14.878  -4.270  -4.919  1.00  0.00     0.029 A 
ATOM     50  N   UNL     1      13.850  -2.425  -4.229  1.00  0.00    -0.354 N 
ATOM     51  N   UNL     1      13.713   0.370  -3.322  1.00  0.00    -0.248 NA
ATOM     52  C   UNL     1      14.777   2.336  -2.642  1.00  0.00     0.031 C 
ATOM     53  C   UNL     1      15.850  -3.335  -4.545  1.00  0.00     0.029 A 
ATOM     54  C   UNL     1      15.211  -2.171  -4.149  1.00  0.00     0.049 A 
ATOM     55  H   UNL     1      13.142  -1.780  -3.998  1.00  0.00     0.167 HD
ATOM     56  C   UNL     1      15.093   0.186  -3.379  1.00  0.00     0.074 A 
ATOM     57  C   UNL     1      15.695   1.441  -2.980  1.00  0.00     0.031 C 
ATOM     58  C   UNL     1      15.799  -0.918  -3.735  1.00  0.00     0.034 A 
BRANCH  45  59
ATOM     59  C   UNL     1      12.253  -5.775  -5.274  1.00  0.00     0.023 A 
ATOM     60  C   UNL     1      11.644  -6.153  -6.484  1.00  0.00     0.031 A 
ATOM     61  C   UNL     1      12.764  -6.792  -4.449  1.00  0.00     0.131 A 
ATOM     62  C   UNL     1      11.498  -7.513  -6.799  1.00  0.00     0.055 A 
ATOM     63  C   UNL     1      12.686  -8.139  -4.806  1.00  0.00     0.041 A 
ATOM     64  F   UNL     1      13.336  -6.494  -3.272  1.00  0.00    -0.206 F 
ATOM     65  C   UNL     1      12.037  -8.508  -5.981  1.00  0.00     0.022 A 
BRANCH  62  66
ATOM     66  S   UNL     1      10.467  -7.968  -8.221  1.00  0.00     0.124 S 
ATOM     67  O   UNL     1       9.186  -7.364  -7.861  1.00  0.00    -0.237 OA
ATOM     68  O   UNL     1      11.175  -7.349  -9.335  1.00  0.00    -0.237 OA
ATOM     69  O   UNL     1      10.484  -9.429  -8.203  1.00  0.00    -0.744 OA
ENDBRANCH  62  66
ENDBRANCH  45  59
BRANCH  46  70
ATOM     70  C   UNL     1      12.254   3.760  -2.193  1.00  0.00     0.023 A 
ATOM     71  C   UNL     1      12.823   4.806  -2.935  1.00  0.00     0.031 A 
ATOM     72  C   UNL     1      11.743   4.058  -0.917  1.00  0.00     0.131 A 
ATOM     73  C   UNL     1      12.909   6.092  -2.377  1.00  0.00     0.055 A 
ATOM     74  C   UNL     1      11.784   5.349  -0.388  1.00  0.00     0.041 A 
ATOM     75  F   UNL     1      11.190   3.093  -0.164  1.00  0.00    -0.206 F 
ATOM     76  C   UNL     1      12.381   6.373  -1.115  1.00  0.00     0.022 A 
BRANCH  73  77
ATOM     77  S   UNL     1      13.799   7.380  -3.294  1.00  0.00     0.124 S 
ATOM     78  O   UNL     1      15.121   6.782  -3.438  1.00  0.00    -0.237 OA
ATOM     79  O   UNL     1      13.005   7.487  -4.513  1.00  0.00    -0.237 OA
ATOM     80  O   UNL     1      13.730   8.539  -2.405  1.00  0.00    -0.744 OA
ENDBRANCH  73  77
ENDBRANCH  46  70
BRANCH  58  81
ATOM     81  C   UNL     1      17.304  -0.796  -3.751  1.00  0.00     0.023 A 
ATOM     82  C   UNL     1      18.047  -0.620  -2.571  1.00  0.00     0.031 A 
ATOM     83  C   UNL     1      18.004  -0.851  -4.970  1.00  0.00     0.131 A 
ATOM     84  C   UNL     1      19.439  -0.449  -2.639  1.00  0.00     0.055 A 
ATOM     85  C   UNL     1      19.394  -0.740  -5.027  1.00  0.00     0.041 A 
ATOM     86  F   UNL     1      17.346  -1.017  -6.129  1.00  0.00    -0.206 F 
ATOM     87  C   UNL     1      20.118  -0.525  -3.858  1.00  0.00     0.022 A 
BRANCH  84  88
ATOM     88  S   UNL     1      20.343  -0.039  -1.121  1.00  0.00     0.124 S 
ATOM     89  O   UNL     1      19.690   1.197  -0.703  1.00  0.00    -0.237 OA
ATOM     90  O   UNL     1      20.093  -1.208  -0.283  1.00  0.00    -0.237 OA
ATOM     91  O   UNL     1      21.725   0.112  -1.575  1.00  0.00    -0.744 OA
ENDBRANCH  84  88
ENDBRANCH  58  81
ENDBRANCH  32  33
ENDBRANCH  25  27
ENDBRANCH  24  25
ENDBRANCH  23  24
ENDBRANCH  22  23
ENDBRANCH   1  22
TORSDOF 20
