REMARK SMILES C[C@H]1CCCC[C@H]1[N@H+]1[C@@H](C(=O)OCCOCCOC(=O)c2ccc(-c3c4nc(c(-c5cc(S(=O)(=O)[O-])ccc5F)c5ccc([nH]5)c(-c5cc(S(=O)(=O)[O-])ccc5F)c5nc(c(-c6cc(S(=O)(=O)[O-])ccc6F)c6ccc3[nH]6)C=C5)C=C4)cc2)CC[C@H]2CCCC[C@H]21
REMARK SMILES IDX 16 1 15 2 14 3 13 4 12 5 10 6 11 7 9 8 8 9 91 10 84 12 86 13
REMARK SMILES IDX 90 14 85 15 87 16 89 17 88 18 7 19 1 20 2 21 3 22 4 23 6 24
REMARK SMILES IDX 5 25 17 26 18 27 19 28 20 29 21 30 22 31 83 32 23 33 82 34
REMARK SMILES IDX 24 35 25 36 26 37 76 38 27 39 81 40 75 41 77 42 28 43 80 44
REMARK SMILES IDX 74 45 73 46 29 48 61 49 41 50 60 51 42 52 45 53 59 54 78 55
REMARK SMILES IDX 43 56 44 57 58 59 79 60 46 61 30 62 31 63 39 64 32 65 38 66
REMARK SMILES IDX 40 67 37 68 33 69 34 70 35 71 36 72 62 73 63 74 71 75 64 76
REMARK SMILES IDX 70 77 72 78 69 79 65 80 66 81 67 82 68 83 47 84 48 85 56 86
REMARK SMILES IDX 49 87 55 88 57 89 54 90 50 91 51 92 52 93 53 94
REMARK H PARENT 8 11 77 47 45 58
REMARK Flexibility Score: inf
ROOT
ATOM      1  C   UNL     1      -4.313   0.040   1.167  1.00  0.00     0.202 C 
ENDROOT
BRANCH   1   2
ATOM      2  O   UNL     1      -4.806  -0.165  -0.166  1.00  0.00    -0.374 OA
BRANCH   2   3
ATOM      3  C   UNL     1      -4.137  -0.951  -1.164  1.00  0.00     0.202 C 
BRANCH   3   4
ATOM      4  C   UNL     1      -3.525  -0.169  -2.367  1.00  0.00     0.261 C 
BRANCH   4   5
ATOM      5  O   UNL     1      -2.112  -0.516  -2.593  1.00  0.00    -0.459 OA
BRANCH   5   6
ATOM      6  C   UNL     1      -1.293   0.460  -3.089  1.00  0.00     0.365 C 
ATOM      7  O   UNL     1      -1.740   1.514  -3.545  1.00  0.00    -0.245 OA
BRANCH   6   8
ATOM      8  C   UNL     1       0.254   0.209  -3.048  1.00  0.00     0.295 C 
ATOM      9  N   UNL     1       0.874  -0.941  -2.330  1.00  0.00    -0.318 N 
ATOM     10  C   UNL     1       2.402  -0.933  -3.006  1.00  0.00     0.188 C 
ATOM     11  H   UNL     1       0.451  -1.864  -2.433  1.00  0.00     0.349 HD
ATOM     12  C   UNL     1       1.124   1.392  -2.584  1.00  0.00     0.078 C 
ATOM     13  C   UNL     1       3.115  -0.566  -1.774  1.00  0.00     0.048 C 
ATOM     14  C   UNL     1       3.509  -1.797  -3.746  1.00  0.00     0.065 C 
ATOM     15  C   UNL     1       2.545   1.001  -1.901  1.00  0.00     0.016 C 
ATOM     16  C   UNL     1       2.904  -2.130  -1.154  1.00  0.00     0.010 C 
ATOM     17  C   UNL     1       4.293  -2.923  -3.057  1.00  0.00     0.006 C 
ATOM     18  C   UNL     1       3.951  -3.134  -1.605  1.00  0.00     0.001 C 
BRANCH   9  19
ATOM     19  C   UNL     1       0.730  -0.721  -0.641  1.00  0.00     0.187 C 
ATOM     20  C   UNL     1       2.887   0.339   0.999  1.00  0.00     0.014 C 
ATOM     21  C   UNL     1       1.392   0.250   0.601  1.00  0.00     0.044 C 
ATOM     22  C   UNL     1       0.700   1.622   0.850  1.00  0.00     0.009 C 
ATOM     23  C   UNL     1      -0.793   1.443   1.037  1.00  0.00     0.001 C 
ATOM     24  C   UNL     1      -0.728  -0.786  -0.195  1.00  0.00     0.065 C 
ATOM     25  C   UNL     1      -1.330   0.602  -0.092  1.00  0.00     0.006 C 
ENDBRANCH   9  19
ENDBRANCH   6   8
ENDBRANCH   5   6
ENDBRANCH   4   5
ENDBRANCH   3   4
ENDBRANCH   2   3
ENDBRANCH   1   2
BRANCH   1  26
ATOM     26  C   UNL     1      -3.494  -1.009   1.965  1.00  0.00     0.261 C 
BRANCH  26  27
ATOM     27  O   UNL     1      -3.387  -2.287   1.347  1.00  0.00    -0.460 OA
BRANCH  27  28
ATOM     28  C   UNL     1      -4.467  -3.053   1.558  1.00  0.00     0.338 C 
ATOM     29  O   UNL     1      -5.355  -2.844   2.391  1.00  0.00    -0.246 OA
BRANCH  28  30
ATOM     30  C   UNL     1      -4.590  -4.055   0.496  1.00  0.00     0.060 A 
ATOM     31  C   UNL     1      -5.822  -4.087  -0.161  1.00  0.00     0.016 A 
ATOM     32  C   UNL     1      -3.593  -4.990   0.198  1.00  0.00     0.016 A 
ATOM     33  C   UNL     1      -6.121  -5.133  -1.020  1.00  0.00     0.010 A 
ATOM     34  C   UNL     1      -3.895  -6.043  -0.676  1.00  0.00     0.010 A 
ATOM     35  C   UNL     1      -5.187  -6.155  -1.227  1.00  0.00    -0.014 A 
BRANCH  35  36
ATOM     36  C   UNL     1      -5.675  -7.432  -1.808  1.00  0.00     0.031 A 
ATOM     37  C   UNL     1      -5.948  -8.586  -0.876  1.00  0.00     0.074 A 
ATOM     38  C   UNL     1      -5.995  -7.526  -3.111  1.00  0.00     0.049 A 
ATOM     39  N   UNL     1      -6.393  -9.786  -1.145  1.00  0.00    -0.248 NA
ATOM     40  C   UNL     1      -5.691  -8.348   0.553  1.00  0.00     0.031 C 
ATOM     41  C   UNL     1      -5.871  -6.447  -4.090  1.00  0.00     0.029 A 
ATOM     42  N   UNL     1      -6.511  -8.575  -3.830  1.00  0.00    -0.354 N 
ATOM     43  C   UNL     1      -6.457 -10.450   0.077  1.00  0.00     0.074 A 
ATOM     44  C   UNL     1      -5.969  -9.530   1.081  1.00  0.00     0.031 C 
ATOM     45  C   UNL     1      -6.306  -6.889  -5.282  1.00  0.00     0.029 A 
ATOM     46  C   UNL     1      -6.689  -8.296  -5.165  1.00  0.00     0.049 A 
ATOM     47  H   UNL     1      -6.732  -9.446  -3.428  1.00  0.00     0.167 HD
ATOM     48  C   UNL     1      -6.890 -11.707   0.338  1.00  0.00     0.034 A 
ATOM     49  C   UNL     1      -7.089  -9.091  -6.178  1.00  0.00     0.034 A 
ATOM     50  C   UNL     1      -7.378 -12.611  -0.675  1.00  0.00     0.049 A 
ATOM     51  C   UNL     1      -7.454 -10.528  -5.883  1.00  0.00     0.074 A 
ATOM     52  C   UNL     1      -7.840 -13.906  -0.521  1.00  0.00     0.029 A 
ATOM     53  N   UNL     1      -7.457 -12.320  -2.031  1.00  0.00    -0.354 N 
ATOM     54  N   UNL     1      -7.479 -11.155  -4.729  1.00  0.00    -0.248 NA
ATOM     55  C   UNL     1      -7.848 -11.363  -7.026  1.00  0.00     0.031 C 
ATOM     56  C   UNL     1      -8.112 -14.428  -1.789  1.00  0.00     0.029 A 
ATOM     57  C   UNL     1      -7.921 -13.426  -2.727  1.00  0.00     0.049 A 
ATOM     58  H   UNL     1      -7.218 -11.456  -2.438  1.00  0.00     0.167 HD
ATOM     59  C   UNL     1      -7.938 -12.442  -5.005  1.00  0.00     0.074 A 
ATOM     60  C   UNL     1      -8.174 -12.502  -6.431  1.00  0.00     0.031 C 
ATOM     61  C   UNL     1      -8.158 -13.475  -4.152  1.00  0.00     0.034 A 
BRANCH  48  62
ATOM     62  C   UNL     1      -6.786 -12.200   1.762  1.00  0.00     0.023 A 
ATOM     63  C   UNL     1      -7.507 -11.611   2.815  1.00  0.00     0.031 A 
ATOM     64  C   UNL     1      -5.923 -13.268   2.073  1.00  0.00     0.131 A 
ATOM     65  C   UNL     1      -7.299 -12.045   4.134  1.00  0.00     0.055 A 
ATOM     66  C   UNL     1      -5.787 -13.752   3.374  1.00  0.00     0.041 A 
ATOM     67  F   UNL     1      -5.187 -13.852   1.115  1.00  0.00    -0.206 F 
ATOM     68  C   UNL     1      -6.466 -13.130   4.417  1.00  0.00     0.022 A 
BRANCH  65  69
ATOM     69  S   UNL     1      -8.011 -11.075   5.492  1.00  0.00     0.124 S 
ATOM     70  O   UNL     1      -7.428  -9.757   5.249  1.00  0.00    -0.237 OA
ATOM     71  O   UNL     1      -9.443 -11.196   5.249  1.00  0.00    -0.237 OA
ATOM     72  O   UNL     1      -7.521 -11.752   6.691  1.00  0.00    -0.744 OA
ENDBRANCH  65  69
ENDBRANCH  48  62
BRANCH  49  73
ATOM     73  C   UNL     1      -7.119  -8.573  -7.577  1.00  0.00     0.023 A 
ATOM     74  C   UNL     1      -8.311  -8.534  -8.317  1.00  0.00     0.031 A 
ATOM     75  C   UNL     1      -5.934  -8.167  -8.219  1.00  0.00     0.131 A 
ATOM     76  C   UNL     1      -8.285  -8.149  -9.667  1.00  0.00     0.055 A 
ATOM     77  C   UNL     1      -5.923  -7.723  -9.542  1.00  0.00     0.041 A 
ATOM     78  F   UNL     1      -4.763  -8.192  -7.563  1.00  0.00    -0.206 F 
ATOM     79  C   UNL     1      -7.102  -7.727 -10.279  1.00  0.00     0.022 A 
BRANCH  76  80
ATOM     80  S   UNL     1      -9.803  -8.307 -10.646  1.00  0.00     0.124 S 
ATOM     81  O   UNL     1     -10.097  -9.729 -10.507  1.00  0.00    -0.237 OA
ATOM     82  O   UNL     1     -10.707  -7.394  -9.956  1.00  0.00    -0.237 OA
ATOM     83  O   UNL     1      -9.392  -7.883 -11.983  1.00  0.00    -0.744 OA
ENDBRANCH  76  80
ENDBRANCH  49  73
BRANCH  61  84
ATOM     84  C   UNL     1      -8.759 -14.739  -4.721  1.00  0.00     0.023 A 
ATOM     85  C   UNL     1      -8.064 -15.563  -5.623  1.00  0.00     0.031 A 
ATOM     86  C   UNL     1     -10.051 -15.136  -4.326  1.00  0.00     0.131 A 
ATOM     87  C   UNL     1      -8.681 -16.718  -6.132  1.00  0.00     0.055 A 
ATOM     88  C   UNL     1     -10.633 -16.317  -4.785  1.00  0.00     0.041 A 
ATOM     89  F   UNL     1     -10.763 -14.385  -3.470  1.00  0.00    -0.206 F 
ATOM     90  C   UNL     1      -9.952 -17.111  -5.702  1.00  0.00     0.022 A 
BRANCH  87  91
ATOM     91  S   UNL     1      -7.834 -17.665  -7.427  1.00  0.00     0.124 S 
ATOM     92  O   UNL     1      -7.672 -16.665  -8.478  1.00  0.00    -0.237 OA
ATOM     93  O   UNL     1      -6.610 -18.089  -6.756  1.00  0.00    -0.237 OA
ATOM     94  O   UNL     1      -8.774 -18.741  -7.736  1.00  0.00    -0.744 OA
ENDBRANCH  87  91
ENDBRANCH  61  84
ENDBRANCH  35  36
ENDBRANCH  28  30
ENDBRANCH  27  28
ENDBRANCH  26  27
ENDBRANCH   1  26
TORSDOF 18
