REMARK SMILES O=C(CSc1nc(-c2ccccc2)c(-c2ccccc2)n1-c1ccccc1)OCCOCCOC(=O)c1ccc(-c2c3nc(c(-c4cc(S(=O)(=O)[O-])ccc4F)c4ccc([nH]4)c(-c4cc(S(=O)(=O)[O-])ccc4F)c4nc(c(-c5cc(S(=O)(=O)[O-])ccc5F)c5ccc2[nH]5)C=C4)C=C3)cc1
REMARK SMILES IDX 31 1 30 2 29 3 28 4 2 5 1 6 3 7 4 8 5 9 6 10 21 11 7 12
REMARK SMILES IDX 14 13 22 14 23 15 27 16 24 17 26 18 25 19 8 20 9 21 13 22
REMARK SMILES IDX 10 23 12 24 11 25 15 26 16 27 20 28 17 29 19 30 18 31 32 32
REMARK SMILES IDX 33 33 34 34 35 35 36 36 37 37 38 38 99 39 39 40 98 41 40 42
REMARK SMILES IDX 41 43 42 44 92 45 43 46 97 47 91 48 93 49 44 50 96 51 90 52
REMARK SMILES IDX 89 53 45 55 77 56 57 57 76 58 58 59 61 60 75 61 94 62 59 63
REMARK SMILES IDX 60 64 74 66 95 67 62 68 46 69 47 70 55 71 48 72 54 73 56 74
REMARK SMILES IDX 53 75 49 76 50 77 51 78 52 79 78 80 79 81 87 82 80 83 86 84
REMARK SMILES IDX 88 85 85 86 81 87 82 88 83 89 84 90 63 91 64 92 72 93 65 94
REMARK SMILES IDX 71 95 73 96 70 97 66 98 67 99 68 100 69 101
REMARK H PARENT 93 54 61 65
REMARK Flexibility Score: inf
ROOT
ATOM      1  O   UNL     1       4.930   1.747   0.367  1.00  0.00    -0.374 OA
ENDROOT
BRANCH   1   2
ATOM      2  C   UNL     1       5.287   0.959  -0.779  1.00  0.00     0.202 C 
BRANCH   2   3
ATOM      3  C   UNL     1       5.410  -0.543  -0.504  1.00  0.00     0.261 C 
BRANCH   3   4
ATOM      4  O   UNL     1       4.149  -1.218  -0.635  1.00  0.00    -0.463 OA
BRANCH   4   5
ATOM      5  C   UNL     1       3.130  -0.931   0.196  1.00  0.00     0.316 C 
ATOM      6  O   UNL     1       1.985  -0.939  -0.249  1.00  0.00    -0.251 OA
BRANCH   5   7
ATOM      7  C   UNL     1       3.442  -0.586   1.640  1.00  0.00     0.200 C 
BRANCH   7   8
ATOM      8  S   UNL     1       3.969  -1.945   2.661  1.00  0.00    -0.076 SA
BRANCH   8   9
ATOM      9  C   UNL     1       2.686  -3.086   2.549  1.00  0.00     0.174 A 
ATOM     10  N   UNL     1       2.958  -4.359   2.388  1.00  0.00    -0.221 NA
ATOM     11  N   UNL     1       1.338  -2.856   2.763  1.00  0.00    -0.287 N 
ATOM     12  C   UNL     1       1.759  -4.995   2.501  1.00  0.00     0.098 A 
ATOM     13  C   UNL     1       0.731  -4.104   2.757  1.00  0.00     0.082 A 
BRANCH  11  14
ATOM     14  C   UNL     1       0.655  -1.641   3.000  1.00  0.00     0.048 A 
ATOM     15  C   UNL     1       0.447  -1.187   4.302  1.00  0.00     0.027 A 
ATOM     16  C   UNL     1       0.057  -0.985   1.919  1.00  0.00     0.027 A 
ATOM     17  C   UNL     1      -0.315  -0.031   4.502  1.00  0.00     0.002 A 
ATOM     18  C   UNL     1      -0.655   0.194   2.120  1.00  0.00     0.002 A 
ATOM     19  C   UNL     1      -0.843   0.670   3.413  1.00  0.00     0.000 A 
ENDBRANCH  11  14
BRANCH  12  20
ATOM     20  C   UNL     1       1.631  -6.432   2.445  1.00  0.00     0.002 A 
ATOM     21  C   UNL     1       2.438  -7.231   3.261  1.00  0.00     0.010 A 
ATOM     22  C   UNL     1       0.676  -7.027   1.615  1.00  0.00     0.010 A 
ATOM     23  C   UNL     1       2.249  -8.613   3.288  1.00  0.00     0.001 A 
ATOM     24  C   UNL     1       0.492  -8.407   1.639  1.00  0.00     0.001 A 
ATOM     25  C   UNL     1       1.269  -9.197   2.486  1.00  0.00     0.000 A 
ENDBRANCH  12  20
BRANCH  13  26
ATOM     26  C   UNL     1      -0.674  -4.325   3.067  1.00  0.00     0.001 A 
ATOM     27  C   UNL     1      -1.034  -4.971   4.253  1.00  0.00     0.010 A 
ATOM     28  C   UNL     1      -1.667  -3.874   2.193  1.00  0.00     0.010 A 
ATOM     29  C   UNL     1      -2.380  -5.143   4.572  1.00  0.00     0.001 A 
ATOM     30  C   UNL     1      -3.010  -4.031   2.519  1.00  0.00     0.001 A 
ATOM     31  C   UNL     1      -3.365  -4.665   3.708  1.00  0.00     0.000 A 
ENDBRANCH  13  26
ENDBRANCH   8   9
ENDBRANCH   7   8
ENDBRANCH   5   7
ENDBRANCH   4   5
ENDBRANCH   3   4
ENDBRANCH   2   3
ENDBRANCH   1   2
BRANCH   1  32
ATOM     32  C   UNL     1       3.600   2.272   0.461  1.00  0.00     0.202 C 
BRANCH  32  33
ATOM     33  C   UNL     1       3.241   3.472  -0.387  1.00  0.00     0.261 C 
BRANCH  33  34
ATOM     34  O   UNL     1       3.323   3.131  -1.754  1.00  0.00    -0.460 OA
BRANCH  34  35
ATOM     35  C   UNL     1       4.509   3.416  -2.316  1.00  0.00     0.338 C 
ATOM     36  O   UNL     1       5.565   3.682  -1.738  1.00  0.00    -0.246 OA
BRANCH  35  37
ATOM     37  C   UNL     1       4.302   3.544  -3.747  1.00  0.00     0.060 A 
ATOM     38  C   UNL     1       5.378   4.061  -4.464  1.00  0.00     0.016 A 
ATOM     39  C   UNL     1       2.988   3.527  -4.245  1.00  0.00     0.016 A 
ATOM     40  C   UNL     1       5.091   4.804  -5.577  1.00  0.00     0.010 A 
ATOM     41  C   UNL     1       2.702   4.298  -5.335  1.00  0.00     0.010 A 
ATOM     42  C   UNL     1       3.749   4.987  -5.936  1.00  0.00    -0.014 A 
BRANCH  42  43
ATOM     43  C   UNL     1       3.477   5.743  -7.130  1.00  0.00     0.031 A 
ATOM     44  C   UNL     1       3.820   4.944  -8.319  1.00  0.00     0.074 A 
ATOM     45  C   UNL     1       2.923   6.965  -7.138  1.00  0.00     0.049 A 
ATOM     46  N   UNL     1       4.921   5.011  -8.988  1.00  0.00    -0.248 NA
ATOM     47  C   UNL     1       3.022   3.737  -8.597  1.00  0.00     0.031 C 
ATOM     48  C   UNL     1       2.328   7.714  -6.033  1.00  0.00     0.029 A 
ATOM     49  N   UNL     1       2.714   7.776  -8.205  1.00  0.00    -0.354 N 
ATOM     50  C   UNL     1       4.800   4.042  -9.970  1.00  0.00     0.074 A 
ATOM     51  C   UNL     1       3.802   3.130  -9.491  1.00  0.00     0.031 C 
ATOM     52  C   UNL     1       1.634   8.765  -6.534  1.00  0.00     0.029 A 
ATOM     53  C   UNL     1       1.845   8.835  -7.974  1.00  0.00     0.049 A 
ATOM     54  H   UNL     1       3.145   7.625  -9.077  1.00  0.00     0.167 HD
ATOM     55  C   UNL     1       5.275   4.284 -11.221  1.00  0.00     0.034 A 
ATOM     56  C   UNL     1       1.304   9.652  -8.921  1.00  0.00     0.034 A 
ATOM     57  C   UNL     1       6.216   5.392 -11.194  1.00  0.00     0.049 A 
ATOM     58  C   UNL     1       2.198   9.568 -10.110  1.00  0.00     0.074 A 
ATOM     59  C   UNL     1       7.390   5.637 -10.504  1.00  0.00     0.029 A 
ATOM     60  N   UNL     1       5.774   6.628 -11.622  1.00  0.00    -0.354 N 
ATOM     61  N   UNL     1       3.426  10.012 -10.108  1.00  0.00    -0.248 NA
ATOM     62  C   UNL     1       1.920   8.539 -11.105  1.00  0.00     0.031 C 
ATOM     63  C   UNL     1       7.330   7.015 -10.143  1.00  0.00     0.029 A 
ATOM     64  C   UNL     1       6.184   7.574 -10.714  1.00  0.00     0.049 A 
ATOM     65  H   UNL     1       5.252   6.802 -12.439  1.00  0.00     0.167 HD
ATOM     66  C   UNL     1       4.166   9.037 -10.764  1.00  0.00     0.074 A 
ATOM     67  C   UNL     1       3.171   8.201 -11.436  1.00  0.00     0.031 C 
ATOM     68  C   UNL     1       5.481   8.822 -10.459  1.00  0.00     0.034 A 
BRANCH  55  69
ATOM     69  C   UNL     1       4.560   3.851 -12.485  1.00  0.00     0.023 A 
ATOM     70  C   UNL     1       5.097   4.334 -13.690  1.00  0.00     0.031 A 
ATOM     71  C   UNL     1       3.272   3.272 -12.585  1.00  0.00     0.131 A 
ATOM     72  C   UNL     1       4.320   4.390 -14.856  1.00  0.00     0.055 A 
ATOM     73  C   UNL     1       2.525   3.274 -13.765  1.00  0.00     0.041 A 
ATOM     74  F   UNL     1       2.621   2.729 -11.553  1.00  0.00    -0.206 F 
ATOM     75  C   UNL     1       3.031   3.874 -14.902  1.00  0.00     0.022 A 
BRANCH  72  76
ATOM     76  S   UNL     1       4.972   5.331 -16.253  1.00  0.00     0.124 S 
ATOM     77  O   UNL     1       5.193   6.635 -15.637  1.00  0.00    -0.237 OA
ATOM     78  O   UNL     1       6.167   4.567 -16.595  1.00  0.00    -0.237 OA
ATOM     79  O   UNL     1       3.890   5.272 -17.232  1.00  0.00    -0.744 OA
ENDBRANCH  72  76
ENDBRANCH  55  69
BRANCH  56  80
ATOM     80  C   UNL     1      -0.083  10.202  -8.972  1.00  0.00     0.023 A 
ATOM     81  C   UNL     1      -0.464  11.253  -9.839  1.00  0.00     0.031 A 
ATOM     82  C   UNL     1      -1.134   9.510  -8.327  1.00  0.00     0.131 A 
ATOM     83  C   UNL     1      -1.834  11.564 -10.031  1.00  0.00     0.055 A 
ATOM     84  C   UNL     1      -2.482   9.820  -8.522  1.00  0.00     0.041 A 
ATOM     85  F   UNL     1      -0.893   8.444  -7.549  1.00  0.00    -0.206 F 
ATOM     86  C   UNL     1      -2.839  10.842  -9.384  1.00  0.00     0.022 A 
BRANCH  83  87
ATOM     87  S   UNL     1      -2.346  12.867 -11.202  1.00  0.00     0.124 S 
ATOM     88  O   UNL     1      -1.889  14.081 -10.537  1.00  0.00    -0.237 OA
ATOM     89  O   UNL     1      -1.644  12.489 -12.423  1.00  0.00    -0.237 OA
ATOM     90  O   UNL     1      -3.802  12.716 -11.266  1.00  0.00    -0.744 OA
ENDBRANCH  83  87
ENDBRANCH  56  80
BRANCH  68  91
ATOM     91  C   UNL     1       6.223   9.872  -9.652  1.00  0.00     0.023 A 
ATOM     92  C   UNL     1       5.852  10.343  -8.370  1.00  0.00     0.031 A 
ATOM     93  C   UNL     1       7.442  10.332 -10.183  1.00  0.00     0.131 A 
ATOM     94  C   UNL     1       6.692  11.244  -7.680  1.00  0.00     0.055 A 
ATOM     95  C   UNL     1       8.280  11.201  -9.488  1.00  0.00     0.041 A 
ATOM     96  F   UNL     1       7.862   9.909 -11.388  1.00  0.00    -0.206 F 
ATOM     97  C   UNL     1       7.905  11.665  -8.235  1.00  0.00     0.022 A 
BRANCH  94  98
ATOM     98  S   UNL     1       6.216  11.914  -6.052  1.00  0.00     0.124 S 
ATOM     99  O   UNL     1       4.824  12.306  -6.235  1.00  0.00    -0.237 OA
ATOM    100  O   UNL     1       6.450  10.779  -5.163  1.00  0.00    -0.237 OA
ATOM    101  O   UNL     1       7.143  13.033  -5.861  1.00  0.00    -0.744 OA
ENDBRANCH  94  98
ENDBRANCH  68  91
ENDBRANCH  42  43
ENDBRANCH  35  37
ENDBRANCH  34  35
ENDBRANCH  33  34
ENDBRANCH  32  33
ENDBRANCH   1  32
TORSDOF 22
