REMARK SMILES CC(C)[C@H](CO)Nc1ccc(C(=O)OCCOCCOC(=O)c2ccc(-c3c4nc(c(-c5cc(S(=O)(=O)[O-])ccc5F)c5ccc([nH]5)c(-c5cc(S(=O)(=O)[O-])ccc5F)c5nc(c(-c6cc(S(=O)(=O)[O-])ccc6F)c6ccc3[nH]6)C=C5)C=C4)cc2)cc1
REMARK SMILES IDX 16 1 15 2 14 3 12 4 13 5 11 6 8 7 9 8 87 9 10 10 86 11 7 12
REMARK SMILES IDX 4 14 2 15 1 16 3 17 5 18 6 19 17 21 18 22 19 23 20 24 21 25
REMARK SMILES IDX 22 26 23 27 24 28 85 29 25 30 84 31 26 32 27 33 28 34 78 35
REMARK SMILES IDX 29 36 83 37 77 38 79 39 30 40 82 41 76 42 75 43 31 45 63 46
REMARK SMILES IDX 43 47 62 48 44 49 47 50 61 51 80 52 45 53 46 54 60 56 81 57
REMARK SMILES IDX 48 58 32 59 33 60 41 61 34 62 40 63 42 64 39 65 35 66 36 67
REMARK SMILES IDX 37 68 38 69 64 70 65 71 73 72 66 73 72 74 74 75 71 76 67 77
REMARK SMILES IDX 68 78 69 79 70 80 49 81 50 82 58 83 51 84 57 85 59 86 56 87
REMARK SMILES IDX 52 88 53 89 54 90 55 91
REMARK H PARENT 7 13 6 20 79 44 47 55
REMARK Flexibility Score: inf
ROOT
ATOM      1  C   UNL     1      -7.349  -7.128   2.756  1.00  0.00     0.202 C 
ENDROOT
BRANCH   1   2
ATOM      2  C   UNL     1      -6.245  -6.558   3.652  1.00  0.00     0.261 C 
BRANCH   2   3
ATOM      3  O   UNL     1      -5.448  -5.592   2.948  1.00  0.00    -0.460 OA
BRANCH   3   4
ATOM      4  C   UNL     1      -4.197  -5.998   2.631  1.00  0.00     0.338 C 
ATOM      5  O   UNL     1      -3.642  -7.027   2.994  1.00  0.00    -0.246 OA
BRANCH   4   6
ATOM      6  C   UNL     1      -3.599  -5.084   1.634  1.00  0.00     0.060 A 
ATOM      7  C   UNL     1      -2.307  -3.431  -0.250  1.00  0.00     0.034 A 
ATOM      8  C   UNL     1      -2.079  -4.810  -0.235  1.00  0.00     0.026 A 
ATOM      9  C   UNL     1      -3.235  -2.906   0.662  1.00  0.00     0.026 A 
ATOM     10  C   UNL     1      -2.708  -5.630   0.704  1.00  0.00     0.018 A 
ATOM     11  C   UNL     1      -3.891  -3.721   1.591  1.00  0.00     0.018 A 
BRANCH   7  12
ATOM     12  N   UNL     1      -1.539  -2.632  -1.078  1.00  0.00    -0.380 N 
ATOM     13  H   UNL     1      -1.325  -2.950  -1.985  1.00  0.00     0.160 HD
BRANCH  12  14
ATOM     14  C   UNL     1      -1.037  -1.327  -0.643  1.00  0.00     0.107 C 
BRANCH  14  15
ATOM     15  C   UNL     1      -1.511  -0.179  -1.573  1.00  0.00     0.007 C 
ATOM     16  C   UNL     1      -2.797  -0.475  -2.351  1.00  0.00     0.009 C 
ATOM     17  C   UNL     1      -1.723   1.090  -0.734  1.00  0.00     0.009 C 
ENDBRANCH  14  15
BRANCH  14  18
ATOM     18  C   UNL     1       0.509  -1.391  -0.553  1.00  0.00     0.181 C 
BRANCH  18  19
ATOM     19  O   UNL     1       1.109  -1.712  -1.810  1.00  0.00    -0.394 OA
ATOM     20  H   UNL     1       0.803  -2.586  -2.099  1.00  0.00     0.210 HD
ENDBRANCH  18  19
ENDBRANCH  14  18
ENDBRANCH  12  14
ENDBRANCH   7  12
ENDBRANCH   4   6
ENDBRANCH   3   4
ENDBRANCH   2   3
ENDBRANCH   1   2
BRANCH   1  21
ATOM     21  O   UNL     1      -6.909  -7.852   1.605  1.00  0.00    -0.374 OA
BRANCH  21  22
ATOM     22  C   UNL     1      -6.561  -7.080   0.454  1.00  0.00     0.202 C 
BRANCH  22  23
ATOM     23  C   UNL     1      -7.723  -6.586  -0.416  1.00  0.00     0.261 C 
BRANCH  23  24
ATOM     24  O   UNL     1      -8.542  -5.622   0.271  1.00  0.00    -0.460 OA
BRANCH  24  25
ATOM     25  C   UNL     1      -9.769  -6.074   0.622  1.00  0.00     0.338 C 
ATOM     26  O   UNL     1     -10.259  -7.160   0.338  1.00  0.00    -0.246 OA
BRANCH  25  27
ATOM     27  C   UNL     1     -10.401  -5.144   1.577  1.00  0.00     0.060 A 
ATOM     28  C   UNL     1     -10.910  -5.691   2.761  1.00  0.00     0.016 A 
ATOM     29  C   UNL     1     -10.551  -3.782   1.305  1.00  0.00     0.016 A 
ATOM     30  C   UNL     1     -11.615  -4.888   3.655  1.00  0.00     0.010 A 
ATOM     31  C   UNL     1     -11.264  -2.977   2.203  1.00  0.00     0.010 A 
ATOM     32  C   UNL     1     -11.828  -3.534   3.366  1.00  0.00    -0.014 A 
BRANCH  32  33
ATOM     33  C   UNL     1     -12.747  -2.748   4.228  1.00  0.00     0.031 A 
ATOM     34  C   UNL     1     -14.161  -2.509   3.771  1.00  0.00     0.074 A 
ATOM     35  C   UNL     1     -12.341  -2.306   5.432  1.00  0.00     0.049 A 
ATOM     36  N   UNL     1     -15.135  -1.878   4.375  1.00  0.00    -0.248 NA
ATOM     37  C   UNL     1     -14.523  -3.054   2.453  1.00  0.00     0.031 C 
ATOM     38  C   UNL     1     -11.007  -2.507   5.997  1.00  0.00     0.029 A 
ATOM     39  N   UNL     1     -13.012  -1.601   6.400  1.00  0.00    -0.354 N 
ATOM     40  C   UNL     1     -16.227  -1.953   3.517  1.00  0.00     0.074 A 
ATOM     41  C   UNL     1     -15.779  -2.651   2.330  1.00  0.00     0.031 C 
ATOM     42  C   UNL     1     -10.959  -1.940   7.214  1.00  0.00     0.029 A 
ATOM     43  C   UNL     1     -12.244  -1.308   7.502  1.00  0.00     0.049 A 
ATOM     44  H   UNL     1     -13.955  -1.331   6.313  1.00  0.00     0.167 HD
ATOM     45  C   UNL     1     -17.489  -1.493   3.706  1.00  0.00     0.034 A 
ATOM     46  C   UNL     1     -12.540  -0.597   8.609  1.00  0.00     0.034 A 
ATOM     47  C   UNL     1     -17.918  -0.786   4.890  1.00  0.00     0.049 A 
ATOM     48  C   UNL     1     -13.930  -0.028   8.763  1.00  0.00     0.074 A 
ATOM     49  C   UNL     1     -19.176  -0.292   5.192  1.00  0.00     0.029 A 
ATOM     50  N   UNL     1     -17.098  -0.458   5.963  1.00  0.00    -0.354 N 
ATOM     51  N   UNL     1     -14.959  -0.124   7.952  1.00  0.00    -0.248 NA
ATOM     52  C   UNL     1     -14.200   0.734   9.989  1.00  0.00     0.031 C 
ATOM     53  C   UNL     1     -19.098   0.396   6.408  1.00  0.00     0.029 A 
ATOM     54  C   UNL     1     -17.813   0.263   6.909  1.00  0.00     0.049 A 
ATOM     55  H   UNL     1     -16.148  -0.703   6.042  1.00  0.00     0.167 HD
ATOM     56  C   UNL     1     -16.005   0.544   8.586  1.00  0.00     0.074 A 
ATOM     57  C   UNL     1     -15.487   1.015   9.854  1.00  0.00     0.031 C 
ATOM     58  C   UNL     1     -17.279   0.749   8.161  1.00  0.00     0.034 A 
BRANCH  45  59
ATOM     59  C   UNL     1     -18.479  -1.698   2.583  1.00  0.00     0.023 A 
ATOM     60  C   UNL     1     -18.884  -2.981   2.175  1.00  0.00     0.031 A 
ATOM     61  C   UNL     1     -19.007  -0.592   1.893  1.00  0.00     0.131 A 
ATOM     62  C   UNL     1     -19.734  -3.128   1.068  1.00  0.00     0.055 A 
ATOM     63  C   UNL     1     -19.914  -0.742   0.842  1.00  0.00     0.041 A 
ATOM     64  F   UNL     1     -18.640   0.657   2.221  1.00  0.00    -0.206 F 
ATOM     65  C   UNL     1     -20.272  -2.017   0.414  1.00  0.00     0.022 A 
BRANCH  62  66
ATOM     66  S   UNL     1     -20.019  -4.793   0.406  1.00  0.00     0.124 S 
ATOM     67  O   UNL     1     -18.659  -5.223   0.092  1.00  0.00    -0.237 OA
ATOM     68  O   UNL     1     -20.662  -5.472   1.525  1.00  0.00    -0.237 OA
ATOM     69  O   UNL     1     -20.873  -4.559  -0.757  1.00  0.00    -0.744 OA
ENDBRANCH  62  66
ENDBRANCH  45  59
BRANCH  46  70
ATOM     70  C   UNL     1     -11.499  -0.346   9.648  1.00  0.00     0.023 A 
ATOM     71  C   UNL     1     -11.643  -0.830  10.957  1.00  0.00     0.031 A 
ATOM     72  C   UNL     1     -10.368   0.438   9.355  1.00  0.00     0.131 A 
ATOM     73  C   UNL     1     -10.698  -0.486  11.938  1.00  0.00     0.055 A 
ATOM     74  C   UNL     1      -9.403   0.732  10.320  1.00  0.00     0.041 A 
ATOM     75  F   UNL     1     -10.182   0.928   8.119  1.00  0.00    -0.206 F 
ATOM     76  C   UNL     1      -9.573   0.280  11.625  1.00  0.00     0.022 A 
BRANCH  73  77
ATOM     77  S   UNL     1     -11.008  -0.982  13.655  1.00  0.00     0.124 S 
ATOM     78  O   UNL     1     -12.296  -0.352  13.918  1.00  0.00    -0.237 OA
ATOM     79  O   UNL     1     -11.013  -2.437  13.553  1.00  0.00    -0.237 OA
ATOM     80  O   UNL     1      -9.874  -0.414  14.382  1.00  0.00    -0.744 OA
ENDBRANCH  73  77
ENDBRANCH  46  70
BRANCH  58  81
ATOM     81  C   UNL     1     -18.202   1.490   9.101  1.00  0.00     0.023 A 
ATOM     82  C   UNL     1     -17.979   2.835   9.448  1.00  0.00     0.031 A 
ATOM     83  C   UNL     1     -19.299   0.833   9.685  1.00  0.00     0.131 A 
ATOM     84  C   UNL     1     -18.795   3.456  10.405  1.00  0.00     0.055 A 
ATOM     85  C   UNL     1     -20.150   1.477  10.585  1.00  0.00     0.041 A 
ATOM     86  F   UNL     1     -19.561  -0.451   9.393  1.00  0.00    -0.206 F 
ATOM     87  C   UNL     1     -19.889   2.791  10.964  1.00  0.00     0.022 A 
BRANCH  84  88
ATOM     88  S   UNL     1     -18.336   5.107  11.001  1.00  0.00     0.124 S 
ATOM     89  O   UNL     1     -16.977   4.887  11.488  1.00  0.00    -0.237 OA
ATOM     90  O   UNL     1     -18.457   5.918   9.795  1.00  0.00    -0.237 OA
ATOM     91  O   UNL     1     -19.328   5.386  12.038  1.00  0.00    -0.744 OA
ENDBRANCH  84  88
ENDBRANCH  58  81
ENDBRANCH  32  33
ENDBRANCH  25  27
ENDBRANCH  24  25
ENDBRANCH  23  24
ENDBRANCH  22  23
ENDBRANCH  21  22
ENDBRANCH   1  21
TORSDOF 22
