REMARK SMILES O=C(Cc1ccc(NC(=O)C2CCCC2)cc1)OCCOCCOC(=O)c1ccc(-c2c3nc(c(-c4cc(S(=O)(=O)[O-])ccc4F)c4ccc([nH]4)c(-c4cc(S(=O)(=O)[O-])ccc4F)c4nc(c(-c5cc(S(=O)(=O)[O-])ccc5F)c5ccc2[nH]5)C=C4)C=C3)cc1
REMARK SMILES IDX 21 1 20 2 19 3 18 4 2 5 1 6 3 7 4 8 5 9 17 10 6 11 16 12
REMARK SMILES IDX 7 13 8 14 9 15 10 17 11 18 12 19 15 20 13 21 14 22 22 23
REMARK SMILES IDX 23 24 24 25 25 26 26 27 27 28 28 29 89 30 29 31 88 32 30 33
REMARK SMILES IDX 31 34 32 35 82 36 33 37 87 38 81 39 83 40 34 41 86 42 80 43
REMARK SMILES IDX 79 44 35 46 67 47 47 48 66 49 48 50 51 51 65 52 84 53 49 54
REMARK SMILES IDX 50 55 64 57 85 58 52 59 36 60 37 61 45 62 38 63 44 64 46 65
REMARK SMILES IDX 43 66 39 67 40 68 41 69 42 70 68 71 69 72 77 73 70 74 76 75
REMARK SMILES IDX 78 76 75 77 71 78 72 79 73 80 74 81 53 82 54 83 62 84 55 85
REMARK SMILES IDX 61 86 63 87 60 88 56 89 57 90 58 91 59 92
REMARK H PARENT 8 16 83 45 51 56
REMARK Flexibility Score: inf
ROOT
ATOM      1  O   UNL     1       4.024  -1.378  -0.581  1.00  0.00    -0.374 OA
ENDROOT
BRANCH   1   2
ATOM      2  C   UNL     1       4.396  -0.786   0.660  1.00  0.00     0.202 C 
BRANCH   2   3
ATOM      3  C   UNL     1       3.610   0.440   1.141  1.00  0.00     0.261 C 
BRANCH   3   4
ATOM      4  O   UNL     1       2.213   0.475   0.800  1.00  0.00    -0.463 OA
BRANCH   4   5
ATOM      5  C   UNL     1       1.614   0.997  -0.295  1.00  0.00     0.310 C 
ATOM      6  O   UNL     1       0.394   1.174  -0.262  1.00  0.00    -0.252 OA
BRANCH   5   7
ATOM      7  C   UNL     1       2.355   1.218  -1.599  1.00  0.00     0.158 C 
BRANCH   7   8
ATOM      8  C   UNL     1       3.415   2.279  -1.598  1.00  0.00    -0.037 A 
ATOM      9  C   UNL     1       4.700   1.888  -1.273  1.00  0.00     0.006 A 
ATOM     10  C   UNL     1       3.174   3.640  -1.809  1.00  0.00     0.006 A 
ATOM     11  C   UNL     1       5.610   2.838  -0.880  1.00  0.00     0.026 A 
ATOM     12  C   UNL     1       4.239   4.558  -1.732  1.00  0.00     0.026 A 
ATOM     13  C   UNL     1       5.497   4.125  -1.309  1.00  0.00     0.041 A 
BRANCH  13  14
ATOM     14  N   UNL     1       6.624   4.943  -1.347  1.00  0.00    -0.326 N 
ATOM     15  C   UNL     1       7.965   4.691  -1.326  1.00  0.00     0.227 C 
ATOM     16  H   UNL     1       6.408   5.902  -1.399  1.00  0.00     0.169 HD
ATOM     17  O   UNL     1       8.655   5.724  -1.411  1.00  0.00    -0.274 OA
BRANCH  15  18
ATOM     18  C   UNL     1       8.732   3.331  -1.179  1.00  0.00     0.079 C 
ATOM     19  C   UNL     1       8.237   1.916  -1.506  1.00  0.00     0.013 C 
ATOM     20  C   UNL     1       9.948   3.398  -2.135  1.00  0.00     0.013 C 
ATOM     21  C   UNL     1       9.483   1.065  -1.668  1.00  0.00     0.001 C 
ATOM     22  C   UNL     1      10.493   1.982  -2.310  1.00  0.00     0.001 C 
ENDBRANCH  15  18
ENDBRANCH  13  14
ENDBRANCH   7   8
ENDBRANCH   5   7
ENDBRANCH   4   5
ENDBRANCH   3   4
ENDBRANCH   2   3
ENDBRANCH   1   2
BRANCH   1  23
ATOM     23  C   UNL     1       2.851  -2.197  -0.562  1.00  0.00     0.202 C 
BRANCH  23  24
ATOM     24  C   UNL     1       2.997  -3.621  -0.009  1.00  0.00     0.261 C 
BRANCH  24  25
ATOM     25  O   UNL     1       3.389  -3.635   1.371  1.00  0.00    -0.460 OA
BRANCH  25  26
ATOM     26  C   UNL     1       4.702  -3.897   1.586  1.00  0.00     0.338 C 
ATOM     27  O   UNL     1       5.534  -4.205   0.744  1.00  0.00    -0.246 OA
BRANCH  26  28
ATOM     28  C   UNL     1       5.052  -3.516   2.970  1.00  0.00     0.060 A 
ATOM     29  C   UNL     1       6.239  -2.795   3.167  1.00  0.00     0.016 A 
ATOM     30  C   UNL     1       4.231  -3.840   4.053  1.00  0.00     0.016 A 
ATOM     31  C   UNL     1       6.643  -2.453   4.454  1.00  0.00     0.010 A 
ATOM     32  C   UNL     1       4.640  -3.502   5.344  1.00  0.00     0.010 A 
ATOM     33  C   UNL     1       5.869  -2.848   5.551  1.00  0.00    -0.014 A 
BRANCH  33  34
ATOM     34  C   UNL     1       6.433  -2.762   6.918  1.00  0.00     0.031 A 
ATOM     35  C   UNL     1       6.985  -4.018   7.535  1.00  0.00     0.074 A 
ATOM     36  C   UNL     1       6.466  -1.595   7.585  1.00  0.00     0.049 A 
ATOM     37  N   UNL     1       7.454  -4.219   8.738  1.00  0.00    -0.248 NA
ATOM     38  C   UNL     1       6.998  -5.213   6.675  1.00  0.00     0.031 C 
ATOM     39  C   UNL     1       6.003  -0.311   7.060  1.00  0.00     0.029 A 
ATOM     40  N   UNL     1       6.899  -1.305   8.853  1.00  0.00    -0.354 N 
ATOM     41  C   UNL     1       7.803  -5.565   8.785  1.00  0.00     0.074 A 
ATOM     42  C   UNL     1       7.455  -6.138   7.504  1.00  0.00     0.031 C 
ATOM     43  C   UNL     1       6.168   0.629   8.007  1.00  0.00     0.029 A 
ATOM     44  C   UNL     1       6.702   0.006   9.216  1.00  0.00     0.049 A 
ATOM     45  H   UNL     1       7.313  -1.973   9.447  1.00  0.00     0.167 HD
ATOM     46  C   UNL     1       8.370  -6.254   9.805  1.00  0.00     0.034 A 
ATOM     47  C   UNL     1       6.900   0.620  10.400  1.00  0.00     0.034 A 
ATOM     48  C   UNL     1       8.699  -5.659  11.077  1.00  0.00     0.049 A 
ATOM     49  C   UNL     1       7.452  -0.188  11.552  1.00  0.00     0.074 A 
ATOM     50  C   UNL     1       9.290  -6.252  12.178  1.00  0.00     0.029 A 
ATOM     51  N   UNL     1       8.450  -4.337  11.424  1.00  0.00    -0.354 N 
ATOM     52  N   UNL     1       7.787  -1.459  11.586  1.00  0.00    -0.248 NA
ATOM     53  C   UNL     1       7.661   0.522  12.819  1.00  0.00     0.031 C 
ATOM     54  C   UNL     1       9.321  -5.314  13.215  1.00  0.00     0.029 A 
ATOM     55  C   UNL     1       8.839  -4.106  12.734  1.00  0.00     0.049 A 
ATOM     56  H   UNL     1       8.054  -3.662  10.826  1.00  0.00     0.167 HD
ATOM     57  C   UNL     1       8.278  -1.688  12.870  1.00  0.00     0.074 A 
ATOM     58  C   UNL     1       8.208  -0.422  13.570  1.00  0.00     0.031 C 
ATOM     59  C   UNL     1       8.752  -2.837  13.419  1.00  0.00     0.034 A 
BRANCH  46  60
ATOM     60  C   UNL     1       8.610  -7.731   9.600  1.00  0.00     0.023 A 
ATOM     61  C   UNL     1       9.483  -8.214   8.609  1.00  0.00     0.031 A 
ATOM     62  C   UNL     1       7.927  -8.674  10.390  1.00  0.00     0.131 A 
ATOM     63  C   UNL     1       9.595  -9.595   8.386  1.00  0.00     0.055 A 
ATOM     64  C   UNL     1       8.109 -10.048  10.220  1.00  0.00     0.041 A 
ATOM     65  F   UNL     1       7.058  -8.276  11.332  1.00  0.00    -0.206 F 
ATOM     66  C   UNL     1       8.936 -10.516   9.204  1.00  0.00     0.022 A 
BRANCH  63  67
ATOM     67  S   UNL     1      10.493 -10.167   6.918  1.00  0.00     0.124 S 
ATOM     68  O   UNL     1       9.753  -9.507   5.844  1.00  0.00    -0.237 OA
ATOM     69  O   UNL     1      11.843  -9.671   7.161  1.00  0.00    -0.237 OA
ATOM     70  O   UNL     1      10.342 -11.619   6.967  1.00  0.00    -0.744 OA
ENDBRANCH  63  67
ENDBRANCH  46  60
BRANCH  47  71
ATOM     71  C   UNL     1       6.542   2.057  10.577  1.00  0.00     0.023 A 
ATOM     72  C   UNL     1       7.516   3.015  10.896  1.00  0.00     0.031 A 
ATOM     73  C   UNL     1       5.205   2.486  10.477  1.00  0.00     0.131 A 
ATOM     74  C   UNL     1       7.136   4.343  11.149  1.00  0.00     0.055 A 
ATOM     75  C   UNL     1       4.840   3.819  10.672  1.00  0.00     0.041 A 
ATOM     76  F   UNL     1       4.231   1.611  10.179  1.00  0.00    -0.206 F 
ATOM     77  C   UNL     1       5.807   4.755  11.024  1.00  0.00     0.022 A 
BRANCH  74  78
ATOM     78  S   UNL     1       8.394   5.508  11.740  1.00  0.00     0.124 S 
ATOM     79  O   UNL     1       8.863   4.847  12.953  1.00  0.00    -0.237 OA
ATOM     80  O   UNL     1       9.329   5.535  10.621  1.00  0.00    -0.237 OA
ATOM     81  O   UNL     1       7.641   6.743  11.952  1.00  0.00    -0.744 OA
ENDBRANCH  74  78
ENDBRANCH  47  71
BRANCH  59  82
ATOM     82  C   UNL     1       9.280  -2.759  14.833  1.00  0.00     0.023 A 
ATOM     83  C   UNL     1       8.444  -2.470  15.925  1.00  0.00     0.031 A 
ATOM     84  C   UNL     1      10.647  -2.977  15.087  1.00  0.00     0.131 A 
ATOM     85  C   UNL     1       8.993  -2.345  17.210  1.00  0.00     0.055 A 
ATOM     86  C   UNL     1      11.174  -2.923  16.377  1.00  0.00     0.041 A 
ATOM     87  F   UNL     1      11.493  -3.254  14.082  1.00  0.00    -0.206 F 
ATOM     88  C   UNL     1      10.348  -2.591  17.447  1.00  0.00     0.022 A 
BRANCH  85  89
ATOM     89  S   UNL     1       7.931  -1.751  18.555  1.00  0.00     0.124 S 
ATOM     90  O   UNL     1       7.481  -0.463  18.038  1.00  0.00    -0.237 OA
ATOM     91  O   UNL     1       6.916  -2.796  18.636  1.00  0.00    -0.237 OA
ATOM     92  O   UNL     1       8.837  -1.677  19.700  1.00  0.00    -0.744 OA
ENDBRANCH  85  89
ENDBRANCH  59  82
ENDBRANCH  33  34
ENDBRANCH  26  28
ENDBRANCH  25  26
ENDBRANCH  24  25
ENDBRANCH  23  24
ENDBRANCH   1  23
TORSDOF 20
