REMARK SMILES CN1C(=O)C(=Cc2ccc(OCc3cccc(C(=O)OCCOCCOC(=O)c4ccc(-c5c6nc(c(-c7cc(S(=O)(=O)[O-])ccc7F)c7ccc([nH]7)c(-c7cc(S(=O)(=O)[O-])ccc7F)c7nc(c(-c8cc(S(=O)(=O)[O-])ccc8F)c8ccc5[nH]8)C=C7)C=C6)cc4)c3)c(Cl)c2)C(=O)N(C)C1=S
REMARK SMILES IDX 22 1 21 2 20 3 18 4 19 5 17 6 13 7 14 8 92 9 15 10 16 11
REMARK SMILES IDX 12 12 11 13 10 14 7 15 8 16 95 17 9 18 93 19 94 20 6 21 1 22
REMARK SMILES IDX 2 23 3 24 100 25 4 26 5 27 98 28 101 29 96 30 99 31 97 32
REMARK SMILES IDX 23 33 24 34 25 35 26 36 27 37 28 38 29 39 30 40 91 41 31 42
REMARK SMILES IDX 90 43 32 44 33 45 34 46 84 47 35 48 89 49 83 50 85 51 36 52
REMARK SMILES IDX 88 53 82 54 81 55 37 57 69 58 49 59 68 60 50 61 53 62 67 63
REMARK SMILES IDX 86 64 51 65 52 66 66 68 87 69 54 70 38 71 39 72 47 73 40 74
REMARK SMILES IDX 46 75 48 76 45 77 41 78 42 79 43 80 44 81 70 82 71 83 79 84
REMARK SMILES IDX 72 85 78 86 80 87 77 88 73 89 74 90 75 91 76 92 55 93 56 94
REMARK SMILES IDX 64 95 57 96 63 97 65 98 62 99 58 100 59 101 60 102 61 103
REMARK H PARENT 85 56 53 67
REMARK Flexibility Score: inf
ROOT
ATOM      1  C   UNL     1       5.389  13.432  -4.482  1.00  0.00     0.202 C 
ENDROOT
BRANCH   1   2
ATOM      2  C   UNL     1       4.059  12.894  -5.028  1.00  0.00     0.261 C 
BRANCH   2   3
ATOM      3  O   UNL     1       3.729  11.623  -4.444  1.00  0.00    -0.460 OA
BRANCH   3   4
ATOM      4  C   UNL     1       3.751  10.567  -5.293  1.00  0.00     0.338 C 
ATOM      5  O   UNL     1       3.836  10.596  -6.511  1.00  0.00    -0.246 OA
BRANCH   4   6
ATOM      6  C   UNL     1       3.917   9.329  -4.499  1.00  0.00     0.060 A 
ATOM      7  C   UNL     1       3.485   7.960  -2.541  1.00  0.00    -0.010 A 
ATOM      8  C   UNL     1       4.507   7.091  -2.956  1.00  0.00     0.007 A 
ATOM      9  C   UNL     1       3.234   9.117  -3.298  1.00  0.00     0.023 A 
ATOM     10  C   UNL     1       5.173   7.293  -4.165  1.00  0.00     0.001 A 
ATOM     11  C   UNL     1       4.863   8.400  -4.947  1.00  0.00     0.016 A 
BRANCH   7  12
ATOM     12  C   UNL     1       2.626   7.690  -1.319  1.00  0.00     0.265 C 
BRANCH  12  13
ATOM     13  O   UNL     1       2.556   6.341  -0.846  1.00  0.00    -0.487 OA
BRANCH  13  14
ATOM     14  C   UNL     1       2.298   5.300  -1.693  1.00  0.00     0.138 A 
ATOM     15  C   UNL     1       2.149   2.932  -3.204  1.00  0.00    -0.023 A 
ATOM     16  C   UNL     1       2.836   2.943  -1.987  1.00  0.00     0.012 A 
ATOM     17  C   UNL     1       1.540   4.100  -3.663  1.00  0.00     0.032 A 
ATOM     18  C   UNL     1       2.895   4.114  -1.237  1.00  0.00     0.048 A 
ATOM     19  C   UNL     1       1.584   5.276  -2.899  1.00  0.00     0.083 A 
ATOM     20  Cl  UNL     1       0.648   6.591  -3.512  1.00  0.00    -0.080 Cl
BRANCH  15  21
ATOM     21  C   UNL     1       1.970   1.676  -3.933  1.00  0.00     0.027 C 
ATOM     22  C   UNL     1       0.475  -0.126   0.026  1.00  0.00     0.156 C 
ATOM     23  N   UNL     1       0.593  -0.386  -1.411  1.00  0.00    -0.288 N 
ATOM     24  C   UNL     1       0.484   0.749  -2.200  1.00  0.00     0.265 C 
ATOM     25  C   UNL     1       0.799  -1.680  -1.925  1.00  0.00     0.185 C 
ATOM     26  O   UNL     1      -0.151   1.750  -1.887  1.00  0.00    -0.268 OA
ATOM     27  C   UNL     1       1.224   0.657  -3.463  1.00  0.00     0.106 C 
ATOM     28  N   UNL     1       1.181  -1.740  -3.286  1.00  0.00    -0.288 N 
ATOM     29  S   UNL     1       0.589  -3.064  -0.968  1.00  0.00    -0.040 S 
ATOM     30  C   UNL     1       1.326  -0.639  -4.135  1.00  0.00     0.265 C 
ATOM     31  C   UNL     1       1.572  -2.993  -3.935  1.00  0.00     0.156 C 
ATOM     32  O   UNL     1       1.591  -0.721  -5.333  1.00  0.00    -0.268 OA
ENDBRANCH  15  21
ENDBRANCH  13  14
ENDBRANCH  12  13
ENDBRANCH   7  12
ENDBRANCH   4   6
ENDBRANCH   3   4
ENDBRANCH   2   3
ENDBRANCH   1   2
BRANCH   1  33
ATOM     33  O   UNL     1       6.565  12.663  -4.746  1.00  0.00    -0.374 OA
BRANCH  33  34
ATOM     34  C   UNL     1       6.781  11.499  -3.951  1.00  0.00     0.202 C 
BRANCH  34  35
ATOM     35  C   UNL     1       7.296  11.681  -2.517  1.00  0.00     0.261 C 
BRANCH  35  36
ATOM     36  O   UNL     1       6.411  12.456  -1.694  1.00  0.00    -0.460 OA
BRANCH  36  37
ATOM     37  C   UNL     1       6.849  13.716  -1.450  1.00  0.00     0.338 C 
ATOM     38  O   UNL     1       7.914  14.201  -1.796  1.00  0.00    -0.246 OA
BRANCH  37  39
ATOM     39  C   UNL     1       5.769  14.523  -0.852  1.00  0.00     0.060 A 
ATOM     40  C   UNL     1       5.443  15.723  -1.493  1.00  0.00     0.016 A 
ATOM     41  C   UNL     1       5.139  14.160   0.341  1.00  0.00     0.016 A 
ATOM     42  C   UNL     1       4.522  16.592  -0.916  1.00  0.00     0.010 A 
ATOM     43  C   UNL     1       4.213  15.037   0.920  1.00  0.00     0.010 A 
ATOM     44  C   UNL     1       3.925  16.273   0.312  1.00  0.00    -0.014 A 
BRANCH  44  45
ATOM     45  C   UNL     1       3.086  17.297   0.986  1.00  0.00     0.031 A 
ATOM     46  C   UNL     1       3.647  18.071   2.148  1.00  0.00     0.074 A 
ATOM     47  C   UNL     1       1.860  17.583   0.510  1.00  0.00     0.049 A 
ATOM     48  N   UNL     1       3.106  19.044   2.836  1.00  0.00    -0.248 NA
ATOM     49  C   UNL     1       4.997  17.697   2.594  1.00  0.00     0.031 C 
ATOM     50  C   UNL     1       1.225  16.919  -0.629  1.00  0.00     0.029 A 
ATOM     51  N   UNL     1       0.936  18.513   0.914  1.00  0.00    -0.354 N 
ATOM     52  C   UNL     1       4.048  19.401   3.796  1.00  0.00     0.074 A 
ATOM     53  C   UNL     1       5.173  18.505   3.629  1.00  0.00     0.031 C 
ATOM     54  C   UNL     1       0.021  17.475  -0.842  1.00  0.00     0.029 A 
ATOM     55  C   UNL     1      -0.219  18.504   0.167  1.00  0.00     0.049 A 
ATOM     56  H   UNL     1       1.085  19.129   1.667  1.00  0.00     0.167 HD
ATOM     57  C   UNL     1       3.985  20.394   4.719  1.00  0.00     0.034 A 
ATOM     58  C   UNL     1      -1.347  19.232   0.291  1.00  0.00     0.034 A 
ATOM     59  C   UNL     1       2.848  21.271   4.878  1.00  0.00     0.049 A 
ATOM     60  C   UNL     1      -1.422  20.279   1.376  1.00  0.00     0.074 A 
ATOM     61  C   UNL     1       2.688  22.322   5.765  1.00  0.00     0.029 A 
ATOM     62  N   UNL     1       1.668  21.190   4.148  1.00  0.00    -0.354 N 
ATOM     63  N   UNL     1      -0.513  20.625   2.259  1.00  0.00    -0.248 NA
ATOM     64  C   UNL     1      -2.673  21.040   1.469  1.00  0.00     0.031 C 
ATOM     65  C   UNL     1       1.386  22.818   5.631  1.00  0.00     0.029 A 
ATOM     66  C   UNL     1       0.761  22.142   4.595  1.00  0.00     0.049 A 
ATOM     67  H   UNL     1       1.499  20.551   3.419  1.00  0.00     0.167 HD
ATOM     68  C   UNL     1      -1.077  21.664   2.996  1.00  0.00     0.074 A 
ATOM     69  C   UNL     1      -2.389  21.905   2.431  1.00  0.00     0.031 C 
ATOM     70  C   UNL     1      -0.559  22.356   4.045  1.00  0.00     0.034 A 
BRANCH  57  71
ATOM     71  C   UNL     1       5.158  20.545   5.661  1.00  0.00     0.023 A 
ATOM     72  C   UNL     1       6.446  20.871   5.201  1.00  0.00     0.031 A 
ATOM     73  C   UNL     1       4.989  20.338   7.043  1.00  0.00     0.131 A 
ATOM     74  C   UNL     1       7.524  20.910   6.101  1.00  0.00     0.055 A 
ATOM     75  C   UNL     1       6.048  20.462   7.943  1.00  0.00     0.041 A 
ATOM     76  F   UNL     1       3.789  20.000   7.541  1.00  0.00    -0.206 F 
ATOM     77  C   UNL     1       7.329  20.734   7.472  1.00  0.00     0.022 A 
BRANCH  74  78
ATOM     78  S   UNL     1       9.206  21.040   5.435  1.00  0.00     0.124 S 
ATOM     79  O   UNL     1       9.265  19.879   4.551  1.00  0.00    -0.237 OA
ATOM     80  O   UNL     1       9.186  22.343   4.780  1.00  0.00    -0.237 OA
ATOM     81  O   UNL     1      10.053  20.952   6.623  1.00  0.00    -0.744 OA
ENDBRANCH  74  78
ENDBRANCH  57  71
BRANCH  58  82
ATOM     82  C   UNL     1      -2.510  18.982  -0.609  1.00  0.00     0.023 A 
ATOM     83  C   UNL     1      -2.996  19.978  -1.470  1.00  0.00     0.031 A 
ATOM     84  C   UNL     1      -3.188  17.749  -0.580  1.00  0.00     0.131 A 
ATOM     85  C   UNL     1      -4.153  19.742  -2.230  1.00  0.00     0.055 A 
ATOM     86  C   UNL     1      -4.301  17.498  -1.383  1.00  0.00     0.041 A 
ATOM     87  F   UNL     1      -2.768  16.762   0.228  1.00  0.00    -0.206 F 
ATOM     88  C   UNL     1      -4.798  18.504  -2.205  1.00  0.00     0.022 A 
BRANCH  85  89
ATOM     89  S   UNL     1      -4.859  21.113  -3.185  1.00  0.00     0.124 S 
ATOM     90  O   UNL     1      -5.104  22.105  -2.144  1.00  0.00    -0.237 OA
ATOM     91  O   UNL     1      -3.782  21.417  -4.121  1.00  0.00    -0.237 OA
ATOM     92  O   UNL     1      -6.057  20.528  -3.785  1.00  0.00    -0.744 OA
ENDBRANCH  85  89
ENDBRANCH  58  82
BRANCH  70  93
ATOM     93  C   UNL     1      -1.417  23.458   4.626  1.00  0.00     0.023 A 
ATOM     94  C   UNL     1      -2.662  23.188   5.222  1.00  0.00     0.031 A 
ATOM     95  C   UNL     1      -1.008  24.801   4.541  1.00  0.00     0.131 A 
ATOM     96  C   UNL     1      -3.490  24.246   5.628  1.00  0.00     0.055 A 
ATOM     97  C   UNL     1      -1.800  25.845   5.021  1.00  0.00     0.041 A 
ATOM     98  F   UNL     1       0.168  25.125   3.979  1.00  0.00    -0.206 F 
ATOM     99  C   UNL     1      -3.058  25.572   5.550  1.00  0.00     0.022 A 
BRANCH  96 100
ATOM    100  S   UNL     1      -5.194  23.873   6.126  1.00  0.00     0.124 S 
ATOM    101  O   UNL     1      -5.704  23.172   4.953  1.00  0.00    -0.237 OA
ATOM    102  O   UNL     1      -4.998  23.058   7.321  1.00  0.00    -0.237 OA
ATOM    103  O   UNL     1      -5.778  25.192   6.364  1.00  0.00    -0.744 OA
ENDBRANCH  96 100
ENDBRANCH  70  93
ENDBRANCH  44  45
ENDBRANCH  37  39
ENDBRANCH  36  37
ENDBRANCH  35  36
ENDBRANCH  34  35
ENDBRANCH  33  34
ENDBRANCH   1  33
TORSDOF 21
