REMARK SMILES C[C@@H](C(=O)OCCOCCOC(=O)c1ccc(-c2c3nc(c(-c4cc(S(=O)(=O)[O-])ccc4F)c4ccc([nH]4)c(-c4cc(S(=O)(=O)[O-])ccc4F)c4nc(c(-c5cc(S(=O)(=O)[O-])ccc5F)c5ccc2[nH]5)C=C4)C=C3)cc1)c1ccc(-c2cccc(OC(=O)NCCC3CCCCC3)c2)c(F)c1
REMARK SMILES IDX 6 1 5 2 3 3 4 4 2 5 1 6 77 7 78 8 101 9 79 10 99 11 80 12
REMARK SMILES IDX 100 13 81 14 82 15 98 16 83 17 85 18 84 19 86 20 87 21 88 22
REMARK SMILES IDX 89 23 90 25 91 26 92 27 93 28 97 29 94 30 96 31 95 32 7 33
REMARK SMILES IDX 8 34 9 35 10 36 11 37 12 38 13 39 14 40 15 41 76 42 16 43
REMARK SMILES IDX 75 44 17 45 18 46 19 47 69 48 20 49 74 50 68 51 70 52 21 53
REMARK SMILES IDX 73 54 67 55 66 56 22 58 54 59 34 60 53 61 35 62 38 63 52 64
REMARK SMILES IDX 71 65 36 66 37 67 51 69 72 70 39 71 23 72 24 73 32 74 25 75
REMARK SMILES IDX 31 76 33 77 30 78 26 79 27 80 28 81 29 82 55 83 56 84 64 85
REMARK SMILES IDX 57 86 63 87 65 88 62 89 58 90 59 91 60 92 61 93 40 94 41 95
REMARK SMILES IDX 49 96 42 97 48 98 50 99 47 100 43 101 44 102 45 103 46 104
REMARK H PARENT 89 24 70 57 38 68
REMARK Flexibility Score: inf
ROOT
ATOM      1  C   UNL     1       2.354   0.617   4.188  1.00  0.00     0.261 C 
ENDROOT
BRANCH   1   2
ATOM      2  O   UNL     1       2.046   0.093   2.881  1.00  0.00    -0.463 OA
BRANCH   2   3
ATOM      3  C   UNL     1       0.961  -0.726   2.811  1.00  0.00     0.313 C 
ATOM      4  O   UNL     1       0.346  -1.141   3.788  1.00  0.00    -0.252 OA
BRANCH   3   5
ATOM      5  C   UNL     1       0.570  -1.077   1.366  1.00  0.00     0.126 C 
ATOM      6  C   UNL     1       1.330  -0.327   0.269  1.00  0.00     0.025 C 
BRANCH   5   7
ATOM      7  C   UNL     1      -0.946  -0.973   1.194  1.00  0.00    -0.031 A 
ATOM      8  C   UNL     1      -1.607   0.253   1.018  1.00  0.00     0.005 A 
ATOM      9  C   UNL     1      -1.728  -2.123   1.339  1.00  0.00     0.044 A 
ATOM     10  C   UNL     1      -3.006   0.338   1.065  1.00  0.00     0.012 A 
ATOM     11  C   UNL     1      -3.118  -2.035   1.361  1.00  0.00     0.131 A 
ATOM     12  C   UNL     1      -3.790  -0.806   1.264  1.00  0.00     0.018 A 
ATOM     13  F   UNL     1      -3.813  -3.174   1.515  1.00  0.00    -0.206 F 
BRANCH  12  14
ATOM     14  C   UNL     1      -5.246  -0.708   1.464  1.00  0.00    -0.012 A 
ATOM     15  C   UNL     1      -6.080   0.020   0.602  1.00  0.00     0.009 A 
ATOM     16  C   UNL     1      -5.832  -1.334   2.579  1.00  0.00     0.056 A 
ATOM     17  C   UNL     1      -7.457   0.102   0.838  1.00  0.00     0.004 A 
ATOM     18  C   UNL     1      -7.199  -1.239   2.827  1.00  0.00     0.133 A 
ATOM     19  C   UNL     1      -8.018  -0.530   1.950  1.00  0.00     0.047 A 
BRANCH  18  20
ATOM     20  O   UNL     1      -7.846  -1.836   3.937  1.00  0.00    -0.410 OA
BRANCH  20  21
ATOM     21  C   UNL     1      -7.189  -2.341   5.056  1.00  0.00     0.412 C 
ATOM     22  O   UNL     1      -5.976  -2.389   5.240  1.00  0.00    -0.224 OA
ATOM     23  N   UNL     1      -8.022  -2.798   6.033  1.00  0.00    -0.321 N 
ATOM     24  H   UNL     1      -7.586  -3.130   6.850  1.00  0.00     0.167 HD
BRANCH  23  25
ATOM     25  C   UNL     1      -9.466  -2.856   6.020  1.00  0.00     0.119 C 
BRANCH  25  26
ATOM     26  C   UNL     1      -9.963  -4.302   6.045  1.00  0.00     0.025 C 
BRANCH  26  27
ATOM     27  C   UNL     1      -9.530  -5.110   7.289  1.00  0.00    -0.009 C 
ATOM     28  C   UNL     1     -10.175  -4.574   8.578  1.00  0.00     0.003 C 
ATOM     29  C   UNL     1      -9.866  -6.597   7.090  1.00  0.00     0.003 C 
ATOM     30  C   UNL     1      -9.822  -5.426   9.796  1.00  0.00     0.000 C 
ATOM     31  C   UNL     1      -9.492  -7.431   8.313  1.00  0.00     0.000 C 
ATOM     32  C   UNL     1     -10.157  -6.896   9.575  1.00  0.00     0.000 C 
ENDBRANCH  26  27
ENDBRANCH  25  26
ENDBRANCH  23  25
ENDBRANCH  20  21
ENDBRANCH  18  20
ENDBRANCH  12  14
ENDBRANCH   5   7
ENDBRANCH   3   5
ENDBRANCH   2   3
ENDBRANCH   1   2
BRANCH   1  33
ATOM     33  C   UNL     1       2.324   2.150   4.205  1.00  0.00     0.202 C 
BRANCH  33  34
ATOM     34  O   UNL     1       1.075   2.795   3.954  1.00  0.00    -0.374 OA
BRANCH  34  35
ATOM     35  C   UNL     1       0.546   2.715   2.637  1.00  0.00     0.202 C 
BRANCH  35  36
ATOM     36  C   UNL     1       1.170   3.589   1.540  1.00  0.00     0.261 C 
BRANCH  36  37
ATOM     37  O   UNL     1       2.575   3.358   1.359  1.00  0.00    -0.460 OA
BRANCH  37  38
ATOM     38  C   UNL     1       3.359   4.345   1.865  1.00  0.00     0.338 C 
ATOM     39  O   UNL     1       2.985   5.391   2.368  1.00  0.00    -0.246 OA
BRANCH  38  40
ATOM     40  C   UNL     1       4.764   3.900   1.914  1.00  0.00     0.060 A 
ATOM     41  C   UNL     1       5.404   3.946   3.159  1.00  0.00     0.016 A 
ATOM     42  C   UNL     1       5.462   3.522   0.766  1.00  0.00     0.016 A 
ATOM     43  C   UNL     1       6.763   3.663   3.254  1.00  0.00     0.010 A 
ATOM     44  C   UNL     1       6.830   3.247   0.863  1.00  0.00     0.010 A 
ATOM     45  C   UNL     1       7.493   3.354   2.101  1.00  0.00    -0.014 A 
BRANCH  45  46
ATOM     46  C   UNL     1       8.974   3.301   2.176  1.00  0.00     0.031 A 
ATOM     47  C   UNL     1       9.769   4.478   1.680  1.00  0.00     0.074 A 
ATOM     48  C   UNL     1       9.595   2.243   2.727  1.00  0.00     0.049 A 
ATOM     49  N   UNL     1      11.065   4.639   1.618  1.00  0.00    -0.248 NA
ATOM     50  C   UNL     1       8.995   5.626   1.183  1.00  0.00     0.031 C 
ATOM     51  C   UNL     1       8.923   1.075   3.297  1.00  0.00     0.029 A 
ATOM     52  N   UNL     1      10.930   1.980   2.900  1.00  0.00    -0.354 N 
ATOM     53  C   UNL     1      11.264   5.900   1.066  1.00  0.00     0.074 A 
ATOM     54  C   UNL     1       9.954   6.444   0.778  1.00  0.00     0.031 C 
ATOM     55  C   UNL     1       9.852   0.220   3.757  1.00  0.00     0.029 A 
ATOM     56  C   UNL     1      11.181   0.754   3.470  1.00  0.00     0.049 A 
ATOM     57  H   UNL     1      11.641   2.609   2.640  1.00  0.00     0.167 HD
ATOM     58  C   UNL     1      12.434   6.545   0.830  1.00  0.00     0.034 A 
ATOM     59  C   UNL     1      12.351   0.125   3.707  1.00  0.00     0.034 A 
ATOM     60  C   UNL     1      13.730   5.981   1.121  1.00  0.00     0.049 A 
ATOM     61  C   UNL     1      13.640   0.823   3.343  1.00  0.00     0.074 A 
ATOM     62  C   UNL     1      14.977   6.553   0.941  1.00  0.00     0.029 A 
ATOM     63  N   UNL     1      13.948   4.711   1.640  1.00  0.00    -0.354 N 
ATOM     64  N   UNL     1      13.817   2.018   2.825  1.00  0.00    -0.248 NA
ATOM     65  C   UNL     1      14.886   0.091   3.602  1.00  0.00     0.031 C 
ATOM     66  C   UNL     1      15.947   5.599   1.265  1.00  0.00     0.029 A 
ATOM     67  C   UNL     1      15.309   4.466   1.743  1.00  0.00     0.049 A 
ATOM     68  H   UNL     1      13.240   4.077   1.897  1.00  0.00     0.167 HD
ATOM     69  C   UNL     1      15.197   2.192   2.733  1.00  0.00     0.074 A 
ATOM     70  C   UNL     1      15.801   0.986   3.261  1.00  0.00     0.031 C 
ATOM     71  C   UNL     1      15.901   3.254   2.263  1.00  0.00     0.034 A 
BRANCH  58  72
ATOM     72  C   UNL     1      12.363   7.902   0.169  1.00  0.00     0.023 A 
ATOM     73  C   UNL     1      11.741   9.002   0.786  1.00  0.00     0.031 A 
ATOM     74  C   UNL     1      12.912   8.092  -1.112  1.00  0.00     0.131 A 
ATOM     75  C   UNL     1      11.625  10.219   0.095  1.00  0.00     0.055 A 
ATOM     76  C   UNL     1      12.868   9.328  -1.759  1.00  0.00     0.041 A 
ATOM     77  F   UNL     1      13.494   7.073  -1.764  1.00  0.00    -0.206 F 
ATOM     78  C   UNL     1      12.209  10.397  -1.161  1.00  0.00     0.022 A 
BRANCH  75  79
ATOM     79  S   UNL     1      10.573  11.519   0.797  1.00  0.00     0.124 S 
ATOM     80  O   UNL     1       9.289  10.830   0.909  1.00  0.00    -0.237 OA
ATOM     81  O   UNL     1      11.245  11.825   2.054  1.00  0.00    -0.237 OA
ATOM     82  O   UNL     1      10.617  12.577  -0.209  1.00  0.00    -0.744 OA
ENDBRANCH  75  79
ENDBRANCH  58  72
BRANCH  59  83
ATOM     83  C   UNL     1      12.368  -1.253   4.278  1.00  0.00     0.023 A 
ATOM     84  C   UNL     1      12.988  -1.521   5.509  1.00  0.00     0.031 A 
ATOM     85  C   UNL     1      11.819  -2.337   3.569  1.00  0.00     0.131 A 
ATOM     86  C   UNL     1      13.091  -2.844   5.967  1.00  0.00     0.055 A 
ATOM     87  C   UNL     1      11.868  -3.643   4.060  1.00  0.00     0.041 A 
ATOM     88  F   UNL     1      11.220  -2.141   2.384  1.00  0.00    -0.206 F 
ATOM     89  C   UNL     1      12.521  -3.904   5.260  1.00  0.00     0.022 A 
BRANCH  86  90
ATOM     90  S   UNL     1      14.078  -3.172   7.454  1.00  0.00     0.124 S 
ATOM     91  O   UNL     1      15.377  -2.632   7.070  1.00  0.00    -0.237 OA
ATOM     92  O   UNL     1      13.347  -2.426   8.472  1.00  0.00    -0.237 OA
ATOM     93  O   UNL     1      14.020  -4.626   7.586  1.00  0.00    -0.744 OA
ENDBRANCH  86  90
ENDBRANCH  59  83
BRANCH  71  94
ATOM     94  C   UNL     1      17.408   3.178   2.351  1.00  0.00     0.023 A 
ATOM     95  C   UNL     1      18.151   2.235   1.619  1.00  0.00     0.031 A 
ATOM     96  C   UNL     1      18.110   4.063   3.189  1.00  0.00     0.131 A 
ATOM     97  C   UNL     1      19.542   2.159   1.786  1.00  0.00     0.055 A 
ATOM     98  C   UNL     1      19.501   4.029   3.297  1.00  0.00     0.041 A 
ATOM     99  F   UNL     1      17.455   4.982   3.917  1.00  0.00    -0.206 F 
ATOM    100  C   UNL     1      20.224   3.063   2.604  1.00  0.00     0.022 A 
BRANCH  97 101
ATOM    101  S   UNL     1      20.440   0.791   1.003  1.00  0.00     0.124 S 
ATOM    102  O   UNL     1      19.769  -0.375   1.569  1.00  0.00    -0.237 OA
ATOM    103  O   UNL     1      20.204   1.034  -0.416  1.00  0.00    -0.237 OA
ATOM    104  O   UNL     1      21.819   0.988   1.444  1.00  0.00    -0.744 OA
ENDBRANCH  97 101
ENDBRANCH  71  94
ENDBRANCH  45  46
ENDBRANCH  38  40
ENDBRANCH  37  38
ENDBRANCH  36  37
ENDBRANCH  35  36
ENDBRANCH  34  35
ENDBRANCH  33  34
ENDBRANCH   1  33
TORSDOF 24
