REMARK SMILES C[C@@H](CC(=O)OCCOCCOC(=O)c1ccc(-c2c3nc(c(-c4cc(S(=O)(=O)[O-])ccc4F)c4ccc([nH]4)c(-c4cc(S(=O)(=O)[O-])ccc4F)c4nc(c(-c5cc(S(=O)(=O)[O-])ccc5F)c5ccc2[nH]5)C=C4)C=C3)cc1)NC(=O)c1ccc(O)cc1
REMARK SMILES IDX 8 1 7 2 6 3 4 4 5 5 3 6 2 7 1 8 78 9 79 10 80 12 81 13 82 14
REMARK SMILES IDX 87 15 83 16 86 17 84 18 85 19 9 21 10 22 11 23 12 24 13 25
REMARK SMILES IDX 14 26 15 27 16 28 77 29 17 30 76 31 18 32 19 33 20 34 70 35
REMARK SMILES IDX 21 36 75 37 69 38 71 39 22 40 74 41 68 42 67 43 23 45 55 46
REMARK SMILES IDX 35 47 54 48 36 49 39 50 53 51 72 52 37 53 38 54 52 56 73 57
REMARK SMILES IDX 40 58 24 59 25 60 33 61 26 62 32 63 34 64 31 65 27 66 28 67
REMARK SMILES IDX 29 68 30 69 56 70 57 71 65 72 58 73 64 74 66 75 63 76 59 77
REMARK SMILES IDX 60 78 61 79 62 80 41 81 42 82 50 83 43 84 49 85 51 86 48 87
REMARK SMILES IDX 44 88 45 89 46 90 47 91
REMARK H PARENT 78 11 85 20 71 44 39 55
REMARK Flexibility Score: inf
ROOT
ATOM      1  C   UNL     1      -0.652  -4.515   0.927  1.00  0.00     0.202 C 
ENDROOT
BRANCH   1   2
ATOM      2  C   UNL     1       0.792  -4.175   0.556  1.00  0.00     0.261 C 
BRANCH   2   3
ATOM      3  O   UNL     1       0.905  -2.854  -0.009  1.00  0.00    -0.463 OA
BRANCH   3   4
ATOM      4  C   UNL     1       1.565  -2.775  -1.186  1.00  0.00     0.307 C 
ATOM      5  O   UNL     1       2.086  -3.726  -1.762  1.00  0.00    -0.252 OA
BRANCH   4   6
ATOM      6  C   UNL     1       1.604  -1.397  -1.804  1.00  0.00     0.147 C 
BRANCH   6   7
ATOM      7  C   UNL     1       1.007  -0.163  -1.115  1.00  0.00     0.090 C 
ATOM      8  C   UNL     1       1.419   0.025   0.341  1.00  0.00     0.031 C 
BRANCH   7   9
ATOM      9  N   UNL     1      -0.447  -0.082  -1.256  1.00  0.00    -0.349 N 
ATOM     10  C   UNL     1      -1.218   0.673  -2.109  1.00  0.00     0.251 C 
ATOM     11  H   UNL     1      -0.955  -0.659  -0.641  1.00  0.00     0.164 HD
ATOM     12  O   UNL     1      -2.442   0.652  -2.012  1.00  0.00    -0.269 OA
BRANCH  10  13
ATOM     13  C   UNL     1      -0.590   1.558  -3.118  1.00  0.00     0.040 A 
ATOM     14  C   UNL     1      -0.942   2.913  -3.127  1.00  0.00     0.017 A 
ATOM     15  C   UNL     1       0.300   1.065  -4.078  1.00  0.00     0.017 A 
ATOM     16  C   UNL     1      -0.345   3.782  -4.044  1.00  0.00     0.047 A 
ATOM     17  C   UNL     1       0.910   1.938  -4.983  1.00  0.00     0.047 A 
ATOM     18  C   UNL     1       0.592   3.292  -4.948  1.00  0.00     0.115 A 
BRANCH  18  19
ATOM     19  O   UNL     1       1.182   4.179  -5.798  1.00  0.00    -0.508 OA
ATOM     20  H   UNL     1       0.955   5.087  -5.759  1.00  0.00     0.293 HD
ENDBRANCH  18  19
ENDBRANCH  10  13
ENDBRANCH   7   9
ENDBRANCH   6   7
ENDBRANCH   4   6
ENDBRANCH   3   4
ENDBRANCH   2   3
ENDBRANCH   1   2
BRANCH   1  21
ATOM     21  O   UNL     1      -1.570  -4.560  -0.165  1.00  0.00    -0.374 OA
BRANCH  21  22
ATOM     22  C   UNL     1      -1.982  -3.314  -0.733  1.00  0.00     0.202 C 
BRANCH  22  23
ATOM     23  C   UNL     1      -2.847  -2.424   0.168  1.00  0.00     0.261 C 
BRANCH  23  24
ATOM     24  O   UNL     1      -2.086  -1.874   1.267  1.00  0.00    -0.460 OA
BRANCH  24  25
ATOM     25  C   UNL     1      -2.706  -1.990   2.469  1.00  0.00     0.338 C 
ATOM     26  O   UNL     1      -3.853  -2.374   2.665  1.00  0.00    -0.246 OA
BRANCH  25  27
ATOM     27  C   UNL     1      -1.764  -1.777   3.584  1.00  0.00     0.060 A 
ATOM     28  C   UNL     1      -1.529  -2.861   4.440  1.00  0.00     0.016 A 
ATOM     29  C   UNL     1      -1.251  -0.515   3.888  1.00  0.00     0.016 A 
ATOM     30  C   UNL     1      -0.833  -2.674   5.633  1.00  0.00     0.010 A 
ATOM     31  C   UNL     1      -0.552  -0.329   5.092  1.00  0.00     0.010 A 
ATOM     32  C   UNL     1      -0.377  -1.398   5.993  1.00  0.00    -0.014 A 
BRANCH  32  33
ATOM     33  C   UNL     1       0.126  -1.176   7.377  1.00  0.00     0.031 A 
ATOM     34  C   UNL     1      -0.793  -0.566   8.407  1.00  0.00     0.074 A 
ATOM     35  C   UNL     1       1.355  -1.586   7.743  1.00  0.00     0.049 A 
ATOM     36  N   UNL     1      -0.577  -0.324   9.675  1.00  0.00    -0.248 NA
ATOM     37  C   UNL     1      -2.133  -0.182   7.941  1.00  0.00     0.031 C 
ATOM     38  C   UNL     1       2.323  -2.235   6.860  1.00  0.00     0.029 A 
ATOM     39  N   UNL     1       1.995  -1.527   8.957  1.00  0.00    -0.354 N 
ATOM     40  C   UNL     1      -1.755   0.236  10.162  1.00  0.00     0.074 A 
ATOM     41  C   UNL     1      -2.663   0.338   9.038  1.00  0.00     0.031 C 
ATOM     42  C   UNL     1       3.434  -2.516   7.563  1.00  0.00     0.029 A 
ATOM     43  C   UNL     1       3.270  -2.041   8.937  1.00  0.00     0.049 A 
ATOM     44  H   UNL     1       1.579  -1.151   9.766  1.00  0.00     0.167 HD
ATOM     45  C   UNL     1      -2.059   0.617  11.429  1.00  0.00     0.034 A 
ATOM     46  C   UNL     1       4.205  -2.108   9.908  1.00  0.00     0.034 A 
ATOM     47  C   UNL     1      -1.147   0.523  12.544  1.00  0.00     0.049 A 
ATOM     48  C   UNL     1       3.876  -1.596  11.290  1.00  0.00     0.074 A 
ATOM     49  C   UNL     1      -1.364   0.872  13.867  1.00  0.00     0.029 A 
ATOM     50  N   UNL     1       0.159   0.057  12.469  1.00  0.00    -0.354 N 
ATOM     51  N   UNL     1       2.755  -1.077  11.735  1.00  0.00    -0.248 NA
ATOM     52  C   UNL     1       4.937  -1.691  12.302  1.00  0.00     0.031 C 
ATOM     53  C   UNL     1      -0.170   0.685  14.574  1.00  0.00     0.029 A 
ATOM     54  C   UNL     1       0.770   0.144  13.712  1.00  0.00     0.049 A 
ATOM     55  H   UNL     1       0.589  -0.285  11.652  1.00  0.00     0.167 HD
ATOM     56  C   UNL     1       2.969  -0.813  13.087  1.00  0.00     0.074 A 
ATOM     57  C   UNL     1       4.319  -1.243  13.385  1.00  0.00     0.031 C 
ATOM     58  C   UNL     1       2.123  -0.272  14.000  1.00  0.00     0.034 A 
BRANCH  45  59
ATOM     59  C   UNL     1      -3.425   1.219  11.659  1.00  0.00     0.023 A 
ATOM     60  C   UNL     1      -4.604   0.472  11.487  1.00  0.00     0.031 A 
ATOM     61  C   UNL     1      -3.551   2.570  12.032  1.00  0.00     0.131 A 
ATOM     62  C   UNL     1      -5.854   1.096  11.619  1.00  0.00     0.055 A 
ATOM     63  C   UNL     1      -4.797   3.165  12.237  1.00  0.00     0.041 A 
ATOM     64  F   UNL     1      -2.462   3.338  12.192  1.00  0.00    -0.206 F 
ATOM     65  C   UNL     1      -5.959   2.431  12.015  1.00  0.00     0.022 A 
BRANCH  62  66
ATOM     66  S   UNL     1      -7.339   0.178  11.128  1.00  0.00     0.124 S 
ATOM     67  O   UNL     1      -7.040  -0.145   9.735  1.00  0.00    -0.237 OA
ATOM     68  O   UNL     1      -7.338  -0.944  12.059  1.00  0.00    -0.237 OA
ATOM     69  O   UNL     1      -8.419   1.145  11.317  1.00  0.00    -0.744 OA
ENDBRANCH  62  66
ENDBRANCH  45  59
BRANCH  46  70
ATOM     70  C   UNL     1       5.564  -2.647   9.610  1.00  0.00     0.023 A 
ATOM     71  C   UNL     1       6.043  -3.808  10.236  1.00  0.00     0.031 A 
ATOM     72  C   UNL     1       6.428  -1.964   8.735  1.00  0.00     0.131 A 
ATOM     73  C   UNL     1       7.366  -4.226  10.014  1.00  0.00     0.055 A 
ATOM     74  C   UNL     1       7.724  -2.412   8.479  1.00  0.00     0.041 A 
ATOM     75  F   UNL     1       6.019  -0.847   8.112  1.00  0.00    -0.206 F 
ATOM     76  C   UNL     1       8.204  -3.543   9.131  1.00  0.00     0.022 A 
BRANCH  73  77
ATOM     77  S   UNL     1       8.005  -5.633  10.964  1.00  0.00     0.124 S 
ATOM     78  O   UNL     1       7.836  -5.167  12.335  1.00  0.00    -0.237 OA
ATOM     79  O   UNL     1       7.119  -6.712  10.538  1.00  0.00    -0.237 OA
ATOM     80  O   UNL     1       9.388  -5.750  10.508  1.00  0.00    -0.744 OA
ENDBRANCH  73  77
ENDBRANCH  46  70
BRANCH  58  81
ATOM     81  C   UNL     1       2.624  -0.157  15.421  1.00  0.00     0.023 A 
ATOM     82  C   UNL     1       3.677   0.708  15.770  1.00  0.00     0.031 A 
ATOM     83  C   UNL     1       2.048  -0.939  16.439  1.00  0.00     0.131 A 
ATOM     84  C   UNL     1       4.160   0.727  17.088  1.00  0.00     0.055 A 
ATOM     85  C   UNL     1       2.493  -0.872  17.761  1.00  0.00     0.041 A 
ATOM     86  F   UNL     1       1.040  -1.783  16.165  1.00  0.00    -0.206 F 
ATOM     87  C   UNL     1       3.564  -0.046  18.089  1.00  0.00     0.022 A 
BRANCH  84  88
ATOM     88  S   UNL     1       5.641   1.705  17.462  1.00  0.00     0.124 S 
ATOM     89  O   UNL     1       6.621   1.137  16.541  1.00  0.00    -0.237 OA
ATOM     90  O   UNL     1       5.201   3.064  17.165  1.00  0.00    -0.237 OA
ATOM     91  O   UNL     1       5.888   1.430  18.876  1.00  0.00    -0.744 OA
ENDBRANCH  84  88
ENDBRANCH  58  81
ENDBRANCH  32  33
ENDBRANCH  25  27
ENDBRANCH  24  25
ENDBRANCH  23  24
ENDBRANCH  22  23
ENDBRANCH  21  22
ENDBRANCH   1  21
TORSDOF 21
