REMARK SMILES O=C(CSc1ccc2ccccc2n1)NCc1ccc(C(=O)OCCOCCOC(=O)c2ccc(-c3c4nc(c(-c5cc(S(=O)(=O)[O-])ccc5F)c5ccc([nH]5)c(-c5cc(S(=O)(=O)[O-])ccc5F)c5nc(c(-c6cc(S(=O)(=O)[O-])ccc6F)c6ccc3[nH]6)C=C5)C=C4)cc2)cc1
REMARK SMILES IDX 25 1 24 2 23 3 21 4 22 5 20 6 17 7 18 8 96 9 19 10 95 11
REMARK SMILES IDX 16 12 15 13 1 14 2 15 3 17 4 18 5 19 6 20 14 21 7 22 13 23
REMARK SMILES IDX 8 24 12 25 9 26 11 27 10 28 26 29 27 30 28 31 29 32 30 33
REMARK SMILES IDX 31 34 32 35 33 36 94 37 34 38 93 39 35 40 36 41 37 42 87 43
REMARK SMILES IDX 38 44 92 45 86 46 88 47 39 48 91 49 85 50 84 51 40 53 72 54
REMARK SMILES IDX 52 55 71 56 53 57 56 58 70 59 89 60 54 61 55 62 69 64 90 65
REMARK SMILES IDX 57 66 41 67 42 68 50 69 43 70 49 71 51 72 48 73 44 74 45 75
REMARK SMILES IDX 46 76 47 77 73 78 74 79 82 80 75 81 81 82 83 83 80 84 76 85
REMARK SMILES IDX 77 86 78 87 79 88 58 89 59 90 67 91 60 92 66 93 68 94 65 95
REMARK SMILES IDX 61 96 62 97 63 98 64 99
REMARK H PARENT 15 16 88 52 56 63
REMARK Flexibility Score: inf
ROOT
ATOM      1  C   UNL     1       4.459   0.448  -9.518  1.00  0.00     0.202 C 
ENDROOT
BRANCH   1   2
ATOM      2  C   UNL     1       2.964   0.295  -9.218  1.00  0.00     0.261 C 
BRANCH   2   3
ATOM      3  O   UNL     1       2.718   0.213  -7.804  1.00  0.00    -0.460 OA
BRANCH   3   4
ATOM      4  C   UNL     1       2.342  -1.010  -7.363  1.00  0.00     0.338 C 
ATOM      5  O   UNL     1       2.083  -1.989  -8.051  1.00  0.00    -0.246 OA
BRANCH   4   6
ATOM      6  C   UNL     1       2.413  -1.085  -5.885  1.00  0.00     0.060 A 
ATOM      7  C   UNL     1       2.416  -1.432  -3.092  1.00  0.00    -0.029 A 
ATOM      8  C   UNL     1       2.715  -2.505  -3.944  1.00  0.00     0.006 A 
ATOM      9  C   UNL     1       2.160  -0.171  -3.658  1.00  0.00     0.006 A 
ATOM     10  C   UNL     1       2.711  -2.333  -5.327  1.00  0.00     0.016 A 
ATOM     11  C   UNL     1       2.170   0.009  -5.048  1.00  0.00     0.016 A 
BRANCH   7  12
ATOM     12  C   UNL     1       2.230  -1.698  -1.618  1.00  0.00     0.151 C 
BRANCH  12  13
ATOM     13  N   UNL     1       2.841  -0.701  -0.775  1.00  0.00    -0.351 N 
ATOM     14  O   UNL     1       0.909  -0.131   0.332  1.00  0.00    -0.274 OA
ATOM     15  C   UNL     1       2.124  -0.023   0.184  1.00  0.00     0.230 C 
ATOM     16  H   UNL     1       3.798  -0.500  -0.889  1.00  0.00     0.163 HD
BRANCH  15  17
ATOM     17  C   UNL     1       2.945   0.923   1.038  1.00  0.00     0.176 C 
BRANCH  17  18
ATOM     18  S   UNL     1       4.160   0.019   2.048  1.00  0.00    -0.096 SA
BRANCH  18  19
ATOM     19  C   UNL     1       3.084  -1.041   2.994  1.00  0.00     0.097 A 
ATOM     20  C   UNL     1       2.089  -0.526   3.812  1.00  0.00     0.036 A 
ATOM     21  N   UNL     1       3.354  -2.363   2.911  1.00  0.00    -0.241 NA
ATOM     22  C   UNL     1       1.339  -1.409   4.583  1.00  0.00     0.013 A 
ATOM     23  C   UNL     1       2.633  -3.215   3.662  1.00  0.00     0.072 A 
ATOM     24  C   UNL     1       1.608  -2.780   4.527  1.00  0.00     0.000 A 
ATOM     25  C   UNL     1       2.904  -4.576   3.605  1.00  0.00     0.029 A 
ATOM     26  C   UNL     1       0.896  -3.708   5.309  1.00  0.00     0.010 A 
ATOM     27  C   UNL     1       2.201  -5.502   4.383  1.00  0.00     0.002 A 
ATOM     28  C   UNL     1       1.197  -5.066   5.239  1.00  0.00     0.001 A 
ENDBRANCH  18  19
ENDBRANCH  17  18
ENDBRANCH  15  17
ENDBRANCH  12  13
ENDBRANCH   7  12
ENDBRANCH   4   6
ENDBRANCH   3   4
ENDBRANCH   2   3
ENDBRANCH   1   2
BRANCH   1  29
ATOM     29  O   UNL     1       5.294  -0.631  -9.095  1.00  0.00    -0.374 OA
BRANCH  29  30
ATOM     30  C   UNL     1       5.709  -0.623  -7.728  1.00  0.00     0.202 C 
BRANCH  30  31
ATOM     31  C   UNL     1       6.873   0.313  -7.378  1.00  0.00     0.261 C 
BRANCH  31  32
ATOM     32  O   UNL     1       6.499   1.699  -7.477  1.00  0.00    -0.460 OA
BRANCH  32  33
ATOM     33  C   UNL     1       7.066   2.371  -8.507  1.00  0.00     0.338 C 
ATOM     34  O   UNL     1       7.911   1.944  -9.285  1.00  0.00    -0.246 OA
BRANCH  33  35
ATOM     35  C   UNL     1       6.385   3.664  -8.700  1.00  0.00     0.060 A 
ATOM     36  C   UNL     1       5.925   3.969  -9.988  1.00  0.00     0.016 A 
ATOM     37  C   UNL     1       6.235   4.585  -7.660  1.00  0.00     0.016 A 
ATOM     38  C   UNL     1       5.346   5.210 -10.249  1.00  0.00     0.010 A 
ATOM     39  C   UNL     1       5.662   5.834  -7.926  1.00  0.00     0.010 A 
ATOM     40  C   UNL     1       5.239   6.163  -9.227  1.00  0.00    -0.014 A 
BRANCH  40  41
ATOM     41  C   UNL     1       4.793   7.541  -9.549  1.00  0.00     0.031 A 
ATOM     42  C   UNL     1       5.822   8.626  -9.711  1.00  0.00     0.074 A 
ATOM     43  C   UNL     1       3.486   7.817  -9.716  1.00  0.00     0.049 A 
ATOM     44  N   UNL     1       5.656   9.902  -9.942  1.00  0.00    -0.248 NA
ATOM     45  C   UNL     1       7.228   8.212  -9.591  1.00  0.00     0.031 C 
ATOM     46  C   UNL     1       2.402   6.839  -9.630  1.00  0.00     0.029 A 
ATOM     47  N   UNL     1       2.850   9.002  -9.987  1.00  0.00    -0.354 N 
ATOM     48  C   UNL     1       6.934  10.448  -9.995  1.00  0.00     0.074 A 
ATOM     49  C   UNL     1       7.862   9.367  -9.733  1.00  0.00     0.031 C 
ATOM     50  C   UNL     1       1.232   7.468  -9.832  1.00  0.00     0.029 A 
ATOM     51  C   UNL     1       1.479   8.896 -10.022  1.00  0.00     0.049 A 
ATOM     52  H   UNL     1       3.329   9.848 -10.141  1.00  0.00     0.167 HD
ATOM     53  C   UNL     1       7.299  11.730 -10.248  1.00  0.00     0.034 A 
ATOM     54  C   UNL     1       0.533   9.847 -10.162  1.00  0.00     0.034 A 
ATOM     55  C   UNL     1       6.360  12.799 -10.492  1.00  0.00     0.049 A 
ATOM     56  C   UNL     1       0.959  11.283 -10.345  1.00  0.00     0.074 A 
ATOM     57  C   UNL     1       6.622  14.129 -10.775  1.00  0.00     0.029 A 
ATOM     58  N   UNL     1       4.977  12.665 -10.467  1.00  0.00    -0.354 N 
ATOM     59  N   UNL     1       2.172  11.786 -10.403  1.00  0.00    -0.248 NA
ATOM     60  C   UNL     1      -0.111  12.279 -10.488  1.00  0.00     0.031 C 
ATOM     61  C   UNL     1       5.402  14.811 -10.847  1.00  0.00     0.029 A 
ATOM     62  C   UNL     1       4.374  13.895 -10.690  1.00  0.00     0.049 A 
ATOM     63  H   UNL     1       4.495  11.821 -10.314  1.00  0.00     0.167 HD
ATOM     64  C   UNL     1       2.007  13.152 -10.617  1.00  0.00     0.074 A 
ATOM     65  C   UNL     1       0.580  13.391 -10.693  1.00  0.00     0.031 C 
ATOM     66  C   UNL     1       2.949  14.123 -10.745  1.00  0.00     0.034 A 
BRANCH  53  67
ATOM     67  C   UNL     1       8.774  12.050 -10.215  1.00  0.00     0.023 A 
ATOM     68  C   UNL     1       9.675  11.493 -11.140  1.00  0.00     0.031 A 
ATOM     69  C   UNL     1       9.292  12.905  -9.226  1.00  0.00     0.131 A 
ATOM     70  C   UNL     1      11.050  11.742 -11.016  1.00  0.00     0.055 A 
ATOM     71  C   UNL     1      10.653  13.211  -9.155  1.00  0.00     0.041 A 
ATOM     72  F   UNL     1       8.485  13.448  -8.302  1.00  0.00    -0.206 F 
ATOM     73  C   UNL     1      11.543  12.617 -10.045  1.00  0.00     0.022 A 
BRANCH  70  74
ATOM     74  S   UNL     1      12.202  10.798 -12.053  1.00  0.00     0.124 S 
ATOM     75  O   UNL     1      11.871   9.424 -11.685  1.00  0.00    -0.237 OA
ATOM     76  O   UNL     1      11.822  11.209 -13.399  1.00  0.00    -0.237 OA
ATOM     77  O   UNL     1      13.517  11.255 -11.608  1.00  0.00    -0.744 OA
ENDBRANCH  70  74
ENDBRANCH  53  67
BRANCH  54  78
ATOM     78  C   UNL     1      -0.913   9.489 -10.087  1.00  0.00     0.023 A 
ATOM     79  C   UNL     1      -1.767   9.676 -11.185  1.00  0.00     0.031 A 
ATOM     80  C   UNL     1      -1.474   9.006  -8.891  1.00  0.00     0.131 A 
ATOM     81  C   UNL     1      -3.142   9.423 -11.052  1.00  0.00     0.055 A 
ATOM     82  C   UNL     1      -2.832   8.706  -8.780  1.00  0.00     0.041 A 
ATOM     83  F   UNL     1      -0.702   8.812  -7.809  1.00  0.00    -0.206 F 
ATOM     84  C   UNL     1      -3.677   8.927  -9.862  1.00  0.00     0.022 A 
BRANCH  81  85
ATOM     85  S   UNL     1      -4.239   9.835 -12.437  1.00  0.00     0.124 S 
ATOM     86  O   UNL     1      -3.983  11.261 -12.604  1.00  0.00    -0.237 OA
ATOM     87  O   UNL     1      -3.732   8.964 -13.493  1.00  0.00    -0.237 OA
ATOM     88  O   UNL     1      -5.566   9.492 -11.933  1.00  0.00    -0.744 OA
ENDBRANCH  81  85
ENDBRANCH  54  78
BRANCH  66  89
ATOM     89  C   UNL     1       2.458  15.524 -11.020  1.00  0.00     0.023 A 
ATOM     90  C   UNL     1       1.725  16.253 -10.066  1.00  0.00     0.031 A 
ATOM     91  C   UNL     1       2.715  16.133 -12.261  1.00  0.00     0.131 A 
ATOM     92  C   UNL     1       1.228  17.525 -10.389  1.00  0.00     0.055 A 
ATOM     93  C   UNL     1       2.269  17.422 -12.555  1.00  0.00     0.041 A 
ATOM     94  F   UNL     1       3.407  15.483 -13.211  1.00  0.00    -0.206 F 
ATOM     95  C   UNL     1       1.510  18.121 -11.621  1.00  0.00     0.022 A 
BRANCH  92  96
ATOM     96  S   UNL     1       0.126  18.356  -9.211  1.00  0.00     0.124 S 
ATOM     97  O   UNL     1      -0.962  17.392  -9.082  1.00  0.00    -0.237 OA
ATOM     98  O   UNL     1       0.982  18.512  -8.040  1.00  0.00    -0.237 OA
ATOM     99  O   UNL     1      -0.226  19.602  -9.890  1.00  0.00    -0.744 OA
ENDBRANCH  92  96
ENDBRANCH  66  89
ENDBRANCH  40  41
ENDBRANCH  33  35
ENDBRANCH  32  33
ENDBRANCH  31  32
ENDBRANCH  30  31
ENDBRANCH  29  30
ENDBRANCH   1  29
TORSDOF 22
