REMARK SMILES C#CCN(CC(=O)OCCOCCOC(=O)c1ccc(-c2c3nc(c(-c4cc(S(=O)(=O)[O-])ccc4F)c4ccc([nH]4)c(-c4cc(S(=O)(=O)[O-])ccc4F)c4nc(c(-c5cc(S(=O)(=O)[O-])ccc5F)c5ccc2[nH]5)C=C4)C=C3)cc1)C(=O)CCNC(=O)C(C)(C)C
REMARK SMILES IDX 9 1 8 2 6 3 7 4 5 5 4 6 3 7 2 8 1 9 80 10 81 11 82 12 83 13
REMARK SMILES IDX 84 14 85 15 86 17 87 18 88 19 89 20 90 21 10 22 11 23 12 24
REMARK SMILES IDX 13 25 14 26 15 27 16 28 17 29 18 30 79 31 19 32 78 33 20 34
REMARK SMILES IDX 21 35 22 36 72 37 23 38 77 39 71 40 73 41 24 42 76 43 70 44
REMARK SMILES IDX 69 45 25 47 57 48 37 49 56 50 38 51 41 52 55 53 74 54 39 55
REMARK SMILES IDX 40 56 54 58 75 59 42 60 26 61 27 62 35 63 28 64 34 65 36 66
REMARK SMILES IDX 33 67 29 68 30 69 31 70 32 71 58 72 59 73 67 74 60 75 66 76
REMARK SMILES IDX 68 77 65 78 61 79 62 80 63 81 64 82 43 83 44 84 52 85 45 86
REMARK SMILES IDX 51 87 53 88 50 89 46 90 47 91 48 92 49 93
REMARK H PARENT 84 16 73 46 41 57
REMARK Flexibility Score: inf
ROOT
ATOM      1  C   UNL     1      -6.557   1.288  -1.133  1.00  0.00     0.261 C 
ENDROOT
BRANCH   1   2
ATOM      2  O   UNL     1      -5.141   0.999  -1.032  1.00  0.00    -0.462 OA
BRANCH   2   3
ATOM      3  C   UNL     1      -4.596   0.442  -2.143  1.00  0.00     0.325 C 
ATOM      4  O   UNL     1      -5.243   0.087  -3.125  1.00  0.00    -0.250 OA
BRANCH   3   5
ATOM      5  C   UNL     1      -3.078   0.243  -2.085  1.00  0.00     0.243 C 
BRANCH   5   6
ATOM      6  N   UNL     1      -2.227   0.824  -1.038  1.00  0.00    -0.320 N 
BRANCH   6   7
ATOM      7  C   UNL     1      -1.786  -0.084   0.038  1.00  0.00     0.210 C 
BRANCH   7   8
ATOM      8  C   UNL     1      -0.266  -0.084   0.038  1.00  0.00    -0.085 C 
ATOM      9  C   UNL     1       1.038  -0.084   0.038  1.00  0.00     0.006 C 
ENDBRANCH   7   8
ENDBRANCH   6   7
BRANCH   6  10
ATOM     10  C   UNL     1      -1.736   2.129  -1.009  1.00  0.00     0.225 C 
ATOM     11  O   UNL     1      -1.135   2.573  -0.023  1.00  0.00    -0.275 OA
BRANCH  10  12
ATOM     12  C   UNL     1      -1.947   3.087  -2.174  1.00  0.00     0.121 C 
BRANCH  12  13
ATOM     13  C   UNL     1      -1.041   3.002  -3.390  1.00  0.00     0.125 C 
BRANCH  13  14
ATOM     14  N   UNL     1      -1.535   2.077  -4.394  1.00  0.00    -0.355 N 
ATOM     15  C   UNL     1      -2.553   2.115  -5.295  1.00  0.00     0.225 C 
ATOM     16  H   UNL     1      -1.020   1.238  -4.431  1.00  0.00     0.163 HD
ATOM     17  O   UNL     1      -2.848   1.014  -5.775  1.00  0.00    -0.275 OA
BRANCH  15  18
ATOM     18  C   UNL     1      -3.258   3.407  -5.771  1.00  0.00     0.041 C 
ATOM     19  C   UNL     1      -3.952   4.210  -4.673  1.00  0.00     0.021 C 
ATOM     20  C   UNL     1      -2.244   4.290  -6.507  1.00  0.00     0.021 C 
ATOM     21  C   UNL     1      -4.366   3.002  -6.775  1.00  0.00     0.021 C 
ENDBRANCH  15  18
ENDBRANCH  13  14
ENDBRANCH  12  13
ENDBRANCH  10  12
ENDBRANCH   6  10
ENDBRANCH   5   6
ENDBRANCH   3   5
ENDBRANCH   2   3
ENDBRANCH   1   2
BRANCH   1  22
ATOM     22  C   UNL     1      -6.912   2.652  -0.527  1.00  0.00     0.202 C 
BRANCH  22  23
ATOM     23  O   UNL     1      -6.443   3.814  -1.221  1.00  0.00    -0.374 OA
BRANCH  23  24
ATOM     24  C   UNL     1      -5.038   4.021  -1.232  1.00  0.00     0.202 C 
BRANCH  24  25
ATOM     25  C   UNL     1      -4.379   4.711  -0.038  1.00  0.00     0.261 C 
BRANCH  25  26
ATOM     26  O   UNL     1      -4.729   4.090   1.192  1.00  0.00    -0.460 OA
BRANCH  26  27
ATOM     27  C   UNL     1      -5.729   4.734   1.830  1.00  0.00     0.338 C 
ATOM     28  O   UNL     1      -6.231   5.811   1.524  1.00  0.00    -0.246 OA
BRANCH  27  29
ATOM     29  C   UNL     1      -6.296   3.840   2.840  1.00  0.00     0.060 A 
ATOM     30  C   UNL     1      -7.691   3.779   2.900  1.00  0.00     0.016 A 
ATOM     31  C   UNL     1      -5.493   3.087   3.704  1.00  0.00     0.016 A 
ATOM     32  C   UNL     1      -8.297   3.039   3.897  1.00  0.00     0.010 A 
ATOM     33  C   UNL     1      -6.104   2.341   4.707  1.00  0.00     0.010 A 
ATOM     34  C   UNL     1      -7.502   2.373   4.837  1.00  0.00    -0.014 A 
BRANCH  34  35
ATOM     35  C   UNL     1      -8.156   1.919   6.077  1.00  0.00     0.031 A 
ATOM     36  C   UNL     1      -8.072   2.812   7.282  1.00  0.00     0.074 A 
ATOM     37  C   UNL     1      -8.884   0.793   6.072  1.00  0.00     0.049 A 
ATOM     38  N   UNL     1      -8.631   2.679   8.453  1.00  0.00    -0.248 NA
ATOM     39  C   UNL     1      -7.239   4.018   7.143  1.00  0.00     0.031 C 
ATOM     40  C   UNL     1      -9.034  -0.105   4.926  1.00  0.00     0.029 A 
ATOM     41  N   UNL     1      -9.641   0.220   7.055  1.00  0.00    -0.354 N 
ATOM     42  C   UNL     1      -8.216   3.782   9.193  1.00  0.00     0.074 A 
ATOM     43  C   UNL     1      -7.317   4.542   8.355  1.00  0.00     0.031 C 
ATOM     44  C   UNL     1      -9.837  -1.123   5.275  1.00  0.00     0.029 A 
ATOM     45  C   UNL     1     -10.231  -0.959   6.672  1.00  0.00     0.049 A 
ATOM     46  H   UNL     1      -9.754   0.614   7.950  1.00  0.00     0.167 HD
ATOM     47  C   UNL     1      -8.569   4.127  10.455  1.00  0.00     0.034 A 
ATOM     48  C   UNL     1     -10.989  -1.813   7.384  1.00  0.00     0.034 A 
ATOM     49  C   UNL     1      -9.458   3.327  11.260  1.00  0.00     0.049 A 
ATOM     50  C   UNL     1     -11.335  -1.437   8.801  1.00  0.00     0.074 A 
ATOM     51  C   UNL     1      -9.912   3.562  12.544  1.00  0.00     0.029 A 
ATOM     52  N   UNL     1     -10.015   2.116  10.856  1.00  0.00    -0.354 N 
ATOM     53  N   UNL     1     -10.967  -0.376   9.487  1.00  0.00    -0.248 NA
ATOM     54  C   UNL     1     -12.215  -2.353   9.531  1.00  0.00     0.031 C 
ATOM     55  C   UNL     1     -10.676   2.458  12.943  1.00  0.00     0.029 A 
ATOM     56  C   UNL     1     -10.775   1.573  11.879  1.00  0.00     0.049 A 
ATOM     57  H   UNL     1      -9.887   1.705   9.971  1.00  0.00     0.167 HD
ATOM     58  C   UNL     1     -11.586  -0.490  10.728  1.00  0.00     0.074 A 
ATOM     59  C   UNL     1     -12.368  -1.712  10.681  1.00  0.00     0.031 C 
ATOM     60  C   UNL     1     -11.521   0.335  11.806  1.00  0.00     0.034 A 
BRANCH  47  61
ATOM     61  C   UNL     1      -7.929   5.369  11.036  1.00  0.00     0.023 A 
ATOM     62  C   UNL     1      -8.101   6.641  10.457  1.00  0.00     0.031 A 
ATOM     63  C   UNL     1      -7.065   5.266  12.140  1.00  0.00     0.131 A 
ATOM     64  C   UNL     1      -7.348   7.732  10.921  1.00  0.00     0.055 A 
ATOM     65  C   UNL     1      -6.387   6.374  12.654  1.00  0.00     0.041 A 
ATOM     66  F   UNL     1      -6.835   4.078  12.721  1.00  0.00    -0.206 F 
ATOM     67  C   UNL     1      -6.511   7.612  12.031  1.00  0.00     0.022 A 
BRANCH  64  68
ATOM     68  S   UNL     1      -7.335   9.260   9.940  1.00  0.00     0.124 S 
ATOM     69  O   UNL     1      -6.885   8.771   8.638  1.00  0.00    -0.237 OA
ATOM     70  O   UNL     1      -8.725   9.693  10.015  1.00  0.00    -0.237 OA
ATOM     71  O   UNL     1      -6.376  10.111  10.642  1.00  0.00    -0.744 OA
ENDBRANCH  64  68
ENDBRANCH  47  61
BRANCH  48  72
ATOM     72  C   UNL     1     -11.427  -3.099   6.774  1.00  0.00     0.023 A 
ATOM     73  C   UNL     1     -12.779  -3.376   6.521  1.00  0.00     0.031 A 
ATOM     74  C   UNL     1     -10.476  -4.075   6.420  1.00  0.00     0.131 A 
ATOM     75  C   UNL     1     -13.143  -4.608   5.952  1.00  0.00     0.055 A 
ATOM     76  C   UNL     1     -10.839  -5.277   5.814  1.00  0.00     0.041 A 
ATOM     77  F   UNL     1      -9.168  -3.856   6.634  1.00  0.00    -0.206 F 
ATOM     78  C   UNL     1     -12.182  -5.553   5.584  1.00  0.00     0.022 A 
BRANCH  75  79
ATOM     79  S   UNL     1     -14.905  -4.983   5.740  1.00  0.00     0.124 S 
ATOM     80  O   UNL     1     -15.399  -4.883   7.108  1.00  0.00    -0.237 OA
ATOM     81  O   UNL     1     -15.331  -3.930   4.824  1.00  0.00    -0.237 OA
ATOM     82  O   UNL     1     -14.900  -6.331   5.175  1.00  0.00    -0.744 OA
ENDBRANCH  75  79
ENDBRANCH  48  72
BRANCH  60  83
ATOM     83  C   UNL     1     -12.344  -0.061  13.008  1.00  0.00     0.023 A 
ATOM     84  C   UNL     1     -12.060  -1.223  13.745  1.00  0.00     0.031 A 
ATOM     85  C   UNL     1     -13.435   0.729  13.410  1.00  0.00     0.131 A 
ATOM     86  C   UNL     1     -12.899  -1.600  14.803  1.00  0.00     0.055 A 
ATOM     87  C   UNL     1     -14.224   0.387  14.509  1.00  0.00     0.041 A 
ATOM     88  F   UNL     1     -13.753   1.849  12.740  1.00  0.00    -0.206 F 
ATOM     89  C   UNL     1     -13.967  -0.792  15.202  1.00  0.00     0.022 A 
BRANCH  86  90
ATOM     90  S   UNL     1     -12.646  -3.221  15.574  1.00  0.00     0.124 S 
ATOM     91  O   UNL     1     -12.768  -4.121  14.432  1.00  0.00    -0.237 OA
ATOM     92  O   UNL     1     -11.309  -3.090  16.144  1.00  0.00    -0.237 OA
ATOM     93  O   UNL     1     -13.730  -3.308  16.551  1.00  0.00    -0.744 OA
ENDBRANCH  86  90
ENDBRANCH  60  83
ENDBRANCH  34  35
ENDBRANCH  27  29
ENDBRANCH  26  27
ENDBRANCH  25  26
ENDBRANCH  24  25
ENDBRANCH  23  24
ENDBRANCH  22  23
ENDBRANCH   1  22
TORSDOF 25
