REMARK SMILES NC(=O)[C@@H]1CCC[N@@H+]1[C@@H](C(=O)OCCOCCOC(=O)c1ccc(-c2c3nc(c(-c4cc(S(=O)(=O)[O-])ccc4F)c4ccc([nH]4)c(-c4cc(S(=O)(=O)[O-])ccc4F)c4nc(c(-c5cc(S(=O)(=O)[O-])ccc5F)c5ccc2[nH]5)C=C4)C=C3)cc1)c1c[nH]c2cc(OCc3ccccc3)ccc12
REMARK SMILES IDX 14 1 13 2 12 3 10 4 11 5 9 6 8 7 4 8 5 9 6 10 7 11 2 13 1 14
REMARK SMILES IDX 3 17 84 18 85 19 100 20 86 21 87 22 99 23 88 25 98 26 89 27
REMARK SMILES IDX 90 28 91 29 92 30 93 31 97 32 94 33 96 34 95 35 15 36 16 37
REMARK SMILES IDX 17 38 18 39 19 40 20 41 21 42 22 43 83 44 23 45 82 46 24 47
REMARK SMILES IDX 25 48 26 49 76 50 27 51 81 52 75 53 77 54 28 55 80 56 74 57
REMARK SMILES IDX 73 58 29 60 61 61 41 62 60 63 42 64 45 65 59 66 78 67 43 68
REMARK SMILES IDX 44 69 58 71 79 72 46 73 30 74 31 75 39 76 32 77 38 78 40 79
REMARK SMILES IDX 37 80 33 81 34 82 35 83 36 84 62 85 63 86 71 87 64 88 70 89
REMARK SMILES IDX 72 90 69 91 65 92 66 93 67 94 68 95 47 96 48 97 56 98 49 99
REMARK SMILES IDX 55 100 57 101 54 102 50 103 51 104 52 105 53 106
REMARK H PARENT 8 12 1 15 1 16 86 24 77 59 45 70
REMARK Flexibility Score: inf
ROOT
ATOM      1  C   UNL     1      -0.021   2.511   5.034  1.00  0.00     0.202 C 
ENDROOT
BRANCH   1   2
ATOM      2  C   UNL     1      -1.019   2.371   3.881  1.00  0.00     0.261 C 
BRANCH   2   3
ATOM      3  O   UNL     1      -0.539   3.047   2.700  1.00  0.00    -0.459 OA
BRANCH   3   4
ATOM      4  C   UNL     1      -1.378   3.962   2.125  1.00  0.00     0.370 C 
ATOM      5  O   UNL     1      -2.473   4.266   2.596  1.00  0.00    -0.245 OA
BRANCH   4   6
ATOM      6  C   UNL     1      -0.828   4.580   0.826  1.00  0.00     0.329 C 
BRANCH   6   7
ATOM      7  N   UNL     1       0.469   4.040   0.312  1.00  0.00    -0.309 N 
ATOM      8  C   UNL     1       0.778   2.637  -0.005  1.00  0.00     0.275 C 
ATOM      9  C   UNL     1       2.046   2.400   0.816  1.00  0.00     0.081 C 
ATOM     10  C   UNL     1       2.814   3.689   0.627  1.00  0.00     0.068 C 
ATOM     11  C   UNL     1       1.730   4.745   0.468  1.00  0.00     0.264 C 
ATOM     12  H   UNL     1      -0.176   4.370  -0.406  1.00  0.00     0.349 HD
BRANCH   8  13
ATOM     13  C   UNL     1      -0.292   1.561   0.171  1.00  0.00     0.275 C 
ATOM     14  N   UNL     1       0.179   0.272   0.186  1.00  0.00    -0.365 N 
ATOM     15  H   UNL     1      -0.448  -0.480   0.295  1.00  0.00     0.159 HD
ATOM     16  H   UNL     1       1.143   0.099   0.088  1.00  0.00     0.159 HD
ATOM     17  O   UNL     1      -1.502   1.766   0.180  1.00  0.00    -0.268 OA
ENDBRANCH   8  13
ENDBRANCH   6   7
BRANCH   6  18
ATOM     18  C   UNL     1      -0.821   6.148   0.831  1.00  0.00     0.046 A 
ATOM     19  C   UNL     1      -1.030   6.948  -0.285  1.00  0.00     0.094 A 
ATOM     20  C   UNL     1      -0.140   7.107   1.665  1.00  0.00     0.009 A 
ATOM     21  N   UNL     1       0.185   7.550  -0.473  1.00  0.00    -0.361 N 
ATOM     22  C   UNL     1       0.731   7.738   0.773  1.00  0.00     0.050 A 
ATOM     23  C   UNL     1      -0.028   7.474   3.020  1.00  0.00     0.015 A 
ATOM     24  H   UNL     1       0.590   7.800  -1.335  1.00  0.00     0.166 HD
ATOM     25  C   UNL     1       1.901   8.372   1.181  1.00  0.00     0.073 A 
ATOM     26  C   UNL     1       1.083   8.242   3.449  1.00  0.00     0.047 A 
ATOM     27  C   UNL     1       2.091   8.578   2.549  1.00  0.00     0.121 A 
BRANCH  27  28
ATOM     28  O   UNL     1       3.327   9.079   2.837  1.00  0.00    -0.489 OA
BRANCH  28  29
ATOM     29  C   UNL     1       3.542   9.884   3.993  1.00  0.00     0.265 C 
BRANCH  29  30
ATOM     30  C   UNL     1       3.563  11.348   3.609  1.00  0.00    -0.011 A 
ATOM     31  C   UNL     1       4.516  12.217   4.159  1.00  0.00     0.007 A 
ATOM     32  C   UNL     1       2.612  11.876   2.722  1.00  0.00     0.007 A 
ATOM     33  C   UNL     1       4.524  13.572   3.814  1.00  0.00     0.000 A 
ATOM     34  C   UNL     1       2.626  13.224   2.371  1.00  0.00     0.000 A 
ATOM     35  C   UNL     1       3.581  14.073   2.918  1.00  0.00     0.000 A 
ENDBRANCH  29  30
ENDBRANCH  28  29
ENDBRANCH  27  28
ENDBRANCH   6  18
ENDBRANCH   4   6
ENDBRANCH   3   4
ENDBRANCH   2   3
ENDBRANCH   1   2
BRANCH   1  36
ATOM     36  O   UNL     1       0.097   3.791   5.659  1.00  0.00    -0.374 OA
BRANCH  36  37
ATOM     37  C   UNL     1       0.424   4.896   4.833  1.00  0.00     0.202 C 
BRANCH  37  38
ATOM     38  C   UNL     1       1.868   5.047   4.334  1.00  0.00     0.261 C 
BRANCH  38  39
ATOM     39  O   UNL     1       2.528   3.818   4.063  1.00  0.00    -0.460 OA
BRANCH  39  40
ATOM     40  C   UNL     1       3.308   3.412   5.092  1.00  0.00     0.338 C 
ATOM     41  O   UNL     1       3.560   4.011   6.116  1.00  0.00    -0.246 OA
BRANCH  40  42
ATOM     42  C   UNL     1       3.667   2.008   4.858  1.00  0.00     0.060 A 
ATOM     43  C   UNL     1       3.292   1.098   5.848  1.00  0.00     0.016 A 
ATOM     44  C   UNL     1       4.371   1.601   3.722  1.00  0.00     0.016 A 
ATOM     45  C   UNL     1       3.686  -0.226   5.740  1.00  0.00     0.010 A 
ATOM     46  C   UNL     1       4.762   0.266   3.613  1.00  0.00     0.010 A 
ATOM     47  C   UNL     1       4.462  -0.638   4.648  1.00  0.00    -0.014 A 
BRANCH  47  48
ATOM     48  C   UNL     1       5.102  -1.970   4.716  1.00  0.00     0.031 A 
ATOM     49  C   UNL     1       6.550  -2.053   5.113  1.00  0.00     0.074 A 
ATOM     50  C   UNL     1       4.370  -3.084   4.540  1.00  0.00     0.049 A 
ATOM     51  N   UNL     1       7.292  -3.108   5.324  1.00  0.00    -0.248 NA
ATOM     52  C   UNL     1       7.255  -0.774   5.298  1.00  0.00     0.031 C 
ATOM     53  C   UNL     1       2.946  -3.110   4.202  1.00  0.00     0.029 A 
ATOM     54  N   UNL     1       4.716  -4.405   4.643  1.00  0.00    -0.354 N 
ATOM     55  C   UNL     1       8.548  -2.622   5.672  1.00  0.00     0.074 A 
ATOM     56  C   UNL     1       8.480  -1.180   5.590  1.00  0.00     0.031 C 
ATOM     57  C   UNL     1       2.537  -4.388   4.142  1.00  0.00     0.029 A 
ATOM     58  C   UNL     1       3.674  -5.269   4.401  1.00  0.00     0.049 A 
ATOM     59  H   UNL     1       5.625  -4.708   4.870  1.00  0.00     0.167 HD
ATOM     60  C   UNL     1       9.650  -3.318   6.043  1.00  0.00     0.034 A 
ATOM     61  C   UNL     1       3.648  -6.616   4.381  1.00  0.00     0.034 A 
ATOM     62  C   UNL     1       9.696  -4.757   6.114  1.00  0.00     0.049 A 
ATOM     63  C   UNL     1       4.912  -7.370   4.716  1.00  0.00     0.074 A 
ATOM     64  C   UNL     1      10.752  -5.568   6.490  1.00  0.00     0.029 A 
ATOM     65  N   UNL     1       8.643  -5.604   5.788  1.00  0.00    -0.354 N 
ATOM     66  N   UNL     1       6.090  -6.900   5.058  1.00  0.00    -0.248 NA
ATOM     67  C   UNL     1       4.840  -8.836   4.673  1.00  0.00     0.031 C 
ATOM     68  C   UNL     1      10.366  -6.900   6.311  1.00  0.00     0.029 A 
ATOM     69  C   UNL     1       9.039  -6.927   5.913  1.00  0.00     0.049 A 
ATOM     70  H   UNL     1       7.746  -5.307   5.510  1.00  0.00     0.167 HD
ATOM     71  C   UNL     1       6.890  -8.014   5.301  1.00  0.00     0.074 A 
ATOM     72  C   UNL     1       6.053  -9.177   5.082  1.00  0.00     0.031 C 
ATOM     73  C   UNL     1       8.194  -8.075   5.674  1.00  0.00     0.034 A 
BRANCH  60  74
ATOM     74  C   UNL     1      10.903  -2.528   6.342  1.00  0.00     0.023 A 
ATOM     75  C   UNL     1      10.970  -1.609   7.404  1.00  0.00     0.031 A 
ATOM     76  C   UNL     1      12.040  -2.675   5.527  1.00  0.00     0.131 A 
ATOM     77  C   UNL     1      12.120  -0.823   7.578  1.00  0.00     0.055 A 
ATOM     78  C   UNL     1      13.210  -1.950   5.758  1.00  0.00     0.041 A 
ATOM     79  F   UNL     1      12.026  -3.515   4.481  1.00  0.00    -0.206 F 
ATOM     80  C   UNL     1      13.250  -1.007   6.779  1.00  0.00     0.022 A 
BRANCH  77  81
ATOM     81  S   UNL     1      12.063   0.548   8.765  1.00  0.00     0.124 S 
ATOM     82  O   UNL     1      10.942   1.334   8.255  1.00  0.00    -0.237 OA
ATOM     83  O   UNL     1      11.839  -0.140  10.031  1.00  0.00    -0.237 OA
ATOM     84  O   UNL     1      13.373   1.180   8.621  1.00  0.00    -0.744 OA
ENDBRANCH  77  81
ENDBRANCH  60  74
BRANCH  61  85
ATOM     85  C   UNL     1       2.401  -7.340   3.999  1.00  0.00     0.023 A 
ATOM     86  C   UNL     1       1.757  -8.213   4.890  1.00  0.00     0.031 A 
ATOM     87  C   UNL     1       1.864  -7.206   2.705  1.00  0.00     0.131 A 
ATOM     88  C   UNL     1       0.643  -8.953   4.461  1.00  0.00     0.055 A 
ATOM     89  C   UNL     1       0.722  -7.900   2.303  1.00  0.00     0.041 A 
ATOM     90  F   UNL     1       2.440  -6.386   1.812  1.00  0.00    -0.206 F 
ATOM     91  C   UNL     1       0.113  -8.791   3.179  1.00  0.00     0.022 A 
BRANCH  88  92
ATOM     92  S   UNL     1      -0.049 -10.207   5.575  1.00  0.00     0.124 S 
ATOM     93  O   UNL     1       1.108 -11.063   5.811  1.00  0.00    -0.237 OA
ATOM     94  O   UNL     1      -0.491  -9.396   6.704  1.00  0.00    -0.237 OA
ATOM     95  O   UNL     1      -1.121 -10.808   4.784  1.00  0.00    -0.744 OA
ENDBRANCH  88  92
ENDBRANCH  61  85
BRANCH  73  96
ATOM     96  C   UNL     1       8.781  -9.448   5.905  1.00  0.00     0.023 A 
ATOM     97  C   UNL     1       8.934 -10.374   4.858  1.00  0.00     0.031 A 
ATOM     98  C   UNL     1       9.186  -9.837   7.195  1.00  0.00     0.131 A 
ATOM     99  C   UNL     1       9.420 -11.662   5.130  1.00  0.00     0.055 A 
ATOM    100  C   UNL     1       9.733 -11.096   7.446  1.00  0.00     0.041 A 
ATOM    101  F   UNL     1       9.061  -8.995   8.233  1.00  0.00    -0.206 F 
ATOM    102  C   UNL     1       9.838 -12.022   6.413  1.00  0.00     0.022 A 
BRANCH  99 103
ATOM    103  S   UNL     1       9.400 -12.897   3.801  1.00  0.00     0.124 S 
ATOM    104  O   UNL     1       7.987 -12.926   3.437  1.00  0.00    -0.237 OA
ATOM    105  O   UNL     1      10.300 -12.309   2.815  1.00  0.00    -0.237 OA
ATOM    106  O   UNL     1       9.898 -14.108   4.451  1.00  0.00    -0.744 OA
ENDBRANCH  99 103
ENDBRANCH  73  96
ENDBRANCH  47  48
ENDBRANCH  40  42
ENDBRANCH  39  40
ENDBRANCH  38  39
ENDBRANCH  37  38
ENDBRANCH  36  37
ENDBRANCH   1  36
TORSDOF 23
