REMARK SMILES C[NH+](C)Cc1noc(C[C@@](C)(C(=O)OCCOCCOC(=O)c2ccc(-c3c4nc(c(-c5cc(S(=O)(=O)[O-])ccc5F)c5ccc([nH]5)c(-c5cc(S(=O)(=O)[O-])ccc5F)c5nc(c(-c6cc(S(=O)(=O)[O-])ccc6F)c6ccc3[nH]6)C=C5)C=C4)cc2)c2ccccc2)n1
REMARK SMILES IDX 16 1 15 2 14 3 12 4 13 5 10 6 11 7 9 8 8 9 5 10 6 11 92 12
REMARK SMILES IDX 7 13 4 14 2 15 1 16 3 17 86 19 87 20 91 21 88 22 90 23 89 24
REMARK SMILES IDX 17 25 18 26 19 27 20 28 21 29 22 30 23 31 24 32 85 33 25 34
REMARK SMILES IDX 84 35 26 36 27 37 28 38 78 39 29 40 83 41 77 42 79 43 30 44
REMARK SMILES IDX 82 45 76 46 75 47 31 49 63 50 43 51 62 52 44 53 47 54 61 55
REMARK SMILES IDX 80 56 45 57 46 58 60 60 81 61 48 62 32 63 33 64 41 65 34 66
REMARK SMILES IDX 40 67 42 68 39 69 35 70 36 71 37 72 38 73 64 74 65 75 73 76
REMARK SMILES IDX 66 77 72 78 74 79 71 80 67 81 68 82 69 83 70 84 49 85 50 86
REMARK SMILES IDX 58 87 51 88 57 89 59 90 56 91 52 92 53 93 54 94 55 95
REMARK H PARENT 2 18 79 48 47 59
REMARK Flexibility Score: inf
ROOT
ATOM      1  C   UNL     1      -2.470   5.717   5.837  1.00  0.00     0.202 C 
ENDROOT
BRANCH   1   2
ATOM      2  C   UNL     1      -1.692   6.679   4.931  1.00  0.00     0.261 C 
BRANCH   2   3
ATOM      3  O   UNL     1      -1.256   6.071   3.702  1.00  0.00    -0.463 OA
BRANCH   3   4
ATOM      4  C   UNL     1       0.094   5.951   3.569  1.00  0.00     0.316 C 
ATOM      5  O   UNL     1       0.900   6.429   4.364  1.00  0.00    -0.251 OA
BRANCH   4   6
ATOM      6  C   UNL     1       0.532   5.157   2.309  1.00  0.00     0.099 C 
ATOM      7  C   UNL     1       1.334   6.190   1.469  1.00  0.00     0.029 C 
BRANCH   6   8
ATOM      8  C   UNL     1      -0.690   4.706   1.444  1.00  0.00     0.123 C 
BRANCH   8   9
ATOM      9  C   UNL     1      -0.304   3.969   0.206  1.00  0.00     0.228 A 
ATOM     10  C   UNL     1       0.327   2.617  -1.272  1.00  0.00     0.226 A 
ATOM     11  N   UNL     1       0.440   3.815  -1.869  1.00  0.00    -0.056 NA
ATOM     12  N   UNL     1      -0.170   2.676   0.010  1.00  0.00    -0.190 NA
ATOM     13  O   UNL     1       0.007   4.712  -0.894  1.00  0.00    -0.339 OA
BRANCH  10  14
ATOM     14  C   UNL     1       0.800   1.366  -1.961  1.00  0.00     0.344 C 
BRANCH  14  15
ATOM     15  N   UNL     1       0.377   0.063  -1.406  1.00  0.00    -0.333 N 
ATOM     16  C   UNL     1       0.942  -0.216  -0.091  1.00  0.00     0.332 C 
ATOM     17  C   UNL     1      -1.070  -0.118  -1.423  1.00  0.00     0.332 C 
ATOM     18  H   UNL     1       0.769  -0.634  -2.039  1.00  0.00     0.348 HD
ENDBRANCH  14  15
ENDBRANCH  10  14
ENDBRANCH   8   9
ENDBRANCH   6   8
BRANCH   6  19
ATOM     19  C   UNL     1       1.439   3.993   2.800  1.00  0.00    -0.030 A 
ATOM     20  C   UNL     1       0.992   2.662   2.889  1.00  0.00     0.005 A 
ATOM     21  C   UNL     1       2.743   4.255   3.265  1.00  0.00     0.005 A 
ATOM     22  C   UNL     1       1.818   1.642   3.373  1.00  0.00     0.000 A 
ATOM     23  C   UNL     1       3.564   3.240   3.765  1.00  0.00     0.000 A 
ATOM     24  C   UNL     1       3.104   1.930   3.811  1.00  0.00     0.000 A 
ENDBRANCH   6  19
ENDBRANCH   4   6
ENDBRANCH   3   4
ENDBRANCH   2   3
ENDBRANCH   1   2
BRANCH   1  25
ATOM     25  O   UNL     1      -1.891   4.442   6.098  1.00  0.00    -0.374 OA
BRANCH  25  26
ATOM     26  C   UNL     1      -1.913   3.474   5.051  1.00  0.00     0.202 C 
BRANCH  26  27
ATOM     27  C   UNL     1      -3.275   2.909   4.625  1.00  0.00     0.261 C 
BRANCH  27  28
ATOM     28  O   UNL     1      -4.125   3.902   4.020  1.00  0.00    -0.460 OA
BRANCH  28  29
ATOM     29  C   UNL     1      -5.294   4.116   4.675  1.00  0.00     0.338 C 
ATOM     30  O   UNL     1      -5.707   3.504   5.654  1.00  0.00    -0.246 OA
BRANCH  29  31
ATOM     31  C   UNL     1      -5.948   5.340   4.181  1.00  0.00     0.060 A 
ATOM     32  C   UNL     1      -6.225   6.348   5.115  1.00  0.00     0.016 A 
ATOM     33  C   UNL     1      -6.367   5.470   2.855  1.00  0.00     0.016 A 
ATOM     34  C   UNL     1      -6.959   7.471   4.737  1.00  0.00     0.010 A 
ATOM     35  C   UNL     1      -7.114   6.593   2.481  1.00  0.00     0.010 A 
ATOM     36  C   UNL     1      -7.442   7.583   3.427  1.00  0.00    -0.014 A 
BRANCH  36  37
ATOM     37  C   UNL     1      -8.408   8.661   3.097  1.00  0.00     0.031 A 
ATOM     38  C   UNL     1      -9.879   8.342   3.075  1.00  0.00     0.074 A 
ATOM     39  C   UNL     1      -7.985   9.917   2.863  1.00  0.00     0.049 A 
ATOM     40  N   UNL     1     -10.894   9.118   2.795  1.00  0.00    -0.248 NA
ATOM     41  C   UNL     1     -10.251   6.961   3.415  1.00  0.00     0.031 C 
ATOM     42  C   UNL     1      -6.591  10.357   2.905  1.00  0.00     0.029 A 
ATOM     43  N   UNL     1      -8.686  11.051   2.541  1.00  0.00    -0.354 N 
ATOM     44  C   UNL     1     -12.027   8.321   2.924  1.00  0.00     0.074 A 
ATOM     45  C   UNL     1     -11.567   6.993   3.271  1.00  0.00     0.031 C 
ATOM     46  C   UNL     1      -6.539  11.667   2.610  1.00  0.00     0.029 A 
ATOM     47  C   UNL     1      -7.889  12.150   2.322  1.00  0.00     0.049 A 
ATOM     48  H   UNL     1      -9.668  11.076   2.473  1.00  0.00     0.167 HD
ATOM     49  C   UNL     1     -13.330   8.669   2.777  1.00  0.00     0.034 A 
ATOM     50  C   UNL     1      -8.209  13.394   1.911  1.00  0.00     0.034 A 
ATOM     51  C   UNL     1     -13.773   9.994   2.418  1.00  0.00     0.049 A 
ATOM     52  C   UNL     1      -9.659  13.733   1.659  1.00  0.00     0.074 A 
ATOM     53  C   UNL     1     -15.067  10.458   2.258  1.00  0.00     0.029 A 
ATOM     54  N   UNL     1     -12.933  11.067   2.146  1.00  0.00    -0.354 N 
ATOM     55  N   UNL     1     -10.721  12.973   1.794  1.00  0.00    -0.248 NA
ATOM     56  C   UNL     1      -9.951  15.099   1.206  1.00  0.00     0.031 C 
ATOM     57  C   UNL     1     -15.008  11.786   1.821  1.00  0.00     0.029 A 
ATOM     58  C   UNL     1     -13.679  12.178   1.782  1.00  0.00     0.049 A 
ATOM     59  H   UNL     1     -11.951  11.043   2.203  1.00  0.00     0.167 HD
ATOM     60  C   UNL     1     -11.809  13.780   1.468  1.00  0.00     0.074 A 
ATOM     61  C   UNL     1     -11.274  15.086   1.145  1.00  0.00     0.031 C 
ATOM     62  C   UNL     1     -13.132  13.471   1.443  1.00  0.00     0.034 A 
BRANCH  49  63
ATOM     63  C   UNL     1     -14.361   7.579   2.951  1.00  0.00     0.023 A 
ATOM     64  C   UNL     1     -14.560   6.936   4.185  1.00  0.00     0.031 A 
ATOM     65  C   UNL     1     -15.136   7.156   1.856  1.00  0.00     0.131 A 
ATOM     66  C   UNL     1     -15.460   5.862   4.278  1.00  0.00     0.055 A 
ATOM     67  C   UNL     1     -16.084   6.138   1.973  1.00  0.00     0.041 A 
ATOM     68  F   UNL     1     -14.973   7.717   0.647  1.00  0.00    -0.206 F 
ATOM     69  C   UNL     1     -16.240   5.475   3.187  1.00  0.00     0.022 A 
BRANCH  66  70
ATOM     70  S   UNL     1     -15.493   4.888   5.808  1.00  0.00     0.124 S 
ATOM     71  O   UNL     1     -14.107   4.435   5.900  1.00  0.00    -0.237 OA
ATOM     72  O   UNL     1     -15.912   5.872   6.800  1.00  0.00    -0.237 OA
ATOM     73  O   UNL     1     -16.467   3.836   5.523  1.00  0.00    -0.744 OA
ENDBRANCH  66  70
ENDBRANCH  49  63
BRANCH  50  74
ATOM     74  C   UNL     1      -7.141  14.404   1.660  1.00  0.00     0.023 A 
ATOM     75  C   UNL     1      -7.063  15.585   2.414  1.00  0.00     0.031 A 
ATOM     76  C   UNL     1      -6.212  14.223   0.619  1.00  0.00     0.131 A 
ATOM     77  C   UNL     1      -6.106  16.560   2.088  1.00  0.00     0.055 A 
ATOM     78  C   UNL     1      -5.230  15.172   0.332  1.00  0.00     0.041 A 
ATOM     79  F   UNL     1      -6.243  13.111  -0.133  1.00  0.00    -0.206 F 
ATOM     80  C   UNL     1      -5.181  16.355   1.061  1.00  0.00     0.022 A 
BRANCH  77  81
ATOM     81  S   UNL     1      -6.138  18.141   2.977  1.00  0.00     0.124 S 
ATOM     82  O   UNL     1      -7.485  18.618   2.686  1.00  0.00    -0.237 OA
ATOM     83  O   UNL     1      -5.888  17.720   4.351  1.00  0.00    -0.237 OA
ATOM     84  O   UNL     1      -5.057  18.903   2.354  1.00  0.00    -0.744 OA
ENDBRANCH  77  81
ENDBRANCH  50  74
BRANCH  62  85
ATOM     85  C   UNL     1     -14.089  14.583   1.088  1.00  0.00     0.023 A 
ATOM     86  C   UNL     1     -14.125  15.146  -0.200  1.00  0.00     0.031 A 
ATOM     87  C   UNL     1     -14.971  15.094   2.057  1.00  0.00     0.131 A 
ATOM     88  C   UNL     1     -14.984  16.223  -0.469  1.00  0.00     0.055 A 
ATOM     89  C   UNL     1     -15.865  16.126   1.767  1.00  0.00     0.041 A 
ATOM     90  F   UNL     1     -14.979  14.596   3.304  1.00  0.00    -0.206 F 
ATOM     91  C   UNL     1     -15.866  16.705   0.502  1.00  0.00     0.022 A 
BRANCH  88  92
ATOM     92  S   UNL     1     -14.872  17.046  -2.082  1.00  0.00     0.124 S 
ATOM     93  O   UNL     1     -13.480  17.483  -2.103  1.00  0.00    -0.237 OA
ATOM     94  O   UNL     1     -15.217  15.971  -3.006  1.00  0.00    -0.237 OA
ATOM     95  O   UNL     1     -15.858  18.122  -1.988  1.00  0.00    -0.744 OA
ENDBRANCH  88  92
ENDBRANCH  62  85
ENDBRANCH  36  37
ENDBRANCH  29  31
ENDBRANCH  28  29
ENDBRANCH  27  28
ENDBRANCH  26  27
ENDBRANCH  25  26
ENDBRANCH   1  25
TORSDOF 22
