REMARK SMILES C[C@@H]1[C@H](C)CCC[C@H]1NC(=O)C[N@@H+]1CCC[C@@H]1C(=O)OCCOCCOC(=O)c1ccc(-c2c3nc(c(-c4cc(S(=O)(=O)[O-])ccc4F)c4ccc([nH]4)c(-c4cc(S(=O)(=O)[O-])ccc4F)c4nc(c(-c5cc(S(=O)(=O)[O-])ccc5F)c5ccc2[nH]5)C=C4)C=C3)cc1
REMARK SMILES IDX 23 1 22 2 21 3 20 4 18 5 19 6 17 7 13 8 14 9 15 11 16 12
REMARK SMILES IDX 12 13 10 14 9 15 11 17 8 18 1 19 2 20 3 21 4 22 5 23 7 24
REMARK SMILES IDX 6 25 24 26 25 27 26 28 27 29 28 30 29 31 30 32 91 33 31 34
REMARK SMILES IDX 90 35 32 36 33 37 34 38 84 39 35 40 89 41 83 42 85 43 36 44
REMARK SMILES IDX 88 45 82 46 81 47 37 49 69 50 49 51 68 52 50 53 53 54 67 55
REMARK SMILES IDX 86 56 51 57 52 58 66 60 87 61 54 62 38 63 39 64 47 65 40 66
REMARK SMILES IDX 46 67 48 68 45 69 41 70 42 71 43 72 44 73 70 74 71 75 79 76
REMARK SMILES IDX 72 77 78 78 80 79 77 80 73 81 74 82 75 83 76 84 55 85 56 86
REMARK SMILES IDX 64 87 57 88 63 89 65 90 62 91 58 92 59 93 60 94 61 95
REMARK H PARENT 13 10 9 16 85 48 53 59
REMARK Flexibility Score: inf
ROOT
ATOM      1  O   UNL     1      -3.399  -0.915  -5.884  1.00  0.00    -0.374 OA
ENDROOT
BRANCH   1   2
ATOM      2  C   UNL     1      -2.697   0.246  -6.335  1.00  0.00     0.202 C 
BRANCH   2   3
ATOM      3  C   UNL     1      -3.075   1.546  -5.623  1.00  0.00     0.261 C 
BRANCH   3   4
ATOM      4  O   UNL     1      -2.830   1.434  -4.214  1.00  0.00    -0.459 OA
BRANCH   4   5
ATOM      5  C   UNL     1      -3.492   2.319  -3.427  1.00  0.00     0.365 C 
ATOM      6  O   UNL     1      -4.261   3.182  -3.838  1.00  0.00    -0.245 OA
BRANCH   5   7
ATOM      7  C   UNL     1      -3.206   2.087  -1.944  1.00  0.00     0.295 C 
ATOM      8  N   UNL     1      -2.347   3.082  -1.265  1.00  0.00    -0.315 N 
ATOM      9  C   UNL     1      -2.004   2.517   0.037  1.00  0.00     0.263 C 
ATOM     10  H   UNL     1      -2.909   3.929  -1.192  1.00  0.00     0.349 HD
ATOM     11  C   UNL     1      -2.235   1.014  -0.055  1.00  0.00     0.068 C 
ATOM     12  C   UNL     1      -2.628   0.752  -1.502  1.00  0.00     0.083 C 
BRANCH   8  13
ATOM     13  C   UNL     1      -1.238   3.743  -1.982  1.00  0.00     0.364 C 
BRANCH  13  14
ATOM     14  C   UNL     1      -0.489   2.950  -3.054  1.00  0.00     0.275 C 
ATOM     15  N   UNL     1       0.433   1.997  -2.760  1.00  0.00    -0.348 N 
ATOM     16  H   UNL     1       0.597   1.347  -3.480  1.00  0.00     0.163 HD
ATOM     17  O   UNL     1      -0.693   3.168  -4.253  1.00  0.00    -0.268 OA
BRANCH  15  18
ATOM     18  C   UNL     1       1.221   1.780  -1.550  1.00  0.00     0.085 C 
ATOM     19  C   UNL     1       1.661   0.121   0.315  1.00  0.00     0.010 C 
ATOM     20  C   UNL     1       1.209   0.285  -1.143  1.00  0.00     0.011 C 
ATOM     21  C   UNL     1       2.020  -0.579  -2.135  1.00  0.00    -0.009 C 
ATOM     22  C   UNL     1       2.018  -2.066  -1.774  1.00  0.00     0.008 C 
ATOM     23  C   UNL     1       3.450  -0.052  -2.309  1.00  0.00     0.004 C 
ATOM     24  C   UNL     1       2.652   2.296  -1.772  1.00  0.00     0.025 C 
ATOM     25  C   UNL     1       3.458   1.416  -2.729  1.00  0.00     0.002 C 
ENDBRANCH  15  18
ENDBRANCH  13  14
ENDBRANCH   8  13
ENDBRANCH   5   7
ENDBRANCH   4   5
ENDBRANCH   3   4
ENDBRANCH   2   3
ENDBRANCH   1   2
BRANCH   1  26
ATOM     26  C   UNL     1      -2.965  -1.484  -4.648  1.00  0.00     0.202 C 
BRANCH  26  27
ATOM     27  C   UNL     1      -1.679  -2.317  -4.695  1.00  0.00     0.261 C 
BRANCH  27  28
ATOM     28  O   UNL     1      -0.501  -1.546  -4.997  1.00  0.00    -0.460 OA
BRANCH  28  29
ATOM     29  C   UNL     1       0.070  -1.829  -6.196  1.00  0.00     0.338 C 
ATOM     30  O   UNL     1      -0.318  -2.642  -7.023  1.00  0.00    -0.246 OA
BRANCH  29  31
ATOM     31  C   UNL     1       1.227  -0.951  -6.434  1.00  0.00     0.060 A 
ATOM     32  C   UNL     1       1.185  -0.043  -7.497  1.00  0.00     0.016 A 
ATOM     33  C   UNL     1       2.402  -1.125  -5.704  1.00  0.00     0.016 A 
ATOM     34  C   UNL     1       2.335   0.672  -7.850  1.00  0.00     0.010 A 
ATOM     35  C   UNL     1       3.542  -0.390  -6.043  1.00  0.00     0.010 A 
ATOM     36  C   UNL     1       3.531   0.487  -7.142  1.00  0.00    -0.014 A 
BRANCH  36  37
ATOM     37  C   UNL     1       4.811   1.071  -7.632  1.00  0.00     0.031 A 
ATOM     38  C   UNL     1       5.859   0.152  -8.212  1.00  0.00     0.074 A 
ATOM     39  C   UNL     1       5.049   2.395  -7.565  1.00  0.00     0.049 A 
ATOM     40  N   UNL     1       7.080   0.417  -8.601  1.00  0.00    -0.248 NA
ATOM     41  C   UNL     1       5.479  -1.262  -8.350  1.00  0.00     0.031 C 
ATOM     42  C   UNL     1       4.117   3.398  -7.053  1.00  0.00     0.029 A 
ATOM     43  N   UNL     1       6.157   3.123  -7.927  1.00  0.00    -0.354 N 
ATOM     44  C   UNL     1       7.619  -0.798  -9.015  1.00  0.00     0.074 A 
ATOM     45  C   UNL     1       6.608  -1.806  -8.777  1.00  0.00     0.031 C 
ATOM     46  C   UNL     1       4.689   4.612  -7.140  1.00  0.00     0.029 A 
ATOM     47  C   UNL     1       6.043   4.471  -7.673  1.00  0.00     0.049 A 
ATOM     48  H   UNL     1       6.958   2.718  -8.332  1.00  0.00     0.167 HD
ATOM     49  C   UNL     1       8.834  -1.052  -9.564  1.00  0.00     0.034 A 
ATOM     50  C   UNL     1       6.934   5.471  -7.833  1.00  0.00     0.034 A 
ATOM     51  C   UNL     1       9.831  -0.041  -9.815  1.00  0.00     0.049 A 
ATOM     52  C   UNL     1       8.304   5.158  -8.390  1.00  0.00     0.074 A 
ATOM     53  C   UNL     1      11.089  -0.188 -10.374  1.00  0.00     0.029 A 
ATOM     54  N   UNL     1       9.683   1.309  -9.526  1.00  0.00    -0.354 N 
ATOM     55  N   UNL     1       8.801   4.002  -8.767  1.00  0.00    -0.248 NA
ATOM     56  C   UNL     1       9.231   6.288  -8.547  1.00  0.00     0.031 C 
ATOM     57  C   UNL     1      11.721   1.061 -10.374  1.00  0.00     0.029 A 
ATOM     58  C   UNL     1      10.832   2.000  -9.877  1.00  0.00     0.049 A 
ATOM     59  H   UNL     1       8.879   1.716  -9.130  1.00  0.00     0.167 HD
ATOM     60  C   UNL     1      10.084   4.276  -9.238  1.00  0.00     0.074 A 
ATOM     61  C   UNL     1      10.280   5.704  -9.106  1.00  0.00     0.031 C 
ATOM     62  C   UNL     1      11.014   3.425  -9.740  1.00  0.00     0.034 A 
BRANCH  49  63
ATOM     63  C   UNL     1       9.154  -2.490  -9.895  1.00  0.00     0.023 A 
ATOM     64  C   UNL     1       8.427  -3.202 -10.865  1.00  0.00     0.031 A 
ATOM     65  C   UNL     1      10.171  -3.171  -9.203  1.00  0.00     0.131 A 
ATOM     66  C   UNL     1       8.672  -4.570 -11.059  1.00  0.00     0.055 A 
ATOM     67  C   UNL     1      10.466  -4.511  -9.460  1.00  0.00     0.041 A 
ATOM     68  F   UNL     1      10.885  -2.549  -8.251  1.00  0.00    -0.206 F 
ATOM     69  C   UNL     1       9.704  -5.223 -10.381  1.00  0.00     0.022 A 
BRANCH  66  70
ATOM     70  S   UNL     1       7.526  -5.515 -12.099  1.00  0.00     0.124 S 
ATOM     71  O   UNL     1       6.262  -5.321 -11.394  1.00  0.00    -0.237 OA
ATOM     72  O   UNL     1       7.648  -4.848 -13.390  1.00  0.00    -0.237 OA
ATOM     73  O   UNL     1       8.058  -6.875 -12.046  1.00  0.00    -0.744 OA
ENDBRANCH  66  70
ENDBRANCH  49  63
BRANCH  50  74
ATOM     74  C   UNL     1       6.590   6.867  -7.434  1.00  0.00     0.023 A 
ATOM     75  C   UNL     1       6.534   7.899  -8.384  1.00  0.00     0.031 A 
ATOM     76  C   UNL     1       6.387   7.202  -6.083  1.00  0.00     0.131 A 
ATOM     77  C   UNL     1       6.334   9.224  -7.967  1.00  0.00     0.055 A 
ATOM     78  C   UNL     1       6.134   8.514  -5.679  1.00  0.00     0.041 A 
ATOM     79  F   UNL     1       6.433   6.254  -5.133  1.00  0.00    -0.206 F 
ATOM     80  C   UNL     1       6.122   9.537  -6.622  1.00  0.00     0.022 A 
BRANCH  77  81
ATOM     81  S   UNL     1       6.458  10.551  -9.198  1.00  0.00     0.124 S 
ATOM     82  O   UNL     1       7.802  10.341  -9.726  1.00  0.00    -0.237 OA
ATOM     83  O   UNL     1       5.357  10.230 -10.100  1.00  0.00    -0.237 OA
ATOM     84  O   UNL     1       6.280  11.767  -8.408  1.00  0.00    -0.744 OA
ENDBRANCH  77  81
ENDBRANCH  50  74
BRANCH  62  85
ATOM     85  C   UNL     1      12.304   4.030 -10.237  1.00  0.00     0.023 A 
ATOM     86  C   UNL     1      13.245   4.598  -9.360  1.00  0.00     0.031 A 
ATOM     87  C   UNL     1      12.591   4.040 -11.614  1.00  0.00     0.131 A 
ATOM     88  C   UNL     1      14.405   5.197  -9.874  1.00  0.00     0.055 A 
ATOM     89  C   UNL     1      13.771   4.591 -12.114  1.00  0.00     0.041 A 
ATOM     90  F   UNL     1      11.728   3.510 -12.495  1.00  0.00    -0.206 F 
ATOM     91  C   UNL     1      14.681   5.184 -11.244  1.00  0.00     0.022 A 
BRANCH  88  92
ATOM     92  S   UNL     1      15.521   6.060  -8.733  1.00  0.00     0.124 S 
ATOM     93  O   UNL     1      14.645   7.076  -8.160  1.00  0.00    -0.237 OA
ATOM     94  O   UNL     1      15.932   4.990  -7.829  1.00  0.00    -0.237 OA
ATOM     95  O   UNL     1      16.577   6.572  -9.605  1.00  0.00    -0.744 OA
ENDBRANCH  88  92
ENDBRANCH  62  85
ENDBRANCH  36  37
ENDBRANCH  29  31
ENDBRANCH  28  29
ENDBRANCH  27  28
ENDBRANCH  26  27
ENDBRANCH   1  26
TORSDOF 20
