REMARK SMILES CCCC[C@H](C(=O)OCCOCCOC(=O)c1ccc(-c2c3nc(c(-c4cc(S(=O)(=O)[O-])ccc4F)c4ccc([nH]4)c(-c4cc(S(=O)(=O)[O-])ccc4F)c4nc(c(-c5cc(S(=O)(=O)[O-])ccc5F)c5ccc2[nH]5)C=C4)C=C3)cc1)[C@H](O)c1ccc(C(F)(F)F)cc1
REMARK SMILES IDX 11 1 10 2 9 3 8 4 6 5 7 6 5 7 4 8 3 9 2 10 1 11 80 12 82 13
REMARK SMILES IDX 83 14 91 15 84 16 90 17 85 18 86 19 87 20 88 21 89 22 81 23
REMARK SMILES IDX 12 25 13 26 14 27 15 28 16 29 17 30 18 31 79 32 19 33 78 34
REMARK SMILES IDX 20 35 21 36 22 37 72 38 23 39 77 40 71 41 73 42 24 43 76 44
REMARK SMILES IDX 70 45 69 46 25 48 57 49 37 50 56 51 38 52 41 53 55 54 74 55
REMARK SMILES IDX 39 56 40 57 54 59 75 60 42 61 26 62 27 63 35 64 28 65 34 66
REMARK SMILES IDX 36 67 33 68 29 69 30 70 31 71 32 72 58 73 59 74 67 75 60 76
REMARK SMILES IDX 66 77 68 78 65 79 61 80 62 81 63 82 64 83 43 84 44 85 52 86
REMARK SMILES IDX 45 87 51 88 53 89 50 90 46 91 47 92 48 93 49 94
REMARK H PARENT 81 24 73 47 41 58
REMARK Flexibility Score: inf
ROOT
ATOM      1  O   UNL     1      -4.670  -0.419   4.020  1.00  0.00    -0.374 OA
ENDROOT
BRANCH   1   2
ATOM      2  C   UNL     1      -4.354  -0.727   5.371  1.00  0.00     0.202 C 
BRANCH   2   3
ATOM      3  C   UNL     1      -3.370  -1.866   5.676  1.00  0.00     0.261 C 
BRANCH   3   4
ATOM      4  O   UNL     1      -2.308  -1.999   4.726  1.00  0.00    -0.463 OA
BRANCH   4   5
ATOM      5  C   UNL     1      -2.461  -3.032   3.843  1.00  0.00     0.312 C 
ATOM      6  O   UNL     1      -3.394  -3.820   3.864  1.00  0.00    -0.252 OA
BRANCH   5   7
ATOM      7  C   UNL     1      -1.287  -3.067   2.873  1.00  0.00     0.132 C 
BRANCH   7   8
ATOM      8  C   UNL     1      -0.031  -3.751   3.474  1.00  0.00     0.018 C 
BRANCH   8   9
ATOM      9  C   UNL     1      -0.102  -4.377   4.879  1.00  0.00     0.001 C 
BRANCH   9  10
ATOM     10  C   UNL     1      -1.096  -5.517   5.129  1.00  0.00    -0.003 C 
ATOM     11  C   UNL     1      -1.101  -6.614   4.080  1.00  0.00     0.004 C 
ENDBRANCH   9  10
ENDBRANCH   8   9
ENDBRANCH   7   8
BRANCH   7  12
ATOM     12  C   UNL     1      -1.621  -3.628   1.452  1.00  0.00     0.158 C 
BRANCH  12  13
ATOM     13  C   UNL     1      -3.087  -3.616   1.058  1.00  0.00    -0.019 A 
ATOM     14  C   UNL     1      -3.782  -2.433   0.781  1.00  0.00     0.007 A 
ATOM     15  C   UNL     1      -3.816  -4.810   1.196  1.00  0.00     0.007 A 
ATOM     16  C   UNL     1      -5.179  -2.415   0.822  1.00  0.00     0.013 A 
ATOM     17  C   UNL     1      -5.210  -4.791   1.238  1.00  0.00     0.013 A 
ATOM     18  C   UNL     1      -5.903  -3.582   1.110  1.00  0.00     0.056 A 
BRANCH  18  19
ATOM     19  C   UNL     1      -7.384  -3.514   1.383  1.00  0.00     0.416 C 
ATOM     20  F   UNL     1      -7.670  -2.937   2.583  1.00  0.00    -0.166 F 
ATOM     21  F   UNL     1      -8.061  -2.787   0.450  1.00  0.00    -0.166 F 
ATOM     22  F   UNL     1      -7.990  -4.736   1.407  1.00  0.00    -0.166 F 
ENDBRANCH  18  19
ENDBRANCH  12  13
BRANCH  12  23
ATOM     23  O   UNL     1      -0.852  -2.932   0.459  1.00  0.00    -0.388 OA
ATOM     24  H   UNL     1      -1.118  -1.999   0.440  1.00  0.00     0.211 HD
ENDBRANCH  12  23
ENDBRANCH   7  12
ENDBRANCH   5   7
ENDBRANCH   4   5
ENDBRANCH   3   4
ENDBRANCH   2   3
ENDBRANCH   1   2
BRANCH   1  25
ATOM     25  C   UNL     1      -3.651   0.089   3.166  1.00  0.00     0.202 C 
BRANCH  25  26
ATOM     26  C   UNL     1      -2.903   1.374   3.528  1.00  0.00     0.261 C 
BRANCH  26  27
ATOM     27  O   UNL     1      -2.151   1.272   4.744  1.00  0.00    -0.460 OA
BRANCH  27  28
ATOM     28  C   UNL     1      -2.589   2.081   5.737  1.00  0.00     0.338 C 
ATOM     29  O   UNL     1      -3.542   2.848   5.701  1.00  0.00    -0.246 OA
BRANCH  28  30
ATOM     30  C   UNL     1      -1.845   1.795   6.968  1.00  0.00     0.060 A 
ATOM     31  C   UNL     1      -2.556   1.341   8.087  1.00  0.00     0.016 A 
ATOM     32  C   UNL     1      -0.483   2.083   7.046  1.00  0.00     0.016 A 
ATOM     33  C   UNL     1      -1.908   1.212   9.312  1.00  0.00     0.010 A 
ATOM     34  C   UNL     1       0.160   1.970   8.277  1.00  0.00     0.010 A 
ATOM     35  C   UNL     1      -0.559   1.569   9.419  1.00  0.00    -0.014 A 
BRANCH  35  36
ATOM     36  C   UNL     1       0.068   1.720  10.750  1.00  0.00     0.031 A 
ATOM     37  C   UNL     1       0.160   3.099  11.337  1.00  0.00     0.074 A 
ATOM     38  C   UNL     1       0.567   0.654  11.398  1.00  0.00     0.049 A 
ATOM     39  N   UNL     1       0.814   3.513  12.389  1.00  0.00    -0.248 NA
ATOM     40  C   UNL     1      -0.579   4.156  10.628  1.00  0.00     0.031 C 
ATOM     41  C   UNL     1       0.465  -0.732  10.944  1.00  0.00     0.029 A 
ATOM     42  N   UNL     1       1.282   0.578  12.565  1.00  0.00    -0.354 N 
ATOM     43  C   UNL     1       0.581   4.882  12.461  1.00  0.00     0.074 A 
ATOM     44  C   UNL     1      -0.253   5.230  11.331  1.00  0.00     0.031 C 
ATOM     45  C   UNL     1       1.121  -1.521  11.812  1.00  0.00     0.029 A 
ATOM     46  C   UNL     1       1.732  -0.690  12.847  1.00  0.00     0.049 A 
ATOM     47  H   UNL     1       1.455   1.354  13.144  1.00  0.00     0.167 HD
ATOM     48  C   UNL     1       1.027   5.763  13.389  1.00  0.00     0.034 A 
ATOM     49  C   UNL     1       2.581  -1.115  13.805  1.00  0.00     0.034 A 
ATOM     50  C   UNL     1       1.872   5.387  14.494  1.00  0.00     0.049 A 
ATOM     51  C   UNL     1       3.151  -0.101  14.769  1.00  0.00     0.074 A 
ATOM     52  C   UNL     1       2.394   6.187  15.495  1.00  0.00     0.029 A 
ATOM     53  N   UNL     1       2.330   4.097  14.736  1.00  0.00    -0.354 N 
ATOM     54  N   UNL     1       2.945   1.196  14.821  1.00  0.00    -0.248 NA
ATOM     55  C   UNL     1       4.065  -0.605  15.802  1.00  0.00     0.031 C 
ATOM     56  C   UNL     1       3.221   5.396  16.299  1.00  0.00     0.029 A 
ATOM     57  C   UNL     1       3.150   4.085  15.852  1.00  0.00     0.049 A 
ATOM     58  H   UNL     1       2.104   3.307  14.193  1.00  0.00     0.167 HD
ATOM     59  C   UNL     1       3.671   1.654  15.917  1.00  0.00     0.074 A 
ATOM     60  C   UNL     1       4.323   0.496  16.495  1.00  0.00     0.031 C 
ATOM     61  C   UNL     1       3.781   2.913  16.412  1.00  0.00     0.034 A 
BRANCH  48  62
ATOM     62  C   UNL     1       0.660   7.215  13.201  1.00  0.00     0.023 A 
ATOM     63  C   UNL     1      -0.675   7.654  13.245  1.00  0.00     0.031 A 
ATOM     64  C   UNL     1       1.657   8.169  12.931  1.00  0.00     0.131 A 
ATOM     65  C   UNL     1      -0.982   8.992  12.952  1.00  0.00     0.055 A 
ATOM     66  C   UNL     1       1.353   9.515  12.721  1.00  0.00     0.041 A 
ATOM     67  F   UNL     1       2.947   7.805  12.849  1.00  0.00    -0.206 F 
ATOM     68  C   UNL     1       0.025   9.931  12.716  1.00  0.00     0.022 A 
BRANCH  65  69
ATOM     69  S   UNL     1      -2.723   9.455  12.739  1.00  0.00     0.124 S 
ATOM     70  O   UNL     1      -3.131   8.571  11.651  1.00  0.00    -0.237 OA
ATOM     71  O   UNL     1      -3.290   9.160  14.050  1.00  0.00    -0.237 OA
ATOM     72  O   UNL     1      -2.660  10.873  12.390  1.00  0.00    -0.744 OA
ENDBRANCH  65  69
ENDBRANCH  48  62
BRANCH  49  73
ATOM     73  C   UNL     1       2.986  -2.548  13.873  1.00  0.00     0.023 A 
ATOM     74  C   UNL     1       2.670  -3.337  14.990  1.00  0.00     0.031 A 
ATOM     75  C   UNL     1       3.734  -3.139  12.839  1.00  0.00     0.131 A 
ATOM     76  C   UNL     1       3.137  -4.658  15.067  1.00  0.00     0.055 A 
ATOM     77  C   UNL     1       4.150  -4.471  12.896  1.00  0.00     0.041 A 
ATOM     78  F   UNL     1       4.064  -2.431  11.748  1.00  0.00    -0.206 F 
ATOM     79  C   UNL     1       3.863  -5.235  14.023  1.00  0.00     0.022 A 
BRANCH  76  80
ATOM     80  S   UNL     1       2.857  -5.588  16.599  1.00  0.00     0.124 S 
ATOM     81  O   UNL     1       3.503  -4.732  17.587  1.00  0.00    -0.237 OA
ATOM     82  O   UNL     1       1.400  -5.646  16.654  1.00  0.00    -0.237 OA
ATOM     83  O   UNL     1       3.521  -6.865  16.348  1.00  0.00    -0.744 OA
ENDBRANCH  76  80
ENDBRANCH  49  73
BRANCH  61  84
ATOM     84  C   UNL     1       4.574   3.092  17.682  1.00  0.00     0.023 A 
ATOM     85  C   UNL     1       5.971   2.954  17.716  1.00  0.00     0.031 A 
ATOM     86  C   UNL     1       3.910   3.443  18.872  1.00  0.00     0.131 A 
ATOM     87  C   UNL     1       6.658   3.135  18.927  1.00  0.00     0.055 A 
ATOM     88  C   UNL     1       4.603   3.674  20.059  1.00  0.00     0.041 A 
ATOM     89  F   UNL     1       2.575   3.588  18.892  1.00  0.00    -0.206 F 
ATOM     90  C   UNL     1       5.985   3.512  20.093  1.00  0.00     0.022 A 
BRANCH  87  91
ATOM     91  S   UNL     1       8.443   2.820  18.974  1.00  0.00     0.124 S 
ATOM     92  O   UNL     1       8.511   1.407  18.614  1.00  0.00    -0.237 OA
ATOM     93  O   UNL     1       8.953   3.756  17.977  1.00  0.00    -0.237 OA
ATOM     94  O   UNL     1       8.810   3.127  20.355  1.00  0.00    -0.744 OA
ENDBRANCH  87  91
ENDBRANCH  61  84
ENDBRANCH  35  36
ENDBRANCH  28  30
ENDBRANCH  27  28
ENDBRANCH  26  27
ENDBRANCH  25  26
ENDBRANCH   1  25
TORSDOF 24
