REMARK SMILES C[NH2+][C@]1(C(=O)OCCOCCOC(=O)c2ccc(-c3c4nc(c(-c5cc(S(=O)(=O)[O-])ccc5F)c5ccc([nH]5)c(-c5cc(S(=O)(=O)[O-])ccc5F)c5nc(c(-c6cc(S(=O)(=O)[O-])ccc6F)c6ccc3[nH]6)C=C5)C=C4)cc2)CC[C@@H]([N@@H+](C)C[C@@H]2CCCCO2)C1
REMARK SMILES IDX 9 1 8 2 7 3 6 4 4 5 5 6 3 7 78 8 90 9 79 10 80 11 2 12 1 13
REMARK SMILES IDX 81 16 82 17 83 19 84 20 85 21 89 22 86 23 88 24 87 25 10 26
REMARK SMILES IDX 11 27 12 28 13 29 14 30 15 31 16 32 77 33 17 34 76 35 18 36
REMARK SMILES IDX 19 37 20 38 70 39 21 40 75 41 69 42 71 43 22 44 74 45 68 46
REMARK SMILES IDX 67 47 23 49 55 50 35 51 54 52 36 53 39 54 53 55 72 56 37 57
REMARK SMILES IDX 38 58 52 60 73 61 40 62 24 63 25 64 33 65 26 66 32 67 34 68
REMARK SMILES IDX 31 69 27 70 28 71 29 72 30 73 56 74 57 75 65 76 58 77 64 78
REMARK SMILES IDX 66 79 63 80 59 81 60 82 61 83 62 84 41 85 42 86 50 87 43 88
REMARK SMILES IDX 49 89 51 90 48 91 44 92 45 93 46 94 47 95
REMARK H PARENT 2 14 2 15 81 18 71 48 39 59
REMARK Flexibility Score: inf
ROOT
ATOM      1  O   UNL     1       3.168   0.849   2.011  1.00  0.00    -0.374 OA
ENDROOT
BRANCH   1   2
ATOM      2  C   UNL     1       3.498   0.097   0.840  1.00  0.00     0.202 C 
BRANCH   2   3
ATOM      3  C   UNL     1       3.024  -1.361   0.794  1.00  0.00     0.261 C 
BRANCH   3   4
ATOM      4  O   UNL     1       1.589  -1.447   0.683  1.00  0.00    -0.459 OA
BRANCH   4   5
ATOM      5  C   UNL     1       0.935  -1.897   1.789  1.00  0.00     0.368 C 
ATOM      6  O   UNL     1       1.503  -2.326   2.791  1.00  0.00    -0.245 OA
BRANCH   5   7
ATOM      7  C   UNL     1      -0.617  -1.690   1.704  1.00  0.00     0.200 C 
ATOM      8  C   UNL     1      -0.954  -0.322   1.120  1.00  0.00     0.087 C 
ATOM      9  C   UNL     1      -1.259  -2.640   0.661  1.00  0.00     0.146 C 
ATOM     10  C   UNL     1      -2.332  -0.470   0.542  1.00  0.00     0.072 C 
ATOM     11  C   UNL     1      -2.494  -1.903   0.073  1.00  0.00     0.191 C 
BRANCH   7  12
ATOM     12  N   UNL     1      -1.125  -1.852   3.097  1.00  0.00    -0.334 N 
ATOM     13  C   UNL     1      -2.476  -1.467   3.434  1.00  0.00     0.331 C 
ATOM     14  H   UNL     1      -1.037  -2.842   3.327  1.00  0.00     0.347 HD
ATOM     15  H   UNL     1      -0.558  -1.190   3.626  1.00  0.00     0.347 HD
ENDBRANCH   7  12
BRANCH  11  16
ATOM     16  N   UNL     1      -2.651  -2.075  -1.375  1.00  0.00    -0.333 N 
ATOM     17  C   UNL     1      -3.784  -2.902  -1.773  1.00  0.00     0.333 C 
ATOM     18  H   UNL     1      -1.790  -2.605  -1.512  1.00  0.00     0.348 HD
BRANCH  16  19
ATOM     19  C   UNL     1      -2.377  -0.969  -2.319  1.00  0.00     0.294 C 
BRANCH  19  20
ATOM     20  C   UNL     1      -3.311   0.290  -2.598  1.00  0.00     0.173 C 
ATOM     21  C   UNL     1      -2.826   1.677  -2.110  1.00  0.00     0.038 C 
ATOM     22  O   UNL     1      -4.710   0.116  -2.386  1.00  0.00    -0.372 OA
ATOM     23  C   UNL     1      -3.467   2.248  -0.840  1.00  0.00     0.005 C 
ATOM     24  C   UNL     1      -5.146   0.306  -1.053  1.00  0.00     0.161 C 
ATOM     25  C   UNL     1      -4.840   1.688  -0.498  1.00  0.00     0.029 C 
ENDBRANCH  19  20
ENDBRANCH  16  19
ENDBRANCH  11  16
ENDBRANCH   5   7
ENDBRANCH   4   5
ENDBRANCH   3   4
ENDBRANCH   2   3
ENDBRANCH   1   2
BRANCH   1  26
ATOM     26  C   UNL     1       1.875   1.447   2.026  1.00  0.00     0.202 C 
BRANCH  26  27
ATOM     27  C   UNL     1       1.686   2.761   1.252  1.00  0.00     0.261 C 
BRANCH  27  28
ATOM     28  O   UNL     1       1.893   2.607  -0.163  1.00  0.00    -0.460 OA
BRANCH  28  29
ATOM     29  C   UNL     1       3.104   3.051  -0.593  1.00  0.00     0.338 C 
ATOM     30  O   UNL     1       3.950   3.619   0.072  1.00  0.00    -0.246 OA
BRANCH  29  31
ATOM     31  C   UNL     1       3.362   2.567  -1.964  1.00  0.00     0.060 A 
ATOM     32  C   UNL     1       4.540   1.839  -2.172  1.00  0.00     0.016 A 
ATOM     33  C   UNL     1       2.522   2.878  -3.035  1.00  0.00     0.016 A 
ATOM     34  C   UNL     1       4.911   1.461  -3.459  1.00  0.00     0.010 A 
ATOM     35  C   UNL     1       2.902   2.506  -4.330  1.00  0.00     0.010 A 
ATOM     36  C   UNL     1       4.116   1.828  -4.552  1.00  0.00    -0.014 A 
BRANCH  36  37
ATOM     37  C   UNL     1       4.640   1.633  -5.928  1.00  0.00     0.031 A 
ATOM     38  C   UNL     1       5.190   2.819  -6.675  1.00  0.00     0.074 A 
ATOM     39  C   UNL     1       4.673   0.408  -6.485  1.00  0.00     0.049 A 
ATOM     40  N   UNL     1       5.662   2.889  -7.892  1.00  0.00    -0.248 NA
ATOM     41  C   UNL     1       5.205   4.098  -5.948  1.00  0.00     0.031 C 
ATOM     42  C   UNL     1       4.224  -0.823  -5.836  1.00  0.00     0.029 A 
ATOM     43  N   UNL     1       5.104  -0.001  -7.722  1.00  0.00    -0.354 N 
ATOM     44  C   UNL     1       6.024   4.220  -8.083  1.00  0.00     0.074 A 
ATOM     45  C   UNL     1       5.676   4.926  -6.867  1.00  0.00     0.031 C 
ATOM     46  C   UNL     1       4.400  -1.851  -6.684  1.00  0.00     0.029 A 
ATOM     47  C   UNL     1       4.927  -1.346  -7.951  1.00  0.00     0.049 A 
ATOM     48  H   UNL     1       5.502   0.610  -8.383  1.00  0.00     0.167 HD
ATOM     49  C   UNL     1       6.600   4.795  -9.167  1.00  0.00     0.034 A 
ATOM     50  C   UNL     1       5.138  -2.079  -9.063  1.00  0.00     0.034 A 
ATOM     51  C   UNL     1       6.933   4.075 -10.373  1.00  0.00     0.049 A 
ATOM     52  C   UNL     1       5.688  -1.397 -10.294  1.00  0.00     0.074 A 
ATOM     53  C   UNL     1       7.531   4.555 -11.526  1.00  0.00     0.029 A 
ATOM     54  N   UNL     1       6.685   2.725 -10.591  1.00  0.00    -0.354 N 
ATOM     55  N   UNL     1       6.026  -0.139 -10.462  1.00  0.00    -0.248 NA
ATOM     56  C   UNL     1       5.892  -2.237 -11.482  1.00  0.00     0.031 C 
ATOM     57  C   UNL     1       7.564   3.521 -12.467  1.00  0.00     0.029 A 
ATOM     58  C   UNL     1       7.079   2.368 -11.872  1.00  0.00     0.049 A 
ATOM     59  H   UNL     1       6.288   2.111  -9.931  1.00  0.00     0.167 HD
ATOM     60  C   UNL     1       6.516  -0.047 -11.764  1.00  0.00     0.074 A 
ATOM     61  C   UNL     1       6.442  -1.379 -12.328  1.00  0.00     0.031 C 
ATOM     62  C   UNL     1       6.991   1.037 -12.430  1.00  0.00     0.034 A 
BRANCH  49  63
ATOM     63  C   UNL     1       6.852   6.284  -9.117  1.00  0.00     0.023 A 
ATOM     64  C   UNL     1       7.732   6.859  -8.183  1.00  0.00     0.031 A 
ATOM     65  C   UNL     1       6.182   7.145 -10.004  1.00  0.00     0.131 A 
ATOM     66  C   UNL     1       7.863   8.255  -8.112  1.00  0.00     0.055 A 
ATOM     67  C   UNL     1       6.383   8.527  -9.986  1.00  0.00     0.041 A 
ATOM     68  F   UNL     1       5.309   6.659 -10.901  1.00  0.00    -0.206 F 
ATOM     69  C   UNL     1       7.216   9.091  -9.025  1.00  0.00     0.022 A 
BRANCH  66  70
ATOM     70  S   UNL     1       8.770   8.971  -6.714  1.00  0.00     0.124 S 
ATOM     71  O   UNL     1       8.030   8.432  -5.575  1.00  0.00    -0.237 OA
ATOM     72  O   UNL     1      10.116   8.445  -6.908  1.00  0.00    -0.237 OA
ATOM     73  O   UNL     1       8.627  10.412  -6.914  1.00  0.00    -0.744 OA
ENDBRANCH  66  70
ENDBRANCH  49  63
BRANCH  50  74
ATOM     74  C   UNL     1       4.788  -3.529  -9.090  1.00  0.00     0.023 A 
ATOM     75  C   UNL     1       5.765  -4.511  -9.317  1.00  0.00     0.031 A 
ATOM     76  C   UNL     1       3.453  -3.951  -8.947  1.00  0.00     0.131 A 
ATOM     77  C   UNL     1       5.388  -5.857  -9.444  1.00  0.00     0.055 A 
ATOM     78  C   UNL     1       3.092  -5.298  -9.011  1.00  0.00     0.041 A 
ATOM     79  F   UNL     1       2.476  -3.055  -8.735  1.00  0.00    -0.206 F 
ATOM     80  C   UNL     1       4.062  -6.260  -9.276  1.00  0.00     0.022 A 
BRANCH  77  81
ATOM     81  S   UNL     1       6.647  -7.068  -9.936  1.00  0.00     0.124 S 
ATOM     82  O   UNL     1       7.105  -6.519 -11.207  1.00  0.00    -0.237 OA
ATOM     83  O   UNL     1       7.590  -6.992  -8.825  1.00  0.00    -0.237 OA
ATOM     84  O   UNL     1       5.897  -8.319 -10.029  1.00  0.00    -0.744 OA
ENDBRANCH  77  81
ENDBRANCH  50  74
BRANCH  62  85
ATOM     85  C   UNL     1       7.518   0.815 -13.829  1.00  0.00     0.023 A 
ATOM     86  C   UNL     1       6.682   0.410 -14.885  1.00  0.00     0.031 A 
ATOM     87  C   UNL     1       8.884   1.005 -14.107  1.00  0.00     0.131 A 
ATOM     88  C   UNL     1       7.230   0.151 -16.151  1.00  0.00     0.055 A 
ATOM     89  C   UNL     1       9.411   0.814 -15.385  1.00  0.00     0.041 A 
ATOM     90  F   UNL     1       9.732   1.386 -13.138  1.00  0.00    -0.206 F 
ATOM     91  C   UNL     1       8.585   0.371 -16.413  1.00  0.00     0.022 A 
BRANCH  88  92
ATOM     92  S   UNL     1       6.168  -0.580 -17.427  1.00  0.00     0.124 S 
ATOM     93  O   UNL     1       5.717  -1.807 -16.779  1.00  0.00    -0.237 OA
ATOM     94  O   UNL     1       5.152   0.451 -17.616  1.00  0.00    -0.237 OA
ATOM     95  O   UNL     1       7.073  -0.772 -18.559  1.00  0.00    -0.744 OA
ENDBRANCH  88  92
ENDBRANCH  62  85
ENDBRANCH  36  37
ENDBRANCH  29  31
ENDBRANCH  28  29
ENDBRANCH  27  28
ENDBRANCH  26  27
ENDBRANCH   1  26
TORSDOF 21
