REMARK SMILES COc1ccc(OCC(=O)N[C@H](C)C(=O)OCCOCCOC(=O)c2ccc(-c3c4nc(c(-c5cc(S(=O)(=O)[O-])ccc5F)c5ccc([nH]5)c(-c5cc(S(=O)(=O)[O-])ccc5F)c5nc(c(-c6cc(S(=O)(=O)[O-])ccc6F)c6ccc3[nH]6)C=C5)C=C4)cc2)cc1
REMARK SMILES IDX 18 1 17 2 16 3 14 4 15 5 12 6 13 7 11 8 9 9 10 10 8 12 7 13
REMARK SMILES IDX 6 14 3 15 4 16 89 17 5 18 88 19 2 20 1 21 19 22 20 23 21 24
REMARK SMILES IDX 22 25 23 26 24 27 25 28 26 29 87 30 27 31 86 32 28 33 29 34
REMARK SMILES IDX 30 35 80 36 31 37 85 38 79 39 81 40 32 41 84 42 78 43 77 44
REMARK SMILES IDX 33 46 65 47 45 48 64 49 46 50 49 51 63 52 82 53 47 54 48 55
REMARK SMILES IDX 62 57 83 58 50 59 34 60 35 61 43 62 36 63 42 64 44 65 41 66
REMARK SMILES IDX 37 67 38 68 39 69 40 70 66 71 67 72 75 73 68 74 74 75 76 76
REMARK SMILES IDX 73 77 69 78 70 79 71 80 72 81 51 82 52 83 60 84 53 85 59 86
REMARK SMILES IDX 61 87 58 88 54 89 55 90 56 91 57 92
REMARK H PARENT 11 11 81 45 49 56
REMARK Flexibility Score: inf
ROOT
ATOM      1  C   UNL     1       2.767   1.310 -11.537  1.00  0.00     0.202 C 
ENDROOT
BRANCH   1   2
ATOM      2  C   UNL     1       1.398   1.395 -10.860  1.00  0.00     0.261 C 
BRANCH   2   3
ATOM      3  O   UNL     1       1.503   1.110  -9.453  1.00  0.00    -0.462 OA
BRANCH   3   4
ATOM      4  C   UNL     1       0.695   0.121  -8.984  1.00  0.00     0.328 C 
ATOM      5  O   UNL     1      -0.186  -0.438  -9.629  1.00  0.00    -0.250 OA
BRANCH   4   6
ATOM      6  C   UNL     1       0.914  -0.141  -7.491  1.00  0.00     0.189 C 
ATOM      7  C   UNL     1       2.361  -0.208  -7.036  1.00  0.00     0.043 C 
BRANCH   6   8
ATOM      8  N   UNL     1      -0.003   0.694  -6.724  1.00  0.00    -0.340 N 
ATOM      9  C   UNL     1       0.071   1.983  -6.303  1.00  0.00     0.258 C 
ATOM     10  O   UNL     1      -0.989   2.515  -5.955  1.00  0.00    -0.271 OA
ATOM     11  H   UNL     1      -0.834   0.237  -6.463  1.00  0.00     0.164 HD
BRANCH   9  12
ATOM     12  C   UNL     1       1.397   2.759  -6.234  1.00  0.00     0.329 C 
BRANCH  12  13
ATOM     13  O   UNL     1       2.457   2.277  -5.420  1.00  0.00    -0.484 OA
BRANCH  13  14
ATOM     14  C   UNL     1       2.175   1.891  -4.141  1.00  0.00     0.120 A 
ATOM     15  C   UNL     1       1.732   0.772  -1.609  1.00  0.00     0.119 A 
ATOM     16  C   UNL     1       2.921   0.513  -2.289  1.00  0.00     0.050 A 
ATOM     17  C   UNL     1       0.806   1.656  -2.159  1.00  0.00     0.050 A 
ATOM     18  C   UNL     1       3.139   1.069  -3.551  1.00  0.00     0.050 A 
ATOM     19  C   UNL     1       1.036   2.227  -3.416  1.00  0.00     0.050 A 
BRANCH  15  20
ATOM     20  O   UNL     1       1.590   0.153  -0.397  1.00  0.00    -0.497 OA
ATOM     21  C   UNL     1       0.256  -0.246  -0.095  1.00  0.00     0.278 C 
ENDBRANCH  15  20
ENDBRANCH  13  14
ENDBRANCH  12  13
ENDBRANCH   9  12
ENDBRANCH   6   8
ENDBRANCH   4   6
ENDBRANCH   3   4
ENDBRANCH   2   3
ENDBRANCH   1   2
BRANCH   1  22
ATOM     22  O   UNL     1       3.369   0.014 -11.575  1.00  0.00    -0.374 OA
BRANCH  22  23
ATOM     23  C   UNL     1       3.925  -0.485 -10.361  1.00  0.00     0.202 C 
BRANCH  23  24
ATOM     24  C   UNL     1       5.277   0.087  -9.917  1.00  0.00     0.261 C 
BRANCH  24  25
ATOM     25  O   UNL     1       5.229   1.498  -9.647  1.00  0.00    -0.460 OA
BRANCH  25  26
ATOM     26  C   UNL     1       5.885   2.263 -10.555  1.00  0.00     0.338 C 
ATOM     27  O   UNL     1       6.537   1.863 -11.512  1.00  0.00    -0.246 OA
BRANCH  26  28
ATOM     28  C   UNL     1       5.561   3.688 -10.361  1.00  0.00     0.060 A 
ATOM     29  C   UNL     1       5.066   4.390 -11.468  1.00  0.00     0.016 A 
ATOM     30  C   UNL     1       5.811   4.349  -9.157  1.00  0.00     0.016 A 
ATOM     31  C   UNL     1       4.863   5.766 -11.389  1.00  0.00     0.010 A 
ATOM     32  C   UNL     1       5.615   5.734  -9.084  1.00  0.00     0.010 A 
ATOM     33  C   UNL     1       5.172   6.454 -10.209  1.00  0.00    -0.014 A 
BRANCH  33  34
ATOM     34  C   UNL     1       5.174   7.939 -10.215  1.00  0.00     0.031 A 
ATOM     35  C   UNL     1       6.482   8.666 -10.378  1.00  0.00     0.074 A 
ATOM     36  C   UNL     1       4.022   8.629 -10.127  1.00  0.00     0.049 A 
ATOM     37  N   UNL     1       6.721   9.952 -10.401  1.00  0.00    -0.248 NA
ATOM     38  C   UNL     1       7.679   7.827 -10.536  1.00  0.00     0.031 C 
ATOM     39  C   UNL     1       2.691   8.035 -10.018  1.00  0.00     0.029 A 
ATOM     40  N   UNL     1       3.789   9.982 -10.115  1.00  0.00    -0.354 N 
ATOM     41  C   UNL     1       8.095  10.079 -10.576  1.00  0.00     0.074 A 
ATOM     42  C   UNL     1       8.638   8.737 -10.613  1.00  0.00     0.031 C 
ATOM     43  C   UNL     1       1.779   9.021  -9.942  1.00  0.00     0.029 A 
ATOM     44  C   UNL     1       2.463  10.313  -9.959  1.00  0.00     0.049 A 
ATOM     45  H   UNL     1       4.504  10.652 -10.209  1.00  0.00     0.167 HD
ATOM     46  C   UNL     1       8.833  11.209 -10.705  1.00  0.00     0.034 A 
ATOM     47  C   UNL     1       1.873  11.518  -9.820  1.00  0.00     0.034 A 
ATOM     48  C   UNL     1       8.278  12.540 -10.655  1.00  0.00     0.049 A 
ATOM     49  C   UNL     1       2.729  12.762  -9.864  1.00  0.00     0.074 A 
ATOM     50  C   UNL     1       8.932  13.752 -10.797  1.00  0.00     0.029 A 
ATOM     51  N   UNL     1       6.940  12.837 -10.430  1.00  0.00    -0.354 N 
ATOM     52  N   UNL     1       4.025  12.869 -10.045  1.00  0.00    -0.248 NA
ATOM     53  C   UNL     1       2.040  14.048  -9.687  1.00  0.00     0.031 C 
ATOM     54  C   UNL     1       8.005  14.778 -10.582  1.00  0.00     0.029 A 
ATOM     55  C   UNL     1       6.757  14.210 -10.386  1.00  0.00     0.049 A 
ATOM     56  H   UNL     1       6.226  12.168 -10.318  1.00  0.00     0.167 HD
ATOM     57  C   UNL     1       4.300  14.234 -10.032  1.00  0.00     0.074 A 
ATOM     58  C   UNL     1       3.035  14.911  -9.836  1.00  0.00     0.031 C 
ATOM     59  C   UNL     1       5.490  14.872 -10.175  1.00  0.00     0.034 A 
BRANCH  46  60
ATOM     60  C   UNL     1      10.326  11.049 -10.858  1.00  0.00     0.023 A 
ATOM     61  C   UNL     1      10.894  10.419 -11.979  1.00  0.00     0.031 A 
ATOM     62  C   UNL     1      11.195  11.509  -9.852  1.00  0.00     0.131 A 
ATOM     63  C   UNL     1      12.280  10.205 -12.036  1.00  0.00     0.055 A 
ATOM     64  C   UNL     1      12.579  11.363  -9.950  1.00  0.00     0.041 A 
ATOM     65  F   UNL     1      10.709  12.099  -8.748  1.00  0.00    -0.206 F 
ATOM     66  C   UNL     1      13.129  10.694 -11.040  1.00  0.00     0.022 A 
BRANCH  63  67
ATOM     67  S   UNL     1      12.943   9.155 -13.358  1.00  0.00     0.124 S 
ATOM     68  O   UNL     1      12.216   7.907 -13.136  1.00  0.00    -0.237 OA
ATOM     69  O   UNL     1      12.585   9.898 -14.560  1.00  0.00    -0.237 OA
ATOM     70  O   UNL     1      14.373   9.094 -13.063  1.00  0.00    -0.744 OA
ENDBRANCH  63  67
ENDBRANCH  46  60
BRANCH  47  71
ATOM     71  C   UNL     1       0.405  11.616  -9.577  1.00  0.00     0.023 A 
ATOM     72  C   UNL     1      -0.445  12.257 -10.492  1.00  0.00     0.031 A 
ATOM     73  C   UNL     1      -0.161  11.116  -8.390  1.00  0.00     0.131 A 
ATOM     74  C   UNL     1      -1.806  12.419 -10.186  1.00  0.00     0.055 A 
ATOM     75  C   UNL     1      -1.524  11.234  -8.114  1.00  0.00     0.041 A 
ATOM     76  F   UNL     1       0.608  10.498  -7.479  1.00  0.00    -0.206 F 
ATOM     77  C   UNL     1      -2.353  11.900  -9.010  1.00  0.00     0.022 A 
BRANCH  74  78
ATOM     78  S   UNL     1      -2.839  13.397 -11.312  1.00  0.00     0.124 S 
ATOM     79  O   UNL     1      -2.145  14.680 -11.313  1.00  0.00    -0.237 OA
ATOM     80  O   UNL     1      -2.759  12.622 -12.546  1.00  0.00    -0.237 OA
ATOM     81  O   UNL     1      -4.147  13.396 -10.661  1.00  0.00    -0.744 OA
ENDBRANCH  74  78
ENDBRANCH  47  71
BRANCH  59  82
ATOM     82  C   UNL     1       5.471  16.382 -10.165  1.00  0.00     0.023 A 
ATOM     83  C   UNL     1       5.164  17.111  -9.002  1.00  0.00     0.031 A 
ATOM     84  C   UNL     1       5.771  17.100 -11.336  1.00  0.00     0.131 A 
ATOM     85  C   UNL     1       5.122  18.513  -9.048  1.00  0.00     0.055 A 
ATOM     86  C   UNL     1       5.782  18.495 -11.361  1.00  0.00     0.041 A 
ATOM     87  F   UNL     1       6.069  16.454 -12.476  1.00  0.00    -0.206 F 
ATOM     88  C   UNL     1       5.447  19.209 -10.215  1.00  0.00     0.022 A 
BRANCH  85  89
ATOM     89  S   UNL     1       4.569  19.419  -7.577  1.00  0.00     0.124 S 
ATOM     90  O   UNL     1       3.215  18.905  -7.396  1.00  0.00    -0.237 OA
ATOM     91  O   UNL     1       5.545  19.012  -6.572  1.00  0.00    -0.237 OA
ATOM     92  O   UNL     1       4.650  20.820  -7.986  1.00  0.00    -0.744 OA
ENDBRANCH  85  89
ENDBRANCH  59  82
ENDBRANCH  33  34
ENDBRANCH  26  28
ENDBRANCH  25  26
ENDBRANCH  24  25
ENDBRANCH  23  24
ENDBRANCH  22  23
ENDBRANCH   1  22
TORSDOF 22
