REMARK SMILES C=CCN(CC(=O)OCCOCCOC(=O)c1ccc(-c2c3nc(c(-c4cc(S(=O)(=O)[O-])ccc4F)c4ccc([nH]4)c(-c4cc(S(=O)(=O)[O-])ccc4F)c4nc(c(-c5cc(S(=O)(=O)[O-])ccc5F)c5ccc2[nH]5)C=C4)C=C3)cc1)C(=O)[C@@H]1Oc2ccccc2O[C@H]1C
REMARK SMILES IDX 11 1 10 2 9 3 8 4 6 5 7 6 5 7 4 8 3 9 2 10 1 11 80 12 81 13
REMARK SMILES IDX 82 14 83 15 91 16 84 17 90 18 92 19 85 20 89 21 86 22 88 23
REMARK SMILES IDX 87 24 12 25 13 26 14 27 15 28 16 29 17 30 18 31 79 32 19 33
REMARK SMILES IDX 78 34 20 35 21 36 22 37 72 38 23 39 77 40 71 41 73 42 24 43
REMARK SMILES IDX 76 44 70 45 69 46 25 48 57 49 37 50 56 51 38 52 41 53 55 54
REMARK SMILES IDX 74 55 39 56 40 57 54 59 75 60 42 61 26 62 27 63 35 64 28 65
REMARK SMILES IDX 34 66 36 67 33 68 29 69 30 70 31 71 32 72 58 73 59 74 67 75
REMARK SMILES IDX 60 76 66 77 68 78 65 79 61 80 62 81 63 82 64 83 43 84 44 85
REMARK SMILES IDX 52 86 45 87 51 88 53 89 50 90 46 91 47 92 48 93 49 94
REMARK H PARENT 73 47 41 58
REMARK Flexibility Score: inf
ROOT
ATOM      1  O   UNL     1      -6.748   4.300  -0.489  1.00  0.00    -0.374 OA
ENDROOT
BRANCH   1   2
ATOM      2  C   UNL     1      -6.904   2.895  -0.645  1.00  0.00     0.202 C 
BRANCH   2   3
ATOM      3  C   UNL     1      -5.907   2.210  -1.590  1.00  0.00     0.261 C 
BRANCH   3   4
ATOM      4  O   UNL     1      -4.508   2.415  -1.264  1.00  0.00    -0.462 OA
BRANCH   4   5
ATOM      5  C   UNL     1      -3.722   2.744  -2.331  1.00  0.00     0.325 C 
ATOM      6  O   UNL     1      -4.152   2.939  -3.466  1.00  0.00    -0.250 OA
BRANCH   5   7
ATOM      7  C   UNL     1      -2.256   3.054  -1.997  1.00  0.00     0.242 C 
BRANCH   7   8
ATOM      8  N   UNL     1      -1.514   2.413  -0.905  1.00  0.00    -0.325 N 
BRANCH   8   9
ATOM      9  C   UNL     1      -1.240   0.981  -1.064  1.00  0.00     0.147 C 
BRANCH   9  10
ATOM     10  C   UNL     1       0.217   0.743  -1.352  1.00  0.00    -0.014 C 
ATOM     11  C   UNL     1       0.972  -0.193  -0.760  1.00  0.00     0.006 C 
ENDBRANCH   9  10
ENDBRANCH   8   9
BRANCH   8  12
ATOM     12  C   UNL     1      -0.568   3.228  -0.272  1.00  0.00     0.268 C 
ATOM     13  O   UNL     1       0.050   4.079  -0.924  1.00  0.00    -0.270 OA
BRANCH  12  14
ATOM     14  C   UNL     1      -0.502   3.260   1.279  1.00  0.00     0.302 C 
ATOM     15  O   UNL     1       0.024   2.178   2.029  1.00  0.00    -0.473 OA
ATOM     16  C   UNL     1      -1.871   3.774   1.756  1.00  0.00     0.221 C 
ATOM     17  C   UNL     1      -0.914   1.219   2.264  1.00  0.00     0.162 A 
ATOM     18  O   UNL     1      -2.763   2.762   2.226  1.00  0.00    -0.482 OA
ATOM     19  C   UNL     1      -1.756   4.914   2.766  1.00  0.00     0.057 C 
ATOM     20  C   UNL     1      -0.474  -0.092   2.441  1.00  0.00     0.050 A 
ATOM     21  C   UNL     1      -2.270   1.497   2.224  1.00  0.00     0.161 A 
ATOM     22  C   UNL     1      -1.395  -1.142   2.427  1.00  0.00     0.004 A 
ATOM     23  C   UNL     1      -3.183   0.449   2.159  1.00  0.00     0.050 A 
ATOM     24  C   UNL     1      -2.750  -0.873   2.248  1.00  0.00     0.004 A 
ENDBRANCH  12  14
ENDBRANCH   8  12
ENDBRANCH   7   8
ENDBRANCH   5   7
ENDBRANCH   4   5
ENDBRANCH   3   4
ENDBRANCH   2   3
ENDBRANCH   1   2
BRANCH   1  25
ATOM     25  C   UNL     1      -5.718   4.757   0.381  1.00  0.00     0.202 C 
BRANCH  25  26
ATOM     26  C   UNL     1      -5.356   3.894   1.585  1.00  0.00     0.261 C 
BRANCH  26  27
ATOM     27  O   UNL     1      -6.458   3.527   2.417  1.00  0.00    -0.460 OA
BRANCH  27  28
ATOM     28  C   UNL     1      -6.005   3.099   3.635  1.00  0.00     0.338 C 
ATOM     29  O   UNL     1      -5.174   3.653   4.315  1.00  0.00    -0.246 OA
BRANCH  28  30
ATOM     30  C   UNL     1      -6.448   1.696   3.841  1.00  0.00     0.060 A 
ATOM     31  C   UNL     1      -7.724   1.255   3.498  1.00  0.00     0.016 A 
ATOM     32  C   UNL     1      -5.505   0.787   4.329  1.00  0.00     0.016 A 
ATOM     33  C   UNL     1      -8.071  -0.085   3.711  1.00  0.00     0.010 A 
ATOM     34  C   UNL     1      -5.818  -0.572   4.421  1.00  0.00     0.010 A 
ATOM     35  C   UNL     1      -7.128  -1.013   4.191  1.00  0.00    -0.014 A 
BRANCH  35  36
ATOM     36  C   UNL     1      -7.562  -2.384   4.598  1.00  0.00     0.031 A 
ATOM     37  C   UNL     1      -7.436  -2.805   6.047  1.00  0.00     0.074 A 
ATOM     38  C   UNL     1      -8.118  -3.234   3.709  1.00  0.00     0.049 A 
ATOM     39  N   UNL     1      -7.856  -3.898   6.636  1.00  0.00    -0.248 NA
ATOM     40  C   UNL     1      -6.715  -1.891   6.945  1.00  0.00     0.031 C 
ATOM     41  C   UNL     1      -8.249  -2.992   2.272  1.00  0.00     0.029 A 
ATOM     42  N   UNL     1      -8.703  -4.465   3.891  1.00  0.00    -0.354 N 
ATOM     43  C   UNL     1      -7.441  -3.797   7.962  1.00  0.00     0.074 A 
ATOM     44  C   UNL     1      -6.650  -2.594   8.061  1.00  0.00     0.031 C 
ATOM     45  C   UNL     1      -8.924  -4.012   1.714  1.00  0.00     0.029 A 
ATOM     46  C   UNL     1      -9.256  -4.992   2.745  1.00  0.00     0.049 A 
ATOM     47  H   UNL     1      -8.724  -4.927   4.760  1.00  0.00     0.167 HD
ATOM     48  C   UNL     1      -7.731  -4.598   9.018  1.00  0.00     0.034 A 
ATOM     49  C   UNL     1      -9.968  -6.122   2.551  1.00  0.00     0.034 A 
ATOM     50  C   UNL     1      -8.540  -5.785   8.923  1.00  0.00     0.049 A 
ATOM     51  C   UNL     1     -10.294  -6.999   3.737  1.00  0.00     0.074 A 
ATOM     52  C   UNL     1      -8.930  -6.649   9.930  1.00  0.00     0.029 A 
ATOM     53  N   UNL     1      -9.085  -6.277   7.744  1.00  0.00    -0.354 N 
ATOM     54  N   UNL     1      -9.955  -6.848   4.997  1.00  0.00    -0.248 NA
ATOM     55  C   UNL     1     -11.121  -8.185   3.477  1.00  0.00     0.031 C 
ATOM     56  C   UNL     1      -9.658  -7.695   9.353  1.00  0.00     0.029 A 
ATOM     57  C   UNL     1      -9.789  -7.443   7.996  1.00  0.00     0.049 A 
ATOM     58  H   UNL     1      -8.986  -5.858   6.859  1.00  0.00     0.167 HD
ATOM     59  C   UNL     1     -10.559  -7.901   5.683  1.00  0.00     0.074 A 
ATOM     60  C   UNL     1     -11.292  -8.669   4.698  1.00  0.00     0.031 C 
ATOM     61  C   UNL     1     -10.518  -8.201   7.006  1.00  0.00     0.034 A 
BRANCH  48  62
ATOM     62  C   UNL     1      -7.143  -4.206  10.356  1.00  0.00     0.023 A 
ATOM     63  C   UNL     1      -7.449  -2.972  10.961  1.00  0.00     0.031 A 
ATOM     64  C   UNL     1      -6.205  -5.034  10.996  1.00  0.00     0.131 A 
ATOM     65  C   UNL     1      -6.743  -2.554  12.098  1.00  0.00     0.055 A 
ATOM     66  C   UNL     1      -5.579  -4.654  12.186  1.00  0.00     0.041 A 
ATOM     67  F   UNL     1      -5.857  -6.214  10.461  1.00  0.00    -0.206 F 
ATOM     68  C   UNL     1      -5.828  -3.397  12.731  1.00  0.00     0.022 A 
BRANCH  65  69
ATOM     69  S   UNL     1      -6.896  -0.822  12.619  1.00  0.00     0.124 S 
ATOM     70  O   UNL     1      -6.463  -0.115  11.416  1.00  0.00    -0.237 OA
ATOM     71  O   UNL     1      -8.312  -0.715  12.949  1.00  0.00    -0.237 OA
ATOM     72  O   UNL     1      -5.980  -0.723  13.754  1.00  0.00    -0.744 OA
ENDBRANCH  65  69
ENDBRANCH  48  62
BRANCH  49  73
ATOM     73  C   UNL     1     -10.447  -6.490   1.186  1.00  0.00     0.023 A 
ATOM     74  C   UNL     1     -11.817  -6.532   0.877  1.00  0.00     0.031 A 
ATOM     75  C   UNL     1      -9.535  -6.855   0.180  1.00  0.00     0.131 A 
ATOM     76  C   UNL     1     -12.237  -6.974  -0.389  1.00  0.00     0.055 A 
ATOM     77  C   UNL     1      -9.956  -7.248  -1.092  1.00  0.00     0.041 A 
ATOM     78  F   UNL     1      -8.214  -6.827   0.420  1.00  0.00    -0.206 F 
ATOM     79  C   UNL     1     -11.315  -7.321  -1.378  1.00  0.00     0.022 A 
BRANCH  76  80
ATOM     80  S   UNL     1     -14.015  -7.159  -0.703  1.00  0.00     0.124 S 
ATOM     81  O   UNL     1     -14.397  -8.130   0.315  1.00  0.00    -0.237 OA
ATOM     82  O   UNL     1     -14.500  -5.796  -0.507  1.00  0.00    -0.237 OA
ATOM     83  O   UNL     1     -14.068  -7.643  -2.081  1.00  0.00    -0.744 OA
ENDBRANCH  76  80
ENDBRANCH  49  73
BRANCH  61  84
ATOM     84  C   UNL     1     -11.336  -9.380   7.477  1.00  0.00     0.023 A 
ATOM     85  C   UNL     1     -11.035 -10.697   7.091  1.00  0.00     0.031 A 
ATOM     86  C   UNL     1     -12.438  -9.176   8.328  1.00  0.00     0.131 A 
ATOM     87  C   UNL     1     -11.859 -11.753   7.509  1.00  0.00     0.055 A 
ATOM     88  C   UNL     1     -13.217 -10.237   8.790  1.00  0.00     0.041 A 
ATOM     89  F   UNL     1     -12.771  -7.938   8.729  1.00  0.00    -0.206 F 
ATOM     90  C   UNL     1     -12.938 -11.533   8.370  1.00  0.00     0.022 A 
BRANCH  87  91
ATOM     91  S   UNL     1     -11.560 -13.411   6.836  1.00  0.00     0.124 S 
ATOM     92  O   UNL     1     -11.645 -13.175   5.398  1.00  0.00    -0.237 OA
ATOM     93  O   UNL     1     -10.232 -13.723   7.354  1.00  0.00    -0.237 OA
ATOM     94  O   UNL     1     -12.648 -14.211   7.397  1.00  0.00    -0.744 OA
ENDBRANCH  87  91
ENDBRANCH  61  84
ENDBRANCH  35  36
ENDBRANCH  28  30
ENDBRANCH  27  28
ENDBRANCH  26  27
ENDBRANCH  25  26
ENDBRANCH   1  25
TORSDOF 22
