REMARK SMILES C[C@@H](c1ccncc1)N1C[C@@H](C(=O)OCCOCCOC(=O)c2ccc(-c3c4nc(c(-c5cc(S(=O)(=O)[O-])ccc5F)c5ccc([nH]5)c(-c5cc(S(=O)(=O)[O-])ccc5F)c5nc(c(-c6cc(S(=O)(=O)[O-])ccc6F)c6ccc3[nH]6)C=C5)C=C4)cc2)CC1=O
REMARK SMILES IDX 18 1 17 2 16 3 15 4 14 5 12 6 13 7 11 8 9 9 10 10 87 11
REMARK SMILES IDX 86 12 88 13 2 14 1 15 3 16 4 17 8 18 5 19 7 20 6 21 19 22
REMARK SMILES IDX 20 23 21 24 22 25 23 26 24 27 85 28 25 29 84 30 26 31 27 32
REMARK SMILES IDX 28 33 78 34 29 35 83 36 77 37 79 38 30 39 82 40 76 41 75 42
REMARK SMILES IDX 31 44 63 45 43 46 62 47 44 48 47 49 61 50 80 51 45 52 46 53
REMARK SMILES IDX 60 55 81 56 48 57 32 58 33 59 41 60 34 61 40 62 42 63 39 64
REMARK SMILES IDX 35 65 36 66 37 67 38 68 64 69 65 70 73 71 66 72 72 73 74 74
REMARK SMILES IDX 71 75 67 76 68 77 69 78 70 79 49 80 50 81 58 82 51 83 57 84
REMARK SMILES IDX 59 85 56 86 52 87 53 88 54 89 55 90
REMARK H PARENT 79 43 47 54
REMARK Flexibility Score: inf
ROOT
ATOM      1  C   UNL     1      -6.779  -1.622  -1.255  1.00  0.00     0.202 C 
ENDROOT
BRANCH   1   2
ATOM      2  O   UNL     1      -7.234  -2.931  -0.914  1.00  0.00    -0.374 OA
BRANCH   2   3
ATOM      3  C   UNL     1      -6.884  -3.472   0.356  1.00  0.00     0.202 C 
BRANCH   3   4
ATOM      4  C   UNL     1      -5.434  -3.916   0.565  1.00  0.00     0.261 C 
BRANCH   4   5
ATOM      5  O   UNL     1      -4.493  -2.886   0.230  1.00  0.00    -0.463 OA
BRANCH   5   6
ATOM      6  C   UNL     1      -3.818  -3.094  -0.925  1.00  0.00     0.311 C 
ATOM      7  O   UNL     1      -3.886  -4.100  -1.623  1.00  0.00    -0.252 OA
BRANCH   6   8
ATOM      8  C   UNL     1      -2.917  -1.957  -1.295  1.00  0.00     0.128 C 
ATOM      9  N   UNL     1      -0.774  -1.141  -0.843  1.00  0.00    -0.335 N 
ATOM     10  C   UNL     1      -1.517  -2.377  -0.922  1.00  0.00     0.136 C 
ATOM     11  C   UNL     1      -1.650  -0.057  -0.799  1.00  0.00     0.224 C 
ATOM     12  C   UNL     1      -3.055  -0.597  -0.642  1.00  0.00     0.117 C 
ATOM     13  O   UNL     1      -1.374   1.129  -0.861  1.00  0.00    -0.275 OA
BRANCH   9  14
ATOM     14  C   UNL     1       0.701  -1.069  -0.961  1.00  0.00     0.112 C 
ATOM     15  C   UNL     1       1.285   0.078  -0.118  1.00  0.00     0.036 C 
BRANCH  14  16
ATOM     16  C   UNL     1       1.386  -2.411  -0.661  1.00  0.00    -0.023 A 
ATOM     17  C   UNL     1       1.295  -3.471  -1.579  1.00  0.00     0.026 A 
ATOM     18  C   UNL     1       2.075  -2.666   0.532  1.00  0.00     0.026 A 
ATOM     19  C   UNL     1       1.786  -4.721  -1.232  1.00  0.00     0.111 A 
ATOM     20  C   UNL     1       2.589  -3.935   0.763  1.00  0.00     0.111 A 
ATOM     21  N   UNL     1       2.442  -4.974  -0.084  1.00  0.00    -0.265 NA
ENDBRANCH  14  16
ENDBRANCH   9  14
ENDBRANCH   6   8
ENDBRANCH   5   6
ENDBRANCH   4   5
ENDBRANCH   3   4
ENDBRANCH   2   3
ENDBRANCH   1   2
BRANCH   1  22
ATOM     22  C   UNL     1      -7.272  -0.426  -0.431  1.00  0.00     0.261 C 
BRANCH  22  23
ATOM     23  O   UNL     1      -6.842  -0.464   0.941  1.00  0.00    -0.460 OA
BRANCH  23  24
ATOM     24  C   UNL     1      -7.854  -0.566   1.838  1.00  0.00     0.338 C 
ATOM     25  O   UNL     1      -9.054  -0.600   1.587  1.00  0.00    -0.246 OA
BRANCH  24  26
ATOM     26  C   UNL     1      -7.331  -0.834   3.187  1.00  0.00     0.060 A 
ATOM     27  C   UNL     1      -7.776  -1.995   3.835  1.00  0.00     0.016 A 
ATOM     28  C   UNL     1      -6.519   0.085   3.854  1.00  0.00     0.016 A 
ATOM     29  C   UNL     1      -7.452  -2.216   5.171  1.00  0.00     0.010 A 
ATOM     30  C   UNL     1      -6.203  -0.135   5.200  1.00  0.00     0.010 A 
ATOM     31  C   UNL     1      -6.700  -1.267   5.874  1.00  0.00    -0.014 A 
BRANCH  31  32
ATOM     32  C   UNL     1      -6.578  -1.386   7.348  1.00  0.00     0.031 A 
ATOM     33  C   UNL     1      -7.486  -0.564   8.222  1.00  0.00     0.074 A 
ATOM     34  C   UNL     1      -5.705  -2.250   7.897  1.00  0.00     0.049 A 
ATOM     35  N   UNL     1      -7.540  -0.488   9.527  1.00  0.00    -0.248 NA
ATOM     36  C   UNL     1      -8.464   0.288   7.528  1.00  0.00     0.031 C 
ATOM     37  C   UNL     1      -4.814  -3.136   7.150  1.00  0.00     0.029 A 
ATOM     38  N   UNL     1      -5.425  -2.521   9.213  1.00  0.00    -0.354 N 
ATOM     39  C   UNL     1      -8.554   0.421   9.812  1.00  0.00     0.074 A 
ATOM     40  C   UNL     1      -9.060   0.897   8.542  1.00  0.00     0.031 C 
ATOM     41  C   UNL     1      -4.078  -3.848   8.021  1.00  0.00     0.029 A 
ATOM     42  C   UNL     1      -4.417  -3.441   9.383  1.00  0.00     0.049 A 
ATOM     43  H   UNL     1      -5.900  -2.097   9.963  1.00  0.00     0.167 HD
ATOM     44  C   UNL     1      -9.024   0.815  11.022  1.00  0.00     0.034 A 
ATOM     45  C   UNL     1      -3.820  -3.882  10.508  1.00  0.00     0.034 A 
ATOM     46  C   UNL     1      -8.499   0.339  12.279  1.00  0.00     0.049 A 
ATOM     47  C   UNL     1      -4.298  -3.361  11.843  1.00  0.00     0.074 A 
ATOM     48  C   UNL     1      -8.906   0.663  13.562  1.00  0.00     0.029 A 
ATOM     49  N   UNL     1      -7.442  -0.553  12.414  1.00  0.00    -0.354 N 
ATOM     50  N   UNL     1      -5.260  -2.504  12.100  1.00  0.00    -0.248 NA
ATOM     51  C   UNL     1      -3.614  -3.873  13.038  1.00  0.00     0.031 C 
ATOM     52  C   UNL     1      -8.051   0.026  14.469  1.00  0.00     0.029 A 
ATOM     53  C   UNL     1      -7.161  -0.762  13.756  1.00  0.00     0.049 A 
ATOM     54  H   UNL     1      -6.963  -0.976  11.665  1.00  0.00     0.167 HD
ATOM     55  C   UNL     1      -5.315  -2.401  13.488  1.00  0.00     0.074 A 
ATOM     56  C   UNL     1      -4.300  -3.292  14.011  1.00  0.00     0.031 C 
ATOM     57  C   UNL     1      -6.135  -1.644  14.262  1.00  0.00     0.034 A 
BRANCH  44  58
ATOM     58  C   UNL     1     -10.122   1.852  11.035  1.00  0.00     0.023 A 
ATOM     59  C   UNL     1     -11.395   1.593  10.498  1.00  0.00     0.031 A 
ATOM     60  C   UNL     1      -9.880   3.132  11.566  1.00  0.00     0.131 A 
ATOM     61  C   UNL     1     -12.353   2.617  10.440  1.00  0.00     0.055 A 
ATOM     62  C   UNL     1     -10.864   4.123  11.577  1.00  0.00     0.041 A 
ATOM     63  F   UNL     1      -8.677   3.446  12.071  1.00  0.00    -0.206 F 
ATOM     64  C   UNL     1     -12.104   3.873  10.998  1.00  0.00     0.022 A 
BRANCH  61  65
ATOM     65  S   UNL     1     -13.877   2.330   9.498  1.00  0.00     0.124 S 
ATOM     66  O   UNL     1     -13.349   2.016   8.172  1.00  0.00    -0.237 OA
ATOM     67  O   UNL     1     -14.490   1.222  10.221  1.00  0.00    -0.237 OA
ATOM     68  O   UNL     1     -14.584   3.605   9.594  1.00  0.00    -0.744 OA
ENDBRANCH  61  65
ENDBRANCH  44  58
BRANCH  45  69
ATOM     69  C   UNL     1      -2.675  -4.835  10.431  1.00  0.00     0.023 A 
ATOM     70  C   UNL     1      -2.759  -6.122  10.986  1.00  0.00     0.031 A 
ATOM     71  C   UNL     1      -1.456  -4.448   9.846  1.00  0.00     0.131 A 
ATOM     72  C   UNL     1      -1.632  -6.959  10.984  1.00  0.00     0.055 A 
ATOM     73  C   UNL     1      -0.354  -5.303   9.799  1.00  0.00     0.041 A 
ATOM     74  F   UNL     1      -1.321  -3.228   9.302  1.00  0.00    -0.206 F 
ATOM     75  C   UNL     1      -0.435  -6.563  10.383  1.00  0.00     0.022 A 
BRANCH  72  76
ATOM     76  S   UNL     1      -1.726  -8.545  11.858  1.00  0.00     0.124 S 
ATOM     77  O   UNL     1      -2.063  -8.119  13.212  1.00  0.00    -0.237 OA
ATOM     78  O   UNL     1      -2.780  -9.234  11.121  1.00  0.00    -0.237 OA
ATOM     79  O   UNL     1      -0.386  -9.104  11.694  1.00  0.00    -0.744 OA
ENDBRANCH  72  76
ENDBRANCH  45  69
BRANCH  57  80
ATOM     80  C   UNL     1      -5.994  -1.788  15.759  1.00  0.00     0.023 A 
ATOM     81  C   UNL     1      -4.839  -1.366  16.440  1.00  0.00     0.031 A 
ATOM     82  C   UNL     1      -7.031  -2.367  16.513  1.00  0.00     0.131 A 
ATOM     83  C   UNL     1      -4.724  -1.581  17.823  1.00  0.00     0.055 A 
ATOM     84  C   UNL     1      -6.937  -2.521  17.897  1.00  0.00     0.041 A 
ATOM     85  F   UNL     1      -8.156  -2.790  15.916  1.00  0.00    -0.206 F 
ATOM     86  C   UNL     1      -5.773  -2.140  18.558  1.00  0.00     0.022 A 
BRANCH  83  87
ATOM     87  S   UNL     1      -3.147  -1.204  18.636  1.00  0.00     0.124 S 
ATOM     88  O   UNL     1      -2.215  -2.049  17.897  1.00  0.00    -0.237 OA
ATOM     89  O   UNL     1      -3.018   0.233  18.415  1.00  0.00    -0.237 OA
ATOM     90  O   UNL     1      -3.375  -1.598  20.025  1.00  0.00    -0.744 OA
ENDBRANCH  83  87
ENDBRANCH  57  80
ENDBRANCH  31  32
ENDBRANCH  24  26
ENDBRANCH  23  24
ENDBRANCH  22  23
ENDBRANCH   1  22
TORSDOF 19
