REMARK SMILES O=C(OCCOCCOC(=O)[C@@H]([NH2+]CC1CC1)c1cccc(C2CC2)c1)c1ccc(-c2c3nc(c(-c4cc(S(=O)(=O)[O-])ccc4F)c4ccc([nH]4)c(-c4cc(S(=O)(=O)[O-])ccc4F)c4nc(c(-c5cc(S(=O)(=O)[O-])ccc5F)c5ccc2[nH]5)C=C4)C=C3)cc1
REMARK SMILES IDX 6 1 5 2 4 3 3 4 2 5 1 6 27 7 28 8 89 9 29 10 88 11 30 12
REMARK SMILES IDX 31 13 32 14 82 15 33 16 87 17 81 18 83 19 34 20 86 21 80 22
REMARK SMILES IDX 79 23 35 25 67 26 47 27 66 28 48 29 51 30 65 31 84 32 49 33
REMARK SMILES IDX 50 34 64 36 85 37 52 38 36 39 37 40 45 41 38 42 44 43 46 44
REMARK SMILES IDX 43 45 39 46 40 47 41 48 42 49 68 50 69 51 77 52 70 53 76 54
REMARK SMILES IDX 78 55 75 56 71 57 72 58 73 59 74 60 53 61 54 62 62 63 55 64
REMARK SMILES IDX 61 65 63 66 60 67 56 68 57 69 58 70 59 71 7 72 8 73 9 74
REMARK SMILES IDX 10 75 11 76 12 77 13 78 14 81 15 82 16 83 17 84 18 85 19 86
REMARK SMILES IDX 26 87 20 88 22 89 21 90 23 91 24 92 25 93
REMARK H PARENT 83 24 51 35 13 79 13 80
REMARK Flexibility Score: inf
ROOT
ATOM      1  O   UNL     1       4.212   1.176   0.923  1.00  0.00    -0.374 OA
ENDROOT
BRANCH   1   2
ATOM      2  C   UNL     1       4.544   1.043  -0.461  1.00  0.00     0.202 C 
BRANCH   2   3
ATOM      3  C   UNL     1       4.127  -0.252  -1.186  1.00  0.00     0.261 C 
BRANCH   3   4
ATOM      4  O   UNL     1       2.721  -0.535  -1.027  1.00  0.00    -0.460 OA
BRANCH   4   5
ATOM      5  C   UNL     1       2.135  -1.405  -0.161  1.00  0.00     0.338 C 
ATOM      6  O   UNL     1       0.927  -1.615  -0.252  1.00  0.00    -0.246 OA
BRANCH   5   7
ATOM      7  C   UNL     1       2.896  -2.084   0.929  1.00  0.00     0.060 A 
ATOM      8  C   UNL     1       4.125  -1.630   1.379  1.00  0.00     0.016 A 
ATOM      9  C   UNL     1       2.342  -3.195   1.584  1.00  0.00     0.016 A 
ATOM     10  C   UNL     1       4.820  -2.224   2.389  1.00  0.00     0.010 A 
ATOM     11  C   UNL     1       3.027  -3.807   2.648  1.00  0.00     0.010 A 
ATOM     12  C   UNL     1       4.270  -3.304   3.048  1.00  0.00    -0.014 A 
BRANCH  12  13
ATOM     13  C   UNL     1       5.199  -3.907   4.005  1.00  0.00     0.031 A 
ATOM     14  C   UNL     1       5.995  -5.078   3.528  1.00  0.00     0.074 A 
ATOM     15  C   UNL     1       5.562  -3.172   5.076  1.00  0.00     0.049 A 
ATOM     16  N   UNL     1       6.932  -5.742   4.139  1.00  0.00    -0.248 NA
ATOM     17  C   UNL     1       5.726  -5.536   2.151  1.00  0.00     0.031 C 
ATOM     18  C   UNL     1       4.995  -1.859   5.427  1.00  0.00     0.029 A 
ATOM     19  N   UNL     1       6.544  -3.360   6.005  1.00  0.00    -0.354 N 
ATOM     20  C   UNL     1       7.344  -6.715   3.239  1.00  0.00     0.074 A 
ATOM     21  C   UNL     1       6.558  -6.557   2.037  1.00  0.00     0.031 C 
ATOM     22  C   UNL     1       5.660  -1.357   6.478  1.00  0.00     0.029 A 
ATOM     23  C   UNL     1       6.617  -2.351   6.939  1.00  0.00     0.049 A 
ATOM     24  H   UNL     1       7.142  -4.142   6.008  1.00  0.00     0.167 HD
ATOM     25  C   UNL     1       8.292  -7.660   3.428  1.00  0.00     0.034 A 
ATOM     26  C   UNL     1       7.339  -2.287   8.073  1.00  0.00     0.034 A 
ATOM     27  C   UNL     1       9.021  -7.768   4.663  1.00  0.00     0.049 A 
ATOM     28  C   UNL     1       8.252  -3.455   8.347  1.00  0.00     0.074 A 
ATOM     29  C   UNL     1       9.881  -8.762   5.085  1.00  0.00     0.029 A 
ATOM     30  N   UNL     1       8.966  -6.823   5.686  1.00  0.00    -0.354 N 
ATOM     31  N   UNL     1       8.516  -4.491   7.577  1.00  0.00    -0.248 NA
ATOM     32  C   UNL     1       8.950  -3.462   9.633  1.00  0.00     0.031 C 
ATOM     33  C   UNL     1      10.295  -8.448   6.386  1.00  0.00     0.029 A 
ATOM     34  C   UNL     1       9.760  -7.218   6.746  1.00  0.00     0.049 A 
ATOM     35  H   UNL     1       8.437  -5.993   5.657  1.00  0.00     0.167 HD
ATOM     36  C   UNL     1       9.422  -5.269   8.284  1.00  0.00     0.074 A 
ATOM     37  C   UNL     1       9.688  -4.557   9.522  1.00  0.00     0.031 C 
ATOM     38  C   UNL     1       9.979  -6.466   7.961  1.00  0.00     0.034 A 
BRANCH  25  39
ATOM     39  C   UNL     1       8.450  -8.685   2.336  1.00  0.00     0.023 A 
ATOM     40  C   UNL     1       8.924  -8.344   1.056  1.00  0.00     0.031 A 
ATOM     41  C   UNL     1       7.993  -9.998   2.542  1.00  0.00     0.131 A 
ATOM     42  C   UNL     1       8.855  -9.283   0.013  1.00  0.00     0.055 A 
ATOM     43  C   UNL     1       8.003 -10.950   1.521  1.00  0.00     0.041 A 
ATOM     44  F   UNL     1       7.487 -10.367   3.729  1.00  0.00    -0.206 F 
ATOM     45  C   UNL     1       8.421 -10.591   0.243  1.00  0.00     0.022 A 
BRANCH  42  46
ATOM     46  S   UNL     1       9.183  -8.727  -1.683  1.00  0.00     0.124 S 
ATOM     47  O   UNL     1       8.119  -7.745  -1.882  1.00  0.00    -0.237 OA
ATOM     48  O   UNL     1      10.536  -8.190  -1.586  1.00  0.00    -0.237 OA
ATOM     49  O   UNL     1       9.052  -9.947  -2.476  1.00  0.00    -0.744 OA
ENDBRANCH  42  46
ENDBRANCH  25  39
BRANCH  26  50
ATOM     50  C   UNL     1       7.129  -1.191   9.069  1.00  0.00     0.023 A 
ATOM     51  C   UNL     1       8.193  -0.419   9.560  1.00  0.00     0.031 A 
ATOM     52  C   UNL     1       5.851  -0.960   9.622  1.00  0.00     0.131 A 
ATOM     53  C   UNL     1       7.974   0.495  10.607  1.00  0.00     0.055 A 
ATOM     54  C   UNL     1       5.627  -0.002  10.611  1.00  0.00     0.041 A 
ATOM     55  F   UNL     1       4.790  -1.675   9.213  1.00  0.00    -0.206 F 
ATOM     56  C   UNL     1       6.697   0.719  11.125  1.00  0.00     0.022 A 
BRANCH  53  57
ATOM     57  S   UNL     1       9.409   1.292  11.382  1.00  0.00     0.124 S 
ATOM     58  O   UNL     1      10.232   0.141  11.737  1.00  0.00    -0.237 OA
ATOM     59  O   UNL     1       9.911   2.130  10.299  1.00  0.00    -0.237 OA
ATOM     60  O   UNL     1       8.828   2.015  12.511  1.00  0.00    -0.744 OA
ENDBRANCH  53  57
ENDBRANCH  26  50
BRANCH  38  61
ATOM     61  C   UNL     1      10.950  -7.033   8.960  1.00  0.00     0.023 A 
ATOM     62  C   UNL     1      10.532  -7.440  10.237  1.00  0.00     0.031 A 
ATOM     63  C   UNL     1      12.313  -7.143   8.634  1.00  0.00     0.131 A 
ATOM     64  C   UNL     1      11.482  -7.866  11.173  1.00  0.00     0.055 A 
ATOM     65  C   UNL     1      13.242  -7.642   9.544  1.00  0.00     0.041 A 
ATOM     66  F   UNL     1      12.760  -6.765   7.426  1.00  0.00    -0.206 F 
ATOM     67  C   UNL     1      12.831  -7.990  10.829  1.00  0.00     0.022 A 
BRANCH  64  68
ATOM     68  S   UNL     1      10.946  -8.134  12.883  1.00  0.00     0.124 S 
ATOM     69  O   UNL     1      10.381  -6.834  13.230  1.00  0.00    -0.237 OA
ATOM     70  O   UNL     1       9.990  -9.227  12.741  1.00  0.00    -0.237 OA
ATOM     71  O   UNL     1      12.184  -8.480  13.578  1.00  0.00    -0.744 OA
ENDBRANCH  64  68
ENDBRANCH  38  61
ENDBRANCH  12  13
ENDBRANCH   5   7
ENDBRANCH   4   5
ENDBRANCH   3   4
ENDBRANCH   2   3
ENDBRANCH   1   2
BRANCH   1  72
ATOM     72  C   UNL     1       2.864   1.539   1.222  1.00  0.00     0.202 C 
BRANCH  72  73
ATOM     73  C   UNL     1       2.797   3.003   1.610  1.00  0.00     0.261 C 
BRANCH  73  74
ATOM     74  O   UNL     1       3.158   3.763   0.450  1.00  0.00    -0.459 OA
BRANCH  74  75
ATOM     75  C   UNL     1       4.454   4.184   0.363  1.00  0.00     0.369 C 
ATOM     76  O   UNL     1       5.309   4.013   1.228  1.00  0.00    -0.245 OA
BRANCH  75  77
ATOM     77  C   UNL     1       4.711   4.973  -0.955  1.00  0.00     0.324 C 
BRANCH  77  78
ATOM     78  N   UNL     1       4.163   4.278  -2.142  1.00  0.00    -0.330 N 
ATOM     79  H   UNL     1       3.177   4.524  -2.230  1.00  0.00     0.347 HD
ATOM     80  H   UNL     1       4.309   3.280  -1.992  1.00  0.00     0.347 HD
BRANCH  78  81
ATOM     81  C   UNL     1       4.832   4.618  -3.391  1.00  0.00     0.264 C 
BRANCH  81  82
ATOM     82  C   UNL     1       6.285   4.218  -3.405  1.00  0.00     0.044 C 
ATOM     83  C   UNL     1       6.954   3.727  -4.665  1.00  0.00     0.010 C 
ATOM     84  C   UNL     1       7.251   5.104  -4.151  1.00  0.00     0.010 C 
ENDBRANCH  81  82
ENDBRANCH  78  81
ENDBRANCH  77  78
BRANCH  77  85
ATOM     85  C   UNL     1       4.171   6.377  -0.783  1.00  0.00     0.021 A 
ATOM     86  C   UNL     1       5.010   7.478  -0.935  1.00  0.00     0.010 A 
ATOM     87  C   UNL     1       2.892   6.559  -0.234  1.00  0.00     0.014 A 
ATOM     88  C   UNL     1       4.617   8.706  -0.419  1.00  0.00     0.001 A 
ATOM     89  C   UNL     1       2.564   7.713   0.473  1.00  0.00    -0.044 A 
ATOM     90  C   UNL     1       3.433   8.804   0.324  1.00  0.00     0.004 A 
BRANCH  89  91
ATOM     91  C   UNL     1       1.431   7.729   1.482  1.00  0.00     0.019 C 
ATOM     92  C   UNL     1       0.697   6.487   1.948  1.00  0.00     0.009 C 
ATOM     93  C   UNL     1       1.741   7.093   2.831  1.00  0.00     0.009 C 
ENDBRANCH  89  91
ENDBRANCH  77  85
ENDBRANCH  75  77
ENDBRANCH  74  75
ENDBRANCH  73  74
ENDBRANCH  72  73
ENDBRANCH   1  72
TORSDOF 22
