REMARK SMILES C[C@H](C(=O)OCCOCCOC(=O)c1ccc(-c2c3nc(c(-c4cc(S(=O)(=O)[O-])ccc4F)c4ccc([nH]4)c(-c4cc(S(=O)(=O)[O-])ccc4F)c4nc(c(-c5cc(S(=O)(=O)[O-])ccc5F)c5ccc2[nH]5)C=C4)C=C3)cc1)c1ccc2c3cc(Cl)ccc3n(C(=O)c3cocn3)c2c1
REMARK SMILES IDX 8 1 7 2 6 3 5 4 3 5 4 6 2 7 1 8 77 9 78 10 97 11 79 12 96 13
REMARK SMILES IDX 80 14 88 15 81 16 87 17 82 18 86 19 83 20 85 21 84 22 89 23
REMARK SMILES IDX 90 24 91 25 92 26 95 27 93 28 94 29 9 30 10 31 11 32 12 33
REMARK SMILES IDX 13 34 14 35 15 36 76 37 16 38 75 39 17 40 18 41 19 42 69 43
REMARK SMILES IDX 20 44 74 45 68 46 70 47 21 48 73 49 67 50 66 51 22 53 54 54
REMARK SMILES IDX 34 55 53 56 35 57 38 58 52 59 71 60 36 61 37 62 51 64 72 65
REMARK SMILES IDX 39 66 23 67 24 68 32 69 25 70 31 71 33 72 30 73 26 74 27 75
REMARK SMILES IDX 28 76 29 77 55 78 56 79 64 80 57 81 63 82 65 83 62 84 58 85
REMARK SMILES IDX 59 86 60 87 61 88 40 89 41 90 49 91 42 92 48 93 50 94 47 95
REMARK SMILES IDX 43 96 44 97 45 98 46 99
REMARK H PARENT 70 52 38 63
REMARK Flexibility Score: inf
ROOT
ATOM      1  O   UNL     1       2.493   1.197   2.359  1.00  0.00    -0.374 OA
ENDROOT
BRANCH   1   2
ATOM      2  C   UNL     1       1.807   2.229   1.643  1.00  0.00     0.202 C 
BRANCH   2   3
ATOM      3  C   UNL     1       1.756   2.062   0.123  1.00  0.00     0.261 C 
BRANCH   3   4
ATOM      4  O   UNL     1       0.889   0.964  -0.217  1.00  0.00    -0.463 OA
BRANCH   4   5
ATOM      5  C   UNL     1       1.369   0.045  -1.091  1.00  0.00     0.313 C 
ATOM      6  O   UNL     1       2.441   0.148  -1.682  1.00  0.00    -0.252 OA
BRANCH   5   7
ATOM      7  C   UNL     1       0.508  -1.212  -1.194  1.00  0.00     0.126 C 
ATOM      8  C   UNL     1       1.215  -2.325  -0.397  1.00  0.00     0.025 C 
BRANCH   7   9
ATOM      9  C   UNL     1      -0.996  -1.104  -0.916  1.00  0.00    -0.032 A 
ATOM     10  C   UNL     1      -1.710   0.070  -1.177  1.00  0.00     0.005 A 
ATOM     11  C   UNL     1      -1.725  -2.245  -0.520  1.00  0.00     0.032 A 
ATOM     12  C   UNL     1      -3.107   0.116  -1.083  1.00  0.00     0.011 A 
ATOM     13  C   UNL     1      -3.132  -2.195  -0.402  1.00  0.00     0.058 A 
ATOM     14  C   UNL     1      -3.829  -1.042  -0.737  1.00  0.00     0.008 A 
ATOM     15  N   UNL     1      -4.059  -3.180  -0.021  1.00  0.00    -0.274 N 
ATOM     16  C   UNL     1      -5.214  -1.345  -0.668  1.00  0.00     0.009 A 
ATOM     17  C   UNL     1      -5.350  -2.649  -0.169  1.00  0.00     0.057 A 
ATOM     18  C   UNL     1      -6.362  -0.586  -0.981  1.00  0.00     0.031 A 
ATOM     19  C   UNL     1      -6.629  -3.150   0.151  1.00  0.00     0.029 A 
ATOM     20  C   UNL     1      -7.623  -1.119  -0.736  1.00  0.00     0.041 A 
ATOM     21  C   UNL     1      -7.756  -2.371  -0.153  1.00  0.00     0.023 A 
ATOM     22  Cl  UNL     1      -9.023  -0.207  -1.144  1.00  0.00    -0.084 Cl
BRANCH  15  23
ATOM     23  C   UNL     1      -3.678  -4.466   0.455  1.00  0.00     0.284 C 
ATOM     24  O   UNL     1      -2.599  -4.514   1.045  1.00  0.00    -0.266 OA
BRANCH  23  25
ATOM     25  C   UNL     1      -4.419  -5.710   0.246  1.00  0.00     0.167 A 
ATOM     26  C   UNL     1      -5.357  -6.029  -0.712  1.00  0.00     0.231 A 
ATOM     27  N   UNL     1      -4.122  -6.866   0.963  1.00  0.00    -0.211 NA
ATOM     28  O   UNL     1      -5.661  -7.356  -0.599  1.00  0.00    -0.451 OA
ATOM     29  C   UNL     1      -4.872  -7.791   0.418  1.00  0.00     0.308 A 
ENDBRANCH  23  25
ENDBRANCH  15  23
ENDBRANCH   7   9
ENDBRANCH   5   7
ENDBRANCH   4   5
ENDBRANCH   3   4
ENDBRANCH   2   3
ENDBRANCH   1   2
BRANCH   1  30
ATOM     30  C   UNL     1       1.843  -0.068   2.451  1.00  0.00     0.202 C 
BRANCH  30  31
ATOM     31  C   UNL     1       0.762  -0.234   3.526  1.00  0.00     0.261 C 
BRANCH  31  32
ATOM     32  O   UNL     1      -0.319   0.700   3.394  1.00  0.00    -0.460 OA
BRANCH  32  33
ATOM     33  C   UNL     1      -0.240   1.757   4.236  1.00  0.00     0.338 C 
ATOM     34  O   UNL     1       0.623   1.959   5.083  1.00  0.00    -0.246 OA
BRANCH  33  35
ATOM     35  C   UNL     1      -1.263   2.757   3.893  1.00  0.00     0.060 A 
ATOM     36  C   UNL     1      -0.834   4.074   3.685  1.00  0.00     0.016 A 
ATOM     37  C   UNL     1      -2.622   2.437   3.859  1.00  0.00     0.016 A 
ATOM     38  C   UNL     1      -1.768   5.088   3.493  1.00  0.00     0.010 A 
ATOM     39  C   UNL     1      -3.559   3.458   3.672  1.00  0.00     0.010 A 
ATOM     40  C   UNL     1      -3.138   4.793   3.525  1.00  0.00    -0.014 A 
BRANCH  40  41
ATOM     41  C   UNL     1      -4.121   5.903   3.550  1.00  0.00     0.031 A 
ATOM     42  C   UNL     1      -4.758   6.285   4.858  1.00  0.00     0.074 A 
ATOM     43  C   UNL     1      -4.411   6.585   2.427  1.00  0.00     0.049 A 
ATOM     44  N   UNL     1      -5.668   7.191   5.107  1.00  0.00    -0.248 NA
ATOM     45  C   UNL     1      -4.308   5.540   6.044  1.00  0.00     0.031 C 
ATOM     46  C   UNL     1      -3.818   6.334   1.114  1.00  0.00     0.029 A 
ATOM     47  N   UNL     1      -5.279   7.625   2.211  1.00  0.00    -0.354 N 
ATOM     48  C   UNL     1      -5.903   7.125   6.477  1.00  0.00     0.074 A 
ATOM     49  C   UNL     1      -5.072   6.058   6.993  1.00  0.00     0.031 C 
ATOM     50  C   UNL     1      -4.347   7.192   0.226  1.00  0.00     0.029 A 
ATOM     51  C   UNL     1      -5.346   8.022   0.896  1.00  0.00     0.049 A 
ATOM     52  H   UNL     1      -5.804   8.046   2.929  1.00  0.00     0.167 HD
ATOM     53  C   UNL     1      -6.729   7.891   7.232  1.00  0.00     0.034 A 
ATOM     54  C   UNL     1      -6.144   8.930   0.299  1.00  0.00     0.034 A 
ATOM     55  C   UNL     1      -7.561   8.941   6.694  1.00  0.00     0.049 A 
ATOM     56  C   UNL     1      -7.125   9.707   1.144  1.00  0.00     0.074 A 
ATOM     57  C   UNL     1      -8.429   9.784   7.365  1.00  0.00     0.029 A 
ATOM     58  N   UNL     1      -7.639   9.283   5.349  1.00  0.00    -0.354 N 
ATOM     59  N   UNL     1      -7.338   9.639   2.438  1.00  0.00    -0.248 NA
ATOM     60  C   UNL     1      -7.965  10.691   0.449  1.00  0.00     0.031 C 
ATOM     61  C   UNL     1      -9.089  10.577   6.421  1.00  0.00     0.029 A 
ATOM     62  C   UNL     1      -8.568  10.298   5.168  1.00  0.00     0.049 A 
ATOM     63  H   UNL     1      -7.112   8.866   4.629  1.00  0.00     0.167 HD
ATOM     64  C   UNL     1      -8.314  10.594   2.715  1.00  0.00     0.074 A 
ATOM     65  C   UNL     1      -8.634  11.233   1.455  1.00  0.00     0.031 C 
ATOM     66  C   UNL     1      -8.888  10.918   3.902  1.00  0.00     0.034 A 
BRANCH  53  67
ATOM     67  C   UNL     1      -6.807   7.580   8.709  1.00  0.00     0.023 A 
ATOM     68  C   UNL     1      -5.690   7.706   9.555  1.00  0.00     0.031 A 
ATOM     69  C   UNL     1      -8.009   7.120   9.276  1.00  0.00     0.131 A 
ATOM     70  C   UNL     1      -5.778   7.305  10.897  1.00  0.00     0.055 A 
ATOM     71  C   UNL     1      -8.113   6.803  10.632  1.00  0.00     0.041 A 
ATOM     72  F   UNL     1      -9.104   6.955   8.516  1.00  0.00    -0.206 F 
ATOM     73  C   UNL     1      -6.989   6.880  11.448  1.00  0.00     0.022 A 
BRANCH  70  74
ATOM     74  S   UNL     1      -4.252   7.201  11.873  1.00  0.00     0.124 S 
ATOM     75  O   UNL     1      -3.456   6.270  11.076  1.00  0.00    -0.237 OA
ATOM     76  O   UNL     1      -3.792   8.585  11.887  1.00  0.00    -0.237 OA
ATOM     77  O   UNL     1      -4.704   6.679  13.161  1.00  0.00    -0.744 OA
ENDBRANCH  70  74
ENDBRANCH  53  67
BRANCH  54  78
ATOM     78  C   UNL     1      -6.087   9.124  -1.179  1.00  0.00     0.023 A 
ATOM     79  C   UNL     1      -5.713  10.355  -1.740  1.00  0.00     0.031 A 
ATOM     80  C   UNL     1      -6.455   8.086  -2.055  1.00  0.00     0.131 A 
ATOM     81  C   UNL     1      -5.758  10.532  -3.132  1.00  0.00     0.055 A 
ATOM     82  C   UNL     1      -6.443   8.249  -3.441  1.00  0.00     0.041 A 
ATOM     83  F   UNL     1      -6.824   6.888  -1.573  1.00  0.00    -0.206 F 
ATOM     84  C   UNL     1      -6.106   9.483  -3.987  1.00  0.00     0.022 A 
BRANCH  81  85
ATOM     85  S   UNL     1      -5.442  12.185  -3.809  1.00  0.00     0.124 S 
ATOM     86  O   UNL     1      -6.467  12.979  -3.142  1.00  0.00    -0.237 OA
ATOM     87  O   UNL     1      -4.066  12.426  -3.388  1.00  0.00    -0.237 OA
ATOM     88  O   UNL     1      -5.629  12.004  -5.247  1.00  0.00    -0.744 OA
ENDBRANCH  81  85
ENDBRANCH  54  78
BRANCH  66  89
ATOM     89  C   UNL     1      -9.889  12.050   3.897  1.00  0.00     0.023 A 
ATOM     90  C   UNL     1     -11.119  11.954   3.224  1.00  0.00     0.031 A 
ATOM     91  C   UNL     1      -9.600  13.250   4.574  1.00  0.00     0.131 A 
ATOM     92  C   UNL     1     -11.988  13.056   3.192  1.00  0.00     0.055 A 
ATOM     93  C   UNL     1     -10.498  14.318   4.595  1.00  0.00     0.041 A 
ATOM     94  F   UNL     1      -8.439  13.402   5.231  1.00  0.00    -0.206 F 
ATOM     95  C   UNL     1     -11.694  14.230   3.890  1.00  0.00     0.022 A 
BRANCH  92  96
ATOM     96  S   UNL     1     -13.464  12.973   2.140  1.00  0.00     0.124 S 
ATOM     97  O   UNL     1     -12.885  12.716   0.826  1.00  0.00    -0.237 OA
ATOM     98  O   UNL     1     -14.210  11.868   2.735  1.00  0.00    -0.237 OA
ATOM     99  O   UNL     1     -14.075  14.290   2.302  1.00  0.00    -0.744 OA
ENDBRANCH  92  96
ENDBRANCH  66  89
ENDBRANCH  40  41
ENDBRANCH  33  35
ENDBRANCH  32  33
ENDBRANCH  31  32
ENDBRANCH  30  31
ENDBRANCH   1  30
TORSDOF 20
