REMARK SMILES CC(C)[C@@H](CC(=O)OC(C)(C)C)C(=O)OCCOCCOC(=O)c1ccc(-c2c3nc(c(-c4cc(S(=O)(=O)[O-])ccc4F)c4ccc([nH]4)c(-c4cc(S(=O)(=O)[O-])ccc4F)c4nc(c(-c5cc(S(=O)(=O)[O-])ccc5F)c5ccc2[nH]5)C=C4)C=C3)cc1
REMARK SMILES IDX 17 1 16 2 15 3 13 4 14 5 4 6 2 7 1 8 3 9 5 10 6 11 7 12 8 13
REMARK SMILES IDX 9 14 10 15 11 16 12 17 18 18 19 19 20 20 21 21 22 22 23 23
REMARK SMILES IDX 24 24 25 25 86 26 26 27 85 28 27 29 28 30 29 31 79 32 30 33
REMARK SMILES IDX 84 34 78 35 80 36 31 37 83 38 77 39 76 40 32 42 64 43 44 44
REMARK SMILES IDX 63 45 45 46 48 47 62 48 81 49 46 50 47 51 61 53 82 54 49 55
REMARK SMILES IDX 33 56 34 57 42 58 35 59 41 60 43 61 40 62 36 63 37 64 38 65
REMARK SMILES IDX 39 66 65 67 66 68 74 69 67 70 73 71 75 72 72 73 68 74 69 75
REMARK SMILES IDX 70 76 71 77 50 78 51 79 59 80 52 81 58 82 60 83 57 84 53 85
REMARK SMILES IDX 54 86 55 87 56 88
REMARK H PARENT 80 41 48 52
REMARK Flexibility Score: inf
ROOT
ATOM      1  C   UNL     1      -1.931   5.615   0.704  1.00  0.00     0.202 C 
ENDROOT
BRANCH   1   2
ATOM      2  C   UNL     1      -2.257   4.326   1.464  1.00  0.00     0.261 C 
BRANCH   2   3
ATOM      3  O   UNL     1      -1.335   3.241   1.230  1.00  0.00    -0.463 OA
BRANCH   3   4
ATOM      4  C   UNL     1      -1.835   2.211   0.501  1.00  0.00     0.309 C 
ATOM      5  O   UNL     1      -2.905   2.227  -0.099  1.00  0.00    -0.252 OA
BRANCH   4   6
ATOM      6  C   UNL     1      -0.996   0.946   0.586  1.00  0.00     0.113 C 
BRANCH   6   7
ATOM      7  C   UNL     1       0.543   1.084   0.432  1.00  0.00    -0.003 C 
ATOM      8  C   UNL     1       1.205  -0.300   0.355  1.00  0.00     0.008 C 
ATOM      9  C   UNL     1       0.961   1.878  -0.807  1.00  0.00     0.008 C 
ENDBRANCH   6   7
BRANCH   6  10
ATOM     10  C   UNL     1      -1.476   0.177   1.830  1.00  0.00     0.138 C 
BRANCH  10  11
ATOM     11  C   UNL     1      -1.195   0.881   3.138  1.00  0.00     0.307 C 
ATOM     12  O   UNL     1      -2.071   1.306   3.875  1.00  0.00    -0.252 OA
BRANCH  11  13
ATOM     13  O   UNL     1       0.140   0.945   3.356  1.00  0.00    -0.460 OA
BRANCH  13  14
ATOM     14  C   UNL     1       0.696   1.652   4.495  1.00  0.00     0.104 C 
ATOM     15  C   UNL     1       0.254   3.119   4.532  1.00  0.00     0.056 C 
ATOM     16  C   UNL     1       0.363   0.912   5.791  1.00  0.00     0.056 C 
ATOM     17  C   UNL     1       2.215   1.610   4.266  1.00  0.00     0.056 C 
ENDBRANCH  13  14
ENDBRANCH  11  13
ENDBRANCH  10  11
ENDBRANCH   6  10
ENDBRANCH   4   6
ENDBRANCH   3   4
ENDBRANCH   2   3
ENDBRANCH   1   2
BRANCH   1  18
ATOM     18  O   UNL     1      -2.012   5.568  -0.719  1.00  0.00    -0.374 OA
BRANCH  18  19
ATOM     19  C   UNL     1      -0.954   4.909  -1.409  1.00  0.00     0.202 C 
BRANCH  19  20
ATOM     20  C   UNL     1       0.401   5.629  -1.421  1.00  0.00     0.261 C 
BRANCH  20  21
ATOM     21  O   UNL     1       0.987   5.705  -0.106  1.00  0.00    -0.460 OA
BRANCH  21  22
ATOM     22  C   UNL     1       1.331   6.960   0.271  1.00  0.00     0.338 C 
ATOM     23  O   UNL     1       1.323   7.960  -0.437  1.00  0.00    -0.246 OA
BRANCH  22  24
ATOM     24  C   UNL     1       1.556   7.044   1.726  1.00  0.00     0.060 A 
ATOM     25  C   UNL     1       0.796   7.990   2.425  1.00  0.00     0.016 A 
ATOM     26  C   UNL     1       2.577   6.341   2.371  1.00  0.00     0.016 A 
ATOM     27  C   UNL     1       1.117   8.309   3.741  1.00  0.00     0.010 A 
ATOM     28  C   UNL     1       2.898   6.664   3.699  1.00  0.00     0.010 A 
ATOM     29  C   UNL     1       2.209   7.694   4.368  1.00  0.00    -0.014 A 
BRANCH  29  30
ATOM     30  C   UNL     1       2.728   8.304   5.623  1.00  0.00     0.031 A 
ATOM     31  C   UNL     1       3.918   9.230   5.545  1.00  0.00     0.074 A 
ATOM     32  C   UNL     1       2.084   8.139   6.794  1.00  0.00     0.049 A 
ATOM     33  N   UNL     1       4.477   9.950   6.484  1.00  0.00    -0.248 NA
ATOM     34  C   UNL     1       4.562   9.360   4.228  1.00  0.00     0.031 C 
ATOM     35  C   UNL     1       0.899   7.304   6.994  1.00  0.00     0.029 A 
ATOM     36  N   UNL     1       2.324   8.683   8.032  1.00  0.00    -0.354 N 
ATOM     37  C   UNL     1       5.533  10.621   5.873  1.00  0.00     0.074 A 
ATOM     38  C   UNL     1       5.564  10.184   4.494  1.00  0.00     0.031 C 
ATOM     39  C   UNL     1       0.512   7.399   8.278  1.00  0.00     0.029 A 
ATOM     40  C   UNL     1       1.430   8.281   8.997  1.00  0.00     0.049 A 
ATOM     41  H   UNL     1       3.067   9.302   8.212  1.00  0.00     0.167 HD
ATOM     42  C   UNL     1       6.390  11.528   6.405  1.00  0.00     0.034 A 
ATOM     43  C   UNL     1       1.360   8.588  10.309  1.00  0.00     0.034 A 
ATOM     44  C   UNL     1       6.354  11.961   7.781  1.00  0.00     0.049 A 
ATOM     45  C   UNL     1       2.353   9.568  10.890  1.00  0.00     0.074 A 
ATOM     46  C   UNL     1       7.170  12.880   8.418  1.00  0.00     0.029 A 
ATOM     47  N   UNL     1       5.456  11.503   8.736  1.00  0.00    -0.354 N 
ATOM     48  N   UNL     1       3.335  10.205  10.293  1.00  0.00    -0.248 NA
ATOM     49  C   UNL     1       2.211   9.886  12.316  1.00  0.00     0.031 C 
ATOM     50  C   UNL     1       6.810  12.928   9.770  1.00  0.00     0.029 A 
ATOM     51  C   UNL     1       5.716  12.099   9.962  1.00  0.00     0.049 A 
ATOM     52  H   UNL     1       4.739  10.850   8.569  1.00  0.00     0.167 HD
ATOM     53  C   UNL     1       3.902  11.025  11.267  1.00  0.00     0.074 A 
ATOM     54  C   UNL     1       3.140  10.815  12.480  1.00  0.00     0.031 C 
ATOM     55  C   UNL     1       4.955  11.878  11.168  1.00  0.00     0.034 A 
BRANCH  42  56
ATOM     56  C   UNL     1       7.473  12.072   5.504  1.00  0.00     0.023 A 
ATOM     57  C   UNL     1       7.179  12.873   4.385  1.00  0.00     0.031 A 
ATOM     58  C   UNL     1       8.822  11.766   5.758  1.00  0.00     0.131 A 
ATOM     59  C   UNL     1       8.213  13.287   3.530  1.00  0.00     0.055 A 
ATOM     60  C   UNL     1       9.852  12.243   4.945  1.00  0.00     0.041 A 
ATOM     61  F   UNL     1       9.161  10.987   6.797  1.00  0.00    -0.206 F 
ATOM     62  C   UNL     1       9.549  12.998   3.816  1.00  0.00     0.022 A 
BRANCH  59  63
ATOM     63  S   UNL     1       7.778  14.099   1.968  1.00  0.00     0.124 S 
ATOM     64  O   UNL     1       6.964  13.074   1.319  1.00  0.00    -0.237 OA
ATOM     65  O   UNL     1       7.067  15.290   2.418  1.00  0.00    -0.237 OA
ATOM     66  O   UNL     1       9.073  14.346   1.337  1.00  0.00    -0.744 OA
ENDBRANCH  59  63
ENDBRANCH  42  56
BRANCH  43  67
ATOM     67  C   UNL     1       0.335   7.946  11.183  1.00  0.00     0.023 A 
ATOM     68  C   UNL     1      -0.651   8.702  11.837  1.00  0.00     0.031 A 
ATOM     69  C   UNL     1       0.379   6.563  11.435  1.00  0.00     0.131 A 
ATOM     70  C   UNL     1      -1.516   8.082  12.753  1.00  0.00     0.055 A 
ATOM     71  C   UNL     1      -0.519   5.941  12.304  1.00  0.00     0.041 A 
ATOM     72  F   UNL     1       1.302   5.792  10.838  1.00  0.00    -0.206 F 
ATOM     73  C   UNL     1      -1.464   6.705  12.982  1.00  0.00     0.022 A 
BRANCH  70  74
ATOM     74  S   UNL     1      -2.648   9.118  13.721  1.00  0.00     0.124 S 
ATOM     75  O   UNL     1      -1.724  10.038  14.374  1.00  0.00    -0.237 OA
ATOM     76  O   UNL     1      -3.496   9.691  12.681  1.00  0.00    -0.237 OA
ATOM     77  O   UNL     1      -3.311   8.163  14.606  1.00  0.00    -0.744 OA
ENDBRANCH  70  74
ENDBRANCH  43  67
BRANCH  55  78
ATOM     78  C   UNL     1       5.304  12.684  12.398  1.00  0.00     0.023 A 
ATOM     79  C   UNL     1       5.770  12.077  13.578  1.00  0.00     0.031 A 
ATOM     80  C   UNL     1       5.136  14.081  12.398  1.00  0.00     0.131 A 
ATOM     81  C   UNL     1       5.982  12.852  14.728  1.00  0.00     0.055 A 
ATOM     82  C   UNL     1       5.411  14.856  13.527  1.00  0.00     0.041 A 
ATOM     83  F   UNL     1       4.695  14.717  11.301  1.00  0.00    -0.206 F 
ATOM     84  C   UNL     1       5.819  14.240  14.706  1.00  0.00     0.022 A 
BRANCH  81  85
ATOM     85  S   UNL     1       6.357  12.009  16.291  1.00  0.00     0.124 S 
ATOM     86  O   UNL     1       5.246  11.069  16.404  1.00  0.00    -0.237 OA
ATOM     87  O   UNL     1       7.664  11.420  16.019  1.00  0.00    -0.237 OA
ATOM     88  O   UNL     1       6.356  13.091  17.273  1.00  0.00    -0.744 OA
ENDBRANCH  81  85
ENDBRANCH  55  78
ENDBRANCH  29  30
ENDBRANCH  22  24
ENDBRANCH  21  22
ENDBRANCH  20  21
ENDBRANCH  19  20
ENDBRANCH  18  19
ENDBRANCH   1  18
TORSDOF 22
