REMARK SMILES O=C(OCCOCCOC(=O)[C@@]1([NH2+]C2CC2)CCC[C@@H](Sc2ncn[nH]2)C1)c1ccc(-c2c3nc(c(-c4cc(S(=O)(=O)[O-])ccc4F)c4ccc([nH]4)c(-c4cc(S(=O)(=O)[O-])ccc4F)c4nc(c(-c5cc(S(=O)(=O)[O-])ccc5F)c5ccc2[nH]5)C=C4)C=C3)cc1
REMARK SMILES IDX 5 1 4 2 3 3 2 4 1 5 28 6 29 7 90 8 30 9 89 10 31 11 32 12
REMARK SMILES IDX 33 13 83 14 34 15 88 16 82 17 84 18 35 19 87 20 81 21 80 22
REMARK SMILES IDX 36 24 68 25 48 26 67 27 49 28 52 29 66 30 85 31 50 32 51 33
REMARK SMILES IDX 65 35 86 36 53 37 37 38 38 39 46 40 39 41 45 42 47 43 44 44
REMARK SMILES IDX 40 45 41 46 42 47 43 48 69 49 70 50 78 51 71 52 77 53 79 54
REMARK SMILES IDX 76 55 72 56 73 57 74 58 75 59 54 60 55 61 63 62 56 63 62 64
REMARK SMILES IDX 64 65 61 66 57 67 58 68 59 69 60 70 6 71 7 72 8 73 9 74
REMARK SMILES IDX 10 75 11 76 12 77 17 78 27 79 18 80 20 81 19 82 13 83 14 86
REMARK SMILES IDX 15 87 16 88 21 89 22 90 23 91 26 92 24 93 25 94
REMARK H PARENT 84 23 52 34 13 84 13 85 26 95
REMARK Flexibility Score: inf
ROOT
ATOM      1  C   UNL     1       3.827  -0.431   0.896  1.00  0.00     0.202 C 
ENDROOT
BRANCH   1   2
ATOM      2  C   UNL     1       3.413   0.926   0.340  1.00  0.00     0.261 C 
BRANCH   2   3
ATOM      3  O   UNL     1       1.993   0.950   0.089  1.00  0.00    -0.460 OA
BRANCH   3   4
ATOM      4  C   UNL     1       1.421   0.802  -1.137  1.00  0.00     0.338 C 
ATOM      5  O   UNL     1       0.203   0.834  -1.273  1.00  0.00    -0.246 OA
BRANCH   4   6
ATOM      6  C   UNL     1       2.293   0.670  -2.323  1.00  0.00     0.060 A 
ATOM      7  C   UNL     1       3.270  -0.311  -2.372  1.00  0.00     0.016 A 
ATOM      8  C   UNL     1       2.136   1.505  -3.423  1.00  0.00     0.016 A 
ATOM      9  C   UNL     1       4.263  -0.305  -3.309  1.00  0.00     0.010 A 
ATOM     10  C   UNL     1       2.985   1.338  -4.523  1.00  0.00     0.010 A 
ATOM     11  C   UNL     1       4.060   0.433  -4.456  1.00  0.00    -0.014 A 
BRANCH  11  12
ATOM     12  C   UNL     1       5.005   0.197  -5.556  1.00  0.00     0.031 A 
ATOM     13  C   UNL     1       5.831   1.342  -6.021  1.00  0.00     0.074 A 
ATOM     14  C   UNL     1       5.172  -1.059  -6.023  1.00  0.00     0.049 A 
ATOM     15  N   UNL     1       6.560   1.445  -7.093  1.00  0.00    -0.248 NA
ATOM     16  C   UNL     1       5.820   2.543  -5.170  1.00  0.00     0.031 C 
ATOM     17  C   UNL     1       4.514  -2.265  -5.493  1.00  0.00     0.029 A 
ATOM     18  N   UNL     1       5.973  -1.548  -7.017  1.00  0.00    -0.354 N 
ATOM     19  C   UNL     1       7.041   2.746  -7.086  1.00  0.00     0.074 A 
ATOM     20  C   UNL     1       6.518   3.394  -5.904  1.00  0.00     0.031 C 
ATOM     21  C   UNL     1       4.985  -3.349  -6.124  1.00  0.00     0.029 A 
ATOM     22  C   UNL     1       5.849  -2.908  -7.203  1.00  0.00     0.049 A 
ATOM     23  H   UNL     1       6.580  -0.984  -7.548  1.00  0.00     0.167 HD
ATOM     24  C   UNL     1       7.835   3.327  -8.013  1.00  0.00     0.034 A 
ATOM     25  C   UNL     1       6.320  -3.690  -8.191  1.00  0.00     0.034 A 
ATOM     26  C   UNL     1       8.317   2.606  -9.163  1.00  0.00     0.049 A 
ATOM     27  C   UNL     1       7.097  -2.993  -9.274  1.00  0.00     0.074 A 
ATOM     28  C   UNL     1       9.050   3.068 -10.238  1.00  0.00     0.029 A 
ATOM     29  N   UNL     1       8.108   1.243  -9.377  1.00  0.00    -0.354 N 
ATOM     30  N   UNL     1       7.438  -1.724  -9.356  1.00  0.00    -0.248 NA
ATOM     31  C   UNL     1       7.531  -3.813 -10.406  1.00  0.00     0.031 C 
ATOM     32  C   UNL     1       9.227   2.002 -11.128  1.00  0.00     0.029 A 
ATOM     33  C   UNL     1       8.681   0.853 -10.573  1.00  0.00     0.049 A 
ATOM     34  H   UNL     1       7.621   0.646  -8.764  1.00  0.00     0.167 HD
ATOM     35  C   UNL     1       8.148  -1.597 -10.540  1.00  0.00     0.074 A 
ATOM     36  C   UNL     1       8.203  -2.926 -11.125  1.00  0.00     0.031 C 
ATOM     37  C   UNL     1       8.703  -0.493 -11.104  1.00  0.00     0.034 A 
BRANCH  24  38
ATOM     38  C   UNL     1       8.096   4.802  -7.853  1.00  0.00     0.023 A 
ATOM     39  C   UNL     1       8.774   5.323  -6.736  1.00  0.00     0.031 A 
ATOM     40  C   UNL     1       7.541   5.714  -8.768  1.00  0.00     0.131 A 
ATOM     41  C   UNL     1       8.793   6.708  -6.513  1.00  0.00     0.055 A 
ATOM     42  C   UNL     1       7.646   7.095  -8.589  1.00  0.00     0.041 A 
ATOM     43  F   UNL     1       6.847   5.279  -9.832  1.00  0.00    -0.206 F 
ATOM     44  C   UNL     1       8.258   7.599  -7.446  1.00  0.00     0.022 A 
BRANCH  41  45
ATOM     45  S   UNL     1       9.361   7.319  -4.901  1.00  0.00     0.124 S 
ATOM     46  O   UNL     1       8.393   6.704  -3.996  1.00  0.00    -0.237 OA
ATOM     47  O   UNL     1      10.723   6.802  -4.827  1.00  0.00    -0.237 OA
ATOM     48  O   UNL     1       9.251   8.771  -5.026  1.00  0.00    -0.744 OA
ENDBRANCH  41  45
ENDBRANCH  24  38
BRANCH  25  49
ATOM     49  C   UNL     1       5.990  -5.145  -8.258  1.00  0.00     0.023 A 
ATOM     50  C   UNL     1       7.004  -6.115  -8.290  1.00  0.00     0.031 A 
ATOM     51  C   UNL     1       4.657  -5.595  -8.337  1.00  0.00     0.131 A 
ATOM     52  C   UNL     1       6.674  -7.472  -8.447  1.00  0.00     0.055 A 
ATOM     53  C   UNL     1       4.331  -6.950  -8.425  1.00  0.00     0.041 A 
ATOM     54  F   UNL     1       3.639  -4.719  -8.320  1.00  0.00    -0.206 F 
ATOM     55  C   UNL     1       5.345  -7.898  -8.498  1.00  0.00     0.022 A 
BRANCH  52  56
ATOM     56  S   UNL     1       8.015  -8.668  -8.693  1.00  0.00     0.124 S 
ATOM     57  O   UNL     1       8.697  -8.113  -9.857  1.00  0.00    -0.237 OA
ATOM     58  O   UNL     1       8.733  -8.584  -7.426  1.00  0.00    -0.237 OA
ATOM     59  O   UNL     1       7.310  -9.927  -8.927  1.00  0.00    -0.744 OA
ENDBRANCH  52  56
ENDBRANCH  25  49
BRANCH  37  60
ATOM     60  C   UNL     1       9.462  -0.714 -12.383  1.00  0.00     0.023 A 
ATOM     61  C   UNL     1       8.812  -1.088 -13.569  1.00  0.00     0.031 A 
ATOM     62  C   UNL     1      10.857  -0.547 -12.404  1.00  0.00     0.131 A 
ATOM     63  C   UNL     1       9.569  -1.343 -14.720  1.00  0.00     0.055 A 
ATOM     64  C   UNL     1      11.595  -0.731 -13.570  1.00  0.00     0.041 A 
ATOM     65  F   UNL     1      11.521  -0.195 -11.291  1.00  0.00    -0.206 F 
ATOM     66  C   UNL     1      10.952  -1.144 -14.734  1.00  0.00     0.022 A 
BRANCH  63  67
ATOM     67  S   UNL     1       8.730  -2.034 -16.169  1.00  0.00     0.124 S 
ATOM     68  O   UNL     1       8.176  -3.274 -15.635  1.00  0.00    -0.237 OA
ATOM     69  O   UNL     1       7.762  -0.993 -16.497  1.00  0.00    -0.237 OA
ATOM     70  O   UNL     1       9.810  -2.204 -17.139  1.00  0.00    -0.744 OA
ENDBRANCH  63  67
ENDBRANCH  37  60
ENDBRANCH  11  12
ENDBRANCH   4   6
ENDBRANCH   3   4
ENDBRANCH   2   3
ENDBRANCH   1   2
BRANCH   1  71
ATOM     71  O   UNL     1       3.415  -1.557   0.151  1.00  0.00    -0.374 OA
BRANCH  71  72
ATOM     72  C   UNL     1       2.185  -2.170   0.509  1.00  0.00     0.202 C 
BRANCH  72  73
ATOM     73  C   UNL     1       2.533  -3.504   1.144  1.00  0.00     0.261 C 
BRANCH  73  74
ATOM     74  O   UNL     1       3.232  -3.217   2.364  1.00  0.00    -0.459 OA
BRANCH  74  75
ATOM     75  C   UNL     1       4.602  -3.109   2.323  1.00  0.00     0.368 C 
ATOM     76  O   UNL     1       5.302  -3.418   1.364  1.00  0.00    -0.245 OA
BRANCH  75  77
ATOM     77  C   UNL     1       5.094  -2.617   3.712  1.00  0.00     0.195 C 
ATOM     78  C   UNL     1       4.330  -1.364   4.193  1.00  0.00     0.081 C 
ATOM     79  C   UNL     1       4.751  -3.823   4.637  1.00  0.00     0.096 C 
ATOM     80  C   UNL     1       4.556  -1.045   5.661  1.00  0.00     0.008 C 
ATOM     81  C   UNL     1       4.690  -3.524   6.136  1.00  0.00     0.061 C 
ATOM     82  C   UNL     1       4.036  -2.189   6.510  1.00  0.00     0.015 C 
BRANCH  77  83
ATOM     83  N   UNL     1       6.553  -2.393   3.774  1.00  0.00    -0.330 N 
ATOM     84  H   UNL     1       6.978  -3.312   3.657  1.00  0.00     0.347 HD
ATOM     85  H   UNL     1       6.631  -1.885   4.655  1.00  0.00     0.347 HD
BRANCH  83  86
ATOM     86  C   UNL     1       7.287  -1.500   2.874  1.00  0.00     0.183 C 
ATOM     87  C   UNL     1       6.934  -0.142   2.336  1.00  0.00     0.071 C 
ATOM     88  C   UNL     1       7.825  -0.233   3.521  1.00  0.00     0.071 C 
ENDBRANCH  83  86
ENDBRANCH  77  83
BRANCH  81  89
ATOM     89  S   UNL     1       3.871  -4.896   7.053  1.00  0.00    -0.083 SA
BRANCH  89  90
ATOM     90  C   UNL     1       2.227  -4.770   6.541  1.00  0.00     0.183 A 
ATOM     91  N   UNL     1       1.736  -4.766   5.327  1.00  0.00    -0.210 NA
ATOM     92  N   UNL     1       1.220  -4.624   7.440  1.00  0.00    -0.254 N 
ATOM     93  C   UNL     1       0.396  -4.605   5.540  1.00  0.00     0.247 A 
ATOM     94  N   UNL     1       0.030  -4.501   6.822  1.00  0.00    -0.162 NA
ATOM     95  H   UNL     1       1.343  -4.609   8.417  1.00  0.00     0.192 HD
ENDBRANCH  89  90
ENDBRANCH  81  89
ENDBRANCH  75  77
ENDBRANCH  74  75
ENDBRANCH  73  74
ENDBRANCH  72  73
ENDBRANCH  71  72
ENDBRANCH   1  71
TORSDOF 21
