REMARK SMILES Cc1cccc(-n2c(C)cc(/C=N\c3ccc(O)c(C(=O)OCCOCCOC(=O)c4ccc(-c5c6nc(c(-c7cc(S(=O)(=O)[O-])ccc7F)c7ccc([nH]7)c(-c7cc(S(=O)(=O)[O-])ccc7F)c7nc(c(-c8cc(S(=O)(=O)[O-])ccc8F)c8ccc5[nH]8)C=C7)C=C6)cc4)c3)c2C)c1
REMARK SMILES IDX 25 1 24 2 23 3 22 4 20 5 21 6 19 7 14 8 15 9 94 10 16 11
REMARK SMILES IDX 17 12 13 13 12 14 11 15 7 16 8 17 95 18 9 19 10 20 96 21
REMARK SMILES IDX 6 22 1 23 2 24 3 25 97 26 4 27 5 28 18 29 26 31 27 32 28 33
REMARK SMILES IDX 29 34 30 35 31 36 32 37 93 38 33 39 92 40 34 41 35 42 36 43
REMARK SMILES IDX 86 44 37 45 91 46 85 47 87 48 38 49 90 50 84 51 83 52 39 54
REMARK SMILES IDX 71 55 51 56 70 57 52 58 55 59 69 60 88 61 53 62 54 63 68 65
REMARK SMILES IDX 89 66 56 67 40 68 41 69 49 70 42 71 48 72 50 73 47 74 43 75
REMARK SMILES IDX 44 76 45 77 46 78 72 79 73 80 81 81 74 82 80 83 82 84 79 85
REMARK SMILES IDX 75 86 76 87 77 88 78 89 57 90 58 91 66 92 59 93 65 94 67 95
REMARK SMILES IDX 64 96 60 97 61 98 62 99 63 100
REMARK H PARENT 18 30 87 53 55 64
REMARK Flexibility Score: inf
ROOT
ATOM      1  O   UNL     1      -6.526   1.268   6.838  1.00  0.00    -0.374 OA
ENDROOT
BRANCH   1   2
ATOM      2  C   UNL     1      -5.463   0.340   7.031  1.00  0.00     0.202 C 
BRANCH   2   3
ATOM      3  C   UNL     1      -5.616  -0.623   5.918  1.00  0.00     0.261 C 
BRANCH   3   4
ATOM      4  O   UNL     1      -4.924  -0.191   4.755  1.00  0.00    -0.460 OA
BRANCH   4   5
ATOM      5  C   UNL     1      -5.509   0.805   4.067  1.00  0.00     0.342 C 
ATOM      6  O   UNL     1      -6.677   0.851   3.679  1.00  0.00    -0.246 OA
BRANCH   5   7
ATOM      7  C   UNL     1      -4.542   1.903   4.000  1.00  0.00     0.103 A 
ATOM      8  C   UNL     1      -3.983   4.064   3.158  1.00  0.00     0.064 A 
ATOM      9  C   UNL     1      -2.728   3.997   3.774  1.00  0.00     0.032 A 
ATOM     10  C   UNL     1      -4.949   3.099   3.422  1.00  0.00     0.048 A 
ATOM     11  C   UNL     1      -2.330   2.826   4.407  1.00  0.00     0.049 A 
ATOM     12  C   UNL     1      -3.200   1.750   4.380  1.00  0.00     0.130 A 
BRANCH   8  13
ATOM     13  N   UNL     1      -4.282   5.051   2.230  1.00  0.00    -0.256 NA
ATOM     14  C   UNL     1      -3.867   4.996   0.995  1.00  0.00     0.121 C 
BRANCH  14  15
ATOM     15  C   UNL     1      -2.998   4.086   0.229  1.00  0.00     0.014 A 
ATOM     16  N   UNL     1      -1.698   2.438  -0.665  1.00  0.00    -0.318 N 
ATOM     17  C   UNL     1      -1.489   3.571  -1.425  1.00  0.00     0.021 A 
ATOM     18  C   UNL     1      -2.686   2.723   0.281  1.00  0.00     0.029 A 
ATOM     19  C   UNL     1      -0.617   3.602  -2.625  1.00  0.00     0.065 C 
ATOM     20  C   UNL     1      -2.279   4.574  -0.907  1.00  0.00     0.033 A 
ATOM     21  C   UNL     1      -3.138   1.650   1.194  1.00  0.00     0.065 C 
BRANCH  16  22
ATOM     22  C   UNL     1      -0.949   1.224  -0.741  1.00  0.00     0.046 A 
ATOM     23  C   UNL     1       2.603   0.061  -0.002  1.00  0.00     0.044 C 
ATOM     24  C   UNL     1       1.137   0.059  -0.317  1.00  0.00    -0.049 A 
ATOM     25  C   UNL     1       0.454  -1.163  -0.400  1.00  0.00     0.003 A 
ATOM     26  C   UNL     1       0.428   1.258  -0.489  1.00  0.00     0.030 A 
ATOM     27  C   UNL     1      -0.907  -1.195  -0.697  1.00  0.00     0.002 A 
ATOM     28  C   UNL     1      -1.603  -0.004  -0.894  1.00  0.00     0.026 A 
ENDBRANCH  16  22
ENDBRANCH  14  15
ENDBRANCH   8  13
BRANCH  12  29
ATOM     29  O   UNL     1      -2.607   0.515   4.335  1.00  0.00    -0.507 OA
ATOM     30  H   UNL     1      -1.711   0.416   4.589  1.00  0.00     0.293 HD
ENDBRANCH  12  29
ENDBRANCH   5   7
ENDBRANCH   4   5
ENDBRANCH   3   4
ENDBRANCH   2   3
ENDBRANCH   1   2
BRANCH   1  31
ATOM     31  C   UNL     1      -6.665   2.189   7.896  1.00  0.00     0.202 C 
BRANCH  31  32
ATOM     32  C   UNL     1      -6.871   1.500   9.255  1.00  0.00     0.261 C 
BRANCH  32  33
ATOM     33  O   UNL     1      -8.030   0.636   9.183  1.00  0.00    -0.460 OA
BRANCH  33  34
ATOM     34  C   UNL     1      -7.816  -0.706   9.324  1.00  0.00     0.338 C 
ATOM     35  O   UNL     1      -7.153  -1.226  10.204  1.00  0.00    -0.246 OA
BRANCH  34  36
ATOM     36  C   UNL     1      -8.333  -1.427   8.119  1.00  0.00     0.060 A 
ATOM     37  C   UNL     1      -7.898  -2.738   7.828  1.00  0.00     0.016 A 
ATOM     38  C   UNL     1      -8.979  -0.683   7.138  1.00  0.00     0.016 A 
ATOM     39  C   UNL     1      -7.945  -3.228   6.510  1.00  0.00     0.010 A 
ATOM     40  C   UNL     1      -8.935  -1.131   5.835  1.00  0.00     0.010 A 
ATOM     41  C   UNL     1      -8.381  -2.381   5.494  1.00  0.00    -0.014 A 
BRANCH  41  42
ATOM     42  C   UNL     1      -8.182  -2.583   4.048  1.00  0.00     0.031 A 
ATOM     43  C   UNL     1      -9.390  -2.613   3.205  1.00  0.00     0.074 A 
ATOM     44  C   UNL     1      -6.958  -2.505   3.458  1.00  0.00     0.049 A 
ATOM     45  N   UNL     1      -9.448  -3.189   2.060  1.00  0.00    -0.248 NA
ATOM     46  C   UNL     1     -10.678  -2.050   3.605  1.00  0.00     0.031 C 
ATOM     47  C   UNL     1      -6.597  -2.259   2.060  1.00  0.00     0.029 A 
ATOM     48  N   UNL     1      -5.705  -2.618   4.054  1.00  0.00    -0.354 N 
ATOM     49  C   UNL     1     -10.585  -2.733   1.435  1.00  0.00     0.074 A 
ATOM     50  C   UNL     1     -11.393  -2.191   2.490  1.00  0.00     0.031 C 
ATOM     51  C   UNL     1      -5.289  -2.540   1.868  1.00  0.00     0.029 A 
ATOM     52  C   UNL     1      -4.755  -3.042   3.125  1.00  0.00     0.049 A 
ATOM     53  H   UNL     1      -5.516  -2.426   5.001  1.00  0.00     0.167 HD
ATOM     54  C   UNL     1     -10.610  -2.696   0.074  1.00  0.00     0.034 A 
ATOM     55  C   UNL     1      -4.011  -4.144   3.395  1.00  0.00     0.034 A 
ATOM     56  C   UNL     1      -9.318  -3.168  -0.466  1.00  0.00     0.049 A 
ATOM     57  C   UNL     1      -4.550  -5.182   2.430  1.00  0.00     0.074 A 
ATOM     58  C   UNL     1      -8.256  -2.531  -1.089  1.00  0.00     0.029 A 
ATOM     59  N   UNL     1      -8.834  -4.419  -0.079  1.00  0.00    -0.354 N 
ATOM     60  N   UNL     1      -5.742  -5.092   1.889  1.00  0.00    -0.248 NA
ATOM     61  C   UNL     1      -3.749  -6.244   1.835  1.00  0.00     0.031 C 
ATOM     62  C   UNL     1      -7.120  -3.396  -1.016  1.00  0.00     0.029 A 
ATOM     63  C   UNL     1      -7.489  -4.562  -0.360  1.00  0.00     0.049 A 
ATOM     64  H   UNL     1      -9.385  -5.116   0.344  1.00  0.00     0.167 HD
ATOM     65  C   UNL     1      -5.806  -5.893   0.790  1.00  0.00     0.074 A 
ATOM     66  C   UNL     1      -4.560  -6.651   0.840  1.00  0.00     0.031 C 
ATOM     67  C   UNL     1      -6.821  -5.840  -0.126  1.00  0.00     0.034 A 
BRANCH  54  68
ATOM     68  C   UNL     1     -11.663  -1.989  -0.766  1.00  0.00     0.023 A 
ATOM     69  C   UNL     1     -11.391  -1.756  -2.130  1.00  0.00     0.031 A 
ATOM     70  C   UNL     1     -12.928  -1.529  -0.336  1.00  0.00     0.131 A 
ATOM     71  C   UNL     1     -12.297  -1.068  -2.962  1.00  0.00     0.055 A 
ATOM     72  C   UNL     1     -13.812  -0.805  -1.149  1.00  0.00     0.041 A 
ATOM     73  F   UNL     1     -13.430  -1.806   0.869  1.00  0.00    -0.206 F 
ATOM     74  C   UNL     1     -13.500  -0.571  -2.474  1.00  0.00     0.022 A 
BRANCH  71  75
ATOM     75  S   UNL     1     -11.899  -0.867  -4.717  1.00  0.00     0.124 S 
ATOM     76  O   UNL     1     -10.722  -0.006  -4.667  1.00  0.00    -0.237 OA
ATOM     77  O   UNL     1     -11.678  -2.244  -5.144  1.00  0.00    -0.237 OA
ATOM     78  O   UNL     1     -13.100  -0.240  -5.267  1.00  0.00    -0.744 OA
ENDBRANCH  71  75
ENDBRANCH  54  68
BRANCH  55  79
ATOM     79  C   UNL     1      -3.674  -4.214   4.873  1.00  0.00     0.023 A 
ATOM     80  C   UNL     1      -2.779  -3.232   5.419  1.00  0.00     0.031 A 
ATOM     81  C   UNL     1      -4.517  -4.864   5.787  1.00  0.00     0.131 A 
ATOM     82  C   UNL     1      -2.828  -2.872   6.790  1.00  0.00     0.055 A 
ATOM     83  C   UNL     1      -4.572  -4.487   7.141  1.00  0.00     0.041 A 
ATOM     84  F   UNL     1      -5.406  -5.775   5.366  1.00  0.00    -0.206 F 
ATOM     85  C   UNL     1      -3.757  -3.471   7.639  1.00  0.00     0.022 A 
BRANCH  82  86
ATOM     86  S   UNL     1      -1.847  -1.477   7.460  1.00  0.00     0.124 S 
ATOM     87  O   UNL     1      -0.537  -2.078   7.666  1.00  0.00    -0.237 OA
ATOM     88  O   UNL     1      -1.917  -0.470   6.409  1.00  0.00    -0.237 OA
ATOM     89  O   UNL     1      -2.568  -1.090   8.671  1.00  0.00    -0.744 OA
ENDBRANCH  82  86
ENDBRANCH  55  79
BRANCH  67  90
ATOM     90  C   UNL     1      -7.237  -7.029  -0.951  1.00  0.00     0.023 A 
ATOM     91  C   UNL     1      -6.712  -8.300  -0.715  1.00  0.00     0.031 A 
ATOM     92  C   UNL     1      -8.279  -6.961  -1.907  1.00  0.00     0.131 A 
ATOM     93  C   UNL     1      -7.110  -9.401  -1.476  1.00  0.00     0.055 A 
ATOM     94  C   UNL     1      -8.766  -8.085  -2.574  1.00  0.00     0.041 A 
ATOM     95  F   UNL     1      -8.893  -5.813  -2.224  1.00  0.00    -0.206 F 
ATOM     96  C   UNL     1      -8.160  -9.316  -2.382  1.00  0.00     0.022 A 
BRANCH  93  97
ATOM     97  S   UNL     1      -6.125 -10.903  -1.311  1.00  0.00     0.124 S 
ATOM     98  O   UNL     1      -4.811 -10.444  -1.756  1.00  0.00    -0.237 OA
ATOM     99  O   UNL     1      -6.238 -11.201   0.113  1.00  0.00    -0.237 OA
ATOM    100  O   UNL     1      -6.791 -11.848  -2.203  1.00  0.00    -0.744 OA
ENDBRANCH  93  97
ENDBRANCH  67  90
ENDBRANCH  41  42
ENDBRANCH  34  36
ENDBRANCH  33  34
ENDBRANCH  32  33
ENDBRANCH  31  32
ENDBRANCH   1  31
TORSDOF 21
