REMARK SMILES CC(C)=CCc1cccc2c(C(=O)OCCOCCOC(=O)c3ccc(-c4c5nc(c(-c6cc(S(=O)(=O)[O-])ccc6F)c6ccc([nH]6)c(-c6cc(S(=O)(=O)[O-])ccc6F)c6nc(c(-c7cc(S(=O)(=O)[O-])ccc7F)c7ccc4[nH]7)C=C6)C=C5)cc3)c[nH]c12
REMARK SMILES IDX 18 1 17 2 16 3 15 4 14 5 12 6 13 7 11 8 6 9 7 10 88 11 8 12
REMARK SMILES IDX 10 13 87 14 9 15 86 16 5 18 4 19 1 20 2 21 3 22 19 23 20 24
REMARK SMILES IDX 21 25 22 26 23 27 24 28 85 29 25 30 84 31 26 32 27 33 28 34
REMARK SMILES IDX 78 35 29 36 83 37 77 38 79 39 30 40 82 41 76 42 75 43 31 45
REMARK SMILES IDX 63 46 43 47 62 48 44 49 47 50 61 51 80 52 45 53 46 54 60 56
REMARK SMILES IDX 81 57 48 58 32 59 33 60 41 61 34 62 40 63 42 64 39 65 35 66
REMARK SMILES IDX 36 67 37 68 38 69 64 70 65 71 73 72 66 73 72 74 74 75 71 76
REMARK SMILES IDX 67 77 68 78 69 79 70 80 49 81 50 82 58 83 51 84 57 85 59 86
REMARK SMILES IDX 56 87 52 88 53 89 54 90 55 91
REMARK H PARENT 87 17 79 44 47 55
REMARK Flexibility Score: inf
ROOT
ATOM      1  C   UNL     1       9.039   2.100  -0.336  1.00  0.00     0.202 C 
ENDROOT
BRANCH   1   2
ATOM      2  O   UNL     1       9.931   2.191  -1.450  1.00  0.00    -0.374 OA
BRANCH   2   3
ATOM      3  C   UNL     1       9.955   3.447  -2.134  1.00  0.00     0.202 C 
BRANCH   3   4
ATOM      4  C   UNL     1       8.935   3.567  -3.269  1.00  0.00     0.261 C 
BRANCH   4   5
ATOM      5  O   UNL     1       7.599   3.600  -2.738  1.00  0.00    -0.460 OA
BRANCH   5   6
ATOM      6  C   UNL     1       6.893   2.444  -2.874  1.00  0.00     0.340 C 
ATOM      7  O   UNL     1       7.241   1.493  -3.568  1.00  0.00    -0.246 OA
BRANCH   6   8
ATOM      8  C   UNL     1       5.716   2.386  -2.016  1.00  0.00     0.085 A 
ATOM      9  C   UNL     1       2.865   3.495  -0.035  1.00  0.00    -0.020 A 
ATOM     10  C   UNL     1       2.989   4.895   0.002  1.00  0.00     0.006 A 
ATOM     11  C   UNL     1       3.892   2.800  -0.705  1.00  0.00     0.050 A 
ATOM     12  C   UNL     1       4.066   5.547  -0.597  1.00  0.00     0.001 A 
ATOM     13  C   UNL     1       4.962   3.420  -1.358  1.00  0.00     0.014 A 
ATOM     14  N   UNL     1       4.042   1.445  -0.886  1.00  0.00    -0.360 N 
ATOM     15  C   UNL     1       5.050   4.826  -1.284  1.00  0.00     0.011 A 
ATOM     16  C   UNL     1       5.118   1.184  -1.674  1.00  0.00     0.099 A 
ATOM     17  H   UNL     1       3.452   0.759  -0.499  1.00  0.00     0.166 HD
BRANCH   9  18
ATOM     18  C   UNL     1       1.642   2.805   0.529  1.00  0.00     0.065 C 
BRANCH  18  19
ATOM     19  C   UNL     1       0.749   2.321  -0.587  1.00  0.00    -0.024 C 
ATOM     20  C   UNL     1       0.649  -0.117   0.038  1.00  0.00     0.039 C 
ATOM     21  C   UNL     1       0.339   1.061  -0.839  1.00  0.00    -0.080 C 
ATOM     22  C   UNL     1      -0.469   0.784  -2.079  1.00  0.00     0.039 C 
ENDBRANCH  18  19
ENDBRANCH   9  18
ENDBRANCH   6   8
ENDBRANCH   5   6
ENDBRANCH   4   5
ENDBRANCH   3   4
ENDBRANCH   2   3
ENDBRANCH   1   2
BRANCH   1  23
ATOM     23  C   UNL     1       9.598   2.632   0.987  1.00  0.00     0.261 C 
BRANCH  23  24
ATOM     24  O   UNL     1       9.662   4.069   0.976  1.00  0.00    -0.460 OA
BRANCH  24  25
ATOM     25  C   UNL     1      10.911   4.586   0.883  1.00  0.00     0.338 C 
ATOM     26  O   UNL     1      11.962   3.969   0.926  1.00  0.00    -0.246 OA
BRANCH  25  27
ATOM     27  C   UNL     1      10.833   6.018   0.522  1.00  0.00     0.060 A 
ATOM     28  C   UNL     1      11.693   6.472  -0.486  1.00  0.00     0.016 A 
ATOM     29  C   UNL     1       9.971   6.908   1.170  1.00  0.00     0.016 A 
ATOM     30  C   UNL     1      11.732   7.825  -0.815  1.00  0.00     0.010 A 
ATOM     31  C   UNL     1      10.018   8.268   0.844  1.00  0.00     0.010 A 
ATOM     32  C   UNL     1      10.923   8.738  -0.126  1.00  0.00    -0.014 A 
BRANCH  32  33
ATOM     33  C   UNL     1      11.145  10.193  -0.313  1.00  0.00     0.031 A 
ATOM     34  C   UNL     1      11.996  10.930   0.685  1.00  0.00     0.074 A 
ATOM     35  C   UNL     1      10.631  10.839  -1.375  1.00  0.00     0.049 A 
ATOM     36  N   UNL     1      12.311  12.198   0.734  1.00  0.00    -0.248 NA
ATOM     37  C   UNL     1      12.565  10.124   1.776  1.00  0.00     0.031 C 
ATOM     38  C   UNL     1       9.828  10.223  -2.430  1.00  0.00     0.029 A 
ATOM     39  N   UNL     1      10.707  12.160  -1.738  1.00  0.00    -0.354 N 
ATOM     40  C   UNL     1      13.117  12.344   1.858  1.00  0.00     0.074 A 
ATOM     41  C   UNL     1      13.207  11.041   2.483  1.00  0.00     0.031 C 
ATOM     42  C   UNL     1       9.477  11.169  -3.318  1.00  0.00     0.029 A 
ATOM     43  C   UNL     1      10.000  12.461  -2.879  1.00  0.00     0.049 A 
ATOM     44  H   UNL     1      11.220  12.830  -1.230  1.00  0.00     0.167 HD
ATOM     45  C   UNL     1      13.734  13.460   2.321  1.00  0.00     0.034 A 
ATOM     46  C   UNL     1       9.783  13.646  -3.483  1.00  0.00     0.034 A 
ATOM     47  C   UNL     1      13.623  14.756   1.697  1.00  0.00     0.049 A 
ATOM     48  C   UNL     1      10.404  14.892  -2.899  1.00  0.00     0.074 A 
ATOM     49  C   UNL     1      14.216  15.949   2.073  1.00  0.00     0.029 A 
ATOM     50  N   UNL     1      12.855  15.033   0.573  1.00  0.00    -0.354 N 
ATOM     51  N   UNL     1      11.174  15.016  -1.841  1.00  0.00    -0.248 NA
ATOM     52  C   UNL     1      10.132  16.157  -3.594  1.00  0.00     0.031 C 
ATOM     53  C   UNL     1      13.754  16.957   1.220  1.00  0.00     0.029 A 
ATOM     54  C   UNL     1      12.930  16.383   0.265  1.00  0.00     0.049 A 
ATOM     55  H   UNL     1      12.334  14.368   0.068  1.00  0.00     0.167 HD
ATOM     56  C   UNL     1      11.498  16.368  -1.763  1.00  0.00     0.074 A 
ATOM     57  C   UNL     1      10.851  17.015  -2.886  1.00  0.00     0.031 C 
ATOM     58  C   UNL     1      12.265  17.017  -0.850  1.00  0.00     0.034 A 
BRANCH  45  59
ATOM     59  C   UNL     1      14.536  13.327   3.592  1.00  0.00     0.023 A 
ATOM     60  C   UNL     1      15.693  12.530   3.658  1.00  0.00     0.031 A 
ATOM     61  C   UNL     1      14.116  13.977   4.766  1.00  0.00     0.131 A 
ATOM     62  C   UNL     1      16.347  12.347   4.886  1.00  0.00     0.055 A 
ATOM     63  C   UNL     1      14.816  13.851   5.967  1.00  0.00     0.041 A 
ATOM     64  F   UNL     1      13.007  14.732   4.769  1.00  0.00    -0.206 F 
ATOM     65  C   UNL     1      15.930  13.021   6.036  1.00  0.00     0.022 A 
BRANCH  62  66
ATOM     66  S   UNL     1      17.667  11.107   4.990  1.00  0.00     0.124 S 
ATOM     67  O   UNL     1      16.965   9.893   4.581  1.00  0.00    -0.237 OA
ATOM     68  O   UNL     1      18.657  11.620   4.050  1.00  0.00    -0.237 OA
ATOM     69  O   UNL     1      18.063  11.145   6.396  1.00  0.00    -0.744 OA
ENDBRANCH  62  66
ENDBRANCH  45  59
BRANCH  46  70
ATOM     70  C   UNL     1       8.901  13.732  -4.682  1.00  0.00     0.023 A 
ATOM     71  C   UNL     1       9.403  14.136  -5.929  1.00  0.00     0.031 A 
ATOM     72  C   UNL     1       7.524  13.465  -4.580  1.00  0.00     0.131 A 
ATOM     73  C   UNL     1       8.527  14.304  -7.013  1.00  0.00     0.055 A 
ATOM     74  C   UNL     1       6.665  13.586  -5.674  1.00  0.00     0.041 A 
ATOM     75  F   UNL     1       6.992  13.076  -3.410  1.00  0.00    -0.206 F 
ATOM     76  C   UNL     1       7.164  14.020  -6.897  1.00  0.00     0.022 A 
BRANCH  73  77
ATOM     77  S   UNL     1       9.183  14.978  -8.565  1.00  0.00     0.124 S 
ATOM     78  O   UNL     1       9.718  16.263  -8.128  1.00  0.00    -0.237 OA
ATOM     79  O   UNL     1      10.166  13.968  -8.942  1.00  0.00    -0.237 OA
ATOM     80  O   UNL     1       8.006  15.052  -9.428  1.00  0.00    -0.744 OA
ENDBRANCH  73  77
ENDBRANCH  46  70
BRANCH  58  81
ATOM     81  C   UNL     1      12.473  18.498  -1.057  1.00  0.00     0.023 A 
ATOM     82  C   UNL     1      11.421  19.420  -0.916  1.00  0.00     0.031 A 
ATOM     83  C   UNL     1      13.741  18.990  -1.412  1.00  0.00     0.131 A 
ATOM     84  C   UNL     1      11.644  20.780  -1.180  1.00  0.00     0.055 A 
ATOM     85  C   UNL     1      13.970  20.351  -1.618  1.00  0.00     0.041 A 
ATOM     86  F   UNL     1      14.781  18.154  -1.561  1.00  0.00    -0.206 F 
ATOM     87  C   UNL     1      12.915  21.253  -1.515  1.00  0.00     0.022 A 
BRANCH  84  88
ATOM     88  S   UNL     1      10.229  21.916  -1.162  1.00  0.00     0.124 S 
ATOM     89  O   UNL     1       9.360  21.335  -2.180  1.00  0.00    -0.237 OA
ATOM     90  O   UNL     1       9.759  21.807   0.215  1.00  0.00    -0.237 OA
ATOM     91  O   UNL     1      10.820  23.206  -1.513  1.00  0.00    -0.744 OA
ENDBRANCH  84  88
ENDBRANCH  58  81
ENDBRANCH  32  33
ENDBRANCH  25  27
ENDBRANCH  24  25
ENDBRANCH  23  24
ENDBRANCH   1  23
TORSDOF 19
