REMARK SMILES O=C(CC1(NC(=O)c2ccccc2[N+](=O)[O-])CCC1)OCCOCCOC(=O)c1ccc(-c2c3nc(c(-c4cc(S(=O)(=O)[O-])ccc4F)c4ccc([nH]4)c(-c4cc(S(=O)(=O)[O-])ccc4F)c4nc(c(-c5cc(S(=O)(=O)[O-])ccc5F)c5ccc2[nH]5)C=C4)C=C3)cc1
REMARK SMILES IDX 22 1 21 2 20 3 2 4 1 5 3 6 4 7 17 8 19 9 18 10 5 11 6 12
REMARK SMILES IDX 7 14 8 15 9 16 13 17 10 18 12 19 11 20 14 21 15 22 16 23
REMARK SMILES IDX 23 24 24 25 25 26 26 27 27 28 28 29 29 30 30 31 91 32 31 33
REMARK SMILES IDX 90 34 32 35 33 36 34 37 84 38 35 39 89 40 83 41 85 42 36 43
REMARK SMILES IDX 88 44 82 45 81 46 37 48 69 49 49 50 68 51 50 52 53 53 67 54
REMARK SMILES IDX 86 55 51 56 52 57 66 59 87 60 54 61 38 62 39 63 47 64 40 65
REMARK SMILES IDX 46 66 48 67 45 68 41 69 42 70 43 71 44 72 70 73 71 74 79 75
REMARK SMILES IDX 72 76 78 77 80 78 77 79 73 80 74 81 75 82 76 83 55 84 56 85
REMARK SMILES IDX 64 86 57 87 63 88 65 89 62 90 58 91 59 92 60 93 61 94
REMARK H PARENT 5 13 85 47 53 58
REMARK Flexibility Score: inf
ROOT
ATOM      1  C   UNL     1       4.905   0.895   1.421  1.00  0.00     0.202 C 
ENDROOT
BRANCH   1   2
ATOM      2  C   UNL     1       5.204   1.551   0.073  1.00  0.00     0.261 C 
BRANCH   2   3
ATOM      3  O   UNL     1       4.004   1.858  -0.656  1.00  0.00    -0.463 OA
BRANCH   3   4
ATOM      4  C   UNL     1       3.378   0.951  -1.429  1.00  0.00     0.308 C 
ATOM      5  O   UNL     1       2.540   1.303  -2.253  1.00  0.00    -0.252 OA
BRANCH   4   6
ATOM      6  C   UNL     1       3.679  -0.502  -1.173  1.00  0.00     0.151 C 
BRANCH   6   7
ATOM      7  C   UNL     1       3.466  -1.394  -2.374  1.00  0.00     0.051 C 
ATOM      8  C   UNL     1       4.406  -0.923  -3.540  1.00  0.00     0.029 C 
ATOM      9  C   UNL     1       4.280  -2.722  -2.362  1.00  0.00     0.029 C 
ATOM     10  C   UNL     1       5.395  -2.034  -3.175  1.00  0.00     0.005 C 
BRANCH   7  11
ATOM     11  N   UNL     1       2.050  -1.520  -2.805  1.00  0.00    -0.346 N 
ATOM     12  C   UNL     1       0.810  -1.461  -2.197  1.00  0.00     0.258 C 
ATOM     13  H   UNL     1       1.975  -1.688  -3.772  1.00  0.00     0.164 HD
ATOM     14  O   UNL     1      -0.183  -1.377  -2.922  1.00  0.00    -0.269 OA
BRANCH  12  15
ATOM     15  C   UNL     1       0.534  -1.721  -0.769  1.00  0.00     0.117 A 
ATOM     16  C   UNL     1       0.119  -3.034  -0.481  1.00  0.00     0.021 A 
ATOM     17  C   UNL     1       0.305  -0.758   0.220  1.00  0.00     0.282 A 
ATOM     18  C   UNL     1      -0.448  -3.368   0.760  1.00  0.00     0.001 A 
ATOM     19  C   UNL     1      -0.207  -1.095   1.491  1.00  0.00     0.086 A 
ATOM     20  C   UNL     1      -0.593  -2.404   1.754  1.00  0.00     0.007 A 
BRANCH  17  21
ATOM     21  N   UNL     1       0.517   0.653   0.004  1.00  0.00     0.063 N 
ATOM     22  O   UNL     1      -0.236   1.230  -0.783  1.00  0.00    -0.258 OA
ATOM     23  O   UNL     1       1.361   1.186   0.740  1.00  0.00    -0.258 OA
ENDBRANCH  17  21
ENDBRANCH  12  15
ENDBRANCH   7  11
ENDBRANCH   6   7
ENDBRANCH   4   6
ENDBRANCH   3   4
ENDBRANCH   2   3
ENDBRANCH   1   2
BRANCH   1  24
ATOM     24  O   UNL     1       4.852  -0.533   1.451  1.00  0.00    -0.374 OA
BRANCH  24  25
ATOM     25  C   UNL     1       3.770  -1.099   2.202  1.00  0.00     0.202 C 
BRANCH  25  26
ATOM     26  C   UNL     1       3.656  -0.855   3.716  1.00  0.00     0.261 C 
BRANCH  26  27
ATOM     27  O   UNL     1       3.789   0.523   4.076  1.00  0.00    -0.460 OA
BRANCH  27  28
ATOM     28  C   UNL     1       5.043   0.860   4.480  1.00  0.00     0.338 C 
ATOM     29  O   UNL     1       5.953   0.092   4.723  1.00  0.00    -0.246 OA
BRANCH  28  30
ATOM     30  C   UNL     1       5.232   2.318   4.287  1.00  0.00     0.060 A 
ATOM     31  C   UNL     1       6.464   2.724   3.747  1.00  0.00     0.016 A 
ATOM     32  C   UNL     1       4.224   3.253   4.535  1.00  0.00     0.016 A 
ATOM     33  C   UNL     1       6.705   4.061   3.479  1.00  0.00     0.010 A 
ATOM     34  C   UNL     1       4.486   4.608   4.320  1.00  0.00     0.010 A 
ATOM     35  C   UNL     1       5.744   5.011   3.837  1.00  0.00    -0.014 A 
BRANCH  35  36
ATOM     36  C   UNL     1       6.217   6.397   4.030  1.00  0.00     0.031 A 
ATOM     37  C   UNL     1       6.736   6.748   5.398  1.00  0.00     0.074 A 
ATOM     38  C   UNL     1       6.292   7.265   3.009  1.00  0.00     0.049 A 
ATOM     39  N   UNL     1       7.256   7.862   5.834  1.00  0.00    -0.248 NA
ATOM     40  C   UNL     1       6.659   5.681   6.411  1.00  0.00     0.031 C 
ATOM     41  C   UNL     1       5.891   6.988   1.631  1.00  0.00     0.029 A 
ATOM     42  N   UNL     1       6.751   8.554   2.978  1.00  0.00    -0.354 N 
ATOM     43  C   UNL     1       7.569   7.629   7.170  1.00  0.00     0.074 A 
ATOM     44  C   UNL     1       7.137   6.287   7.482  1.00  0.00     0.031 C 
ATOM     45  C   UNL     1       6.123   8.083   0.886  1.00  0.00     0.029 A 
ATOM     46  C   UNL     1       6.655   9.143   1.740  1.00  0.00     0.049 A 
ATOM     47  H   UNL     1       7.115   9.016   3.768  1.00  0.00     0.167 HD
ATOM     48  C   UNL     1       8.173   8.460   8.052  1.00  0.00     0.034 A 
ATOM     49  C   UNL     1       6.950  10.401   1.359  1.00  0.00     0.034 A 
ATOM     50  C   UNL     1       8.564   9.805   7.719  1.00  0.00     0.049 A 
ATOM     51  C   UNL     1       7.513  11.353   2.388  1.00  0.00     0.074 A 
ATOM     52  C   UNL     1       9.164  10.755   8.525  1.00  0.00     0.029 A 
ATOM     53  N   UNL     1       8.374  10.399   6.476  1.00  0.00    -0.354 N 
ATOM     54  N   UNL     1       7.798  11.133   3.653  1.00  0.00    -0.248 NA
ATOM     55  C   UNL     1       7.804  12.718   1.935  1.00  0.00     0.031 C 
ATOM     56  C   UNL     1       9.260  11.945   7.795  1.00  0.00     0.029 A 
ATOM     57  C   UNL     1       8.810  11.713   6.504  1.00  0.00     0.049 A 
ATOM     58  H   UNL     1       7.986   9.950   5.690  1.00  0.00     0.167 HD
ATOM     59  C   UNL     1       8.336  12.324   4.136  1.00  0.00     0.074 A 
ATOM     60  C   UNL     1       8.342  13.252   3.022  1.00  0.00     0.031 C 
ATOM     61  C   UNL     1       8.793  12.624   5.380  1.00  0.00     0.034 A 
BRANCH  48  62
ATOM     62  C   UNL     1       8.354   7.947   9.462  1.00  0.00     0.023 A 
ATOM     63  C   UNL     1       9.134   6.810   9.746  1.00  0.00     0.031 A 
ATOM     64  C   UNL     1       7.663   8.551  10.526  1.00  0.00     0.131 A 
ATOM     65  C   UNL     1       9.125   6.260  11.037  1.00  0.00     0.055 A 
ATOM     66  C   UNL     1       7.736   8.053  11.829  1.00  0.00     0.041 A 
ATOM     67  F   UNL     1       6.876   9.617  10.314  1.00  0.00    -0.206 F 
ATOM     68  C   UNL     1       8.454   6.890  12.087  1.00  0.00     0.022 A 
BRANCH  65  69
ATOM     69  S   UNL     1       9.844   4.611  11.283  1.00  0.00     0.124 S 
ATOM     70  O   UNL     1       9.080   3.811  10.328  1.00  0.00    -0.237 OA
ATOM     71  O   UNL     1      11.249   4.827  10.956  1.00  0.00    -0.237 OA
ATOM     72  O   UNL     1       9.566   4.321  12.688  1.00  0.00    -0.744 OA
ENDBRANCH  65  69
ENDBRANCH  48  62
BRANCH  49  73
ATOM     73  C   UNL     1       6.694  10.843  -0.041  1.00  0.00     0.023 A 
ATOM     74  C   UNL     1       7.742  11.241  -0.885  1.00  0.00     0.031 A 
ATOM     75  C   UNL     1       5.382  10.906  -0.546  1.00  0.00     0.131 A 
ATOM     76  C   UNL     1       7.460  11.715  -2.176  1.00  0.00     0.055 A 
ATOM     77  C   UNL     1       5.110  11.330  -1.848  1.00  0.00     0.041 A 
ATOM     78  F   UNL     1       4.341  10.542   0.220  1.00  0.00    -0.206 F 
ATOM     79  C   UNL     1       6.152  11.748  -2.668  1.00  0.00     0.022 A 
BRANCH  76  80
ATOM     80  S   UNL     1       8.824  12.357  -3.186  1.00  0.00     0.124 S 
ATOM     81  O   UNL     1       9.324  13.444  -2.352  1.00  0.00    -0.237 OA
ATOM     82  O   UNL     1       9.690  11.188  -3.303  1.00  0.00    -0.237 OA
ATOM     83  O   UNL     1       8.167  12.770  -4.424  1.00  0.00    -0.744 OA
ENDBRANCH  76  80
ENDBRANCH  49  73
BRANCH  61  84
ATOM     84  C   UNL     1       9.388  13.998   5.581  1.00  0.00     0.023 A 
ATOM     85  C   UNL     1       8.613  15.166   5.485  1.00  0.00     0.031 A 
ATOM     86  C   UNL     1      10.758  14.134   5.871  1.00  0.00     0.131 A 
ATOM     87  C   UNL     1       9.225  16.422   5.615  1.00  0.00     0.055 A 
ATOM     88  C   UNL     1      11.347  15.383   6.070  1.00  0.00     0.041 A 
ATOM     89  F   UNL     1      11.547  13.053   5.973  1.00  0.00    -0.206 F 
ATOM     90  C   UNL     1      10.582  16.537   5.927  1.00  0.00     0.022 A 
BRANCH  87  91
ATOM     91  S   UNL     1       8.247  17.908   5.265  1.00  0.00     0.124 S 
ATOM     92  O   UNL     1       7.799  17.660   3.898  1.00  0.00    -0.237 OA
ATOM     93  O   UNL     1       7.214  17.851   6.294  1.00  0.00    -0.237 OA
ATOM     94  O   UNL     1       9.211  18.996   5.413  1.00  0.00    -0.744 OA
ENDBRANCH  87  91
ENDBRANCH  61  84
ENDBRANCH  35  36
ENDBRANCH  28  30
ENDBRANCH  27  28
ENDBRANCH  26  27
ENDBRANCH  25  26
ENDBRANCH  24  25
ENDBRANCH   1  24
TORSDOF 21
