REMARK SMILES Cc1ccc(-c2cc(Cl)cc3c2O[C@H](C(F)(F)F)C(C(=O)OCCOCCOC(=O)c2ccc(-c4c5nc(c(-c6cc(S(=O)(=O)[O-])ccc6F)c6ccc([nH]6)c(-c6cc(S(=O)(=O)[O-])ccc6F)c6nc(c(-c7cc(S(=O)(=O)[O-])ccc7F)c7ccc4[nH]7)C=C6)C=C5)cc2)=C3)cc1F
REMARK SMILES IDX 26 1 25 2 24 3 23 4 22 5 20 6 21 7 19 8 6 9 7 10 12 11 8 12
REMARK SMILES IDX 11 13 13 14 9 15 10 16 94 17 14 18 5 19 1 20 2 21 3 22 96 23
REMARK SMILES IDX 4 24 95 25 97 26 15 27 16 28 17 29 18 30 27 31 28 32 29 33
REMARK SMILES IDX 30 34 31 35 32 36 93 37 33 38 92 39 34 40 35 41 36 42 86 43
REMARK SMILES IDX 37 44 91 45 85 46 87 47 38 48 90 49 84 50 83 51 39 53 71 54
REMARK SMILES IDX 51 55 70 56 52 57 55 58 69 59 88 60 53 61 54 62 68 64 89 65
REMARK SMILES IDX 56 66 40 67 41 68 49 69 42 70 48 71 50 72 47 73 43 74 44 75
REMARK SMILES IDX 45 76 46 77 72 78 73 79 81 80 74 81 80 82 82 83 79 84 75 85
REMARK SMILES IDX 76 86 77 87 78 88 57 89 58 90 66 91 59 92 65 93 67 94 64 95
REMARK SMILES IDX 60 96 61 97 62 98 63 99
REMARK H PARENT 87 52 55 63
REMARK Flexibility Score: inf
ROOT
ATOM      1  C   UNL     1      -6.347  -4.624   6.942  1.00  0.00     0.202 C 
ENDROOT
BRANCH   1   2
ATOM      2  O   UNL     1      -5.358  -5.637   6.732  1.00  0.00    -0.374 OA
BRANCH   2   3
ATOM      3  C   UNL     1      -3.990  -5.273   6.904  1.00  0.00     0.202 C 
BRANCH   3   4
ATOM      4  C   UNL     1      -2.884  -5.930   5.921  1.00  0.00     0.261 C 
BRANCH   4   5
ATOM      5  O   UNL     1      -2.491  -5.459   4.008  1.00  0.00    -0.460 OA
BRANCH   5   6
ATOM      6  C   UNL     1      -2.185  -5.464   2.638  1.00  0.00     0.338 C 
ATOM      7  O   UNL     1      -1.811  -6.410   1.956  1.00  0.00    -0.246 OA
BRANCH   6   8
ATOM      8  C   UNL     1      -2.604  -4.210   1.971  1.00  0.00     0.087 C 
ATOM      9  C   UNL     1      -3.043  -1.091  -0.692  1.00  0.00     0.026 A 
ATOM     10  C   UNL     1      -4.078  -1.119  -1.629  1.00  0.00     0.033 A 
ATOM     11  C   UNL     1      -3.049  -2.046   0.345  1.00  0.00     0.135 A 
ATOM     12  C   UNL     1      -5.087  -2.081  -1.518  1.00  0.00     0.042 A 
ATOM     13  C   UNL     1      -4.005  -3.061   0.408  1.00  0.00     0.019 A 
ATOM     14  O   UNL     1      -2.068  -1.914   1.290  1.00  0.00    -0.475 OA
ATOM     15  Cl  UNL     1      -6.347  -2.123  -2.695  1.00  0.00    -0.084 Cl
ATOM     16  C   UNL     1      -5.057  -3.052  -0.510  1.00  0.00     0.032 A 
ATOM     17  C   UNL     1      -3.780  -4.179   1.319  1.00  0.00     0.027 C 
ATOM     18  C   UNL     1      -1.599  -3.105   1.949  1.00  0.00     0.316 C 
BRANCH   9  19
ATOM     19  C   UNL     1      -1.885  -0.192  -0.801  1.00  0.00    -0.012 A 
ATOM     20  C   UNL     1       1.727   2.040  -0.055  1.00  0.00     0.047 C 
ATOM     21  C   UNL     1       0.467   1.320  -0.424  1.00  0.00    -0.015 A 
ATOM     22  C   UNL     1      -0.793   1.908  -0.252  1.00  0.00     0.007 A 
ATOM     23  C   UNL     1       0.534  -0.007  -0.844  1.00  0.00     0.126 A 
ATOM     24  C   UNL     1      -1.962   1.159  -0.442  1.00  0.00     0.009 A 
ATOM     25  C   UNL     1      -0.619  -0.750  -1.054  1.00  0.00     0.048 A 
ATOM     26  F   UNL     1       1.725  -0.604  -0.996  1.00  0.00    -0.207 F 
ENDBRANCH   9  19
BRANCH  18  27
ATOM     27  C   UNL     1      -0.247  -3.521   1.371  1.00  0.00     0.430 C 
ATOM     28  F   UNL     1       0.630  -2.490   1.349  1.00  0.00    -0.167 F 
ATOM     29  F   UNL     1       0.334  -4.511   2.084  1.00  0.00    -0.167 F 
ATOM     30  F   UNL     1      -0.372  -3.960   0.092  1.00  0.00    -0.167 F 
ENDBRANCH  18  27
ENDBRANCH   6   8
ENDBRANCH   5   6
ENDBRANCH   4   5
ENDBRANCH   3   4
ENDBRANCH   2   3
ENDBRANCH   1   2
BRANCH   1  31
ATOM     31  C   UNL     1      -6.138  -3.365   7.824  1.00  0.00     0.261 C 
BRANCH  31  32
ATOM     32  O   UNL     1      -5.032  -3.409   8.723  1.00  0.00    -0.460 OA
BRANCH  32  33
ATOM     33  C   UNL     1      -5.175  -4.027   9.910  1.00  0.00     0.338 C 
ATOM     34  O   UNL     1      -6.220  -4.252  10.496  1.00  0.00    -0.246 OA
BRANCH  33  35
ATOM     35  C   UNL     1      -3.874  -4.707  10.161  1.00  0.00     0.060 A 
ATOM     36  C   UNL     1      -2.653  -4.180   9.699  1.00  0.00     0.016 A 
ATOM     37  C   UNL     1      -3.967  -6.054  10.524  1.00  0.00     0.016 A 
ATOM     38  C   UNL     1      -1.569  -5.038   9.473  1.00  0.00     0.010 A 
ATOM     39  C   UNL     1      -2.890  -6.902  10.287  1.00  0.00     0.010 A 
ATOM     40  C   UNL     1      -1.710  -6.410   9.710  1.00  0.00    -0.014 A 
BRANCH  40  41
ATOM     41  C   UNL     1      -0.646  -7.372   9.416  1.00  0.00     0.031 A 
ATOM     42  C   UNL     1       0.555  -7.399  10.278  1.00  0.00     0.074 A 
ATOM     43  C   UNL     1      -0.701  -8.248   8.385  1.00  0.00     0.049 A 
ATOM     44  N   UNL     1       1.734  -7.752   9.882  1.00  0.00    -0.248 NA
ATOM     45  C   UNL     1       0.496  -7.013  11.681  1.00  0.00     0.031 C 
ATOM     46  C   UNL     1       0.196  -9.375   8.140  1.00  0.00     0.029 A 
ATOM     47  N   UNL     1      -1.466  -8.175   7.213  1.00  0.00    -0.354 N 
ATOM     48  C   UNL     1       2.473  -7.989  11.019  1.00  0.00     0.074 A 
ATOM     49  C   UNL     1       1.710  -7.388  12.095  1.00  0.00     0.031 C 
ATOM     50  C   UNL     1       0.172  -9.670   6.831  1.00  0.00     0.029 A 
ATOM     51  C   UNL     1      -0.645  -8.663   6.168  1.00  0.00     0.049 A 
ATOM     52  H   UNL     1      -2.391  -7.848   7.132  1.00  0.00     0.167 HD
ATOM     53  C   UNL     1       3.538  -8.844  10.979  1.00  0.00     0.034 A 
ATOM     54  C   UNL     1      -0.257  -7.900   5.104  1.00  0.00     0.034 A 
ATOM     55  C   UNL     1       3.820  -9.335   9.626  1.00  0.00     0.049 A 
ATOM     56  C   UNL     1       1.266  -7.775   4.957  1.00  0.00     0.074 A 
ATOM     57  C   UNL     1       3.642 -10.550   8.981  1.00  0.00     0.029 A 
ATOM     58  N   UNL     1       4.143  -8.429   8.624  1.00  0.00    -0.354 N 
ATOM     59  N   UNL     1       2.134  -8.297   5.783  1.00  0.00    -0.248 NA
ATOM     60  C   UNL     1       1.932  -6.980   3.922  1.00  0.00     0.031 C 
ATOM     61  C   UNL     1       3.899 -10.380   7.597  1.00  0.00     0.029 A 
ATOM     62  C   UNL     1       4.190  -9.048   7.387  1.00  0.00     0.049 A 
ATOM     63  H   UNL     1       4.316  -7.471   8.775  1.00  0.00     0.167 HD
ATOM     64  C   UNL     1       3.411  -7.901   5.453  1.00  0.00     0.074 A 
ATOM     65  C   UNL     1       3.229  -7.077   4.274  1.00  0.00     0.031 C 
ATOM     66  C   UNL     1       4.500  -8.267   6.199  1.00  0.00     0.034 A 
BRANCH  53  67
ATOM     67  C   UNL     1       4.077  -9.464  12.255  1.00  0.00     0.023 A 
ATOM     68  C   UNL     1       4.088  -8.780  13.488  1.00  0.00     0.031 A 
ATOM     69  C   UNL     1       4.495 -10.811  12.312  1.00  0.00     0.131 A 
ATOM     70  C   UNL     1       4.285  -9.463  14.702  1.00  0.00     0.055 A 
ATOM     71  C   UNL     1       4.772 -11.472  13.514  1.00  0.00     0.041 A 
ATOM     72  F   UNL     1       4.616 -11.567  11.215  1.00  0.00    -0.206 F 
ATOM     73  C   UNL     1       4.622 -10.813  14.722  1.00  0.00     0.022 A 
BRANCH  70  74
ATOM     74  S   UNL     1       3.936  -8.656  16.292  1.00  0.00     0.124 S 
ATOM     75  O   UNL     1       3.058  -9.626  16.948  1.00  0.00    -0.237 OA
ATOM     76  O   UNL     1       5.266  -8.525  16.875  1.00  0.00    -0.237 OA
ATOM     77  O   UNL     1       3.282  -7.407  15.908  1.00  0.00    -0.744 OA
ENDBRANCH  70  74
ENDBRANCH  53  67
BRANCH  54  78
ATOM     78  C   UNL     1      -1.243  -6.852   4.674  1.00  0.00     0.023 A 
ATOM     79  C   UNL     1      -0.894  -5.134   5.090  1.00  0.00     0.031 A 
ATOM     80  C   UNL     1      -2.932  -7.330   4.190  1.00  0.00     0.131 A 
ATOM     81  C   UNL     1      -2.224  -3.921   5.114  1.00  0.00     0.055 A 
ATOM     82  C   UNL     1      -4.276  -6.103   4.188  1.00  0.00     0.041 A 
ATOM     83  F   UNL     1      -3.242  -8.623   4.009  1.00  0.00    -0.206 F 
ATOM     84  C   UNL     1      -3.912  -4.373   4.633  1.00  0.00     0.022 A 
BRANCH  81  85
ATOM     85  S   UNL     1      -1.901  -2.345   5.930  1.00  0.00     0.124 S 
ATOM     86  O   UNL     1      -1.323  -1.552   4.854  1.00  0.00    -0.237 OA
ATOM     87  O   UNL     1      -3.235  -1.941   6.361  1.00  0.00    -0.237 OA
ATOM     88  O   UNL     1      -0.992  -2.742   6.997  1.00  0.00    -0.744 OA
ENDBRANCH  81  85
ENDBRANCH  54  78
BRANCH  66  89
ATOM     89  C   UNL     1       5.965  -7.992   5.912  1.00  0.00     0.023 A 
ATOM     90  C   UNL     1       6.891  -7.994   6.990  1.00  0.00     0.031 A 
ATOM     91  C   UNL     1       6.525  -7.916   4.628  1.00  0.00     0.131 A 
ATOM     92  C   UNL     1       8.277  -7.923   6.779  1.00  0.00     0.055 A 
ATOM     93  C   UNL     1       7.910  -7.804   4.418  1.00  0.00     0.041 A 
ATOM     94  F   UNL     1       5.764  -8.022   3.528  1.00  0.00    -0.206 F 
ATOM     95  C   UNL     1       8.793  -7.814   5.493  1.00  0.00     0.022 A 
BRANCH  92  96
ATOM     96  S   UNL     1       9.450  -8.070   8.160  1.00  0.00     0.124 S 
ATOM     97  O   UNL     1      10.270  -9.206   7.742  1.00  0.00    -0.237 OA
ATOM     98  O   UNL     1      10.120  -6.772   8.123  1.00  0.00    -0.237 OA
ATOM     99  O   UNL     1       8.601  -8.306   9.320  1.00  0.00    -0.744 OA
ENDBRANCH  92  96
ENDBRANCH  66  89
ENDBRANCH  40  41
ENDBRANCH  33  35
ENDBRANCH  32  33
ENDBRANCH  31  32
ENDBRANCH   1  31
TORSDOF 19
