REMARK SMILES O=C(OCCOCCOC(=O)c1ccc(-c2c3nc(c(-c4cc(S(=O)(=O)[O-])ccc4F)c4ccc([nH]4)c(-c4cc(S(=O)(=O)[O-])ccc4F)c4nc(c(-c5cc(S(=O)(=O)[O-])ccc5F)c5ccc2[nH]5)C=C4)C=C3)cc1)c1ccc(NC(=O)[C@@H]2CC=CC[C@H]2C(=O)Nc2cccc([N+](=O)[O-])c2)cc1
REMARK SMILES IDX 5 1 4 2 3 3 2 4 1 5 75 6 76 7 101 8 77 9 100 10 78 11 79 12
REMARK SMILES IDX 80 13 81 15 82 16 83 17 87 18 84 19 86 20 85 21 88 22 89 23
REMARK SMILES IDX 90 24 91 26 92 27 99 28 93 29 95 30 94 31 96 32 97 33 98 34
REMARK SMILES IDX 6 35 7 36 8 37 9 38 10 39 11 40 12 41 13 42 74 43 14 44
REMARK SMILES IDX 73 45 15 46 16 47 17 48 67 49 18 50 72 51 66 52 68 53 19 54
REMARK SMILES IDX 71 55 65 56 64 57 20 59 52 60 32 61 51 62 33 63 36 64 50 65
REMARK SMILES IDX 69 66 34 67 35 68 49 70 70 71 37 72 21 73 22 74 30 75 23 76
REMARK SMILES IDX 29 77 31 78 28 79 24 80 25 81 26 82 27 83 53 84 54 85 62 86
REMARK SMILES IDX 55 87 61 88 63 89 60 90 56 91 57 92 58 93 59 94 38 95 39 96
REMARK SMILES IDX 47 97 40 98 46 99 48 100 45 101 41 102 42 103 43 104 44 105
REMARK H PARENT 79 14 90 25 68 58 36 69
REMARK Flexibility Score: inf
ROOT
ATOM      1  C   UNL     1      12.708  -2.309  -3.590  1.00  0.00     0.202 C 
ENDROOT
BRANCH   1   2
ATOM      2  C   UNL     1      12.409  -3.396  -2.542  1.00  0.00     0.261 C 
BRANCH   2   3
ATOM      3  O   UNL     1      12.114  -4.671  -3.149  1.00  0.00    -0.460 OA
BRANCH   3   4
ATOM      4  C   UNL     1      10.918  -5.305  -3.259  1.00  0.00     0.338 C 
ATOM      5  O   UNL     1      10.910  -6.497  -3.566  1.00  0.00    -0.246 OA
BRANCH   4   6
ATOM      6  C   UNL     1       9.593  -4.624  -3.112  1.00  0.00     0.060 A 
ATOM      7  C   UNL     1       9.429  -3.253  -3.046  1.00  0.00     0.018 A 
ATOM      8  C   UNL     1       8.418  -5.397  -3.152  1.00  0.00     0.018 A 
ATOM      9  C   UNL     1       8.178  -2.661  -3.072  1.00  0.00     0.027 A 
ATOM     10  C   UNL     1       7.147  -4.790  -3.226  1.00  0.00     0.027 A 
ATOM     11  C   UNL     1       7.035  -3.399  -3.269  1.00  0.00     0.041 A 
BRANCH  11  12
ATOM     12  N   UNL     1       5.798  -2.816  -3.563  1.00  0.00    -0.326 N 
ATOM     13  C   UNL     1       5.430  -1.587  -4.024  1.00  0.00     0.228 C 
ATOM     14  H   UNL     1       5.035  -3.417  -3.404  1.00  0.00     0.169 HD
ATOM     15  O   UNL     1       4.209  -1.393  -4.131  1.00  0.00    -0.274 OA
BRANCH  13  16
ATOM     16  C   UNL     1       6.373  -0.446  -4.431  1.00  0.00     0.095 C 
ATOM     17  C   UNL     1       7.492  -0.787  -5.434  1.00  0.00     0.041 C 
ATOM     18  C   UNL     1       6.704   0.488  -3.247  1.00  0.00     0.095 C 
ATOM     19  C   UNL     1       8.635   0.177  -5.443  1.00  0.00    -0.030 C 
ATOM     20  C   UNL     1       7.788   1.549  -3.522  1.00  0.00     0.041 C 
ATOM     21  C   UNL     1       8.763   1.209  -4.603  1.00  0.00    -0.030 C 
BRANCH  18  22
ATOM     22  C   UNL     1       5.485   1.097  -2.521  1.00  0.00     0.228 C 
ATOM     23  O   UNL     1       5.191   0.672  -1.395  1.00  0.00    -0.274 OA
ATOM     24  N   UNL     1       4.780   2.179  -2.977  1.00  0.00    -0.326 N 
ATOM     25  H   UNL     1       4.152   2.571  -2.329  1.00  0.00     0.169 HD
BRANCH  24  26
ATOM     26  C   UNL     1       4.816   2.811  -4.223  1.00  0.00     0.048 A 
ATOM     27  C   UNL     1       5.102   4.174  -4.281  1.00  0.00     0.026 A 
ATOM     28  C   UNL     1       4.585   2.108  -5.398  1.00  0.00     0.111 A 
ATOM     29  C   UNL     1       5.340   4.783  -5.517  1.00  0.00     0.009 A 
ATOM     30  C   UNL     1       4.899   2.691  -6.628  1.00  0.00     0.271 A 
ATOM     31  C   UNL     1       5.284   4.032  -6.694  1.00  0.00     0.086 A 
BRANCH  30  32
ATOM     32  N   UNL     1       4.888   1.862  -7.840  1.00  0.00     0.062 N 
ATOM     33  O   UNL     1       5.173   2.407  -8.915  1.00  0.00    -0.258 OA
ATOM     34  O   UNL     1       4.608   0.660  -7.716  1.00  0.00    -0.258 OA
ENDBRANCH  30  32
ENDBRANCH  24  26
ENDBRANCH  18  22
ENDBRANCH  13  16
ENDBRANCH  11  12
ENDBRANCH   4   6
ENDBRANCH   3   4
ENDBRANCH   2   3
ENDBRANCH   1   2
BRANCH   1  35
ATOM     35  O   UNL     1      11.757  -2.247  -4.660  1.00  0.00    -0.374 OA
BRANCH  35  36
ATOM     36  C   UNL     1      12.041  -3.121  -5.760  1.00  0.00     0.202 C 
BRANCH  36  37
ATOM     37  C   UNL     1      12.290  -2.319  -7.040  1.00  0.00     0.261 C 
BRANCH  37  38
ATOM     38  O   UNL     1      13.448  -1.498  -6.839  1.00  0.00    -0.460 OA
BRANCH  38  39
ATOM     39  C   UNL     1      13.176  -0.257  -6.365  1.00  0.00     0.338 C 
ATOM     40  O   UNL     1      12.111   0.336  -6.424  1.00  0.00    -0.246 OA
BRANCH  39  41
ATOM     41  C   UNL     1      14.332   0.200  -5.564  1.00  0.00     0.060 A 
ATOM     42  C   UNL     1      14.075   1.028  -4.464  1.00  0.00     0.016 A 
ATOM     43  C   UNL     1      15.640  -0.204  -5.856  1.00  0.00     0.016 A 
ATOM     44  C   UNL     1      15.129   1.495  -3.684  1.00  0.00     0.010 A 
ATOM     45  C   UNL     1      16.695   0.257  -5.070  1.00  0.00     0.010 A 
ATOM     46  C   UNL     1      16.445   1.142  -4.009  1.00  0.00    -0.014 A 
BRANCH  46  47
ATOM     47  C   UNL     1      17.571   1.865  -3.377  1.00  0.00     0.031 A 
ATOM     48  C   UNL     1      18.196   2.998  -4.143  1.00  0.00     0.074 A 
ATOM     49  C   UNL     1      18.004   1.533  -2.148  1.00  0.00     0.049 A 
ATOM     50  N   UNL     1      19.204   3.764  -3.823  1.00  0.00    -0.248 NA
ATOM     51  C   UNL     1      17.604   3.299  -5.458  1.00  0.00     0.031 C 
ATOM     52  C   UNL     1      17.450   0.464  -1.318  1.00  0.00     0.029 A 
ATOM     53  N   UNL     1      19.015   2.060  -1.388  1.00  0.00    -0.354 N 
ATOM     54  C   UNL     1      19.360   4.645  -4.888  1.00  0.00     0.074 A 
ATOM     55  C   UNL     1      18.384   4.276  -5.889  1.00  0.00     0.031 C 
ATOM     56  C   UNL     1      18.139   0.407  -0.165  1.00  0.00     0.029 A 
ATOM     57  C   UNL     1      19.197   1.415  -0.188  1.00  0.00     0.049 A 
ATOM     58  H   UNL     1      19.560   2.829  -1.675  1.00  0.00     0.167 HD
ATOM     59  C   UNL     1      20.224   5.681  -5.009  1.00  0.00     0.034 A 
ATOM     60  C   UNL     1      20.127   1.611   0.769  1.00  0.00     0.034 A 
ATOM     61  C   UNL     1      21.208   6.011  -4.009  1.00  0.00     0.049 A 
ATOM     62  C   UNL     1      21.128   2.727   0.581  1.00  0.00     0.074 A 
ATOM     63  C   UNL     1      22.156   7.018  -4.026  1.00  0.00     0.029 A 
ATOM     64  N   UNL     1      21.375   5.328  -2.810  1.00  0.00    -0.354 N 
ATOM     65  N   UNL     1      21.258   3.563  -0.426  1.00  0.00    -0.248 NA
ATOM     66  C   UNL     1      22.093   2.940   1.666  1.00  0.00     0.031 C 
ATOM     67  C   UNL     1      22.932   6.907  -2.867  1.00  0.00     0.029 A 
ATOM     68  C   UNL     1      22.421   5.880  -2.088  1.00  0.00     0.049 A 
ATOM     69  H   UNL     1      20.829   4.563  -2.516  1.00  0.00     0.167 HD
ATOM     70  C   UNL     1      22.301   4.418  -0.078  1.00  0.00     0.074 A 
ATOM     71  C   UNL     1      22.744   4.011   1.240  1.00  0.00     0.031 C 
ATOM     72  C   UNL     1      22.848   5.446  -0.778  1.00  0.00     0.034 A 
BRANCH  59  73
ATOM     73  C   UNL     1      20.153   6.491  -6.281  1.00  0.00     0.023 A 
ATOM     74  C   UNL     1      19.002   7.225  -6.620  1.00  0.00     0.031 A 
ATOM     75  C   UNL     1      21.225   6.493  -7.189  1.00  0.00     0.131 A 
ATOM     76  C   UNL     1      18.921   7.869  -7.864  1.00  0.00     0.055 A 
ATOM     77  C   UNL     1      21.170   7.203  -8.391  1.00  0.00     0.041 A 
ATOM     78  F   UNL     1      22.339   5.789  -6.934  1.00  0.00    -0.206 F 
ATOM     79  C   UNL     1      20.007   7.884  -8.742  1.00  0.00     0.022 A 
BRANCH  76  80
ATOM     80  S   UNL     1      17.327   8.566  -8.378  1.00  0.00     0.124 S 
ATOM     81  O   UNL     1      16.473   7.380  -8.379  1.00  0.00    -0.237 OA
ATOM     82  O   UNL     1      17.058   9.546  -7.333  1.00  0.00    -0.237 OA
ATOM     83  O   UNL     1      17.607   9.124  -9.700  1.00  0.00    -0.744 OA
ENDBRANCH  76  80
ENDBRANCH  59  73
BRANCH  60  84
ATOM     84  C   UNL     1      20.184   0.725   1.968  1.00  0.00     0.023 A 
ATOM     85  C   UNL     1      19.997   1.235   3.263  1.00  0.00     0.031 A 
ATOM     86  C   UNL     1      20.491  -0.642   1.839  1.00  0.00     0.131 A 
ATOM     87  C   UNL     1      20.175   0.400   4.378  1.00  0.00     0.055 A 
ATOM     88  C   UNL     1      20.610  -1.481   2.948  1.00  0.00     0.041 A 
ATOM     89  F   UNL     1      20.677  -1.184   0.625  1.00  0.00    -0.206 F 
ATOM     90  C   UNL     1      20.468  -0.957   4.229  1.00  0.00     0.022 A 
BRANCH  87  91
ATOM     91  S   UNL     1      20.117   1.138   6.034  1.00  0.00     0.124 S 
ATOM     92  O   UNL     1      21.134   2.179   5.931  1.00  0.00    -0.237 OA
ATOM     93  O   UNL     1      18.734   1.597   6.111  1.00  0.00    -0.237 OA
ATOM     94  O   UNL     1      20.452   0.022   6.916  1.00  0.00    -0.744 OA
ENDBRANCH  87  91
ENDBRANCH  60  84
BRANCH  72  95
ATOM     95  C   UNL     1      23.953   6.219  -0.100  1.00  0.00     0.023 A 
ATOM     96  C   UNL     1      25.191   5.626   0.202  1.00  0.00     0.031 A 
ATOM     97  C   UNL     1      23.753   7.560   0.273  1.00  0.00     0.131 A 
ATOM     98  C   UNL     1      26.153   6.348   0.923  1.00  0.00     0.055 A 
ATOM     99  C   UNL     1      24.741   8.295   0.929  1.00  0.00     0.041 A 
ATOM    100  F   UNL     1      22.590   8.178   0.009  1.00  0.00    -0.206 F 
ATOM    101  C   UNL     1      25.943   7.684   1.274  1.00  0.00     0.022 A 
BRANCH  98 102
ATOM    102  S   UNL     1      27.636   5.478   1.501  1.00  0.00     0.124 S 
ATOM    103  O   UNL     1      27.062   4.384   2.277  1.00  0.00    -0.237 OA
ATOM    104  O   UNL     1      28.283   5.101   0.249  1.00  0.00    -0.237 OA
ATOM    105  O   UNL     1      28.343   6.490   2.284  1.00  0.00    -0.744 OA
ENDBRANCH  98 102
ENDBRANCH  72  95
ENDBRANCH  46  47
ENDBRANCH  39  41
ENDBRANCH  38  39
ENDBRANCH  37  38
ENDBRANCH  36  37
ENDBRANCH  35  36
ENDBRANCH   1  35
TORSDOF 22
