REMARK SMILES CC[C@@H](C)S(=O)(=O)c1cc(C(=O)OCCOCCOC(=O)c2ccc(-c3c4nc(c(-c5cc(S(=O)(=O)[O-])ccc5F)c5ccc([nH]5)c(-c5cc(S(=O)(=O)[O-])ccc5F)c5nc(c(-c6cc(S(=O)(=O)[O-])ccc6F)c6ccc3[nH]6)C=C5)C=C4)cc2)c(C)cc1C
REMARK SMILES IDX 16 1 15 2 14 3 13 4 11 5 12 6 10 7 8 8 9 9 88 10 87 11 89 12
REMARK SMILES IDX 85 13 86 14 5 15 6 16 7 17 3 18 4 19 2 20 1 21 17 22 18 23
REMARK SMILES IDX 19 24 20 25 21 26 22 27 23 28 84 29 24 30 83 31 25 32 26 33
REMARK SMILES IDX 27 34 77 35 28 36 82 37 76 38 78 39 29 40 81 41 75 42 74 43
REMARK SMILES IDX 30 45 62 46 42 47 61 48 43 49 46 50 60 51 79 52 44 53 45 54
REMARK SMILES IDX 59 56 80 57 47 58 31 59 32 60 40 61 33 62 39 63 41 64 38 65
REMARK SMILES IDX 34 66 35 67 36 68 37 69 63 70 64 71 72 72 65 73 71 74 73 75
REMARK SMILES IDX 70 76 66 77 67 78 68 79 69 80 48 81 49 82 57 83 50 84 56 85
REMARK SMILES IDX 58 86 55 87 51 88 52 89 53 90 54 91
REMARK H PARENT 78 44 46 55
REMARK Flexibility Score: inf
ROOT
ATOM      1  O   UNL     1      -4.408   2.296   4.495  1.00  0.00    -0.374 OA
ENDROOT
BRANCH   1   2
ATOM      2  C   UNL     1      -5.669   2.165   3.834  1.00  0.00     0.202 C 
BRANCH   2   3
ATOM      3  C   UNL     1      -5.627   1.462   2.477  1.00  0.00     0.261 C 
BRANCH   3   4
ATOM      4  O   UNL     1      -5.274   0.079   2.655  1.00  0.00    -0.460 OA
BRANCH   4   5
ATOM      5  C   UNL     1      -4.227  -0.349   1.922  1.00  0.00     0.338 C 
ATOM      6  O   UNL     1      -3.667   0.258   1.020  1.00  0.00    -0.246 OA
BRANCH   5   7
ATOM      7  C   UNL     1      -3.639  -1.585   2.500  1.00  0.00     0.064 A 
ATOM      8  C   UNL     1      -1.500  -2.663   2.992  1.00  0.00     0.071 A 
ATOM      9  C   UNL     1      -2.239  -1.545   2.614  1.00  0.00     0.036 A 
ATOM     10  C   UNL     1      -2.176  -3.858   3.294  1.00  0.00    -0.032 A 
ATOM     11  C   UNL     1      -3.587  -3.869   3.239  1.00  0.00     0.009 A 
ATOM     12  C   UNL     1      -1.477  -5.156   3.603  1.00  0.00     0.046 C 
ATOM     13  C   UNL     1      -4.340  -2.736   2.875  1.00  0.00    -0.036 A 
ATOM     14  C   UNL     1      -5.837  -2.855   2.835  1.00  0.00     0.045 C 
BRANCH   8  15
ATOM     15  S   UNL     1       0.285  -2.570   3.087  1.00  0.00     0.181 S 
ATOM     16  O   UNL     1       0.792  -3.737   2.384  1.00  0.00    -0.223 OA
ATOM     17  O   UNL     1       0.587  -2.389   4.495  1.00  0.00    -0.223 OA
BRANCH  15  18
ATOM     18  C   UNL     1       0.928  -1.150   2.195  1.00  0.00     0.110 C 
ATOM     19  C   UNL     1       0.766   0.179   2.936  1.00  0.00     0.025 C 
BRANCH  18  20
ATOM     20  C   UNL     1       0.495  -1.136   0.719  1.00  0.00     0.016 C 
ATOM     21  C   UNL     1       1.087   0.011  -0.087  1.00  0.00     0.005 C 
ENDBRANCH  18  20
ENDBRANCH  15  18
ENDBRANCH   8  15
ENDBRANCH   5   7
ENDBRANCH   4   5
ENDBRANCH   3   4
ENDBRANCH   2   3
ENDBRANCH   1   2
BRANCH   1  22
ATOM     22  C   UNL     1      -3.893   1.142   5.159  1.00  0.00     0.202 C 
BRANCH  22  23
ATOM     23  C   UNL     1      -4.503   0.795   6.523  1.00  0.00     0.261 C 
BRANCH  23  24
ATOM     24  O   UNL     1      -5.878   0.387   6.425  1.00  0.00    -0.460 OA
BRANCH  24  25
ATOM     25  C   UNL     1      -6.771   1.293   6.892  1.00  0.00     0.338 C 
ATOM     26  O   UNL     1      -6.515   2.368   7.418  1.00  0.00    -0.246 OA
BRANCH  25  27
ATOM     27  C   UNL     1      -8.140   0.902   6.509  1.00  0.00     0.060 A 
ATOM     28  C   UNL     1      -8.935   1.866   5.876  1.00  0.00     0.016 A 
ATOM     29  C   UNL     1      -8.662  -0.357   6.815  1.00  0.00     0.016 A 
ATOM     30  C   UNL     1     -10.270   1.593   5.588  1.00  0.00     0.010 A 
ATOM     31  C   UNL     1     -10.007  -0.627   6.532  1.00  0.00     0.010 A 
ATOM     32  C   UNL     1     -10.825   0.358   5.947  1.00  0.00    -0.014 A 
BRANCH  32  33
ATOM     33  C   UNL     1     -12.292   0.157   5.844  1.00  0.00     0.031 A 
ATOM     34  C   UNL     1     -13.135   0.294   7.082  1.00  0.00     0.074 A 
ATOM     35  C   UNL     1     -12.868  -0.113   4.658  1.00  0.00     0.049 A 
ATOM     36  N   UNL     1     -14.424   0.134   7.233  1.00  0.00    -0.248 NA
ATOM     37  C   UNL     1     -12.423   0.657   8.316  1.00  0.00     0.031 C 
ATOM     38  C   UNL     1     -12.160  -0.223   3.384  1.00  0.00     0.029 A 
ATOM     39  N   UNL     1     -14.181  -0.345   4.336  1.00  0.00    -0.354 N 
ATOM     40  C   UNL     1     -14.680   0.371   8.580  1.00  0.00     0.074 A 
ATOM     41  C   UNL     1     -13.403   0.646   9.206  1.00  0.00     0.031 C 
ATOM     42  C   UNL     1     -13.049  -0.508   2.416  1.00  0.00     0.029 A 
ATOM     43  C   UNL     1     -14.379  -0.638   3.007  1.00  0.00     0.049 A 
ATOM     44  H   UNL     1     -14.912  -0.305   4.994  1.00  0.00     0.167 HD
ATOM     45  C   UNL     1     -15.870   0.368   9.231  1.00  0.00     0.034 A 
ATOM     46  C   UNL     1     -15.501  -0.993   2.350  1.00  0.00     0.034 A 
ATOM     47  C   UNL     1     -17.133   0.081   8.593  1.00  0.00     0.049 A 
ATOM     48  C   UNL     1     -16.802  -1.079   3.112  1.00  0.00     0.074 A 
ATOM     49  C   UNL     1     -18.399   0.073   9.151  1.00  0.00     0.029 A 
ATOM     50  N   UNL     1     -17.288  -0.267   7.257  1.00  0.00    -0.354 N 
ATOM     51  N   UNL     1     -17.034  -0.842   4.383  1.00  0.00    -0.248 NA
ATOM     52  C   UNL     1     -17.991  -1.477   2.348  1.00  0.00     0.031 C 
ATOM     53  C   UNL     1     -19.307  -0.353   8.175  1.00  0.00     0.029 A 
ATOM     54  C   UNL     1     -18.622  -0.531   6.983  1.00  0.00     0.049 A 
ATOM     55  H   UNL     1     -16.557  -0.319   6.599  1.00  0.00     0.167 HD
ATOM     56  C   UNL     1     -18.403  -1.030   4.561  1.00  0.00     0.074 A 
ATOM     57  C   UNL     1     -18.943  -1.391   3.266  1.00  0.00     0.031 C 
ATOM     58  C   UNL     1     -19.147  -0.908   5.690  1.00  0.00     0.034 A 
BRANCH  45  59
ATOM     59  C   UNL     1     -15.844   0.629  10.719  1.00  0.00     0.023 A 
ATOM     60  C   UNL     1     -15.405   1.854  11.252  1.00  0.00     0.031 A 
ATOM     61  C   UNL     1     -16.224  -0.381  11.621  1.00  0.00     0.131 A 
ATOM     62  C   UNL     1     -15.281   2.010  12.641  1.00  0.00     0.055 A 
ATOM     63  C   UNL     1     -16.177  -0.191  13.003  1.00  0.00     0.041 A 
ATOM     64  F   UNL     1     -16.630  -1.580  11.174  1.00  0.00    -0.206 F 
ATOM     65  C   UNL     1     -15.687   1.004  13.521  1.00  0.00     0.022 A 
BRANCH  62  66
ATOM     66  S   UNL     1     -14.432   3.482  13.276  1.00  0.00     0.124 S 
ATOM     67  O   UNL     1     -13.137   3.388  12.607  1.00  0.00    -0.237 OA
ATOM     68  O   UNL     1     -15.304   4.564  12.832  1.00  0.00    -0.237 OA
ATOM     69  O   UNL     1     -14.396   3.261  14.720  1.00  0.00    -0.744 OA
ENDBRANCH  62  66
ENDBRANCH  45  59
BRANCH  46  70
ATOM     70  C   UNL     1     -15.448  -1.331   0.899  1.00  0.00     0.023 A 
ATOM     71  C   UNL     1     -16.127  -0.555  -0.054  1.00  0.00     0.031 A 
ATOM     72  C   UNL     1     -14.750  -2.467   0.450  1.00  0.00     0.131 A 
ATOM     73  C   UNL     1     -16.126  -0.946  -1.402  1.00  0.00     0.055 A 
ATOM     74  C   UNL     1     -14.712  -2.823  -0.899  1.00  0.00     0.041 A 
ATOM     75  F   UNL     1     -14.085  -3.243   1.320  1.00  0.00    -0.206 F 
ATOM     76  C   UNL     1     -15.412  -2.067  -1.833  1.00  0.00     0.022 A 
BRANCH  73  77
ATOM     77  S   UNL     1     -17.133  -0.004  -2.580  1.00  0.00     0.124 S 
ATOM     78  O   UNL     1     -18.470  -0.159  -2.018  1.00  0.00    -0.237 OA
ATOM     79  O   UNL     1     -16.546   1.328  -2.484  1.00  0.00    -0.237 OA
ATOM     80  O   UNL     1     -16.905  -0.693  -3.849  1.00  0.00    -0.744 OA
ENDBRANCH  73  77
ENDBRANCH  46  70
BRANCH  58  81
ATOM     81  C   UNL     1     -20.636  -1.124   5.559  1.00  0.00     0.023 A 
ATOM     82  C   UNL     1     -21.180  -2.383   5.250  1.00  0.00     0.031 A 
ATOM     83  C   UNL     1     -21.524  -0.048   5.738  1.00  0.00     0.131 A 
ATOM     84  C   UNL     1     -22.566  -2.523   5.074  1.00  0.00     0.055 A 
ATOM     85  C   UNL     1     -22.906  -0.206   5.623  1.00  0.00     0.041 A 
ATOM     86  F   UNL     1     -21.062   1.178   6.033  1.00  0.00    -0.206 F 
ATOM     87  C   UNL     1     -23.433  -1.446   5.276  1.00  0.00     0.022 A 
BRANCH  84  88
ATOM     88  S   UNL     1     -23.215  -4.112   4.487  1.00  0.00     0.124 S 
ATOM     89  O   UNL     1     -22.511  -4.278   3.220  1.00  0.00    -0.237 OA
ATOM     90  O   UNL     1     -22.825  -5.024   5.558  1.00  0.00    -0.237 OA
ATOM     91  O   UNL     1     -24.653  -3.874   4.371  1.00  0.00    -0.744 OA
ENDBRANCH  84  88
ENDBRANCH  58  81
ENDBRANCH  32  33
ENDBRANCH  25  27
ENDBRANCH  24  25
ENDBRANCH  23  24
ENDBRANCH  22  23
ENDBRANCH   1  22
TORSDOF 20
