REMARK SMILES C[NH+](C)Cc1ccccc1[C@H]1[NH2+][C@@H](C(=O)OCCOCCOC(=O)c2ccc(-c3c4nc(c(-c5cc(S(=O)(=O)[O-])ccc5F)c5ccc([nH]5)c(-c5cc(S(=O)(=O)[O-])ccc5F)c5nc(c(-c6cc(S(=O)(=O)[O-])ccc6F)c6ccc3[nH]6)C=C5)C=C4)cc2)C(C)(C)S1
REMARK SMILES IDX 19 1 18 2 17 3 16 4 14 5 15 6 13 7 11 8 12 9 91 10 88 13
REMARK SMILES IDX 89 14 90 15 10 16 5 17 6 18 7 19 9 20 8 21 4 22 2 23 1 24
REMARK SMILES IDX 3 25 20 27 21 28 22 29 23 30 24 31 25 32 26 33 87 34 27 35
REMARK SMILES IDX 86 36 28 37 29 38 30 39 80 40 31 41 85 42 79 43 81 44 32 45
REMARK SMILES IDX 84 46 78 47 77 48 33 50 65 51 45 52 64 53 46 54 49 55 63 56
REMARK SMILES IDX 82 57 47 58 48 59 62 61 83 62 50 63 34 64 35 65 43 66 36 67
REMARK SMILES IDX 42 68 44 69 41 70 37 71 38 72 39 73 40 74 66 75 67 76 75 77
REMARK SMILES IDX 68 78 74 79 76 80 73 81 69 82 70 83 71 84 72 85 51 86 52 87
REMARK SMILES IDX 60 88 53 89 59 90 61 91 58 92 54 93 55 94 56 95 57 96
REMARK H PARENT 12 11 12 12 2 26 81 49 49 60
REMARK Flexibility Score: inf
ROOT
ATOM      1  O   UNL     1      -4.113  -4.585   1.211  1.00  0.00    -0.374 OA
ENDROOT
BRANCH   1   2
ATOM      2  C   UNL     1      -4.449  -3.730   0.115  1.00  0.00     0.202 C 
BRANCH   2   3
ATOM      3  C   UNL     1      -4.431  -2.222   0.392  1.00  0.00     0.261 C 
BRANCH   3   4
ATOM      4  O   UNL     1      -3.091  -1.707   0.536  1.00  0.00    -0.459 OA
BRANCH   4   5
ATOM      5  C   UNL     1      -2.665  -1.537   1.815  1.00  0.00     0.366 C 
ATOM      6  O   UNL     1      -3.330  -1.804   2.812  1.00  0.00    -0.245 OA
BRANCH   5   7
ATOM      7  C   UNL     1      -1.250  -0.963   1.914  1.00  0.00     0.310 C 
ATOM      8  C   UNL     1       0.131   0.886   1.701  1.00  0.00     0.275 C 
ATOM      9  N   UNL     1      -1.224   0.428   1.394  1.00  0.00    -0.319 N 
ATOM     10  S   UNL     1       1.270  -0.434   1.276  1.00  0.00    -0.081 SA
ATOM     11  H   UNL     1      -1.395   0.444   0.388  1.00  0.00     0.348 HD
ATOM     12  H   UNL     1      -1.946   1.019   1.808  1.00  0.00     0.348 HD
ATOM     13  C   UNL     1      -0.060  -1.742   1.298  1.00  0.00     0.079 C 
ATOM     14  C   UNL     1      -0.264  -2.253  -0.131  1.00  0.00     0.030 C 
ATOM     15  C   UNL     1       0.428  -2.883   2.197  1.00  0.00     0.030 C 
BRANCH   8  16
ATOM     16  C   UNL     1       0.346   2.343   1.335  1.00  0.00     0.029 A 
ATOM     17  C   UNL     1       0.658   2.922   0.085  1.00  0.00     0.016 A 
ATOM     18  C   UNL     1       0.749   4.342   0.010  1.00  0.00     0.010 A 
ATOM     19  C   UNL     1       0.505   5.177   1.100  1.00  0.00     0.001 A 
ATOM     20  C   UNL     1       0.078   3.233   2.420  1.00  0.00     0.011 A 
ATOM     21  C   UNL     1       0.160   4.618   2.312  1.00  0.00     0.001 A 
BRANCH  17  22
ATOM     22  C   UNL     1       1.049   2.231  -1.211  1.00  0.00     0.299 C 
BRANCH  22  23
ATOM     23  N   UNL     1       0.519   0.890  -1.463  1.00  0.00    -0.336 N 
ATOM     24  C   UNL     1       1.545   0.088  -2.145  1.00  0.00     0.332 C 
ATOM     25  C   UNL     1      -0.707   0.928  -2.261  1.00  0.00     0.332 C 
ATOM     26  H   UNL     1       0.282   0.465  -0.566  1.00  0.00     0.347 HD
ENDBRANCH  22  23
ENDBRANCH  17  22
ENDBRANCH   8  16
ENDBRANCH   5   7
ENDBRANCH   4   5
ENDBRANCH   3   4
ENDBRANCH   2   3
ENDBRANCH   1   2
BRANCH   1  27
ATOM     27  C   UNL     1      -2.724  -4.786   1.452  1.00  0.00     0.202 C 
BRANCH  27  28
ATOM     28  C   UNL     1      -2.020  -5.867   0.623  1.00  0.00     0.261 C 
BRANCH  28  29
ATOM     29  O   UNL     1      -2.075  -5.590  -0.785  1.00  0.00    -0.460 OA
BRANCH  29  30
ATOM     30  C   UNL     1      -3.054  -6.262  -1.438  1.00  0.00     0.338 C 
ATOM     31  O   UNL     1      -3.781  -7.127  -0.968  1.00  0.00    -0.246 OA
BRANCH  30  32
ATOM     32  C   UNL     1      -3.277  -5.670  -2.771  1.00  0.00     0.060 A 
ATOM     33  C   UNL     1      -4.607  -5.477  -3.165  1.00  0.00     0.016 A 
ATOM     34  C   UNL     1      -2.229  -5.347  -3.637  1.00  0.00     0.016 A 
ATOM     35  C   UNL     1      -4.899  -5.034  -4.450  1.00  0.00     0.010 A 
ATOM     36  C   UNL     1      -2.524  -4.901  -4.931  1.00  0.00     0.010 A 
ATOM     37  C   UNL     1      -3.860  -4.787  -5.357  1.00  0.00    -0.014 A 
BRANCH  37  38
ATOM     38  C   UNL     1      -4.189  -4.593  -6.792  1.00  0.00     0.031 A 
ATOM     39  C   UNL     1      -4.003  -5.750  -7.737  1.00  0.00     0.074 A 
ATOM     40  C   UNL     1      -4.706  -3.432  -7.231  1.00  0.00     0.049 A 
ATOM     41  N   UNL     1      -4.217  -5.815  -9.025  1.00  0.00    -0.248 NA
ATOM     42  C   UNL     1      -3.506  -7.003  -7.146  1.00  0.00     0.031 C 
ATOM     43  C   UNL     1      -4.983  -2.264  -6.396  1.00  0.00     0.029 A 
ATOM     44  N   UNL     1      -5.097  -3.046  -8.488  1.00  0.00    -0.354 N 
ATOM     45  C   UNL     1      -3.881  -7.112  -9.400  1.00  0.00     0.074 A 
ATOM     46  C   UNL     1      -3.401  -7.782  -8.211  1.00  0.00     0.031 C 
ATOM     47  C   UNL     1      -5.501  -1.291  -7.165  1.00  0.00     0.029 A 
ATOM     48  C   UNL     1      -5.553  -1.750  -8.552  1.00  0.00     0.049 A 
ATOM     49  H   UNL     1      -5.054  -3.641  -9.271  1.00  0.00     0.167 HD
ATOM     50  C   UNL     1      -3.977  -7.694 -10.621  1.00  0.00     0.034 A 
ATOM     51  C   UNL     1      -5.944  -1.014  -9.612  1.00  0.00     0.034 A 
ATOM     52  C   UNL     1      -4.449  -7.007 -11.798  1.00  0.00     0.049 A 
ATOM     53  C   UNL     1      -5.946  -1.652 -10.982  1.00  0.00     0.074 A 
ATOM     54  C   UNL     1      -4.594  -7.498 -13.084  1.00  0.00     0.029 A 
ATOM     55  N   UNL     1      -4.841  -5.674 -11.838  1.00  0.00    -0.354 N 
ATOM     56  N   UNL     1      -5.628  -2.881 -11.323  1.00  0.00    -0.248 NA
ATOM     57  C   UNL     1      -6.366  -0.807 -12.107  1.00  0.00     0.031 C 
ATOM     58  C   UNL     1      -4.994  -6.445 -13.913  1.00  0.00     0.029 A 
ATOM     59  C   UNL     1      -5.189  -5.318 -13.131  1.00  0.00     0.049 A 
ATOM     60  H   UNL     1      -4.869  -5.071 -11.060  1.00  0.00     0.167 HD
ATOM     61  C   UNL     1      -5.846  -2.963 -12.697  1.00  0.00     0.074 A 
ATOM     62  C   UNL     1      -6.334  -1.665 -13.116  1.00  0.00     0.031 C 
ATOM     63  C   UNL     1      -5.667  -4.015 -13.536  1.00  0.00     0.034 A 
BRANCH  50  64
ATOM     64  C   UNL     1      -3.513  -9.126 -10.748  1.00  0.00     0.023 A 
ATOM     65  C   UNL     1      -4.141 -10.175 -10.054  1.00  0.00     0.031 A 
ATOM     66  C   UNL     1      -2.405  -9.444 -11.555  1.00  0.00     0.131 A 
ATOM     67  C   UNL     1      -3.615 -11.475 -10.121  1.00  0.00     0.055 A 
ATOM     68  C   UNL     1      -1.939 -10.753 -11.685  1.00  0.00     0.041 A 
ATOM     69  F   UNL     1      -1.748  -8.482 -12.222  1.00  0.00    -0.206 F 
ATOM     70  C   UNL     1      -2.535 -11.776 -10.954  1.00  0.00     0.022 A 
BRANCH  67  71
ATOM     71  S   UNL     1      -4.266 -12.734  -8.990  1.00  0.00     0.124 S 
ATOM     72  O   UNL     1      -4.017 -12.118  -7.689  1.00  0.00    -0.237 OA
ATOM     73  O   UNL     1      -5.663 -12.831  -9.395  1.00  0.00    -0.237 OA
ATOM     74  O   UNL     1      -3.448 -13.911  -9.279  1.00  0.00    -0.744 OA
ENDBRANCH  67  71
ENDBRANCH  50  64
BRANCH  51  75
ATOM     75  C   UNL     1      -6.330   0.418  -9.441  1.00  0.00     0.023 A 
ATOM     76  C   UNL     1      -7.618   0.870  -9.768  1.00  0.00     0.031 A 
ATOM     77  C   UNL     1      -5.390   1.370  -9.005  1.00  0.00     0.131 A 
ATOM     78  C   UNL     1      -7.916   2.241  -9.705  1.00  0.00     0.055 A 
ATOM     79  C   UNL     1      -5.709   2.724  -8.885  1.00  0.00     0.041 A 
ATOM     80  F   UNL     1      -4.141   0.996  -8.683  1.00  0.00    -0.206 F 
ATOM     81  C   UNL     1      -6.975   3.168  -9.251  1.00  0.00     0.022 A 
BRANCH  78  82
ATOM     82  S   UNL     1      -9.522   2.810 -10.326  1.00  0.00     0.124 S 
ATOM     83  O   UNL     1      -9.497   2.323 -11.701  1.00  0.00    -0.237 OA
ATOM     84  O   UNL     1     -10.450   2.138  -9.423  1.00  0.00    -0.237 OA
ATOM     85  O   UNL     1      -9.450   4.261 -10.176  1.00  0.00    -0.744 OA
ENDBRANCH  78  82
ENDBRANCH  51  75
BRANCH  63  86
ATOM     86  C   UNL     1      -6.049  -3.818 -14.985  1.00  0.00     0.023 A 
ATOM     87  C   UNL     1      -5.362  -2.920 -15.820  1.00  0.00     0.031 A 
ATOM     88  C   UNL     1      -7.124  -4.541 -15.535  1.00  0.00     0.131 A 
ATOM     89  C   UNL     1      -5.792  -2.726 -17.142  1.00  0.00     0.055 A 
ATOM     90  C   UNL     1      -7.503  -4.393 -16.870  1.00  0.00     0.041 A 
ATOM     91  F   UNL     1      -7.819  -5.410 -14.784  1.00  0.00    -0.206 F 
ATOM     92  C   UNL     1      -6.845  -3.471 -17.677  1.00  0.00     0.022 A 
BRANCH  89  93
ATOM     93  S   UNL     1      -5.018  -1.413 -18.125  1.00  0.00     0.124 S 
ATOM     94  O   UNL     1      -5.279  -0.231 -17.310  1.00  0.00    -0.237 OA
ATOM     95  O   UNL     1      -3.627  -1.849 -18.189  1.00  0.00    -0.237 OA
ATOM     96  O   UNL     1      -5.742  -1.463 -19.394  1.00  0.00    -0.744 OA
ENDBRANCH  89  93
ENDBRANCH  63  86
ENDBRANCH  37  38
ENDBRANCH  30  32
ENDBRANCH  29  30
ENDBRANCH  28  29
ENDBRANCH  27  28
ENDBRANCH   1  27
TORSDOF 20
