REMARK SMILES NS(=O)(=O)c1ccc(-n2nc(C(=O)NCCCC(=O)OCCOCCOC(=O)c3ccc(-c4c5nc(c(-c6cc(S(=O)(=O)[O-])ccc6F)c6ccc([nH]6)c(-c6cc(S(=O)(=O)[O-])ccc6F)c6nc(c(-c7cc(S(=O)(=O)[O-])ccc7F)c7ccc4[nH]7)C=C6)C=C5)cc3)cc2-c2ccccc2)cc1
REMARK SMILES IDX 21 1 20 2 18 3 19 4 17 5 16 6 15 7 14 8 12 9 13 10 11 12
REMARK SMILES IDX 9 13 10 14 93 15 92 16 8 17 5 18 6 19 101 20 7 21 100 22
REMARK SMILES IDX 2 23 3 24 4 25 1 26 94 29 95 30 99 31 96 32 98 33 97 34
REMARK SMILES IDX 22 35 23 36 24 37 25 38 26 39 27 40 28 41 29 42 30 43 91 44
REMARK SMILES IDX 31 45 90 46 32 47 33 48 34 49 84 50 35 51 89 52 83 53 85 54
REMARK SMILES IDX 36 55 88 56 82 57 81 58 37 60 69 61 49 62 68 63 50 64 53 65
REMARK SMILES IDX 67 66 86 67 51 68 52 69 66 71 87 72 54 73 38 74 39 75 47 76
REMARK SMILES IDX 40 77 46 78 48 79 45 80 41 81 42 82 43 83 44 84 70 85 71 86
REMARK SMILES IDX 79 87 72 88 78 89 80 90 77 91 73 92 74 93 75 94 76 95 55 96
REMARK SMILES IDX 56 97 64 98 57 99 63 100 65 101 62 102 58 103 59 104 60 105
REMARK SMILES IDX 61 106
REMARK H PARENT 14 11 1 27 1 28 85 59 53 70
REMARK Flexibility Score: inf
ROOT
ATOM      1  C   UNL     1       1.875   8.658  12.740  1.00  0.00     0.261 C 
ENDROOT
BRANCH   1   2
ATOM      2  O   UNL     1       1.964   8.965  11.337  1.00  0.00    -0.463 OA
BRANCH   2   3
ATOM      3  C   UNL     1       2.276  10.235  10.992  1.00  0.00     0.305 C 
ATOM      4  O   UNL     1       2.364  11.174  11.773  1.00  0.00    -0.252 OA
BRANCH   3   5
ATOM      5  C   UNL     1       2.482  10.389   9.497  1.00  0.00     0.124 C 
BRANCH   5   6
ATOM      6  C   UNL     1       3.065   9.196   8.722  1.00  0.00     0.033 C 
BRANCH   6   7
ATOM      7  C   UNL     1       2.154   7.972   8.593  1.00  0.00     0.117 C 
BRANCH   7   8
ATOM      8  N   UNL     1       0.950   8.281   7.848  1.00  0.00    -0.351 N 
ATOM      9  C   UNL     1       0.449   7.907   6.620  1.00  0.00     0.271 C 
ATOM     10  O   UNL     1      -0.670   8.358   6.358  1.00  0.00    -0.267 OA
ATOM     11  H   UNL     1       0.354   8.900   8.328  1.00  0.00     0.163 HD
BRANCH   9  12
ATOM     12  C   UNL     1       1.169   7.000   5.701  1.00  0.00     0.151 A 
ATOM     13  N   UNL     1       1.364   5.480   4.189  1.00  0.00    -0.232 N 
ATOM     14  N   UNL     1       0.528   6.442   4.644  1.00  0.00    -0.162 NA
ATOM     15  C   UNL     1       2.606   5.576   4.779  1.00  0.00     0.075 A 
ATOM     16  C   UNL     1       2.518   6.579   5.712  1.00  0.00     0.065 A 
BRANCH  13  17
ATOM     17  C   UNL     1       0.981   4.551   3.185  1.00  0.00     0.065 A 
ATOM     18  C   UNL     1       0.618   2.767   1.073  1.00  0.00     0.082 A 
ATOM     19  C   UNL     1       1.000   2.276   2.320  1.00  0.00     0.024 A 
ATOM     20  C   UNL     1       0.396   4.139   0.883  1.00  0.00     0.024 A 
ATOM     21  C   UNL     1       1.183   3.172   3.375  1.00  0.00     0.030 A 
ATOM     22  C   UNL     1       0.553   5.034   1.948  1.00  0.00     0.030 A 
BRANCH  18  23
ATOM     23  S   UNL     1       0.438   1.684  -0.316  1.00  0.00     0.238 S 
ATOM     24  O   UNL     1       1.198   2.233  -1.416  1.00  0.00    -0.207 OA
ATOM     25  O   UNL     1      -0.963   1.351  -0.436  1.00  0.00    -0.207 OA
BRANCH  23  26
ATOM     26  N   UNL     1       1.223   0.272   0.128  1.00  0.00    -0.225 NA
ATOM     27  H   UNL     1       1.160  -0.406  -0.632  1.00  0.00     0.137 HD
ATOM     28  H   UNL     1       0.784  -0.113   0.964  1.00  0.00     0.137 HD
ENDBRANCH  23  26
ENDBRANCH  18  23
ENDBRANCH  13  17
BRANCH  15  29
ATOM     29  C   UNL     1       3.684   4.651   4.545  1.00  0.00     0.000 A 
ATOM     30  C   UNL     1       4.538   4.741   3.448  1.00  0.00     0.010 A 
ATOM     31  C   UNL     1       3.745   3.563   5.410  1.00  0.00     0.010 A 
ATOM     32  C   UNL     1       5.443   3.713   3.217  1.00  0.00     0.001 A 
ATOM     33  C   UNL     1       4.617   2.531   5.159  1.00  0.00     0.001 A 
ATOM     34  C   UNL     1       5.453   2.608   4.062  1.00  0.00     0.000 A 
ENDBRANCH  15  29
ENDBRANCH   9  12
ENDBRANCH   7   8
ENDBRANCH   6   7
ENDBRANCH   5   6
ENDBRANCH   3   5
ENDBRANCH   2   3
ENDBRANCH   1   2
BRANCH   1  35
ATOM     35  C   UNL     1       3.047   7.775  13.162  1.00  0.00     0.202 C 
BRANCH  35  36
ATOM     36  O   UNL     1       4.309   8.439  13.250  1.00  0.00    -0.374 OA
BRANCH  36  37
ATOM     37  C   UNL     1       5.040   8.646  12.045  1.00  0.00     0.202 C 
BRANCH  37  38
ATOM     38  C   UNL     1       5.775   7.439  11.478  1.00  0.00     0.261 C 
BRANCH  38  39
ATOM     39  O   UNL     1       4.872   6.427  11.049  1.00  0.00    -0.460 OA
BRANCH  39  40
ATOM     40  C   UNL     1       4.736   5.375  11.904  1.00  0.00     0.338 C 
ATOM     41  O   UNL     1       5.035   5.337  13.072  1.00  0.00    -0.246 OA
BRANCH  40  42
ATOM     42  C   UNL     1       4.299   4.215  11.107  1.00  0.00     0.060 A 
ATOM     43  C   UNL     1       4.385   2.952  11.700  1.00  0.00     0.016 A 
ATOM     44  C   UNL     1       4.133   4.366   9.731  1.00  0.00     0.016 A 
ATOM     45  C   UNL     1       4.542   1.845  10.883  1.00  0.00     0.010 A 
ATOM     46  C   UNL     1       4.366   3.278   8.934  1.00  0.00     0.010 A 
ATOM     47  C   UNL     1       4.644   2.041   9.505  1.00  0.00    -0.014 A 
BRANCH  47  48
ATOM     48  C   UNL     1       4.858   0.924   8.599  1.00  0.00     0.031 A 
ATOM     49  C   UNL     1       3.609   0.140   8.415  1.00  0.00     0.074 A 
ATOM     50  C   UNL     1       5.973   0.778   7.845  1.00  0.00     0.049 A 
ATOM     51  N   UNL     1       3.345  -1.021   8.910  1.00  0.00    -0.248 NA
ATOM     52  C   UNL     1       2.426   0.806   7.835  1.00  0.00     0.031 C 
ATOM     53  C   UNL     1       7.124   1.675   7.737  1.00  0.00     0.029 A 
ATOM     54  N   UNL     1       6.255  -0.163   6.896  1.00  0.00    -0.354 N 
ATOM     55  C   UNL     1       2.075  -1.339   8.448  1.00  0.00     0.074 A 
ATOM     56  C   UNL     1       1.473  -0.100   8.054  1.00  0.00     0.031 C 
ATOM     57  C   UNL     1       7.864   1.339   6.651  1.00  0.00     0.029 A 
ATOM     58  C   UNL     1       7.316   0.144   6.024  1.00  0.00     0.049 A 
ATOM     59  H   UNL     1       5.747  -1.003   6.826  1.00  0.00     0.167 HD
ATOM     60  C   UNL     1       1.743  -2.623   8.144  1.00  0.00     0.034 A 
ATOM     61  C   UNL     1       7.642  -0.521   4.865  1.00  0.00     0.034 A 
ATOM     62  C   UNL     1       2.717  -3.542   8.693  1.00  0.00     0.049 A 
ATOM     63  C   UNL     1       6.982  -1.857   4.988  1.00  0.00     0.074 A 
ATOM     64  C   UNL     1       3.209  -3.753   9.969  1.00  0.00     0.029 A 
ATOM     65  N   UNL     1       3.666  -4.064   7.838  1.00  0.00    -0.354 N 
ATOM     66  N   UNL     1       7.365  -2.748   5.862  1.00  0.00    -0.248 NA
ATOM     67  C   UNL     1       5.603  -2.006   4.531  1.00  0.00     0.031 C 
ATOM     68  C   UNL     1       4.619  -3.884   9.795  1.00  0.00     0.029 A 
ATOM     69  C   UNL     1       4.897  -3.879   8.426  1.00  0.00     0.049 A 
ATOM     70  H   UNL     1       3.494  -4.489   6.967  1.00  0.00     0.167 HD
ATOM     71  C   UNL     1       6.194  -3.269   6.389  1.00  0.00     0.074 A 
ATOM     72  C   UNL     1       5.141  -2.853   5.461  1.00  0.00     0.031 C 
ATOM     73  C   UNL     1       6.134  -3.695   7.688  1.00  0.00     0.034 A 
BRANCH  60  74
ATOM     74  C   UNL     1       0.772  -3.020   7.059  1.00  0.00     0.023 A 
ATOM     75  C   UNL     1       0.479  -4.389   6.935  1.00  0.00     0.031 A 
ATOM     76  C   UNL     1       0.329  -2.198   5.994  1.00  0.00     0.131 A 
ATOM     77  C   UNL     1      -0.139  -4.892   5.778  1.00  0.00     0.055 A 
ATOM     78  C   UNL     1      -0.356  -2.693   4.883  1.00  0.00     0.041 A 
ATOM     79  F   UNL     1       0.618  -0.894   5.910  1.00  0.00    -0.206 F 
ATOM     80  C   UNL     1      -0.568  -4.053   4.754  1.00  0.00     0.022 A 
BRANCH  77  81
ATOM     81  S   UNL     1      -0.206  -6.687   5.559  1.00  0.00     0.124 S 
ATOM     82  O   UNL     1       1.198  -7.052   5.708  1.00  0.00    -0.237 OA
ATOM     83  O   UNL     1      -1.096  -7.087   6.644  1.00  0.00    -0.237 OA
ATOM     84  O   UNL     1      -0.752  -6.841   4.213  1.00  0.00    -0.744 OA
ENDBRANCH  77  81
ENDBRANCH  60  74
BRANCH  61  85
ATOM     85  C   UNL     1       8.270  -0.059   3.562  1.00  0.00     0.023 A 
ATOM     86  C   UNL     1       8.471  -0.932   2.457  1.00  0.00     0.031 A 
ATOM     87  C   UNL     1       8.434   1.310   3.267  1.00  0.00     0.131 A 
ATOM     88  C   UNL     1       8.685  -0.419   1.147  1.00  0.00     0.055 A 
ATOM     89  C   UNL     1       8.538   1.811   1.961  1.00  0.00     0.041 A 
ATOM     90  F   UNL     1       8.379   2.246   4.222  1.00  0.00    -0.206 F 
ATOM     91  C   UNL     1       8.624   0.948   0.888  1.00  0.00     0.022 A 
BRANCH  88  92
ATOM     92  S   UNL     1       9.051  -1.506  -0.274  1.00  0.00     0.124 S 
ATOM     93  O   UNL     1      10.477  -1.756  -0.095  1.00  0.00    -0.237 OA
ATOM     94  O   UNL     1       8.160  -2.639  -0.058  1.00  0.00    -0.237 OA
ATOM     95  O   UNL     1       8.715  -0.676  -1.432  1.00  0.00    -0.744 OA
ENDBRANCH  88  92
ENDBRANCH  61  85
BRANCH  73  96
ATOM     96  C   UNL     1       7.431  -3.766   8.483  1.00  0.00     0.023 A 
ATOM     97  C   UNL     1       8.331  -2.687   8.669  1.00  0.00     0.031 A 
ATOM     98  C   UNL     1       7.694  -4.949   9.193  1.00  0.00     0.131 A 
ATOM     99  C   UNL     1       9.445  -2.825   9.522  1.00  0.00     0.055 A 
ATOM    100  C   UNL     1       8.781  -5.074  10.058  1.00  0.00     0.041 A 
ATOM    101  F   UNL     1       6.867  -6.003   9.087  1.00  0.00    -0.206 F 
ATOM    102  C   UNL     1       9.666  -4.015  10.220  1.00  0.00     0.022 A 
BRANCH  99 103
ATOM    103  S   UNL     1      10.642  -1.464   9.720  1.00  0.00     0.124 S 
ATOM    104  O   UNL     1      10.901  -1.035   8.351  1.00  0.00    -0.237 OA
ATOM    105  O   UNL     1       9.909  -0.518  10.557  1.00  0.00    -0.237 OA
ATOM    106  O   UNL     1      11.779  -2.106  10.382  1.00  0.00    -0.744 OA
ENDBRANCH  99 103
ENDBRANCH  73  96
ENDBRANCH  47  48
ENDBRANCH  40  42
ENDBRANCH  39  40
ENDBRANCH  38  39
ENDBRANCH  37  38
ENDBRANCH  36  37
ENDBRANCH  35  36
ENDBRANCH   1  35
TORSDOF 25
