REMARK SMILES COc1ccc(-c2nc(NCC(=O)OCCOCCOC(=O)c3ccc(-c4c5nc(c(-c6cc(S(=O)(=O)[O-])ccc6F)c6ccc([nH]6)c(-c6cc(S(=O)(=O)[O-])ccc6F)c6nc(c(-c7cc(S(=O)(=O)[O-])ccc7F)c7ccc4[nH]7)C=C6)C=C5)cc3)sc2-c2ccc(OC)cc2)cc1
REMARK SMILES IDX 16 1 15 2 14 3 12 4 13 5 11 6 10 7 9 9 7 10 8 11 87 12 86 13
REMARK SMILES IDX 6 14 3 15 4 16 97 17 5 18 96 19 2 20 1 21 88 22 89 23 95 24
REMARK SMILES IDX 90 25 94 26 91 27 92 28 93 29 17 30 18 31 19 32 20 33 21 34
REMARK SMILES IDX 22 35 23 36 24 37 85 38 25 39 84 40 26 41 27 42 28 43 78 44
REMARK SMILES IDX 29 45 83 46 77 47 79 48 30 49 82 50 76 51 75 52 31 54 63 55
REMARK SMILES IDX 43 56 62 57 44 58 47 59 61 60 80 61 45 62 46 63 60 65 81 66
REMARK SMILES IDX 48 67 32 68 33 69 41 70 34 71 40 72 42 73 39 74 35 75 36 76
REMARK SMILES IDX 37 77 38 78 64 79 65 80 73 81 66 82 72 83 74 84 71 85 67 86
REMARK SMILES IDX 68 87 69 88 70 89 49 90 50 91 58 92 51 93 57 94 59 95 56 96
REMARK SMILES IDX 52 97 53 98 54 99 55 100
REMARK H PARENT 10 8 79 53 47 64
REMARK Flexibility Score: inf
ROOT
ATOM      1  C   UNL     1       8.363   6.250   8.820  1.00  0.00     0.202 C 
ENDROOT
BRANCH   1   2
ATOM      2  C   UNL     1       7.075   6.127   9.639  1.00  0.00     0.261 C 
BRANCH   2   3
ATOM      3  O   UNL     1       5.926   6.142   8.777  1.00  0.00    -0.462 OA
BRANCH   3   4
ATOM      4  C   UNL     1       4.988   7.087   9.046  1.00  0.00     0.325 C 
ATOM      5  O   UNL     1       4.964   7.785  10.056  1.00  0.00    -0.250 OA
BRANCH   4   6
ATOM      6  C   UNL     1       4.007   7.303   7.898  1.00  0.00     0.238 C 
BRANCH   6   7
ATOM      7  N   UNL     1       4.136   6.384   6.774  1.00  0.00    -0.351 N 
ATOM      8  H   UNL     1       4.943   6.453   6.214  1.00  0.00     0.163 HD
BRANCH   7   9
ATOM      9  C   UNL     1       3.225   5.446   6.450  1.00  0.00     0.184 A 
ATOM     10  C   UNL     1       2.102   4.050   5.141  1.00  0.00     0.091 A 
ATOM     11  N   UNL     1       3.176   4.923   5.245  1.00  0.00    -0.220 NA
ATOM     12  C   UNL     1       1.387   3.859   6.312  1.00  0.00     0.064 A 
ATOM     13  S   UNL     1       2.050   4.837   7.547  1.00  0.00    -0.096 S 
BRANCH  10  14
ATOM     14  C   UNL     1       1.770   3.390   3.885  1.00  0.00     0.002 A 
ATOM     15  C   UNL     1       1.064   1.959   1.569  1.00  0.00     0.118 A 
ATOM     16  C   UNL     1       0.145   2.816   2.175  1.00  0.00     0.047 A 
ATOM     17  C   UNL     1       2.354   1.857   2.092  1.00  0.00     0.047 A 
ATOM     18  C   UNL     1       0.492   3.524   3.328  1.00  0.00     0.014 A 
ATOM     19  C   UNL     1       2.708   2.576   3.243  1.00  0.00     0.014 A 
BRANCH  15  20
ATOM     20  O   UNL     1       0.602   1.304   0.460  1.00  0.00    -0.497 OA
ATOM     21  C   UNL     1       1.218   0.050   0.187  1.00  0.00     0.278 C 
ENDBRANCH  15  20
ENDBRANCH  10  14
BRANCH  12  22
ATOM     22  C   UNL     1       0.266   2.981   6.627  1.00  0.00    -0.006 A 
ATOM     23  C   UNL     1      -0.966   3.507   7.030  1.00  0.00     0.013 A 
ATOM     24  C   UNL     1       0.416   1.594   6.528  1.00  0.00     0.013 A 
ATOM     25  C   UNL     1      -2.026   2.653   7.336  1.00  0.00     0.047 A 
ATOM     26  C   UNL     1      -0.647   0.741   6.836  1.00  0.00     0.047 A 
ATOM     27  C   UNL     1      -1.873   1.268   7.242  1.00  0.00     0.118 A 
BRANCH  27  28
ATOM     28  O   UNL     1      -2.986   0.546   7.574  1.00  0.00    -0.497 OA
ATOM     29  C   UNL     1      -2.869  -0.870   7.494  1.00  0.00     0.278 C 
ENDBRANCH  27  28
ENDBRANCH  12  22
ENDBRANCH   7   9
ENDBRANCH   6   7
ENDBRANCH   4   6
ENDBRANCH   3   4
ENDBRANCH   2   3
ENDBRANCH   1   2
BRANCH   1  30
ATOM     30  O   UNL     1       8.522   7.465   8.082  1.00  0.00    -0.374 OA
BRANCH  30  31
ATOM     31  C   UNL     1       7.758   7.617   6.886  1.00  0.00     0.202 C 
BRANCH  31  32
ATOM     32  C   UNL     1       8.200   6.812   5.657  1.00  0.00     0.261 C 
BRANCH  32  33
ATOM     33  O   UNL     1       8.092   5.391   5.849  1.00  0.00    -0.460 OA
BRANCH  33  34
ATOM     34  C   UNL     1       9.279   4.737   5.887  1.00  0.00     0.338 C 
ATOM     35  O   UNL     1      10.389   5.230   5.717  1.00  0.00    -0.246 OA
BRANCH  34  36
ATOM     36  C   UNL     1       9.099   3.349   6.350  1.00  0.00     0.060 A 
ATOM     37  C   UNL     1       9.901   2.919   7.415  1.00  0.00     0.016 A 
ATOM     38  C   UNL     1       8.231   2.457   5.714  1.00  0.00     0.016 A 
ATOM     39  C   UNL     1       9.877   1.585   7.816  1.00  0.00     0.010 A 
ATOM     40  C   UNL     1       8.215   1.114   6.114  1.00  0.00     0.010 A 
ATOM     41  C   UNL     1       9.061   0.664   7.145  1.00  0.00    -0.014 A 
BRANCH  41  42
ATOM     42  C   UNL     1       9.205  -0.784   7.444  1.00  0.00     0.031 A 
ATOM     43  C   UNL     1      10.034  -1.644   6.528  1.00  0.00     0.074 A 
ATOM     44  C   UNL     1       8.647  -1.315   8.547  1.00  0.00     0.049 A 
ATOM     45  N   UNL     1      10.296  -2.923   6.600  1.00  0.00    -0.248 NA
ATOM     46  C   UNL     1      10.648  -0.967   5.375  1.00  0.00     0.031 C 
ATOM     47  C   UNL     1       7.859  -0.575   9.531  1.00  0.00     0.029 A 
ATOM     48  N   UNL     1       8.661  -2.601   9.026  1.00  0.00    -0.354 N 
ATOM     49  C   UNL     1      11.107  -3.208   5.506  1.00  0.00     0.074 A 
ATOM     50  C   UNL     1      11.257  -1.972   4.765  1.00  0.00     0.031 C 
ATOM     51  C   UNL     1       7.461  -1.421  10.496  1.00  0.00     0.029 A 
ATOM     52  C   UNL     1       7.935  -2.768  10.182  1.00  0.00     0.049 A 
ATOM     53  H   UNL     1       9.144  -3.336   8.583  1.00  0.00     0.167 HD
ATOM     54  C   UNL     1      11.682  -4.386   5.158  1.00  0.00     0.034 A 
ATOM     55  C   UNL     1       7.668  -3.882  10.895  1.00  0.00     0.034 A 
ATOM     56  C   UNL     1      11.514  -5.613   5.899  1.00  0.00     0.049 A 
ATOM     57  C   UNL     1       8.251  -5.199  10.442  1.00  0.00     0.074 A 
ATOM     58  C   UNL     1      12.062  -6.859   5.641  1.00  0.00     0.029 A 
ATOM     59  N   UNL     1      10.731  -5.755   7.038  1.00  0.00    -0.354 N 
ATOM     60  N   UNL     1       9.025  -5.452   9.411  1.00  0.00    -0.248 NA
ATOM     61  C   UNL     1       7.933  -6.379  11.257  1.00  0.00     0.031 C 
ATOM     62  C   UNL     1      11.553  -7.766   6.578  1.00  0.00     0.029 A 
ATOM     63  C   UNL     1      10.752  -7.073   7.471  1.00  0.00     0.049 A 
ATOM     64  H   UNL     1      10.233  -5.027   7.474  1.00  0.00     0.167 HD
ATOM     65  C   UNL     1       9.310  -6.814   9.474  1.00  0.00     0.074 A 
ATOM     66  C   UNL     1       8.637  -7.324  10.651  1.00  0.00     0.031 C 
ATOM     67  C   UNL     1      10.064  -7.574   8.639  1.00  0.00     0.034 A 
BRANCH  54  68
ATOM     68  C   UNL     1      12.502  -4.409   3.890  1.00  0.00     0.023 A 
ATOM     69  C   UNL     1      13.688  -3.665   3.760  1.00  0.00     0.031 A 
ATOM     70  C   UNL     1      12.077  -5.167   2.784  1.00  0.00     0.131 A 
ATOM     71  C   UNL     1      14.369  -3.641   2.532  1.00  0.00     0.055 A 
ATOM     72  C   UNL     1      12.800  -5.200   1.591  1.00  0.00     0.041 A 
ATOM     73  F   UNL     1      10.940  -5.879   2.841  1.00  0.00    -0.206 F 
ATOM     74  C   UNL     1      13.946  -4.422   1.454  1.00  0.00     0.022 A 
BRANCH  71  75
ATOM     75  S   UNL     1      15.734  -2.466   2.318  1.00  0.00     0.124 S 
ATOM     76  O   UNL     1      15.071  -1.191   2.585  1.00  0.00    -0.237 OA
ATOM     77  O   UNL     1      16.693  -2.910   3.323  1.00  0.00    -0.237 OA
ATOM     78  O   UNL     1      16.145  -2.667   0.930  1.00  0.00    -0.744 OA
ENDBRANCH  71  75
ENDBRANCH  54  68
BRANCH  55  79
ATOM     79  C   UNL     1       6.777  -3.818  12.089  1.00  0.00     0.023 A 
ATOM     80  C   UNL     1       7.253  -4.134  13.371  1.00  0.00     0.031 A 
ATOM     81  C   UNL     1       5.415  -3.496  11.951  1.00  0.00     0.131 A 
ATOM     82  C   UNL     1       6.364  -4.165  14.458  1.00  0.00     0.055 A 
ATOM     83  C   UNL     1       4.547  -3.476  13.044  1.00  0.00     0.041 A 
ATOM     84  F   UNL     1       4.908  -3.189  10.747  1.00  0.00    -0.206 F 
ATOM     85  C   UNL     1       5.018  -3.825  14.305  1.00  0.00     0.022 A 
BRANCH  82  86
ATOM     86  S   UNL     1       6.976  -4.743  16.065  1.00  0.00     0.124 S 
ATOM     87  O   UNL     1       7.455  -6.081  15.737  1.00  0.00    -0.237 OA
ATOM     88  O   UNL     1       8.002  -3.752  16.372  1.00  0.00    -0.237 OA
ATOM     89  O   UNL     1       5.791  -4.694  16.918  1.00  0.00    -0.744 OA
ENDBRANCH  82  86
ENDBRANCH  55  79
BRANCH  67  90
ATOM     90  C   UNL     1      10.235  -9.030   9.001  1.00  0.00     0.023 A 
ATOM     91  C   UNL     1       9.156  -9.932   8.977  1.00  0.00     0.031 A 
ATOM     92  C   UNL     1      11.494  -9.518   9.393  1.00  0.00     0.131 A 
ATOM     93  C   UNL     1       9.344 -11.259   9.395  1.00  0.00     0.055 A 
ATOM     94  C   UNL     1      11.688 -10.854   9.749  1.00  0.00     0.041 A 
ATOM     95  F   UNL     1      12.560  -8.703   9.437  1.00  0.00    -0.206 F 
ATOM     96  C   UNL     1      10.606 -11.729   9.765  1.00  0.00     0.022 A 
BRANCH  93  97
ATOM     97  S   UNL     1       7.894 -12.341   9.541  1.00  0.00     0.124 S 
ATOM     98  O   UNL     1       7.056 -11.601  10.479  1.00  0.00    -0.237 OA
ATOM     99  O   UNL     1       7.411 -12.401   8.165  1.00  0.00    -0.237 OA
ATOM    100  O   UNL     1       8.449 -13.591  10.058  1.00  0.00    -0.744 OA
ENDBRANCH  93  97
ENDBRANCH  67  90
ENDBRANCH  41  42
ENDBRANCH  34  36
ENDBRANCH  33  34
ENDBRANCH  32  33
ENDBRANCH  31  32
ENDBRANCH  30  31
ENDBRANCH   1  30
TORSDOF 23
