REMARK SMILES COc1ccc(C(F)(F)F)cc1-c1cccnc1C(=O)OCCOCCOC(=O)c1ccc(-c2c3nc(c(-c4cc(S(=O)(=O)[O-])ccc4F)c4ccc([nH]4)c(-c4cc(S(=O)(=O)[O-])ccc4F)c4nc(c(-c5cc(S(=O)(=O)[O-])ccc5F)c5ccc2[nH]5)C=C4)C=C3)cc1
REMARK SMILES IDX 25 1 24 2 23 3 22 4 21 5 19 6 20 7 18 8 13 9 14 10 15 11
REMARK SMILES IDX 17 12 16 13 12 14 3 15 4 16 5 17 11 18 6 19 2 20 1 21 7 22
REMARK SMILES IDX 8 23 9 24 10 25 26 26 27 27 28 28 29 29 30 30 31 31 92 32
REMARK SMILES IDX 32 33 91 34 33 35 34 36 35 37 85 38 36 39 90 40 84 41 86 42
REMARK SMILES IDX 37 43 89 44 83 45 82 46 38 48 70 49 50 50 69 51 51 52 54 53
REMARK SMILES IDX 68 54 87 55 52 56 53 57 67 59 88 60 55 61 39 62 40 63 48 64
REMARK SMILES IDX 41 65 47 66 49 67 46 68 42 69 43 70 44 71 45 72 71 73 72 74
REMARK SMILES IDX 80 75 73 76 79 77 81 78 78 79 74 80 75 81 76 82 77 83 56 84
REMARK SMILES IDX 57 85 65 86 58 87 64 88 66 89 63 90 59 91 60 92 61 93 62 94
REMARK H PARENT 86 47 54 58
REMARK Flexibility Score: inf
ROOT
ATOM      1  C   UNL     1       2.904   3.037  -2.907  1.00  0.00     0.202 C 
ENDROOT
BRANCH   1   2
ATOM      2  O   UNL     1       3.117   3.180  -4.311  1.00  0.00    -0.374 OA
BRANCH   2   3
ATOM      3  C   UNL     1       2.659   2.121  -5.154  1.00  0.00     0.202 C 
BRANCH   3   4
ATOM      4  C   UNL     1       3.529   0.865  -5.144  1.00  0.00     0.261 C 
BRANCH   4   5
ATOM      5  O   UNL     1       3.494   0.255  -3.843  1.00  0.00    -0.458 OA
BRANCH   5   6
ATOM      6  C   UNL     1       4.693  -0.131  -3.340  1.00  0.00     0.357 C 
ATOM      7  O   UNL     1       5.759  -0.103  -3.938  1.00  0.00    -0.244 OA
BRANCH   6   8
ATOM      8  C   UNL     1       4.571  -0.526  -1.899  1.00  0.00     0.156 A 
ATOM      9  C   UNL     1       3.577  -1.382  -1.387  1.00  0.00     0.019 A 
ATOM     10  C   UNL     1       3.718  -1.715  -0.024  1.00  0.00     0.013 A 
ATOM     11  C   UNL     1       4.728  -1.165   0.763  1.00  0.00     0.021 A 
ATOM     12  N   UNL     1       5.572   0.021  -1.137  1.00  0.00    -0.249 NA
ATOM     13  C   UNL     1       5.615  -0.296   0.168  1.00  0.00     0.112 A 
BRANCH   9  14
ATOM     14  C   UNL     1       2.413  -1.899  -2.149  1.00  0.00     0.027 A 
ATOM     15  C   UNL     1       1.091  -1.822  -1.654  1.00  0.00     0.126 A 
ATOM     16  C   UNL     1      -0.002  -2.266  -2.406  1.00  0.00     0.048 A 
ATOM     17  C   UNL     1       0.189  -2.751  -3.696  1.00  0.00     0.017 A 
ATOM     18  C   UNL     1       2.578  -2.464  -3.429  1.00  0.00     0.025 A 
ATOM     19  C   UNL     1       1.481  -2.846  -4.226  1.00  0.00     0.056 A 
BRANCH  15  20
ATOM     20  O   UNL     1       0.819  -1.406  -0.372  1.00  0.00    -0.496 OA
ATOM     21  C   UNL     1       0.648   0.009  -0.311  1.00  0.00     0.278 C 
ENDBRANCH  15  20
BRANCH  19  22
ATOM     22  C   UNL     1       1.687  -3.329  -5.643  1.00  0.00     0.416 C 
ATOM     23  F   UNL     1       1.369  -4.640  -5.802  1.00  0.00    -0.166 F 
ATOM     24  F   UNL     1       0.936  -2.634  -6.539  1.00  0.00    -0.166 F 
ATOM     25  F   UNL     1       2.976  -3.200  -6.067  1.00  0.00    -0.166 F 
ENDBRANCH  19  22
ENDBRANCH   9  14
ENDBRANCH   6   8
ENDBRANCH   5   6
ENDBRANCH   4   5
ENDBRANCH   3   4
ENDBRANCH   2   3
ENDBRANCH   1   2
BRANCH   1  26
ATOM     26  C   UNL     1       1.486   3.342  -2.408  1.00  0.00     0.261 C 
BRANCH  26  27
ATOM     27  O   UNL     1       0.509   2.395  -2.876  1.00  0.00    -0.460 OA
BRANCH  27  28
ATOM     28  C   UNL     1      -0.352   2.883  -3.804  1.00  0.00     0.338 C 
ATOM     29  O   UNL     1      -0.391   4.032  -4.232  1.00  0.00    -0.246 OA
BRANCH  28  30
ATOM     30  C   UNL     1      -1.175   1.801  -4.374  1.00  0.00     0.060 A 
ATOM     31  C   UNL     1      -1.225   1.687  -5.768  1.00  0.00     0.016 A 
ATOM     32  C   UNL     1      -1.967   0.980  -3.570  1.00  0.00     0.016 A 
ATOM     33  C   UNL     1      -2.104   0.784  -6.367  1.00  0.00     0.010 A 
ATOM     34  C   UNL     1      -2.852   0.077  -4.171  1.00  0.00     0.010 A 
ATOM     35  C   UNL     1      -2.951   0.000  -5.573  1.00  0.00    -0.014 A 
BRANCH  35  36
ATOM     36  C   UNL     1      -4.047  -0.779  -6.203  1.00  0.00     0.031 A 
ATOM     37  C   UNL     1      -5.444  -0.218  -6.187  1.00  0.00     0.074 A 
ATOM     38  C   UNL     1      -3.803  -1.960  -6.799  1.00  0.00     0.049 A 
ATOM     39  N   UNL     1      -6.561  -0.752  -6.608  1.00  0.00    -0.248 NA
ATOM     40  C   UNL     1      -5.596   1.128  -5.615  1.00  0.00     0.031 C 
ATOM     41  C   UNL     1      -2.485  -2.575  -6.941  1.00  0.00     0.029 A 
ATOM     42  N   UNL     1      -4.658  -2.857  -7.389  1.00  0.00    -0.354 N 
ATOM     43  C   UNL     1      -7.552   0.191  -6.353  1.00  0.00     0.074 A 
ATOM     44  C   UNL     1      -6.905   1.311  -5.701  1.00  0.00     0.031 C 
ATOM     45  C   UNL     1      -2.621  -3.760  -7.561  1.00  0.00     0.029 A 
ATOM     46  C   UNL     1      -4.037  -4.003  -7.830  1.00  0.00     0.049 A 
ATOM     47  H   UNL     1      -5.624  -2.695  -7.488  1.00  0.00     0.167 HD
ATOM     48  C   UNL     1      -8.875   0.134  -6.646  1.00  0.00     0.034 A 
ATOM     49  C   UNL     1      -4.557  -5.126  -8.366  1.00  0.00     0.034 A 
ATOM     50  C   UNL     1      -9.508  -0.994  -7.286  1.00  0.00     0.049 A 
ATOM     51  C   UNL     1      -6.049  -5.214  -8.585  1.00  0.00     0.074 A 
ATOM     52  C   UNL     1     -10.840  -1.157  -7.629  1.00  0.00     0.029 A 
ATOM     53  N   UNL     1      -8.857  -2.160  -7.669  1.00  0.00    -0.354 N 
ATOM     54  N   UNL     1      -6.977  -4.320  -8.331  1.00  0.00    -0.248 NA
ATOM     55  C   UNL     1      -6.561  -6.461  -9.171  1.00  0.00     0.031 C 
ATOM     56  C   UNL     1     -11.004  -2.444  -8.155  1.00  0.00     0.029 A 
ATOM     57  C   UNL     1      -9.763  -3.057  -8.214  1.00  0.00     0.049 A 
ATOM     58  H   UNL     1      -7.891  -2.325  -7.569  1.00  0.00     0.167 HD
ATOM     59  C   UNL     1      -8.175  -4.883  -8.764  1.00  0.00     0.074 A 
ATOM     60  C   UNL     1      -7.852  -6.191  -9.296  1.00  0.00     0.031 C 
ATOM     61  C   UNL     1      -9.429  -4.362  -8.735  1.00  0.00     0.034 A 
BRANCH  48  62
ATOM     62  C   UNL     1      -9.727   1.307  -6.224  1.00  0.00     0.023 A 
ATOM     63  C   UNL     1      -9.540   2.591  -6.767  1.00  0.00     0.031 A 
ATOM     64  C   UNL     1     -10.715   1.148  -5.237  1.00  0.00     0.131 A 
ATOM     65  C   UNL     1     -10.274   3.677  -6.266  1.00  0.00     0.055 A 
ATOM     66  C   UNL     1     -11.499   2.218  -4.800  1.00  0.00     0.041 A 
ATOM     67  F   UNL     1     -10.924  -0.048  -4.665  1.00  0.00    -0.206 F 
ATOM     68  C   UNL     1     -11.270   3.495  -5.303  1.00  0.00     0.022 A 
BRANCH  65  69
ATOM     69  S   UNL     1      -9.805   5.352  -6.780  1.00  0.00     0.124 S 
ATOM     70  O   UNL     1      -8.406   5.407  -6.363  1.00  0.00    -0.237 OA
ATOM     71  O   UNL     1     -10.043   5.319  -8.218  1.00  0.00    -0.237 OA
ATOM     72  O   UNL     1     -10.709   6.210  -6.016  1.00  0.00    -0.744 OA
ENDBRANCH  65  69
ENDBRANCH  48  62
BRANCH  49  73
ATOM     73  C   UNL     1      -3.674  -6.279  -8.700  1.00  0.00     0.023 A 
ATOM     74  C   UNL     1      -3.523  -6.719 -10.025  1.00  0.00     0.031 A 
ATOM     75  C   UNL     1      -3.010  -6.995  -7.688  1.00  0.00     0.131 A 
ATOM     76  C   UNL     1      -2.766  -7.869 -10.297  1.00  0.00     0.055 A 
ATOM     77  C   UNL     1      -2.216  -8.107  -7.969  1.00  0.00     0.041 A 
ATOM     78  F   UNL     1      -3.121  -6.616  -6.404  1.00  0.00    -0.206 F 
ATOM     79  C   UNL     1      -2.101  -8.558  -9.281  1.00  0.00     0.022 A 
BRANCH  76  80
ATOM     80  S   UNL     1      -2.731  -8.502 -11.997  1.00  0.00     0.124 S 
ATOM     81  O   UNL     1      -4.147  -8.739 -12.254  1.00  0.00    -0.237 OA
ATOM     82  O   UNL     1      -2.123  -7.391 -12.722  1.00  0.00    -0.237 OA
ATOM     83  O   UNL     1      -1.905  -9.704 -11.895  1.00  0.00    -0.744 OA
ENDBRANCH  76  80
ENDBRANCH  49  73
BRANCH  61  84
ATOM     84  C   UNL     1     -10.534  -5.187  -9.350  1.00  0.00     0.023 A 
ATOM     85  C   UNL     1     -10.972  -6.392  -8.773  1.00  0.00     0.031 A 
ATOM     86  C   UNL     1     -11.156  -4.755 -10.535  1.00  0.00     0.131 A 
ATOM     87  C   UNL     1     -11.969  -7.148  -9.409  1.00  0.00     0.055 A 
ATOM     88  C   UNL     1     -12.185  -5.484 -11.133  1.00  0.00     0.041 A 
ATOM     89  F   UNL     1     -10.777  -3.612 -11.129  1.00  0.00    -0.206 F 
ATOM     90  C   UNL     1     -12.589  -6.694 -10.576  1.00  0.00     0.022 A 
BRANCH  87  91
ATOM     91  S   UNL     1     -12.395  -8.777  -8.732  1.00  0.00     0.124 S 
ATOM     92  O   UNL     1     -11.117  -9.476  -8.796  1.00  0.00    -0.237 OA
ATOM     93  O   UNL     1     -12.873  -8.444  -7.394  1.00  0.00    -0.237 OA
ATOM     94  O   UNL     1     -13.420  -9.272  -9.649  1.00  0.00    -0.744 OA
ENDBRANCH  87  91
ENDBRANCH  61  84
ENDBRANCH  35  36
ENDBRANCH  28  30
ENDBRANCH  27  28
ENDBRANCH  26  27
ENDBRANCH   1  26
TORSDOF 20
