REMARK SMILES O=C(NC1(C(=O)OCCOCCOC(=O)c2ccc(-c3c4nc(c(-c5cc(S(=O)(=O)[O-])ccc5F)c5ccc([nH]5)c(-c5cc(S(=O)(=O)[O-])ccc5F)c5nc(c(-c6cc(S(=O)(=O)[O-])ccc6F)c6ccc3[nH]6)C=C5)C=C4)cc2)Cc2ccccc2C1)OCC1c2ccccc2-c2ccccc21
REMARK SMILES IDX 9 1 8 2 7 3 5 4 6 5 4 6 79 7 86 8 80 9 85 10 81 11 84 12
REMARK SMILES IDX 82 13 83 14 3 15 1 16 2 17 87 19 88 20 89 21 90 22 101 23
REMARK SMILES IDX 91 24 95 25 96 26 100 27 92 28 94 29 97 30 99 31 93 32 98 33
REMARK SMILES IDX 10 34 11 35 12 36 13 37 14 38 15 39 16 40 17 41 78 42 18 43
REMARK SMILES IDX 77 44 19 45 20 46 21 47 71 48 22 49 76 50 70 51 72 52 23 53
REMARK SMILES IDX 75 54 69 55 68 56 24 58 56 59 36 60 55 61 37 62 40 63 54 64
REMARK SMILES IDX 73 65 38 66 39 67 53 69 74 70 41 71 25 72 26 73 34 74 27 75
REMARK SMILES IDX 33 76 35 77 32 78 28 79 29 80 30 81 31 82 57 83 58 84 66 85
REMARK SMILES IDX 59 86 65 87 67 88 64 89 60 90 61 91 62 92 63 93 42 94 43 95
REMARK SMILES IDX 51 96 44 97 50 98 52 99 49 100 45 101 46 102 47 103 48 104
REMARK H PARENT 3 18 72 57 40 68
REMARK Flexibility Score: inf
ROOT
ATOM      1  C   UNL     1       5.790  -4.625   0.326  1.00  0.00     0.202 C 
ENDROOT
BRANCH   1   2
ATOM      2  C   UNL     1       6.274  -3.215  -0.037  1.00  0.00     0.261 C 
BRANCH   2   3
ATOM      3  O   UNL     1       6.008  -2.216   0.969  1.00  0.00    -0.461 OA
BRANCH   3   4
ATOM      4  C   UNL     1       5.102  -1.270   0.599  1.00  0.00     0.332 C 
ATOM      5  O   UNL     1       4.573  -1.267  -0.512  1.00  0.00    -0.249 OA
BRANCH   4   6
ATOM      6  C   UNL     1       4.741  -0.225   1.708  1.00  0.00     0.149 C 
ATOM      7  C   UNL     1       5.557   1.080   1.550  1.00  0.00     0.076 C 
ATOM      8  C   UNL     1       5.077  -0.700   3.155  1.00  0.00     0.076 C 
ATOM      9  C   UNL     1       6.689   0.916   2.487  1.00  0.00    -0.042 A 
ATOM     10  C   UNL     1       6.436  -0.103   3.397  1.00  0.00    -0.042 A 
ATOM     11  C   UNL     1       7.850   1.667   2.501  1.00  0.00     0.004 A 
ATOM     12  C   UNL     1       7.380  -0.409   4.358  1.00  0.00     0.004 A 
ATOM     13  C   UNL     1       8.809   1.358   3.454  1.00  0.00     0.000 A 
ATOM     14  C   UNL     1       8.577   0.323   4.375  1.00  0.00     0.000 A 
BRANCH   6  15
ATOM     15  N   UNL     1       3.278   0.005   1.503  1.00  0.00    -0.305 N 
ATOM     16  O   UNL     1       1.662   0.495  -0.043  1.00  0.00    -0.225 OA
ATOM     17  C   UNL     1       2.800   0.657   0.386  1.00  0.00     0.408 C 
ATOM     18  H   UNL     1       2.641  -0.317   2.181  1.00  0.00     0.168 HD
BRANCH  17  19
ATOM     19  O   UNL     1       3.745   1.429  -0.188  1.00  0.00    -0.449 OA
BRANCH  19  20
ATOM     20  C   UNL     1       3.768   1.557  -1.611  1.00  0.00     0.248 C 
BRANCH  20  21
ATOM     21  C   UNL     1       5.000   2.371  -2.061  1.00  0.00     0.088 C 
ATOM     22  C   UNL     1       6.422   1.833  -1.853  1.00  0.00    -0.029 A 
ATOM     23  C   UNL     1       5.126   3.772  -1.459  1.00  0.00    -0.029 A 
ATOM     24  C   UNL     1       6.921   0.542  -1.941  1.00  0.00     0.005 A 
ATOM     25  C   UNL     1       7.284   2.902  -1.496  1.00  0.00    -0.014 A 
ATOM     26  C   UNL     1       6.491   4.095  -1.287  1.00  0.00    -0.014 A 
ATOM     27  C   UNL     1       4.137   4.667  -1.086  1.00  0.00     0.005 A 
ATOM     28  C   UNL     1       8.276   0.325  -1.647  1.00  0.00     0.000 A 
ATOM     29  C   UNL     1       8.635   2.695  -1.254  1.00  0.00     0.009 A 
ATOM     30  C   UNL     1       6.878   5.355  -0.859  1.00  0.00     0.009 A 
ATOM     31  C   UNL     1       4.527   5.920  -0.603  1.00  0.00     0.000 A 
ATOM     32  C   UNL     1       9.129   1.392  -1.322  1.00  0.00     0.001 A 
ATOM     33  C   UNL     1       5.883   6.274  -0.526  1.00  0.00     0.001 A 
ENDBRANCH  20  21
ENDBRANCH  19  20
ENDBRANCH  17  19
ENDBRANCH   6  15
ENDBRANCH   4   6
ENDBRANCH   3   4
ENDBRANCH   2   3
ENDBRANCH   1   2
BRANCH   1  34
ATOM     34  O   UNL     1       4.443  -4.774   0.763  1.00  0.00    -0.374 OA
BRANCH  34  35
ATOM     35  C   UNL     1       4.089  -4.248   2.041  1.00  0.00     0.202 C 
BRANCH  35  36
ATOM     36  C   UNL     1       4.882  -4.730   3.265  1.00  0.00     0.261 C 
BRANCH  36  37
ATOM     37  O   UNL     1       6.267  -4.330   3.227  1.00  0.00    -0.460 OA
BRANCH  37  38
ATOM     38  C   UNL     1       7.144  -5.347   3.437  1.00  0.00     0.338 C 
ATOM     39  O   UNL     1       6.866  -6.492   3.751  1.00  0.00    -0.246 OA
BRANCH  38  40
ATOM     40  C   UNL     1       8.513  -4.955   3.049  1.00  0.00     0.060 A 
ATOM     41  C   UNL     1       9.130  -5.693   2.030  1.00  0.00     0.016 A 
ATOM     42  C   UNL     1       9.232  -3.995   3.762  1.00  0.00     0.016 A 
ATOM     43  C   UNL     1      10.486  -5.516   1.761  1.00  0.00     0.010 A 
ATOM     44  C   UNL     1      10.598  -3.826   3.495  1.00  0.00     0.010 A 
ATOM     45  C   UNL     1      11.241  -4.617   2.525  1.00  0.00    -0.014 A 
BRANCH  45  46
ATOM     46  C   UNL     1      12.724  -4.645   2.419  1.00  0.00     0.031 A 
ATOM     47  C   UNL     1      13.514  -5.419   3.443  1.00  0.00     0.074 A 
ATOM     48  C   UNL     1      13.357  -4.046   1.394  1.00  0.00     0.049 A 
ATOM     49  N   UNL     1      14.808  -5.581   3.548  1.00  0.00    -0.248 NA
ATOM     50  C   UNL     1      12.735  -6.103   4.487  1.00  0.00     0.031 C 
ATOM     51  C   UNL     1      12.701  -3.316   0.310  1.00  0.00     0.029 A 
ATOM     52  N   UNL     1      14.694  -3.961   1.097  1.00  0.00    -0.354 N 
ATOM     53  C   UNL     1      15.002  -6.383   4.669  1.00  0.00     0.074 A 
ATOM     54  C   UNL     1      13.691  -6.642   5.228  1.00  0.00     0.031 C 
ATOM     55  C   UNL     1      13.640  -2.854  -0.533  1.00  0.00     0.029 A 
ATOM     56  C   UNL     1      14.964  -3.222  -0.031  1.00  0.00     0.049 A 
ATOM     57  H   UNL     1      15.395  -4.388   1.640  1.00  0.00     0.167 HD
ATOM     58  C   UNL     1      16.162  -6.866   5.180  1.00  0.00     0.034 A 
ATOM     59  C   UNL     1      16.142  -2.864  -0.582  1.00  0.00     0.034 A 
ATOM     60  C   UNL     1      17.463  -6.595   4.618  1.00  0.00     0.049 A 
ATOM     61  C   UNL     1      17.427  -3.335   0.058  1.00  0.00     0.074 A 
ATOM     62  C   UNL     1      18.700  -7.046   5.048  1.00  0.00     0.029 A 
ATOM     63  N   UNL     1      17.701  -5.788   3.512  1.00  0.00    -0.354 N 
ATOM     64  N   UNL     1      17.595  -4.095   1.116  1.00  0.00    -0.248 NA
ATOM     65  C   UNL     1      18.680  -2.903  -0.576  1.00  0.00     0.031 C 
ATOM     66  C   UNL     1      19.686  -6.457   4.248  1.00  0.00     0.029 A 
ATOM     67  C   UNL     1      19.063  -5.699   3.270  1.00  0.00     0.049 A 
ATOM     68  H   UNL     1      17.003  -5.344   2.978  1.00  0.00     0.167 HD
ATOM     69  C   UNL     1      18.972  -4.256   1.253  1.00  0.00     0.074 A 
ATOM     70  C   UNL     1      19.586  -3.524   0.165  1.00  0.00     0.031 C 
ATOM     71  C   UNL     1      19.666  -4.953   2.190  1.00  0.00     0.034 A 
BRANCH  58  72
ATOM     72  C   UNL     1      16.074  -7.689   6.442  1.00  0.00     0.023 A 
ATOM     73  C   UNL     1      15.425  -8.936   6.474  1.00  0.00     0.031 A 
ATOM     74  C   UNL     1      16.625  -7.204   7.642  1.00  0.00     0.131 A 
ATOM     75  C   UNL     1      15.284  -9.622   7.690  1.00  0.00     0.055 A 
ATOM     76  C   UNL     1      16.549  -7.927   8.834  1.00  0.00     0.041 A 
ATOM     77  F   UNL     1      17.237  -6.010   7.678  1.00  0.00    -0.206 F 
ATOM     78  C   UNL     1      15.863  -9.137   8.866  1.00  0.00     0.022 A 
BRANCH  75  79
ATOM     79  S   UNL     1      14.216 -11.087   7.744  1.00  0.00     0.124 S 
ATOM     80  O   UNL     1      12.941 -10.540   7.285  1.00  0.00    -0.237 OA
ATOM     81  O   UNL     1      14.887 -12.000   6.827  1.00  0.00    -0.237 OA
ATOM     82  O   UNL     1      14.245 -11.482   9.151  1.00  0.00    -0.744 OA
ENDBRANCH  75  79
ENDBRANCH  58  72
BRANCH  59  83
ATOM     83  C   UNL     1      16.177  -1.977  -1.781  1.00  0.00     0.023 A 
ATOM     84  C   UNL     1      16.707  -2.422  -3.002  1.00  0.00     0.031 A 
ATOM     85  C   UNL     1      15.730  -0.646  -1.701  1.00  0.00     0.131 A 
ATOM     86  C   UNL     1      16.818  -1.531  -4.081  1.00  0.00     0.055 A 
ATOM     87  C   UNL     1      15.796   0.222  -2.792  1.00  0.00     0.041 A 
ATOM     88  F   UNL     1      15.216  -0.169  -0.556  1.00  0.00    -0.206 F 
ATOM     89  C   UNL     1      16.354  -0.217  -3.989  1.00  0.00     0.022 A 
BRANCH  86  90
ATOM     90  S   UNL     1      17.656  -2.092  -5.589  1.00  0.00     0.124 S 
ATOM     91  O   UNL     1      18.973  -2.457  -5.079  1.00  0.00    -0.237 OA
ATOM     92  O   UNL     1      16.803  -3.197  -6.015  1.00  0.00    -0.237 OA
ATOM     93  O   UNL     1      17.625  -0.915  -6.454  1.00  0.00    -0.744 OA
ENDBRANCH  86  90
ENDBRANCH  59  83
BRANCH  71  94
ATOM     94  C   UNL     1      21.169  -4.989   2.047  1.00  0.00     0.023 A 
ATOM     95  C   UNL     1      21.959  -3.840   2.223  1.00  0.00     0.031 A 
ATOM     96  C   UNL     1      21.818  -6.193   1.718  1.00  0.00     0.131 A 
ATOM     97  C   UNL     1      23.346  -3.907   2.018  1.00  0.00     0.055 A 
ATOM     98  C   UNL     1      23.204  -6.266   1.572  1.00  0.00     0.041 A 
ATOM     99  F   UNL     1      21.113  -7.322   1.536  1.00  0.00    -0.206 F 
ATOM    100  C   UNL     1      23.975  -5.116   1.710  1.00  0.00     0.022 A 
BRANCH  97 101
ATOM    101  S   UNL     1      24.312  -2.372   2.075  1.00  0.00     0.124 S 
ATOM    102  O   UNL     1      23.673  -1.573   1.034  1.00  0.00    -0.237 OA
ATOM    103  O   UNL     1      24.099  -1.920   3.446  1.00  0.00    -0.237 OA
ATOM    104  O   UNL     1      25.673  -2.811   1.773  1.00  0.00    -0.744 OA
ENDBRANCH  97 101
ENDBRANCH  71  94
ENDBRANCH  45  46
ENDBRANCH  38  40
ENDBRANCH  37  38
ENDBRANCH  36  37
ENDBRANCH  35  36
ENDBRANCH  34  35
ENDBRANCH   1  34
TORSDOF 21
