REMARK SMILES Cc1ccccc1NC(=O)NC[C@@H]1CC[C@@H](C(=O)OCCOCCOC(=O)c2ccc(-c3c4nc(c(-c5cc(S(=O)(=O)[O-])ccc5F)c5ccc([nH]5)c(-c5cc(S(=O)(=O)[O-])ccc5F)c5nc(c(-c6cc(S(=O)(=O)[O-])ccc6F)c6ccc3[nH]6)C=C5)C=C4)cc2)O1
REMARK SMILES IDX 22 1 21 2 20 3 19 4 17 5 18 6 16 7 13 8 14 9 91 10 15 11
REMARK SMILES IDX 12 12 11 13 8 14 9 15 10 17 7 19 1 20 2 21 3 22 4 23 6 24
REMARK SMILES IDX 5 25 23 26 24 27 25 28 26 29 27 30 28 31 29 32 90 33 30 34
REMARK SMILES IDX 89 35 31 36 32 37 33 38 83 39 34 40 88 41 82 42 84 43 35 44
REMARK SMILES IDX 87 45 81 46 80 47 36 49 68 50 48 51 67 52 49 53 52 54 66 55
REMARK SMILES IDX 85 56 50 57 51 58 65 60 86 61 53 62 37 63 38 64 46 65 39 66
REMARK SMILES IDX 45 67 47 68 44 69 40 70 41 71 42 72 43 73 69 74 70 75 78 76
REMARK SMILES IDX 71 77 77 78 79 79 76 80 72 81 73 82 74 83 75 84 54 85 55 86
REMARK SMILES IDX 63 87 56 88 62 89 64 90 61 91 57 92 58 93 59 94 60 95
REMARK H PARENT 8 16 11 18 84 48 52 59
REMARK Flexibility Score: inf
ROOT
ATOM      1  O   UNL     1      -4.221   3.811   4.227  1.00  0.00    -0.374 OA
ENDROOT
BRANCH   1   2
ATOM      2  C   UNL     1      -4.844   2.589   4.596  1.00  0.00     0.202 C 
BRANCH   2   3
ATOM      3  C   UNL     1      -6.264   2.717   4.137  1.00  0.00     0.261 C 
BRANCH   3   4
ATOM      4  O   UNL     1      -6.425   2.619   2.715  1.00  0.00    -0.461 OA
BRANCH   4   5
ATOM      5  C   UNL     1      -5.880   3.583   1.915  1.00  0.00     0.335 C 
ATOM      6  O   UNL     1      -5.764   4.772   2.183  1.00  0.00    -0.249 OA
BRANCH   5   7
ATOM      7  C   UNL     1      -5.367   2.925   0.639  1.00  0.00     0.228 C 
ATOM      8  C   UNL     1      -3.069   2.649   0.358  1.00  0.00     0.138 C 
ATOM      9  C   UNL     1      -3.704   1.277   0.252  1.00  0.00     0.037 C 
ATOM     10  O   UNL     1      -4.160   3.557   0.153  1.00  0.00    -0.361 OA
ATOM     11  C   UNL     1      -5.026   1.466   0.908  1.00  0.00     0.047 C 
BRANCH   8  12
ATOM     12  C   UNL     1      -1.952   2.888  -0.676  1.00  0.00     0.149 C 
BRANCH  12  13
ATOM     13  N   UNL     1      -0.805   3.582  -0.089  1.00  0.00    -0.335 N 
ATOM     14  N   UNL     1       1.063   2.083   0.132  1.00  0.00    -0.308 N 
ATOM     15  C   UNL     1       0.473   3.292   0.171  1.00  0.00     0.319 C 
ATOM     16  H   UNL     1       2.043   2.169   0.105  1.00  0.00     0.171 HD
ATOM     17  O   UNL     1       1.218   4.250   0.417  1.00  0.00    -0.249 OA
ATOM     18  H   UNL     1      -1.035   4.499   0.185  1.00  0.00     0.165 HD
BRANCH  14  19
ATOM     19  C   UNL     1       0.673   0.732   0.119  1.00  0.00     0.045 A 
ATOM     20  C   UNL     1       3.075  -0.098  -0.278  1.00  0.00     0.046 C 
ATOM     21  C   UNL     1       1.586  -0.289  -0.206  1.00  0.00    -0.027 A 
ATOM     22  C   UNL     1       1.122  -1.616  -0.365  1.00  0.00     0.005 A 
ATOM     23  C   UNL     1      -0.211  -1.943  -0.162  1.00  0.00     0.000 A 
ATOM     24  C   UNL     1      -0.596   0.339   0.501  1.00  0.00     0.026 A 
ATOM     25  C   UNL     1      -1.063  -0.968   0.318  1.00  0.00     0.002 A 
ENDBRANCH  14  19
ENDBRANCH  12  13
ENDBRANCH   8  12
ENDBRANCH   5   7
ENDBRANCH   4   5
ENDBRANCH   3   4
ENDBRANCH   2   3
ENDBRANCH   1   2
BRANCH   1  26
ATOM     26  C   UNL     1      -2.878   3.978   4.614  1.00  0.00     0.202 C 
BRANCH  26  27
ATOM     27  C   UNL     1      -2.669   3.875   6.130  1.00  0.00     0.261 C 
BRANCH  27  28
ATOM     28  O   UNL     1      -3.352   4.954   6.806  1.00  0.00    -0.460 OA
BRANCH  28  29
ATOM     29  C   UNL     1      -4.512   4.626   7.450  1.00  0.00     0.338 C 
ATOM     30  O   UNL     1      -4.601   3.830   8.361  1.00  0.00    -0.246 OA
BRANCH  29  31
ATOM     31  C   UNL     1      -5.670   5.297   6.783  1.00  0.00     0.060 A 
ATOM     32  C   UNL     1      -6.996   4.896   7.053  1.00  0.00     0.016 A 
ATOM     33  C   UNL     1      -5.408   6.125   5.699  1.00  0.00     0.016 A 
ATOM     34  C   UNL     1      -8.029   5.195   6.143  1.00  0.00     0.010 A 
ATOM     35  C   UNL     1      -6.397   6.317   4.762  1.00  0.00     0.010 A 
ATOM     36  C   UNL     1      -7.706   5.832   4.949  1.00  0.00    -0.014 A 
BRANCH  36  37
ATOM     37  C   UNL     1      -8.541   5.960   3.744  1.00  0.00     0.031 A 
ATOM     38  C   UNL     1      -8.693   7.321   3.180  1.00  0.00     0.074 A 
ATOM     39  C   UNL     1      -8.794   4.884   2.954  1.00  0.00     0.049 A 
ATOM     40  N   UNL     1      -9.307   7.580   2.086  1.00  0.00    -0.248 NA
ATOM     41  C   UNL     1      -8.171   8.532   3.814  1.00  0.00     0.031 C 
ATOM     42  C   UNL     1      -8.946   4.840   1.494  1.00  0.00     0.029 A 
ATOM     43  N   UNL     1      -8.979   3.551   3.314  1.00  0.00    -0.354 N 
ATOM     44  C   UNL     1      -8.959   8.846   1.687  1.00  0.00     0.074 A 
ATOM     45  C   UNL     1      -8.354   9.438   2.849  1.00  0.00     0.031 C 
ATOM     46  C   UNL     1      -9.446   3.649   1.118  1.00  0.00     0.029 A 
ATOM     47  C   UNL     1      -9.760   2.921   2.331  1.00  0.00     0.049 A 
ATOM     48  H   UNL     1      -8.622   3.121   4.124  1.00  0.00     0.167 HD
ATOM     49  C   UNL     1      -9.138   9.159   0.374  1.00  0.00     0.034 A 
ATOM     50  C   UNL     1     -10.935   2.340   2.683  1.00  0.00     0.034 A 
ATOM     51  C   UNL     1      -9.909   8.096  -0.297  1.00  0.00     0.049 A 
ATOM     52  C   UNL     1     -12.030   3.169   2.061  1.00  0.00     0.074 A 
ATOM     53  C   UNL     1      -9.616   7.132  -1.245  1.00  0.00     0.029 A 
ATOM     54  N   UNL     1     -11.141   7.736   0.249  1.00  0.00    -0.354 N 
ATOM     55  N   UNL     1     -11.845   4.406   1.669  1.00  0.00    -0.248 NA
ATOM     56  C   UNL     1     -13.331   2.650   1.662  1.00  0.00     0.031 C 
ATOM     57  C   UNL     1     -10.648   6.141  -1.186  1.00  0.00     0.029 A 
ATOM     58  C   UNL     1     -11.583   6.522  -0.233  1.00  0.00     0.049 A 
ATOM     59  H   UNL     1     -11.637   8.283   0.901  1.00  0.00     0.167 HD
ATOM     60  C   UNL     1     -12.877   4.800   0.875  1.00  0.00     0.074 A 
ATOM     61  C   UNL     1     -13.809   3.682   0.942  1.00  0.00     0.031 C 
ATOM     62  C   UNL     1     -12.876   5.986   0.191  1.00  0.00     0.034 A 
BRANCH  49  63
ATOM     63  C   UNL     1      -8.527  10.332  -0.368  1.00  0.00     0.023 A 
ATOM     64  C   UNL     1      -8.782  10.452  -1.751  1.00  0.00     0.031 A 
ATOM     65  C   UNL     1      -7.649  11.306   0.159  1.00  0.00     0.131 A 
ATOM     66  C   UNL     1      -8.192  11.467  -2.530  1.00  0.00     0.055 A 
ATOM     67  C   UNL     1      -7.091  12.338  -0.609  1.00  0.00     0.041 A 
ATOM     68  F   UNL     1      -7.245  11.307   1.431  1.00  0.00    -0.206 F 
ATOM     69  C   UNL     1      -7.356  12.422  -1.962  1.00  0.00     0.022 A 
BRANCH  66  70
ATOM     70  S   UNL     1      -8.508  11.504  -4.314  1.00  0.00     0.124 S 
ATOM     71  O   UNL     1      -7.920  10.244  -4.757  1.00  0.00    -0.237 OA
ATOM     72  O   UNL     1      -9.962  11.597  -4.370  1.00  0.00    -0.237 OA
ATOM     73  O   UNL     1      -7.799  12.704  -4.759  1.00  0.00    -0.744 OA
ENDBRANCH  66  70
ENDBRANCH  49  63
BRANCH  50  74
ATOM     74  C   UNL     1     -10.798   1.694   4.037  1.00  0.00     0.023 A 
ATOM     75  C   UNL     1      -9.879   0.605   4.105  1.00  0.00     0.031 A 
ATOM     76  C   UNL     1     -11.012   2.425   5.216  1.00  0.00     0.131 A 
ATOM     77  C   UNL     1      -9.080   0.403   5.248  1.00  0.00     0.055 A 
ATOM     78  C   UNL     1     -10.236   2.194   6.367  1.00  0.00     0.041 A 
ATOM     79  F   UNL     1     -11.832   3.485   5.221  1.00  0.00    -0.206 F 
ATOM     80  C   UNL     1      -9.233   1.220   6.370  1.00  0.00     0.022 A 
BRANCH  77  81
ATOM     81  S   UNL     1      -7.615  -0.696   5.136  1.00  0.00     0.124 S 
ATOM     82  O   UNL     1      -8.180  -2.002   5.448  1.00  0.00    -0.237 OA
ATOM     83  O   UNL     1      -7.165  -0.509   3.758  1.00  0.00    -0.237 OA
ATOM     84  O   UNL     1      -6.700  -0.146   6.136  1.00  0.00    -0.744 OA
ENDBRANCH  77  81
ENDBRANCH  50  74
BRANCH  62  85
ATOM     85  C   UNL     1     -14.140   6.719  -0.184  1.00  0.00     0.023 A 
ATOM     86  C   UNL     1     -15.399   6.284   0.241  1.00  0.00     0.031 A 
ATOM     87  C   UNL     1     -14.126   7.955  -0.874  1.00  0.00     0.131 A 
ATOM     88  C   UNL     1     -16.567   6.965  -0.111  1.00  0.00     0.055 A 
ATOM     89  C   UNL     1     -15.283   8.697  -1.124  1.00  0.00     0.041 A 
ATOM     90  F   UNL     1     -12.993   8.519  -1.312  1.00  0.00    -0.206 F 
ATOM     91  C   UNL     1     -16.522   8.189  -0.767  1.00  0.00     0.022 A 
BRANCH  88  92
ATOM     92  S   UNL     1     -18.134   6.137   0.232  1.00  0.00     0.124 S 
ATOM     93  O   UNL     1     -18.007   4.919  -0.566  1.00  0.00    -0.237 OA
ATOM     94  O   UNL     1     -18.082   5.948   1.678  1.00  0.00    -0.237 OA
ATOM     95  O   UNL     1     -19.136   7.089  -0.239  1.00  0.00    -0.744 OA
ENDBRANCH  88  92
ENDBRANCH  62  85
ENDBRANCH  36  37
ENDBRANCH  29  31
ENDBRANCH  28  29
ENDBRANCH  27  28
ENDBRANCH  26  27
ENDBRANCH   1  26
TORSDOF 20
