REMARK SMILES Cc1ccc2c(c1)[C@]1([NH2+][C@@H](CCC(=O)OCCOCCOC(=O)c3ccc(-c4c5nc(c(-c6cc(S(=O)(=O)[O-])ccc6F)c6ccc([nH]6)c(-c6cc(S(=O)(=O)[O-])ccc6F)c6nc(c(-c7cc(S(=O)(=O)[O-])ccc7F)c7ccc4[nH]7)C=C6)C=C5)cc3)[C@@H]3C(=O)N(Cc4ccccc4)C(=O)[C@@H]31)C(=O)N2
REMARK SMILES IDX 17 1 16 2 15 3 13 4 14 5 12 6 11 7 10 8 1 9 2 10 3 11 7 12
REMARK SMILES IDX 4 13 6 14 5 15 8 16 103 17 9 18 100 19 101 20 87 24 98 25
REMARK SMILES IDX 102 26 88 27 90 28 99 29 89 30 91 31 92 32 93 33 97 34 94 35
REMARK SMILES IDX 96 36 95 37 18 38 19 39 20 40 21 41 22 42 23 43 24 44 25 45
REMARK SMILES IDX 86 46 26 47 85 48 27 49 28 50 29 51 79 52 30 53 84 54 78 55
REMARK SMILES IDX 80 56 31 57 83 58 77 59 76 60 32 62 64 63 44 64 63 65 45 66
REMARK SMILES IDX 48 67 62 68 81 69 46 70 47 71 61 73 82 74 49 75 33 76 34 77
REMARK SMILES IDX 42 78 35 79 41 80 43 81 40 82 36 83 37 84 38 85 39 86 65 87
REMARK SMILES IDX 66 88 74 89 67 90 73 91 75 92 72 93 68 94 69 95 70 96 71 97
REMARK SMILES IDX 50 98 51 99 59 100 52 101 58 102 60 103 57 104 53 105 54 106
REMARK SMILES IDX 55 107 56 108
REMARK H PARENT 103 21 9 22 9 23 80 61 48 72
REMARK Flexibility Score: inf
ROOT
ATOM      1  C   UNL     1      -5.246   5.536  -6.745  1.00  0.00     0.202 C 
ENDROOT
BRANCH   1   2
ATOM      2  C   UNL     1      -3.825   6.071  -6.558  1.00  0.00     0.261 C 
BRANCH   2   3
ATOM      3  O   UNL     1      -3.081   5.295  -5.606  1.00  0.00    -0.463 OA
BRANCH   3   4
ATOM      4  C   UNL     1      -2.365   6.014  -4.709  1.00  0.00     0.306 C 
ATOM      5  O   UNL     1      -2.272   7.237  -4.693  1.00  0.00    -0.252 OA
BRANCH   4   6
ATOM      6  C   UNL     1      -1.690   5.159  -3.662  1.00  0.00     0.129 C 
BRANCH   6   7
ATOM      7  C   UNL     1      -2.072   3.680  -3.546  1.00  0.00     0.077 C 
BRANCH   7   8
ATOM      8  C   UNL     1      -1.651   2.765  -4.705  1.00  0.00     0.197 C 
ATOM      9  C   UNL     1       1.243  -0.005  -0.021  1.00  0.00     0.044 C 
ATOM     10  C   UNL     1       0.847  -0.508  -1.378  1.00  0.00    -0.050 A 
ATOM     11  C   UNL     1       0.923  -1.891  -1.661  1.00  0.00     0.005 A 
ATOM     12  C   UNL     1       0.398   0.387  -2.362  1.00  0.00     0.016 A 
ATOM     13  C   UNL     1       0.504  -2.400  -2.893  1.00  0.00     0.027 A 
ATOM     14  C   UNL     1      -0.024  -0.124  -3.580  1.00  0.00     0.047 A 
ATOM     15  C   UNL     1       0.018  -1.499  -3.814  1.00  0.00     0.051 A 
ATOM     16  C   UNL     1      -0.672   0.573  -4.759  1.00  0.00     0.216 C 
ATOM     17  N   UNL     1      -0.592  -1.797  -5.020  1.00  0.00    -0.320 N 
ATOM     18  N   UNL     1      -1.839   1.365  -4.286  1.00  0.00    -0.326 N 
ATOM     19  C   UNL     1       0.257   1.519  -5.500  1.00  0.00     0.174 C 
ATOM     20  C   UNL     1      -1.134  -0.659  -5.594  1.00  0.00     0.291 C 
ATOM     21  H   UNL     1      -0.636  -2.697  -5.416  1.00  0.00     0.170 HD
ATOM     22  H   UNL     1      -1.901   1.315  -3.269  1.00  0.00     0.347 HD
ATOM     23  H   UNL     1      -2.701   0.993  -4.685  1.00  0.00     0.347 HD
ATOM     24  C   UNL     1      -0.182   2.906  -5.082  1.00  0.00     0.157 C 
ATOM     25  C   UNL     1       0.123   1.566  -7.005  1.00  0.00     0.240 C 
ATOM     26  O   UNL     1      -1.922  -0.644  -6.522  1.00  0.00    -0.267 OA
ATOM     27  C   UNL     1      -0.052   3.702  -6.346  1.00  0.00     0.239 C 
ATOM     28  N   UNL     1      -0.187   2.845  -7.394  1.00  0.00    -0.277 N 
ATOM     29  O   UNL     1       0.418   0.635  -7.737  1.00  0.00    -0.274 OA
ATOM     30  O   UNL     1       0.146   4.906  -6.360  1.00  0.00    -0.274 OA
BRANCH  28  31
ATOM     31  C   UNL     1      -0.199   3.224  -8.794  1.00  0.00     0.164 C 
BRANCH  31  32
ATOM     32  C   UNL     1      -1.102   4.378  -9.181  1.00  0.00    -0.028 A 
ATOM     33  C   UNL     1      -2.438   4.173  -9.553  1.00  0.00     0.005 A 
ATOM     34  C   UNL     1      -0.590   5.680  -9.259  1.00  0.00     0.005 A 
ATOM     35  C   UNL     1      -3.200   5.209 -10.106  1.00  0.00     0.000 A 
ATOM     36  C   UNL     1      -1.367   6.730  -9.757  1.00  0.00     0.000 A 
ATOM     37  C   UNL     1      -2.662   6.489 -10.209  1.00  0.00     0.000 A 
ENDBRANCH  31  32
ENDBRANCH  28  31
ENDBRANCH   7   8
ENDBRANCH   6   7
ENDBRANCH   4   6
ENDBRANCH   3   4
ENDBRANCH   2   3
ENDBRANCH   1   2
BRANCH   1  38
ATOM     38  O   UNL     1      -6.086   5.612  -5.592  1.00  0.00    -0.374 OA
BRANCH  38  39
ATOM     39  C   UNL     1      -5.808   4.708  -4.526  1.00  0.00     0.202 C 
BRANCH  39  40
ATOM     40  C   UNL     1      -6.209   3.242  -4.742  1.00  0.00     0.261 C 
BRANCH  40  41
ATOM     41  O   UNL     1      -5.488   2.579  -5.801  1.00  0.00    -0.460 OA
BRANCH  41  42
ATOM     42  C   UNL     1      -6.245   2.248  -6.885  1.00  0.00     0.338 C 
ATOM     43  O   UNL     1      -7.431   2.492  -7.037  1.00  0.00    -0.246 OA
BRANCH  42  44
ATOM     44  C   UNL     1      -5.421   1.639  -7.956  1.00  0.00     0.060 A 
ATOM     45  C   UNL     1      -4.484   0.642  -7.690  1.00  0.00     0.016 A 
ATOM     46  C   UNL     1      -5.671   2.013  -9.283  1.00  0.00     0.016 A 
ATOM     47  C   UNL     1      -3.812   0.016  -8.752  1.00  0.00     0.010 A 
ATOM     48  C   UNL     1      -4.994   1.388 -10.340  1.00  0.00     0.010 A 
ATOM     49  C   UNL     1      -4.059   0.376 -10.084  1.00  0.00    -0.014 A 
BRANCH  49  50
ATOM     50  C   UNL     1      -3.477  -0.428 -11.192  1.00  0.00     0.031 A 
ATOM     51  C   UNL     1      -2.234  -0.021 -11.924  1.00  0.00     0.074 A 
ATOM     52  C   UNL     1      -4.103  -1.563 -11.549  1.00  0.00     0.049 A 
ATOM     53  N   UNL     1      -1.494  -0.707 -12.755  1.00  0.00    -0.248 NA
ATOM     54  C   UNL     1      -1.743   1.335 -11.683  1.00  0.00     0.031 C 
ATOM     55  C   UNL     1      -5.324  -2.074 -10.929  1.00  0.00     0.029 A 
ATOM     56  N   UNL     1      -3.813  -2.475 -12.531  1.00  0.00    -0.354 N 
ATOM     57  C   UNL     1      -0.401   0.103 -13.050  1.00  0.00     0.074 A 
ATOM     58  C   UNL     1      -0.603   1.354 -12.358  1.00  0.00     0.031 C 
ATOM     59  C   UNL     1      -5.696  -3.193 -11.566  1.00  0.00     0.029 A 
ATOM     60  C   UNL     1      -4.752  -3.468 -12.648  1.00  0.00     0.049 A 
ATOM     61  H   UNL     1      -3.009  -2.422 -13.097  1.00  0.00     0.167 HD
ATOM     62  C   UNL     1       0.665  -0.169 -13.838  1.00  0.00     0.034 A 
ATOM     63  C   UNL     1      -4.852  -4.476 -13.538  1.00  0.00     0.034 A 
ATOM     64  C   UNL     1       0.759  -1.341 -14.665  1.00  0.00     0.049 A 
ATOM     65  C   UNL     1      -3.749  -4.672 -14.546  1.00  0.00     0.074 A 
ATOM     66  C   UNL     1       1.788  -1.714 -15.508  1.00  0.00     0.029 A 
ATOM     67  N   UNL     1      -0.245  -2.287 -14.810  1.00  0.00    -0.354 N 
ATOM     68  N   UNL     1      -2.626  -4.006 -14.676  1.00  0.00    -0.248 NA
ATOM     69  C   UNL     1      -3.915  -5.758 -15.521  1.00  0.00     0.031 C 
ATOM     70  C   UNL     1       1.362  -2.823 -16.241  1.00  0.00     0.029 A 
ATOM     71  C   UNL     1       0.103  -3.196 -15.793  1.00  0.00     0.049 A 
ATOM     72  H   UNL     1      -1.081  -2.308 -14.291  1.00  0.00     0.167 HD
ATOM     73  C   UNL     1      -1.940  -4.605 -15.729  1.00  0.00     0.074 A 
ATOM     74  C   UNL     1      -2.771  -5.697 -16.194  1.00  0.00     0.031 C 
ATOM     75  C   UNL     1      -0.732  -4.281 -16.256  1.00  0.00     0.034 A 
BRANCH  62  76
ATOM     76  C   UNL     1       1.810   0.811 -13.870  1.00  0.00     0.023 A 
ATOM     77  C   UNL     1       2.125   1.512 -15.048  1.00  0.00     0.031 A 
ATOM     78  C   UNL     1       2.671   0.941 -12.765  1.00  0.00     0.131 A 
ATOM     79  C   UNL     1       3.292   2.286 -15.104  1.00  0.00     0.055 A 
ATOM     80  C   UNL     1       3.821   1.731 -12.820  1.00  0.00     0.041 A 
ATOM     81  F   UNL     1       2.412   0.292 -11.619  1.00  0.00    -0.206 F 
ATOM     82  C   UNL     1       4.141   2.400 -13.997  1.00  0.00     0.022 A 
BRANCH  79  83
ATOM     83  S   UNL     1       3.780   3.143 -16.626  1.00  0.00     0.124 S 
ATOM     84  O   UNL     1       3.894   4.527 -16.167  1.00  0.00    -0.237 OA
ATOM     85  O   UNL     1       5.044   2.490 -16.953  1.00  0.00    -0.237 OA
ATOM     86  O   UNL     1       2.677   2.885 -17.544  1.00  0.00    -0.744 OA
ENDBRANCH  79  83
ENDBRANCH  62  76
BRANCH  63  87
ATOM     87  C   UNL     1      -6.034  -5.379 -13.454  1.00  0.00     0.023 A 
ATOM     88  C   UNL     1      -7.337  -4.870 -13.623  1.00  0.00     0.031 A 
ATOM     89  C   UNL     1      -5.891  -6.718 -13.060  1.00  0.00     0.131 A 
ATOM     90  C   UNL     1      -8.443  -5.673 -13.319  1.00  0.00     0.055 A 
ATOM     91  C   UNL     1      -6.998  -7.534 -12.822  1.00  0.00     0.041 A 
ATOM     92  F   UNL     1      -4.669  -7.240 -12.873  1.00  0.00    -0.206 F 
ATOM     93  C   UNL     1      -8.281  -7.006 -12.931  1.00  0.00     0.022 A 
BRANCH  90  94
ATOM     94  S   UNL     1     -10.116  -4.970 -13.268  1.00  0.00     0.124 S 
ATOM     95  O   UNL     1     -10.806  -5.756 -14.285  1.00  0.00    -0.237 OA
ATOM     96  O   UNL     1     -10.511  -5.239 -11.887  1.00  0.00    -0.237 OA
ATOM     97  O   UNL     1      -9.909  -3.562 -13.590  1.00  0.00    -0.744 OA
ENDBRANCH  90  94
ENDBRANCH  63  87
BRANCH  75  98
ATOM     98  C   UNL     1      -0.203  -5.082 -17.420  1.00  0.00     0.023 A 
ATOM     99  C   UNL     1       1.002  -5.800 -17.288  1.00  0.00     0.031 A 
ATOM    100  C   UNL     1      -0.776  -4.971 -18.698  1.00  0.00     0.131 A 
ATOM    101  C   UNL     1       1.630  -6.321 -18.425  1.00  0.00     0.055 A 
ATOM    102  C   UNL     1      -0.172  -5.539 -19.821  1.00  0.00     0.041 A 
ATOM    103  F   UNL     1      -1.919  -4.290 -18.876  1.00  0.00    -0.206 F 
ATOM    104  C   UNL     1       1.046  -6.200 -19.690  1.00  0.00     0.022 A 
BRANCH 101 105
ATOM    105  S   UNL     1       3.277  -7.076 -18.319  1.00  0.00     0.124 S 
ATOM    106  O   UNL     1       3.032  -8.412 -18.857  1.00  0.00    -0.237 OA
ATOM    107  O   UNL     1       4.073  -6.196 -19.169  1.00  0.00    -0.237 OA
ATOM    108  O   UNL     1       3.595  -7.030 -16.895  1.00  0.00    -0.744 OA
ENDBRANCH 101 105
ENDBRANCH  75  98
ENDBRANCH  49  50
ENDBRANCH  42  44
ENDBRANCH  41  42
ENDBRANCH  40  41
ENDBRANCH  39  40
ENDBRANCH  38  39
ENDBRANCH   1  38
TORSDOF 21
