REMARK SMILES COc1ccc(-c2ccc(/C=C3\SC(=S)N([C@H](Cc4ccccc4)C(=O)OCCOCCOC(=O)c4ccc(-c5c6nc(c(-c7cc(S(=O)(=O)[O-])ccc7F)c7ccc([nH]7)c(-c7cc(S(=O)(=O)[O-])ccc7F)c7nc(c(-c8cc(S(=O)(=O)[O-])ccc8F)c8ccc5[nH]8)C=C7)C=C6)cc4)C3=O)o2)cc1
REMARK SMILES IDX 29 1 28 2 27 3 25 4 26 5 17 6 16 7 11 8 12 9 13 10 99 11
REMARK SMILES IDX 14 12 100 13 15 14 10 15 7 16 8 17 101 18 9 19 6 20 3 21
REMARK SMILES IDX 4 22 103 23 5 24 102 25 2 26 1 27 18 28 19 29 20 30 24 31
REMARK SMILES IDX 21 32 23 33 22 34 30 35 31 36 32 37 33 38 34 39 35 40 36 41
REMARK SMILES IDX 37 42 98 43 38 44 97 45 39 46 40 47 41 48 91 49 42 50 96 51
REMARK SMILES IDX 90 52 92 53 43 54 95 55 89 56 88 57 44 59 76 60 56 61 75 62
REMARK SMILES IDX 57 63 60 64 74 65 93 66 58 67 59 68 73 70 94 71 61 72 45 73
REMARK SMILES IDX 46 74 54 75 47 76 53 77 55 78 52 79 48 80 49 81 50 82 51 83
REMARK SMILES IDX 77 84 78 85 86 86 79 87 85 88 87 89 84 90 80 91 81 92 82 93
REMARK SMILES IDX 83 94 62 95 63 96 71 97 64 98 70 99 72 100 69 101 65 102
REMARK SMILES IDX 66 103 67 104 68 105
REMARK H PARENT 92 58 60 69
REMARK Flexibility Score: inf
ROOT
ATOM      1  C   UNL     1       3.092 -14.200   7.911  1.00  0.00     0.202 C 
ENDROOT
BRANCH   1   2
ATOM      2  C   UNL     1       1.657 -14.485   7.481  1.00  0.00     0.261 C 
BRANCH   2   3
ATOM      3  O   UNL     1       0.899 -13.268   7.499  1.00  0.00    -0.462 OA
BRANCH   3   4
ATOM      4  C   UNL     1      -0.171 -13.249   8.322  1.00  0.00     0.329 C 
ATOM      5  O   UNL     1      -0.554 -14.196   9.004  1.00  0.00    -0.250 OA
BRANCH   4   6
ATOM      6  C   UNL     1      -0.941 -11.931   8.275  1.00  0.00     0.206 C 
BRANCH   6   7
ATOM      7  N   UNL     1      -2.240 -12.230   7.671  1.00  0.00    -0.278 N 
ATOM      8  C   UNL     1      -3.859 -12.636   4.537  1.00  0.00     0.068 C 
ATOM      9  C   UNL     1      -3.644 -12.629   5.853  1.00  0.00     0.084 C 
ATOM     10  S   UNL     1      -4.727 -12.662   7.179  1.00  0.00    -0.054 SA
ATOM     11  C   UNL     1      -2.259 -12.607   6.342  1.00  0.00     0.267 C 
ATOM     12  C   UNL     1      -3.438 -12.342   8.338  1.00  0.00     0.149 C 
ATOM     13  O   UNL     1      -1.306 -12.979   5.676  1.00  0.00    -0.268 OA
ATOM     14  S   UNL     1      -3.744 -12.172   9.968  1.00  0.00    -0.052 S 
BRANCH   8  15
ATOM     15  C   UNL     1      -5.135 -12.782   3.960  1.00  0.00     0.128 A 
ATOM     16  C   UNL     1      -6.652 -13.729   2.664  1.00  0.00     0.134 A 
ATOM     17  C   UNL     1      -7.314 -12.743   3.358  1.00  0.00     0.051 A 
ATOM     18  O   UNL     1      -5.341 -13.728   2.997  1.00  0.00    -0.457 OA
ATOM     19  C   UNL     1      -6.342 -12.134   4.188  1.00  0.00     0.051 A 
BRANCH  16  20
ATOM     20  C   UNL     1      -7.031 -14.742   1.704  1.00  0.00     0.017 A 
ATOM     21  C   UNL     1      -7.797 -16.729  -0.116  1.00  0.00     0.118 A 
ATOM     22  C   UNL     1      -6.921 -17.035   0.924  1.00  0.00     0.047 A 
ATOM     23  C   UNL     1      -8.286 -15.428  -0.251  1.00  0.00     0.047 A 
ATOM     24  C   UNL     1      -6.527 -16.044   1.821  1.00  0.00     0.016 A 
ATOM     25  C   UNL     1      -7.907 -14.439   0.660  1.00  0.00     0.016 A 
BRANCH  21  26
ATOM     26  O   UNL     1      -8.152 -17.784  -0.910  1.00  0.00    -0.497 OA
ATOM     27  C   UNL     1      -8.442 -17.450  -2.263  1.00  0.00     0.278 C 
ENDBRANCH  21  26
ENDBRANCH  16  20
ENDBRANCH   8  15
ENDBRANCH   6   7
BRANCH   6  28
ATOM     28  C   UNL     1      -0.265 -10.620   7.795  1.00  0.00     0.073 C 
BRANCH  28  29
ATOM     29  C   UNL     1      -0.196 -10.310   6.320  1.00  0.00    -0.045 A 
ATOM     30  C   UNL     1       0.881 -10.762   5.548  1.00  0.00     0.004 A 
ATOM     31  C   UNL     1      -1.228  -9.599   5.685  1.00  0.00     0.004 A 
ATOM     32  C   UNL     1       0.894 -10.566   4.167  1.00  0.00     0.000 A 
ATOM     33  C   UNL     1      -1.206  -9.398   4.303  1.00  0.00     0.000 A 
ATOM     34  C   UNL     1      -0.149  -9.891   3.543  1.00  0.00     0.000 A 
ENDBRANCH  28  29
ENDBRANCH   6  28
ENDBRANCH   4   6
ENDBRANCH   3   4
ENDBRANCH   2   3
ENDBRANCH   1   2
BRANCH   1  35
ATOM     35  O   UNL     1       3.252 -13.681   9.232  1.00  0.00    -0.374 OA
BRANCH  35  36
ATOM     36  C   UNL     1       2.971 -12.297   9.437  1.00  0.00     0.202 C 
BRANCH  36  37
ATOM     37  C   UNL     1       4.005 -11.287   8.921  1.00  0.00     0.261 C 
BRANCH  37  38
ATOM     38  O   UNL     1       4.023 -11.198   7.484  1.00  0.00    -0.460 OA
BRANCH  38  39
ATOM     39  C   UNL     1       5.105 -11.762   6.889  1.00  0.00     0.338 C 
ATOM     40  O   UNL     1       6.050 -12.294   7.450  1.00  0.00    -0.246 OA
BRANCH  39  41
ATOM     41  C   UNL     1       4.886 -11.845   5.431  1.00  0.00     0.060 A 
ATOM     42  C   UNL     1       5.031 -13.096   4.813  1.00  0.00     0.016 A 
ATOM     43  C   UNL     1       4.601 -10.712   4.670  1.00  0.00     0.016 A 
ATOM     44  C   UNL     1       4.929 -13.212   3.425  1.00  0.00     0.010 A 
ATOM     45  C   UNL     1       4.511 -10.829   3.279  1.00  0.00     0.010 A 
ATOM     46  C   UNL     1       4.705 -12.072   2.645  1.00  0.00    -0.014 A 
BRANCH  46  47
ATOM     47  C   UNL     1       4.873 -12.123   1.169  1.00  0.00     0.031 A 
ATOM     48  C   UNL     1       6.129 -11.535   0.582  1.00  0.00     0.074 A 
ATOM     49  C   UNL     1       3.944 -12.668   0.362  1.00  0.00     0.049 A 
ATOM     50  N   UNL     1       6.440 -11.309  -0.667  1.00  0.00    -0.248 NA
ATOM     51  C   UNL     1       7.168 -11.135   1.545  1.00  0.00     0.031 C 
ATOM     52  C   UNL     1       2.720 -13.333   0.806  1.00  0.00     0.029 A 
ATOM     53  N   UNL     1       3.882 -12.733  -1.010  1.00  0.00    -0.354 N 
ATOM     54  C   UNL     1       7.697 -10.713  -0.640  1.00  0.00     0.074 A 
ATOM     55  C   UNL     1       8.075 -10.587   0.751  1.00  0.00     0.031 C 
ATOM     56  C   UNL     1       2.020 -13.723  -0.275  1.00  0.00     0.029 A 
ATOM     57  C   UNL     1       2.715 -13.288  -1.486  1.00  0.00     0.049 A 
ATOM     58  H   UNL     1       4.604 -12.412  -1.597  1.00  0.00     0.167 HD
ATOM     59  C   UNL     1       8.467 -10.313  -1.681  1.00  0.00     0.034 A 
ATOM     60  C   UNL     1       2.246 -13.392  -2.748  1.00  0.00     0.034 A 
ATOM     61  C   UNL     1       8.082 -10.454  -3.062  1.00  0.00     0.049 A 
ATOM     62  C   UNL     1       3.080 -12.851  -3.892  1.00  0.00     0.074 A 
ATOM     63  C   UNL     1       8.793 -10.096  -4.194  1.00  0.00     0.029 A 
ATOM     64  N   UNL     1       6.878 -10.989  -3.501  1.00  0.00    -0.354 N 
ATOM     65  N   UNL     1       4.259 -12.272  -3.855  1.00  0.00    -0.248 NA
ATOM     66  C   UNL     1       2.520 -12.976  -5.246  1.00  0.00     0.031 C 
ATOM     67  C   UNL     1       7.989 -10.340  -5.311  1.00  0.00     0.029 A 
ATOM     68  C   UNL     1       6.814 -10.938  -4.884  1.00  0.00     0.049 A 
ATOM     69  H   UNL     1       6.174 -11.351  -2.916  1.00  0.00     0.167 HD
ATOM     70  C   UNL     1       4.596 -12.008  -5.182  1.00  0.00     0.074 A 
ATOM     71  C   UNL     1       3.499 -12.487  -5.994  1.00  0.00     0.031 C 
ATOM     72  C   UNL     1       5.717 -11.431  -5.684  1.00  0.00     0.034 A 
BRANCH  59  73
ATOM     73  C   UNL     1       9.774  -9.631  -1.358  1.00  0.00     0.023 A 
ATOM     74  C   UNL     1      10.818 -10.298  -0.696  1.00  0.00     0.031 A 
ATOM     75  C   UNL     1       9.966  -8.280  -1.700  1.00  0.00     0.131 A 
ATOM     76  C   UNL     1      11.978  -9.595  -0.337  1.00  0.00     0.055 A 
ATOM     77  C   UNL     1      11.157  -7.611  -1.415  1.00  0.00     0.041 A 
ATOM     78  F   UNL     1       8.994  -7.584  -2.310  1.00  0.00    -0.206 F 
ATOM     79  C   UNL     1      12.167  -8.264  -0.716  1.00  0.00     0.022 A 
BRANCH  76  80
ATOM     80  S   UNL     1      13.175 -10.404   0.759  1.00  0.00     0.124 S 
ATOM     81  O   UNL     1      12.352 -10.696   1.931  1.00  0.00    -0.237 OA
ATOM     82  O   UNL     1      13.597 -11.557  -0.028  1.00  0.00    -0.237 OA
ATOM     83  O   UNL     1      14.198  -9.380   0.965  1.00  0.00    -0.744 OA
ENDBRANCH  76  80
ENDBRANCH  59  73
BRANCH  60  84
ATOM     84  C   UNL     1       0.896 -13.974  -3.014  1.00  0.00     0.023 A 
ATOM     85  C   UNL     1       0.741 -15.118  -3.813  1.00  0.00     0.031 A 
ATOM     86  C   UNL     1      -0.269 -13.347  -2.534  1.00  0.00     0.131 A 
ATOM     87  C   UNL     1      -0.546 -15.566  -4.155  1.00  0.00     0.055 A 
ATOM     88  C   UNL     1      -1.545 -13.835  -2.823  1.00  0.00     0.041 A 
ATOM     89  F   UNL     1      -0.183 -12.242  -1.776  1.00  0.00    -0.206 F 
ATOM     90  C   UNL     1      -1.689 -14.943  -3.652  1.00  0.00     0.022 A 
BRANCH  87  91
ATOM     91  S   UNL     1      -0.706 -16.908  -5.367  1.00  0.00     0.124 S 
ATOM     92  O   UNL     1       0.002 -16.355  -6.515  1.00  0.00    -0.237 OA
ATOM     93  O   UNL     1      -0.050 -18.016  -4.681  1.00  0.00    -0.237 OA
ATOM     94  O   UNL     1      -2.151 -17.047  -5.532  1.00  0.00    -0.744 OA
ENDBRANCH  87  91
ENDBRANCH  60  84
BRANCH  72  95
ATOM     95  C   UNL     1       5.859 -11.355  -7.186  1.00  0.00     0.023 A 
ATOM     96  C   UNL     1       5.053 -10.517  -7.975  1.00  0.00     0.031 A 
ATOM     97  C   UNL     1       6.858 -12.110  -7.829  1.00  0.00     0.131 A 
ATOM     98  C   UNL     1       5.240 -10.478  -9.367  1.00  0.00     0.055 A 
ATOM     99  C   UNL     1       7.075 -12.025  -9.204  1.00  0.00     0.041 A 
ATOM    100  F   UNL     1       7.656 -12.928  -7.123  1.00  0.00    -0.206 F 
ATOM    101  C   UNL     1       6.259 -11.211  -9.982  1.00  0.00     0.022 A 
BRANCH  98 102
ATOM    102  S   UNL     1       4.097  -9.497 -10.378  1.00  0.00     0.124 S 
ATOM    103  O   UNL     1       2.814 -10.127 -10.084  1.00  0.00    -0.237 OA
ATOM    104  O   UNL     1       4.284  -8.151  -9.846  1.00  0.00    -0.237 OA
ATOM    105  O   UNL     1       4.587  -9.696 -11.741  1.00  0.00    -0.744 OA
ENDBRANCH  98 102
ENDBRANCH  72  95
ENDBRANCH  46  47
ENDBRANCH  39  41
ENDBRANCH  38  39
ENDBRANCH  37  38
ENDBRANCH  36  37
ENDBRANCH  35  36
ENDBRANCH   1  35
TORSDOF 23
