REMARK SMILES COc1cc(-c2ccc(F)c(C(F)(F)F)c2)ccc1C(=O)OCCOCCOC(=O)c1ccc(-c2c3nc(c(-c4cc(S(=O)(=O)[O-])ccc4F)c4ccc([nH]4)c(-c4cc(S(=O)(=O)[O-])ccc4F)c4nc(c(-c5cc(S(=O)(=O)[O-])ccc5F)c5ccc2[nH]5)C=C4)C=C3)cc1
REMARK SMILES IDX 26 1 25 2 24 3 23 4 22 5 20 6 21 7 19 8 3 9 4 10 5 11 18 12
REMARK SMILES IDX 17 13 2 14 1 15 6 16 7 17 16 18 8 19 11 20 9 21 10 22 12 23
REMARK SMILES IDX 13 24 14 25 15 26 27 27 28 28 29 29 30 30 31 31 32 32 93 33
REMARK SMILES IDX 33 34 92 35 34 36 35 37 36 38 86 39 37 40 91 41 85 42 87 43
REMARK SMILES IDX 38 44 90 45 84 46 83 47 39 49 71 50 51 51 70 52 52 53 55 54
REMARK SMILES IDX 69 55 88 56 53 57 54 58 68 60 89 61 56 62 40 63 41 64 49 65
REMARK SMILES IDX 42 66 48 67 50 68 47 69 43 70 44 71 45 72 46 73 72 74 73 75
REMARK SMILES IDX 81 76 74 77 80 78 82 79 79 80 75 81 76 82 77 83 78 84 57 85
REMARK SMILES IDX 58 86 66 87 59 88 65 89 67 90 64 91 60 92 61 93 62 94 63 95
REMARK H PARENT 87 48 55 59
REMARK Flexibility Score: inf
ROOT
ATOM      1  C   UNL     1       4.903   1.584   1.375  1.00  0.00     0.202 C 
ENDROOT
BRANCH   1   2
ATOM      2  O   UNL     1       5.693   0.732   0.545  1.00  0.00    -0.374 OA
BRANCH   2   3
ATOM      3  C   UNL     1       5.029   0.078  -0.541  1.00  0.00     0.202 C 
BRANCH   3   4
ATOM      4  C   UNL     1       4.155  -1.107  -0.130  1.00  0.00     0.261 C 
BRANCH   4   5
ATOM      5  O   UNL     1       3.016  -0.608   0.590  1.00  0.00    -0.460 OA
BRANCH   5   6
ATOM      6  C   UNL     1       2.607  -1.332   1.648  1.00  0.00     0.342 C 
ATOM      7  O   UNL     1       3.024  -2.432   1.983  1.00  0.00    -0.246 OA
BRANCH   6   8
ATOM      8  C   UNL     1       1.749  -0.499   2.518  1.00  0.00     0.102 A 
ATOM      9  C   UNL     1       0.561   0.152   2.171  1.00  0.00     0.134 A 
ATOM     10  C   UNL     1      -0.143   0.824   3.192  1.00  0.00     0.056 A 
ATOM     11  C   UNL     1       0.288   0.866   4.529  1.00  0.00    -0.015 A 
ATOM     12  C   UNL     1       2.215  -0.424   3.852  1.00  0.00     0.020 A 
ATOM     13  C   UNL     1       1.499   0.253   4.843  1.00  0.00     0.010 A 
BRANCH   9  14
ATOM     14  O   UNL     1      -0.137   0.225   1.003  1.00  0.00    -0.496 OA
ATOM     15  C   UNL     1       0.393  -0.227  -0.227  1.00  0.00     0.278 C 
ENDBRANCH   9  14
BRANCH  11  16
ATOM     16  C   UNL     1      -0.565   1.474   5.558  1.00  0.00    -0.017 A 
ATOM     17  C   UNL     1      -1.834   0.928   5.822  1.00  0.00     0.012 A 
ATOM     18  C   UNL     1      -0.163   2.610   6.280  1.00  0.00     0.025 A 
ATOM     19  C   UNL     1      -2.682   1.505   6.766  1.00  0.00     0.040 A 
ATOM     20  C   UNL     1      -1.016   3.202   7.230  1.00  0.00     0.092 A 
ATOM     21  C   UNL     1      -2.268   2.637   7.455  1.00  0.00     0.135 A 
ATOM     22  F   UNL     1      -3.102   3.187   8.348  1.00  0.00    -0.206 F 
BRANCH  20  23
ATOM     23  C   UNL     1      -0.632   4.435   7.990  1.00  0.00     0.419 C 
ATOM     24  F   UNL     1      -1.418   5.507   7.693  1.00  0.00    -0.166 F 
ATOM     25  F   UNL     1      -0.705   4.273   9.341  1.00  0.00    -0.166 F 
ATOM     26  F   UNL     1       0.647   4.840   7.743  1.00  0.00    -0.166 F 
ENDBRANCH  20  23
ENDBRANCH  11  16
ENDBRANCH   6   8
ENDBRANCH   5   6
ENDBRANCH   4   5
ENDBRANCH   3   4
ENDBRANCH   2   3
ENDBRANCH   1   2
BRANCH   1  27
ATOM     27  C   UNL     1       4.631   2.994   0.839  1.00  0.00     0.261 C 
BRANCH  27  28
ATOM     28  O   UNL     1       3.806   2.997  -0.339  1.00  0.00    -0.460 OA
BRANCH  28  29
ATOM     29  C   UNL     1       4.470   3.258  -1.492  1.00  0.00     0.338 C 
ATOM     30  O   UNL     1       5.662   3.504  -1.611  1.00  0.00    -0.246 OA
BRANCH  29  31
ATOM     31  C   UNL     1       3.585   3.041  -2.651  1.00  0.00     0.060 A 
ATOM     32  C   UNL     1       4.047   2.200  -3.671  1.00  0.00     0.016 A 
ATOM     33  C   UNL     1       2.364   3.707  -2.780  1.00  0.00     0.016 A 
ATOM     34  C   UNL     1       3.311   2.058  -4.846  1.00  0.00     0.010 A 
ATOM     35  C   UNL     1       1.631   3.568  -3.964  1.00  0.00     0.010 A 
ATOM     36  C   UNL     1       2.115   2.768  -5.015  1.00  0.00    -0.014 A 
BRANCH  36  37
ATOM     37  C   UNL     1       1.448   2.779  -6.342  1.00  0.00     0.031 A 
ATOM     38  C   UNL     1       1.639   3.967  -7.247  1.00  0.00     0.074 A 
ATOM     39  C   UNL     1       0.703   1.734  -6.744  1.00  0.00     0.049 A 
ATOM     40  N   UNL     1       1.118   4.208  -8.422  1.00  0.00    -0.248 NA
ATOM     41  C   UNL     1       2.535   5.024  -6.755  1.00  0.00     0.031 C 
ATOM     42  C   UNL     1       0.482   0.511  -5.974  1.00  0.00     0.029 A 
ATOM     43  N   UNL     1      -0.012   1.537  -7.899  1.00  0.00    -0.354 N 
ATOM     44  C   UNL     1       1.616   5.448  -8.810  1.00  0.00     0.074 A 
ATOM     45  C   UNL     1       2.452   5.921  -7.726  1.00  0.00     0.031 C 
ATOM     46  C   UNL     1      -0.326  -0.305  -6.673  1.00  0.00     0.029 A 
ATOM     47  C   UNL     1      -0.711   0.353  -7.920  1.00  0.00     0.049 A 
ATOM     48  H   UNL     1      -0.023   2.183  -8.642  1.00  0.00     0.167 HD
ATOM     49  C   UNL     1       1.401   6.124  -9.966  1.00  0.00     0.034 A 
ATOM     50  C   UNL     1      -1.583  -0.131  -8.828  1.00  0.00     0.034 A 
ATOM     51  C   UNL     1       0.558   5.642 -11.034  1.00  0.00     0.049 A 
ATOM     52  C   UNL     1      -1.872   0.677 -10.071  1.00  0.00     0.074 A 
ATOM     53  C   UNL     1       0.291   6.234 -12.256  1.00  0.00     0.029 A 
ATOM     54  N   UNL     1      -0.167   4.457 -11.002  1.00  0.00    -0.354 N 
ATOM     55  N   UNL     1      -1.383   1.841 -10.433  1.00  0.00    -0.248 NA
ATOM     56  C   UNL     1      -2.824   0.101 -11.030  1.00  0.00     0.031 C 
ATOM     57  C   UNL     1      -0.651   5.448 -12.929  1.00  0.00     0.029 A 
ATOM     58  C   UNL     1      -0.910   4.322 -12.166  1.00  0.00     0.049 A 
ATOM     59  H   UNL     1      -0.156   3.809 -10.262  1.00  0.00     0.167 HD
ATOM     60  C   UNL     1      -1.946   2.119 -11.677  1.00  0.00     0.074 A 
ATOM     61  C   UNL     1      -2.799   0.997 -12.006  1.00  0.00     0.031 C 
ATOM     62  C   UNL     1      -1.768   3.202 -12.478  1.00  0.00     0.034 A 
BRANCH  49  63
ATOM     63  C   UNL     1       2.045   7.483 -10.107  1.00  0.00     0.023 A 
ATOM     64  C   UNL     1       3.441   7.644 -10.144  1.00  0.00     0.031 A 
ATOM     65  C   UNL     1       1.247   8.639 -10.181  1.00  0.00     0.131 A 
ATOM     66  C   UNL     1       3.996   8.932 -10.185  1.00  0.00     0.055 A 
ATOM     67  C   UNL     1       1.805   9.913 -10.300  1.00  0.00     0.041 A 
ATOM     68  F   UNL     1      -0.091   8.550 -10.127  1.00  0.00    -0.206 F 
ATOM     69  C   UNL     1       3.188  10.067 -10.288  1.00  0.00     0.022 A 
BRANCH  66  70
ATOM     70  S   UNL     1       5.787   9.113  -9.960  1.00  0.00     0.124 S 
ATOM     71  O   UNL     1       5.987   8.486  -8.656  1.00  0.00    -0.237 OA
ATOM     72  O   UNL     1       6.323   8.389 -11.107  1.00  0.00    -0.237 OA
ATOM     73  O   UNL     1       5.992  10.560  -9.985  1.00  0.00    -0.744 OA
ENDBRANCH  66  70
ENDBRANCH  49  63
BRANCH  50  74
ATOM     74  C   UNL     1      -2.288  -1.423  -8.583  1.00  0.00     0.023 A 
ATOM     75  C   UNL     1      -2.104  -2.526  -9.431  1.00  0.00     0.031 A 
ATOM     76  C   UNL     1      -3.204  -1.552  -7.523  1.00  0.00     0.131 A 
ATOM     77  C   UNL     1      -2.860  -3.693  -9.233  1.00  0.00     0.055 A 
ATOM     78  C   UNL     1      -3.913  -2.733  -7.298  1.00  0.00     0.041 A 
ATOM     79  F   UNL     1      -3.419  -0.527  -6.682  1.00  0.00    -0.206 F 
ATOM     80  C   UNL     1      -3.752  -3.808  -8.165  1.00  0.00     0.022 A 
BRANCH  77  81
ATOM     81  S   UNL     1      -2.723  -5.033 -10.449  1.00  0.00     0.124 S 
ATOM     82  O   UNL     1      -3.108  -4.355 -11.681  1.00  0.00    -0.237 OA
ATOM     83  O   UNL     1      -1.316  -5.403 -10.332  1.00  0.00    -0.237 OA
ATOM     84  O   UNL     1      -3.671  -6.032  -9.961  1.00  0.00    -0.744 OA
ENDBRANCH  77  81
ENDBRANCH  50  74
BRANCH  62  85
ATOM     85  C   UNL     1      -2.477   3.196 -13.812  1.00  0.00     0.023 A 
ATOM     86  C   UNL     1      -3.878   3.263 -13.909  1.00  0.00     0.031 A 
ATOM     87  C   UNL     1      -1.735   3.113 -15.004  1.00  0.00     0.131 A 
ATOM     88  C   UNL     1      -4.495   3.192 -15.167  1.00  0.00     0.055 A 
ATOM     89  C   UNL     1      -2.352   3.105 -16.256  1.00  0.00     0.041 A 
ATOM     90  F   UNL     1      -0.395   3.044 -14.972  1.00  0.00    -0.206 F 
ATOM     91  C   UNL     1      -3.741   3.131 -16.342  1.00  0.00     0.022 A 
BRANCH  88  92
ATOM     92  S   UNL     1      -6.305   3.089 -15.247  1.00  0.00     0.124 S 
ATOM     93  O   UNL     1      -6.575   1.885 -14.468  1.00  0.00    -0.237 OA
ATOM     94  O   UNL     1      -6.717   4.349 -14.636  1.00  0.00    -0.237 OA
ATOM     95  O   UNL     1      -6.580   2.977 -16.678  1.00  0.00    -0.744 OA
ENDBRANCH  88  92
ENDBRANCH  62  85
ENDBRANCH  36  37
ENDBRANCH  29  31
ENDBRANCH  28  29
ENDBRANCH  27  28
ENDBRANCH   1  27
TORSDOF 20
