REMARK SMILES O=C(OCCOCCOC(=O)c1ccc(-c2c3nc(c(-c4cc(S(=O)(=O)[O-])ccc4F)c4ccc([nH]4)c(-c4cc(S(=O)(=O)[O-])ccc4F)c4nc(c(-c5cc(S(=O)(=O)[O-])ccc5F)c5ccc2[nH]5)C=C4)C=C3)cc1)c1ccc(C[C@H]2SC(=O)N(c3ccccc3)C2=O)cc1
REMARK SMILES IDX 6 1 5 2 4 3 3 4 2 5 1 6 75 7 76 8 94 9 77 10 93 11 78 12
REMARK SMILES IDX 79 13 80 14 81 15 91 16 82 17 84 18 92 19 83 20 85 21 86 22
REMARK SMILES IDX 90 23 87 24 89 25 88 26 7 27 8 28 9 29 10 30 11 31 12 32
REMARK SMILES IDX 13 33 74 34 14 35 73 36 15 37 16 38 17 39 67 40 18 41 72 42
REMARK SMILES IDX 66 43 68 44 19 45 71 46 65 47 64 48 20 50 52 51 32 52 51 53
REMARK SMILES IDX 33 54 36 55 50 56 69 57 34 58 35 59 49 61 70 62 37 63 21 64
REMARK SMILES IDX 22 65 30 66 23 67 29 68 31 69 28 70 24 71 25 72 26 73 27 74
REMARK SMILES IDX 53 75 54 76 62 77 55 78 61 79 63 80 60 81 56 82 57 83 58 84
REMARK SMILES IDX 59 85 38 86 39 87 47 88 40 89 46 90 48 91 45 92 41 93 42 94
REMARK SMILES IDX 43 95 44 96
REMARK H PARENT 68 49 36 60
REMARK Flexibility Score: inf
ROOT
ATOM      1  O   UNL     1       9.512   1.691   7.497  1.00  0.00    -0.374 OA
ENDROOT
BRANCH   1   2
ATOM      2  C   UNL     1       8.321   2.465   7.599  1.00  0.00     0.202 C 
BRANCH   2   3
ATOM      3  C   UNL     1       7.116   1.645   8.051  1.00  0.00     0.261 C 
BRANCH   3   4
ATOM      4  O   UNL     1       7.391   0.981   9.304  1.00  0.00    -0.460 OA
BRANCH   4   5
ATOM      5  C   UNL     1       7.625  -0.348   9.446  1.00  0.00     0.338 C 
ATOM      6  O   UNL     1       7.840  -0.850  10.543  1.00  0.00    -0.246 OA
BRANCH   5   7
ATOM      7  C   UNL     1       7.560  -1.223   8.258  1.00  0.00     0.060 A 
ATOM      8  C   UNL     1       8.522  -1.160   7.252  1.00  0.00     0.016 A 
ATOM      9  C   UNL     1       6.533  -2.163   8.172  1.00  0.00     0.016 A 
ATOM     10  C   UNL     1       8.387  -1.921   6.100  1.00  0.00     0.004 A 
ATOM     11  C   UNL     1       6.406  -2.946   7.020  1.00  0.00     0.004 A 
ATOM     12  C   UNL     1       7.305  -2.791   5.955  1.00  0.00    -0.046 A 
BRANCH  12  13
ATOM     13  C   UNL     1       7.109  -3.505   4.643  1.00  0.00     0.060 C 
BRANCH  13  14
ATOM     14  C   UNL     1       6.322  -2.680   3.608  1.00  0.00     0.151 C 
ATOM     15  S   UNL     1       7.189  -1.203   3.018  1.00  0.00    -0.050 SA
ATOM     16  C   UNL     1       6.130  -3.536   2.378  1.00  0.00     0.248 C 
ATOM     17  C   UNL     1       7.618  -1.941   1.492  1.00  0.00     0.293 C 
ATOM     18  N   UNL     1       6.927  -3.120   1.321  1.00  0.00    -0.240 N 
ATOM     19  O   UNL     1       5.418  -4.539   2.418  1.00  0.00    -0.273 OA
ATOM     20  O   UNL     1       8.390  -1.389   0.730  1.00  0.00    -0.261 OA
BRANCH  18  21
ATOM     21  C   UNL     1       7.038  -3.884   0.124  1.00  0.00     0.053 A 
ATOM     22  C   UNL     1       5.925  -4.556  -0.402  1.00  0.00     0.027 A 
ATOM     23  C   UNL     1       8.265  -4.005  -0.546  1.00  0.00     0.027 A 
ATOM     24  C   UNL     1       6.035  -5.334  -1.556  1.00  0.00     0.002 A 
ATOM     25  C   UNL     1       8.382  -4.808  -1.684  1.00  0.00     0.002 A 
ATOM     26  C   UNL     1       7.266  -5.471  -2.189  1.00  0.00     0.000 A 
ENDBRANCH  18  21
ENDBRANCH  13  14
ENDBRANCH  12  13
ENDBRANCH   5   7
ENDBRANCH   4   5
ENDBRANCH   3   4
ENDBRANCH   2   3
ENDBRANCH   1   2
BRANCH   1  27
ATOM     27  C   UNL     1      10.285   1.584   8.700  1.00  0.00     0.202 C 
BRANCH  27  28
ATOM     28  C   UNL     1      11.760   1.802   8.358  1.00  0.00     0.261 C 
BRANCH  28  29
ATOM     29  O   UNL     1      11.955   3.197   8.104  1.00  0.00    -0.460 OA
BRANCH  29  30
ATOM     30  C   UNL     1      11.546   3.615   6.878  1.00  0.00     0.338 C 
ATOM     31  O   UNL     1      11.503   2.959   5.853  1.00  0.00    -0.246 OA
BRANCH  30  32
ATOM     32  C   UNL     1      10.932   4.950   7.057  1.00  0.00     0.060 A 
ATOM     33  C   UNL     1       9.871   5.326   6.221  1.00  0.00     0.016 A 
ATOM     34  C   UNL     1      11.358   5.797   8.085  1.00  0.00     0.016 A 
ATOM     35  C   UNL     1       9.262   6.570   6.384  1.00  0.00     0.010 A 
ATOM     36  C   UNL     1      10.747   7.031   8.255  1.00  0.00     0.010 A 
ATOM     37  C   UNL     1       9.728   7.438   7.378  1.00  0.00    -0.014 A 
BRANCH  37  38
ATOM     38  C   UNL     1       9.352   8.867   7.392  1.00  0.00     0.031 A 
ATOM     39  C   UNL     1      10.351   9.841   6.839  1.00  0.00     0.074 A 
ATOM     40  C   UNL     1       8.218   9.280   7.979  1.00  0.00     0.049 A 
ATOM     41  N   UNL     1      10.389  11.141   6.935  1.00  0.00    -0.248 NA
ATOM     42  C   UNL     1      11.488   9.252   6.112  1.00  0.00     0.031 C 
ATOM     43  C   UNL     1       7.186   8.404   8.528  1.00  0.00     0.029 A 
ATOM     44  N   UNL     1       7.770  10.547   8.248  1.00  0.00    -0.354 N 
ATOM     45  C   UNL     1      11.569  11.526   6.306  1.00  0.00     0.074 A 
ATOM     46  C   UNL     1      12.234  10.317   5.874  1.00  0.00     0.031 C 
ATOM     47  C   UNL     1       6.237   9.162   9.104  1.00  0.00     0.029 A 
ATOM     48  C   UNL     1       6.626  10.569   9.009  1.00  0.00     0.049 A 
ATOM     49  H   UNL     1       8.223  11.360   7.928  1.00  0.00     0.167 HD
ATOM     50  C   UNL     1      12.046  12.778   6.112  1.00  0.00     0.034 A 
ATOM     51  C   UNL     1       6.000  11.604   9.604  1.00  0.00     0.034 A 
ATOM     52  C   UNL     1      11.360  13.957   6.578  1.00  0.00     0.049 A 
ATOM     53  C   UNL     1       6.573  12.991   9.430  1.00  0.00     0.074 A 
ATOM     54  C   UNL     1      11.710  15.283   6.410  1.00  0.00     0.029 A 
ATOM     55  N   UNL     1      10.188  13.945   7.329  1.00  0.00    -0.354 N 
ATOM     56  N   UNL     1       7.670  13.358   8.804  1.00  0.00    -0.248 NA
ATOM     57  C   UNL     1       5.827  14.101  10.034  1.00  0.00     0.031 C 
ATOM     58  C   UNL     1      10.805  16.065   7.133  1.00  0.00     0.029 A 
ATOM     59  C   UNL     1       9.828  15.238   7.668  1.00  0.00     0.049 A 
ATOM     60  H   UNL     1       9.689  13.135   7.583  1.00  0.00     0.167 HD
ATOM     61  C   UNL     1       7.726  14.746   8.911  1.00  0.00     0.074 A 
ATOM     62  C   UNL     1       6.552  15.147   9.662  1.00  0.00     0.031 C 
ATOM     63  C   UNL     1       8.652  15.611   8.424  1.00  0.00     0.034 A 
BRANCH  50  64
ATOM     64  C   UNL     1      13.390  12.912   5.434  1.00  0.00     0.023 A 
ATOM     65  C   UNL     1      13.621  12.419   4.137  1.00  0.00     0.031 A 
ATOM     66  C   UNL     1      14.477  13.480   6.121  1.00  0.00     0.131 A 
ATOM     67  C   UNL     1      14.922  12.411   3.611  1.00  0.00     0.055 A 
ATOM     68  C   UNL     1      15.750  13.559   5.552  1.00  0.00     0.041 A 
ATOM     69  F   UNL     1      14.330  13.943   7.372  1.00  0.00    -0.206 F 
ATOM     70  C   UNL     1      15.983  13.004   4.298  1.00  0.00     0.022 A 
BRANCH  67  71
ATOM     71  S   UNL     1      15.239  11.446   2.107  1.00  0.00     0.124 S 
ATOM     72  O   UNL     1      14.774  10.119   2.505  1.00  0.00    -0.237 OA
ATOM     73  O   UNL     1      14.427  12.137   1.113  1.00  0.00    -0.237 OA
ATOM     74  O   UNL     1      16.684  11.562   1.925  1.00  0.00    -0.744 OA
ENDBRANCH  67  71
ENDBRANCH  50  64
BRANCH  51  75
ATOM     75  C   UNL     1       4.799  11.360  10.451  1.00  0.00     0.023 A 
ATOM     76  C   UNL     1       3.535  11.848  10.085  1.00  0.00     0.031 A 
ATOM     77  C   UNL     1       4.900  10.629  11.650  1.00  0.00     0.131 A 
ATOM     78  C   UNL     1       2.429  11.622  10.921  1.00  0.00     0.055 A 
ATOM     79  C   UNL     1       3.788  10.362  12.450  1.00  0.00     0.041 A 
ATOM     80  F   UNL     1       6.085  10.138  12.047  1.00  0.00    -0.206 F 
ATOM     81  C   UNL     1       2.544  10.868  12.091  1.00  0.00     0.022 A 
BRANCH  78  82
ATOM     82  S   UNL     1       0.842  12.385  10.487  1.00  0.00     0.124 S 
ATOM     83  O   UNL     1       1.188  13.801  10.471  1.00  0.00    -0.237 OA
ATOM     84  O   UNL     1       0.558  11.778   9.191  1.00  0.00    -0.237 OA
ATOM     85  O   UNL     1      -0.043  11.970  11.574  1.00  0.00    -0.744 OA
ENDBRANCH  78  82
ENDBRANCH  51  75
BRANCH  63  86
ATOM     86  C   UNL     1       8.404  17.086   8.628  1.00  0.00     0.023 A 
ATOM     87  C   UNL     1       8.464  17.686   9.897  1.00  0.00     0.031 A 
ATOM     88  C   UNL     1       8.147  17.909   7.516  1.00  0.00     0.131 A 
ATOM     89  C   UNL     1       8.237  19.066  10.025  1.00  0.00     0.055 A 
ATOM     90  C   UNL     1       7.986  19.288   7.642  1.00  0.00     0.041 A 
ATOM     91  F   UNL     1       8.075  17.386   6.281  1.00  0.00    -0.206 F 
ATOM     92  C   UNL     1       8.022  19.873   8.904  1.00  0.00     0.022 A 
BRANCH  89  93
ATOM     93  S   UNL     1       8.155  19.787  11.687  1.00  0.00     0.124 S 
ATOM     94  O   UNL     1       7.047  19.048  12.283  1.00  0.00    -0.237 OA
ATOM     95  O   UNL     1       9.480  19.493  12.223  1.00  0.00    -0.237 OA
ATOM     96  O   UNL     1       7.890  21.203  11.433  1.00  0.00    -0.744 OA
ENDBRANCH  89  93
ENDBRANCH  63  86
ENDBRANCH  37  38
ENDBRANCH  30  32
ENDBRANCH  29  30
ENDBRANCH  28  29
ENDBRANCH  27  28
ENDBRANCH   1  27
TORSDOF 20
