REMARK SMILES C[C@@H](CCO)SCc1cccc(/C=C/C(=O)OCCOCCOC(=O)c2ccc(-c3c4nc(c(-c5cc(S(=O)(=O)[O-])ccc5F)c5ccc([nH]5)c(-c5cc(S(=O)(=O)[O-])ccc5F)c5nc(c(-c6cc(S(=O)(=O)[O-])ccc6F)c6ccc3[nH]6)C=C5)C=C4)cc2)c1
REMARK SMILES IDX 18 1 17 2 15 3 16 4 14 5 13 6 12 7 8 8 9 9 89 10 10 11 11 12
REMARK SMILES IDX 7 13 6 14 2 15 1 16 3 17 4 18 5 19 19 21 20 22 21 23 22 24
REMARK SMILES IDX 23 25 24 26 25 27 26 28 27 29 88 30 28 31 87 32 29 33 30 34
REMARK SMILES IDX 31 35 81 36 32 37 86 38 80 39 82 40 33 41 85 42 79 43 78 44
REMARK SMILES IDX 34 46 66 47 46 48 65 49 47 50 50 51 64 52 83 53 48 54 49 55
REMARK SMILES IDX 63 57 84 58 51 59 35 60 36 61 44 62 37 63 43 64 45 65 42 66
REMARK SMILES IDX 38 67 39 68 40 69 41 70 67 71 68 72 76 73 69 74 75 75 77 76
REMARK SMILES IDX 74 77 70 78 71 79 72 80 73 81 52 82 53 83 61 84 54 85 60 86
REMARK SMILES IDX 62 87 59 88 55 89 56 90 57 91 58 92
REMARK H PARENT 5 20 82 45 50 56
REMARK Flexibility Score: inf
ROOT
ATOM      1  C   UNL     1      -1.052   9.377   4.420  1.00  0.00     0.261 C 
ENDROOT
BRANCH   1   2
ATOM      2  O   UNL     1      -1.067   7.966   4.148  1.00  0.00    -0.460 OA
BRANCH   2   3
ATOM      3  C   UNL     1      -0.138   7.241   4.813  1.00  0.00     0.330 C 
ATOM      4  O   UNL     1       0.767   7.674   5.511  1.00  0.00    -0.247 OA
BRANCH   3   5
ATOM      5  C   UNL     1      -0.384   5.787   4.717  1.00  0.00     0.094 C 
ATOM      6  C   UNL     1      -1.283   5.169   3.933  1.00  0.00     0.015 C 
BRANCH   6   7
ATOM      7  C   UNL     1      -1.483   3.709   3.977  1.00  0.00    -0.025 A 
ATOM      8  C   UNL     1      -1.879   1.598   2.793  1.00  0.00    -0.037 A 
ATOM      9  C   UNL     1      -1.852   0.926   4.023  1.00  0.00     0.004 A 
ATOM     10  C   UNL     1      -1.766   3.004   2.798  1.00  0.00     0.012 A 
ATOM     11  C   UNL     1      -1.608   1.617   5.207  1.00  0.00     0.001 A 
ATOM     12  C   UNL     1      -1.416   2.997   5.182  1.00  0.00     0.008 A 
BRANCH   8  13
ATOM     13  C   UNL     1      -2.076   0.875   1.476  1.00  0.00     0.105 C 
BRANCH  13  14
ATOM     14  S   UNL     1      -1.403  -0.821   1.373  1.00  0.00    -0.154 SA
BRANCH  14  15
ATOM     15  C   UNL     1       0.416  -0.572   1.139  1.00  0.00     0.046 C 
ATOM     16  C   UNL     1       0.753   0.010  -0.228  1.00  0.00     0.019 C 
BRANCH  15  17
ATOM     17  C   UNL     1       1.156  -0.008   2.366  1.00  0.00     0.042 C 
BRANCH  17  18
ATOM     18  C   UNL     1       1.736   1.407   2.366  1.00  0.00     0.157 C 
BRANCH  18  19
ATOM     19  O   UNL     1       1.187   2.274   1.400  1.00  0.00    -0.396 OA
ATOM     20  H   UNL     1       1.379   1.932   0.513  1.00  0.00     0.210 HD
ENDBRANCH  18  19
ENDBRANCH  17  18
ENDBRANCH  15  17
ENDBRANCH  14  15
ENDBRANCH  13  14
ENDBRANCH   8  13
ENDBRANCH   6   7
ENDBRANCH   3   5
ENDBRANCH   2   3
ENDBRANCH   1   2
BRANCH   1  21
ATOM     21  C   UNL     1      -2.351   9.833   5.092  1.00  0.00     0.202 C 
BRANCH  21  22
ATOM     22  O   UNL     1      -2.652   9.227   6.349  1.00  0.00    -0.374 OA
BRANCH  22  23
ATOM     23  C   UNL     1      -3.244   7.927   6.317  1.00  0.00     0.202 C 
BRANCH  23  24
ATOM     24  C   UNL     1      -4.730   7.860   5.939  1.00  0.00     0.261 C 
BRANCH  24  25
ATOM     25  O   UNL     1      -4.953   8.173   4.551  1.00  0.00    -0.460 OA
BRANCH  25  26
ATOM     26  C   UNL     1      -5.653   9.311   4.323  1.00  0.00     0.338 C 
ATOM     27  O   UNL     1      -6.160  10.044   5.161  1.00  0.00    -0.246 OA
BRANCH  26  28
ATOM     28  C   UNL     1      -5.565   9.669   2.895  1.00  0.00     0.060 A 
ATOM     29  C   UNL     1      -5.060  10.934   2.565  1.00  0.00     0.016 A 
ATOM     30  C   UNL     1      -6.012   8.802   1.896  1.00  0.00     0.016 A 
ATOM     31  C   UNL     1      -5.020  11.345   1.233  1.00  0.00     0.010 A 
ATOM     32  C   UNL     1      -5.982   9.222   0.562  1.00  0.00     0.010 A 
ATOM     33  C   UNL     1      -5.505  10.502   0.225  1.00  0.00    -0.014 A 
BRANCH  33  34
ATOM     34  C   UNL     1      -5.618  10.993  -1.171  1.00  0.00     0.031 A 
ATOM     35  C   UNL     1      -6.953  11.465  -1.674  1.00  0.00     0.074 A 
ATOM     36  C   UNL     1      -4.543  11.011  -1.980  1.00  0.00     0.049 A 
ATOM     37  N   UNL     1      -7.304  11.835  -2.877  1.00  0.00    -0.248 NA
ATOM     38  C   UNL     1      -8.039  11.519  -0.683  1.00  0.00     0.031 C 
ATOM     39  C   UNL     1      -3.187  10.628  -1.588  1.00  0.00     0.029 A 
ATOM     40  N   UNL     1      -4.427  11.351  -3.304  1.00  0.00    -0.354 N 
ATOM     41  C   UNL     1      -8.653  12.164  -2.795  1.00  0.00     0.074 A 
ATOM     42  C   UNL     1      -9.061  11.915  -1.427  1.00  0.00     0.031 C 
ATOM     43  C   UNL     1      -2.379  10.736  -2.656  1.00  0.00     0.029 A 
ATOM     44  C   UNL     1      -3.166  11.149  -3.816  1.00  0.00     0.049 A 
ATOM     45  H   UNL     1      -5.175  11.706  -3.837  1.00  0.00     0.167 HD
ATOM     46  C   UNL     1      -9.472  12.632  -3.769  1.00  0.00     0.034 A 
ATOM     47  C   UNL     1      -2.711  11.249  -5.081  1.00  0.00     0.034 A 
ATOM     48  C   UNL     1      -9.051  12.858  -5.131  1.00  0.00     0.049 A 
ATOM     49  C   UNL     1      -3.666  11.667  -6.173  1.00  0.00     0.074 A 
ATOM     50  C   UNL     1      -9.791  13.348  -6.193  1.00  0.00     0.029 A 
ATOM     51  N   UNL     1      -7.780  12.592  -5.625  1.00  0.00    -0.354 N 
ATOM     52  N   UNL     1      -4.939  11.979  -6.083  1.00  0.00    -0.248 NA
ATOM     53  C   UNL     1      -3.125  11.744  -7.537  1.00  0.00     0.031 C 
ATOM     54  C   UNL     1      -8.993  13.308  -7.341  1.00  0.00     0.029 A 
ATOM     55  C   UNL     1      -7.729  12.867  -6.983  1.00  0.00     0.049 A 
ATOM     56  H   UNL     1      -7.026  12.256  -5.089  1.00  0.00     0.167 HD
ATOM     57  C   UNL     1      -5.340  12.316  -7.374  1.00  0.00     0.074 A 
ATOM     58  C   UNL     1      -4.173  12.179  -8.221  1.00  0.00     0.031 C 
ATOM     59  C   UNL     1      -6.561  12.711  -7.819  1.00  0.00     0.034 A 
BRANCH  46  60
ATOM     60  C   UNL     1     -10.916  12.873  -3.404  1.00  0.00     0.023 A 
ATOM     61  C   UNL     1     -11.290  13.854  -2.469  1.00  0.00     0.031 A 
ATOM     62  C   UNL     1     -11.932  12.091  -3.980  1.00  0.00     0.131 A 
ATOM     63  C   UNL     1     -12.634  13.980  -2.087  1.00  0.00     0.055 A 
ATOM     64  C   UNL     1     -13.277  12.273  -3.653  1.00  0.00     0.041 A 
ATOM     65  F   UNL     1     -11.633  11.124  -4.862  1.00  0.00    -0.206 F 
ATOM     66  C   UNL     1     -13.634  13.213  -2.690  1.00  0.00     0.022 A 
BRANCH  63  67
ATOM     67  S   UNL     1     -13.042  15.063  -0.690  1.00  0.00     0.124 S 
ATOM     68  O   UNL     1     -12.232  14.483   0.379  1.00  0.00    -0.237 OA
ATOM     69  O   UNL     1     -12.620  16.372  -1.173  1.00  0.00    -0.237 OA
ATOM     70  O   UNL     1     -14.484  14.891  -0.532  1.00  0.00    -0.744 OA
ENDBRANCH  63  67
ENDBRANCH  46  60
BRANCH  47  71
ATOM     71  C   UNL     1      -1.299  10.894  -5.406  1.00  0.00     0.023 A 
ATOM     72  C   UNL     1      -0.405  11.852  -5.907  1.00  0.00     0.031 A 
ATOM     73  C   UNL     1      -0.840   9.571  -5.269  1.00  0.00     0.131 A 
ATOM     74  C   UNL     1       0.888  11.467  -6.294  1.00  0.00     0.055 A 
ATOM     75  C   UNL     1       0.464   9.203  -5.606  1.00  0.00     0.041 A 
ATOM     76  F   UNL     1      -1.655   8.614  -4.797  1.00  0.00    -0.206 F 
ATOM     77  C   UNL     1       1.333  10.152  -6.134  1.00  0.00     0.022 A 
BRANCH  74  78
ATOM     78  S   UNL     1       1.959  12.695  -7.091  1.00  0.00     0.124 S 
ATOM     79  O   UNL     1       1.161  13.076  -8.251  1.00  0.00    -0.237 OA
ATOM     80  O   UNL     1       2.092  13.703  -6.045  1.00  0.00    -0.237 OA
ATOM     81  O   UNL     1       3.176  11.944  -7.389  1.00  0.00    -0.744 OA
ENDBRANCH  74  78
ENDBRANCH  47  71
BRANCH  59  82
ATOM     82  C   UNL     1      -6.681  13.063  -9.281  1.00  0.00     0.023 A 
ATOM     83  C   UNL     1      -6.583  12.087 -10.289  1.00  0.00     0.031 A 
ATOM     84  C   UNL     1      -6.903  14.396  -9.670  1.00  0.00     0.131 A 
ATOM     85  C   UNL     1      -6.663  12.466 -11.638  1.00  0.00     0.055 A 
ATOM     86  C   UNL     1      -7.037  14.759 -11.011  1.00  0.00     0.041 A 
ATOM     87  F   UNL     1      -7.003  15.368  -8.749  1.00  0.00    -0.206 F 
ATOM     88  C   UNL     1      -6.907  13.793 -12.004  1.00  0.00     0.022 A 
BRANCH  85  89
ATOM     89  S   UNL     1      -6.376  11.212 -12.916  1.00  0.00     0.124 S 
ATOM     90  O   UNL     1      -5.011  10.786 -12.622  1.00  0.00    -0.237 OA
ATOM     91  O   UNL     1      -7.423  10.234 -12.637  1.00  0.00    -0.237 OA
ATOM     92  O   UNL     1      -6.538  11.952 -14.167  1.00  0.00    -0.744 OA
ENDBRANCH  85  89
ENDBRANCH  59  82
ENDBRANCH  33  34
ENDBRANCH  26  28
ENDBRANCH  25  26
ENDBRANCH  24  25
ENDBRANCH  23  24
ENDBRANCH  22  23
ENDBRANCH  21  22
ENDBRANCH   1  21
TORSDOF 24
