REMARK SMILES O=C(OCCOCCOC(=O)[C@@H]1CCCC[C@H]1C(=O)Nc1ccccc1C(=O)N1CCOCC1)c1ccc(-c2c3nc(c(-c4cc(S(=O)(=O)[O-])ccc4F)c4ccc([nH]4)c(-c4cc(S(=O)(=O)[O-])ccc4F)c4nc(c(-c5cc(S(=O)(=O)[O-])ccc5F)c5ccc2[nH]5)C=C4)C=C3)cc1
REMARK SMILES IDX 6 1 5 2 4 3 3 4 2 5 1 6 35 7 36 8 97 9 37 10 96 11 38 12
REMARK SMILES IDX 39 13 40 14 90 15 41 16 95 17 89 18 91 19 42 20 94 21 88 22
REMARK SMILES IDX 87 23 43 25 75 26 55 27 74 28 56 29 59 30 73 31 92 32 57 33
REMARK SMILES IDX 58 34 72 36 93 37 60 38 44 39 45 40 53 41 46 42 52 43 54 44
REMARK SMILES IDX 51 45 47 46 48 47 49 48 50 49 76 50 77 51 85 52 78 53 84 54
REMARK SMILES IDX 86 55 83 56 79 57 80 58 81 59 82 60 61 61 62 62 70 63 63 64
REMARK SMILES IDX 69 65 71 66 68 67 64 68 65 69 66 70 67 71 7 72 8 73 9 74
REMARK SMILES IDX 10 75 11 76 12 77 13 78 17 79 14 80 16 81 15 82 18 83 19 84
REMARK SMILES IDX 20 85 21 87 22 88 26 89 23 90 25 91 24 92 27 93 28 94 29 95
REMARK SMILES IDX 30 96 34 97 31 98 33 99 32 100
REMARK H PARENT 91 24 59 35 20 86
REMARK Flexibility Score: inf
ROOT
ATOM      1  O   UNL     1       3.443   0.674  -0.970  1.00  0.00    -0.374 OA
ENDROOT
BRANCH   1   2
ATOM      2  C   UNL     1       4.167  -0.543  -0.765  1.00  0.00     0.202 C 
BRANCH   2   3
ATOM      3  C   UNL     1       3.864  -1.326   0.519  1.00  0.00     0.261 C 
BRANCH   3   4
ATOM      4  O   UNL     1       2.465  -1.305   0.845  1.00  0.00    -0.460 OA
BRANCH   4   5
ATOM      5  C   UNL     1       1.836  -0.373   1.608  1.00  0.00     0.338 C 
ATOM      6  O   UNL     1       0.616  -0.425   1.742  1.00  0.00    -0.246 OA
BRANCH   5   7
ATOM      7  C   UNL     1       2.594   0.676   2.344  1.00  0.00     0.060 A 
ATOM      8  C   UNL     1       3.733   1.298   1.843  1.00  0.00     0.016 A 
ATOM      9  C   UNL     1       2.127   1.070   3.603  1.00  0.00     0.016 A 
ATOM     10  C   UNL     1       4.495   2.148   2.599  1.00  0.00     0.010 A 
ATOM     11  C   UNL     1       2.849   2.000   4.358  1.00  0.00     0.010 A 
ATOM     12  C   UNL     1       4.062   2.498   3.864  1.00  0.00    -0.014 A 
BRANCH  12  13
ATOM     13  C   UNL     1       5.054   3.197   4.686  1.00  0.00     0.031 A 
ATOM     14  C   UNL     1       5.738   2.396   5.747  1.00  0.00     0.074 A 
ATOM     15  C   UNL     1       5.481   4.415   4.305  1.00  0.00     0.049 A 
ATOM     16  N   UNL     1       6.587   2.779   6.655  1.00  0.00    -0.248 NA
ATOM     17  C   UNL     1       5.426   0.955   5.781  1.00  0.00     0.031 C 
ATOM     18  C   UNL     1       5.010   5.143   3.119  1.00  0.00     0.029 A 
ATOM     19  N   UNL     1       6.443   5.227   4.829  1.00  0.00    -0.354 N 
ATOM     20  C   UNL     1       6.857   1.644   7.411  1.00  0.00     0.074 A 
ATOM     21  C   UNL     1       6.089   0.557   6.853  1.00  0.00     0.031 C 
ATOM     22  C   UNL     1       5.712   6.279   2.994  1.00  0.00     0.029 A 
ATOM     23  C   UNL     1       6.589   6.412   4.147  1.00  0.00     0.049 A 
ATOM     24  H   UNL     1       6.980   4.988   5.619  1.00  0.00     0.167 HD
ATOM     25  C   UNL     1       7.664   1.552   8.493  1.00  0.00     0.034 A 
ATOM     26  C   UNL     1       7.310   7.498   4.473  1.00  0.00     0.034 A 
ATOM     27  C   UNL     1       8.406   2.686   8.981  1.00  0.00     0.049 A 
ATOM     28  C   UNL     1       8.096   7.418   5.758  1.00  0.00     0.074 A 
ATOM     29  C   UNL     1       9.188   2.794  10.113  1.00  0.00     0.029 A 
ATOM     30  N   UNL     1       8.448   3.925   8.342  1.00  0.00    -0.354 N 
ATOM     31  N   UNL     1       8.236   6.396   6.576  1.00  0.00    -0.248 NA
ATOM     32  C   UNL     1       8.803   8.629   6.173  1.00  0.00     0.031 C 
ATOM     33  C   UNL     1       9.637   4.117  10.198  1.00  0.00     0.029 A 
ATOM     34  C   UNL     1       9.220   4.811   9.069  1.00  0.00     0.049 A 
ATOM     35  H   UNL     1       7.994   4.137   7.495  1.00  0.00     0.167 HD
ATOM     36  C   UNL     1       9.079   6.832   7.590  1.00  0.00     0.074 A 
ATOM     37  C   UNL     1       9.424   8.205   7.264  1.00  0.00     0.031 C 
ATOM     38  C   UNL     1       9.530   6.173   8.690  1.00  0.00     0.034 A 
BRANCH  25  39
ATOM     39  C   UNL     1       7.639   0.249   9.254  1.00  0.00     0.023 A 
ATOM     40  C   UNL     1       8.050  -0.969   8.683  1.00  0.00     0.031 A 
ATOM     41  C   UNL     1       7.060   0.210  10.535  1.00  0.00     0.131 A 
ATOM     42  C   UNL     1       7.787  -2.178   9.350  1.00  0.00     0.055 A 
ATOM     43  C   UNL     1       6.887  -0.986  11.232  1.00  0.00     0.041 A 
ATOM     44  F   UNL     1       6.608   1.333  11.115  1.00  0.00    -0.206 F 
ATOM     45  C   UNL     1       7.233  -2.192  10.632  1.00  0.00     0.022 A 
BRANCH  42  46
ATOM     46  S   UNL     1       7.999  -3.737   8.443  1.00  0.00     0.124 S 
ATOM     47  O   UNL     1       7.064  -3.562   7.334  1.00  0.00    -0.237 OA
ATOM     48  O   UNL     1       9.414  -3.711   8.094  1.00  0.00    -0.237 OA
ATOM     49  O   UNL     1       7.615  -4.757   9.417  1.00  0.00    -0.744 OA
ENDBRANCH  42  46
ENDBRANCH  25  39
BRANCH  26  50
ATOM     50  C   UNL     1       7.248   8.745   3.655  1.00  0.00     0.023 A 
ATOM     51  C   UNL     1       8.408   9.324   3.117  1.00  0.00     0.031 A 
ATOM     52  C   UNL     1       6.027   9.417   3.445  1.00  0.00     0.131 A 
ATOM     53  C   UNL     1       8.332  10.555   2.444  1.00  0.00     0.055 A 
ATOM     54  C   UNL     1       5.947  10.607   2.718  1.00  0.00     0.041 A 
ATOM     55  F   UNL     1       4.882   8.924   3.943  1.00  0.00    -0.206 F 
ATOM     56  C   UNL     1       7.108  11.192   2.227  1.00  0.00     0.022 A 
BRANCH  53  57
ATOM     57  S   UNL     1       9.874  11.374   1.954  1.00  0.00     0.124 S 
ATOM     58  O   UNL     1      10.580  11.463   3.227  1.00  0.00    -0.237 OA
ATOM     59  O   UNL     1      10.421  10.434   0.981  1.00  0.00    -0.237 OA
ATOM     60  O   UNL     1       9.422  12.649   1.401  1.00  0.00    -0.744 OA
ENDBRANCH  53  57
ENDBRANCH  26  50
BRANCH  38  61
ATOM     61  C   UNL     1      10.499   6.923   9.563  1.00  0.00     0.023 A 
ATOM     62  C   UNL     1      10.118   8.070  10.276  1.00  0.00     0.031 A 
ATOM     63  C   UNL     1      11.831   6.484   9.664  1.00  0.00     0.131 A 
ATOM     64  C   UNL     1      11.079   8.785  11.000  1.00  0.00     0.055 A 
ATOM     65  C   UNL     1      12.763   7.153  10.453  1.00  0.00     0.041 A 
ATOM     66  F   UNL     1      12.244   5.393   8.998  1.00  0.00    -0.206 F 
ATOM     67  C   UNL     1      12.393   8.321  11.113  1.00  0.00     0.022 A 
BRANCH  64  68
ATOM     68  S   UNL     1      10.620  10.399  11.684  1.00  0.00     0.124 S 
ATOM     69  O   UNL     1      10.172  11.115  10.494  1.00  0.00    -0.237 OA
ATOM     70  O   UNL     1       9.579  10.045  12.644  1.00  0.00    -0.237 OA
ATOM     71  O   UNL     1      11.866  10.887  12.272  1.00  0.00    -0.744 OA
ENDBRANCH  64  68
ENDBRANCH  38  61
ENDBRANCH  12  13
ENDBRANCH   5   7
ENDBRANCH   4   5
ENDBRANCH   3   4
ENDBRANCH   2   3
ENDBRANCH   1   2
BRANCH   1  72
ATOM     72  C   UNL     1       2.107   0.581  -1.452  1.00  0.00     0.202 C 
BRANCH  72  73
ATOM     73  C   UNL     1       1.961   0.826  -2.960  1.00  0.00     0.261 C 
BRANCH  73  74
ATOM     74  O   UNL     1       2.543  -0.222  -3.777  1.00  0.00    -0.463 OA
BRANCH  74  75
ATOM     75  C   UNL     1       3.901  -0.157  -3.853  1.00  0.00     0.309 C 
ATOM     76  O   UNL     1       4.542   0.688  -3.284  1.00  0.00    -0.252 OA
BRANCH  75  77
ATOM     77  C   UNL     1       4.551  -1.272  -4.642  1.00  0.00     0.111 C 
ATOM     78  C   UNL     1       4.120  -2.568  -3.911  1.00  0.00     0.016 C 
ATOM     79  C   UNL     1       6.122  -1.266  -4.703  1.00  0.00     0.093 C 
ATOM     80  C   UNL     1       4.568  -3.810  -4.648  1.00  0.00     0.001 C 
ATOM     81  C   UNL     1       6.557  -2.530  -5.479  1.00  0.00     0.014 C 
ATOM     82  C   UNL     1       6.079  -3.806  -4.806  1.00  0.00     0.001 C 
BRANCH  79  83
ATOM     83  C   UNL     1       7.148  -0.204  -5.201  1.00  0.00     0.228 C 
ATOM     84  O   UNL     1       8.275  -0.194  -4.681  1.00  0.00    -0.274 OA
ATOM     85  N   UNL     1       7.017   0.561  -6.314  1.00  0.00    -0.325 N 
ATOM     86  H   UNL     1       7.837   0.972  -6.674  1.00  0.00     0.169 HD
BRANCH  85  87
ATOM     87  C   UNL     1       5.841   0.816  -6.988  1.00  0.00     0.054 A 
ATOM     88  C   UNL     1       5.725   0.205  -8.246  1.00  0.00     0.027 A 
ATOM     89  C   UNL     1       4.765   1.454  -6.374  1.00  0.00     0.063 A 
ATOM     90  C   UNL     1       4.466  -0.015  -8.786  1.00  0.00     0.002 A 
ATOM     91  C   UNL     1       3.494   1.187  -6.920  1.00  0.00     0.016 A 
ATOM     92  C   UNL     1       3.344   0.411  -8.083  1.00  0.00     0.001 A 
BRANCH  89  93
ATOM     93  C   UNL     1       4.883   2.472  -5.248  1.00  0.00     0.256 C 
ATOM     94  O   UNL     1       3.870   3.128  -4.991  1.00  0.00    -0.269 OA
ATOM     95  N   UNL     1       6.140   2.797  -4.683  1.00  0.00    -0.334 N 
ATOM     96  C   UNL     1       6.447   4.221  -4.689  1.00  0.00     0.148 C 
ATOM     97  C   UNL     1       6.560   2.228  -3.373  1.00  0.00     0.148 C 
ATOM     98  C   UNL     1       7.926   4.447  -4.366  1.00  0.00     0.181 C 
ATOM     99  C   UNL     1       7.997   2.564  -2.971  1.00  0.00     0.181 C 
ATOM    100  O   UNL     1       8.243   3.967  -3.053  1.00  0.00    -0.378 OA
ENDBRANCH  89  93
ENDBRANCH  85  87
ENDBRANCH  79  83
ENDBRANCH  75  77
ENDBRANCH  74  75
ENDBRANCH  73  74
ENDBRANCH  72  73
ENDBRANCH   1  72
TORSDOF 20
