REMARK SMILES CC(C)Cc1ccc([C@H](CF)C(=O)OCCOCCOC(=O)c2ccc(-c3c4nc(c(-c5cc(S(=O)(=O)[O-])ccc5F)c5ccc([nH]5)c(-c5cc(S(=O)(=O)[O-])ccc5F)c5nc(c(-c6cc(S(=O)(=O)[O-])ccc6F)c6ccc3[nH]6)C=C5)C=C4)cc2)cc1
REMARK SMILES IDX 17 1 16 2 15 3 14 4 12 5 13 6 9 7 8 8 5 9 6 10 87 11 7 12
REMARK SMILES IDX 86 13 4 14 2 15 1 16 3 17 10 18 11 19 18 20 19 21 20 22
REMARK SMILES IDX 21 23 22 24 23 25 24 26 85 27 25 28 84 29 26 30 27 31 28 32
REMARK SMILES IDX 78 33 29 34 83 35 77 36 79 37 30 38 82 39 76 40 75 41 31 43
REMARK SMILES IDX 63 44 43 45 62 46 44 47 47 48 61 49 80 50 45 51 46 52 60 54
REMARK SMILES IDX 81 55 48 56 32 57 33 58 41 59 34 60 40 61 42 62 39 63 35 64
REMARK SMILES IDX 36 65 37 66 38 67 64 68 65 69 73 70 66 71 72 72 74 73 71 74
REMARK SMILES IDX 67 75 68 76 69 77 70 78 49 79 50 80 58 81 51 82 57 83 59 84
REMARK SMILES IDX 56 85 52 86 53 87 54 88 55 89
REMARK H PARENT 79 42 47 53
REMARK Flexibility Score: inf
ROOT
ATOM      1  O   UNL     1       0.588  -1.038  -6.449  1.00  0.00    -0.374 OA
ENDROOT
BRANCH   1   2
ATOM      2  C   UNL     1      -0.215   0.135  -6.564  1.00  0.00     0.202 C 
BRANCH   2   3
ATOM      3  C   UNL     1      -1.734  -0.056  -6.635  1.00  0.00     0.261 C 
BRANCH   3   4
ATOM      4  O   UNL     1      -2.290  -0.613  -5.429  1.00  0.00    -0.463 OA
BRANCH   4   5
ATOM      5  C   UNL     1      -2.686  -1.914  -5.511  1.00  0.00     0.316 C 
ATOM      6  O   UNL     1      -2.557  -2.621  -6.506  1.00  0.00    -0.251 OA
BRANCH   5   7
ATOM      7  C   UNL     1      -3.342  -2.413  -4.229  1.00  0.00     0.160 C 
BRANCH   7   8
ATOM      8  C   UNL     1      -4.851  -2.229  -4.297  1.00  0.00    -0.031 A 
ATOM      9  C   UNL     1      -7.601  -1.713  -4.645  1.00  0.00    -0.048 A 
ATOM     10  C   UNL     1      -6.902  -2.461  -5.594  1.00  0.00     0.004 A 
ATOM     11  C   UNL     1      -6.943  -1.305  -3.481  1.00  0.00     0.004 A 
ATOM     12  C   UNL     1      -5.546  -2.724  -5.416  1.00  0.00     0.005 A 
ATOM     13  C   UNL     1      -5.583  -1.563  -3.307  1.00  0.00     0.005 A 
BRANCH   9  14
ATOM     14  C   UNL     1      -9.020  -1.279  -4.912  1.00  0.00     0.038 C 
BRANCH  14  15
ATOM     15  C   UNL     1      -9.126   0.232  -5.207  1.00  0.00    -0.013 C 
ATOM     16  C   UNL     1      -8.368   0.634  -6.476  1.00  0.00     0.008 C 
ATOM     17  C   UNL     1     -10.596   0.633  -5.332  1.00  0.00     0.008 C 
ENDBRANCH  14  15
ENDBRANCH   9  14
ENDBRANCH   7   8
BRANCH   7  18
ATOM     18  C   UNL     1      -2.640  -1.823  -3.006  1.00  0.00     0.234 C 
ATOM     19  F   UNL     1      -2.960  -2.564  -1.905  1.00  0.00    -0.250 F 
ENDBRANCH   7  18
ENDBRANCH   5   7
ENDBRANCH   4   5
ENDBRANCH   3   4
ENDBRANCH   2   3
ENDBRANCH   1   2
BRANCH   1  20
ATOM     20  C   UNL     1       0.628  -1.706  -5.192  1.00  0.00     0.202 C 
BRANCH  20  21
ATOM     21  C   UNL     1       1.373  -1.019  -4.040  1.00  0.00     0.261 C 
BRANCH  21  22
ATOM     22  O   UNL     1       0.798   0.249  -3.674  1.00  0.00    -0.460 OA
BRANCH  22  23
ATOM     23  C   UNL     1       1.622   1.308  -3.871  1.00  0.00     0.338 C 
ATOM     24  O   UNL     1       2.791   1.265  -4.242  1.00  0.00    -0.246 OA
BRANCH  23  25
ATOM     25  C   UNL     1       0.889   2.581  -3.761  1.00  0.00     0.060 A 
ATOM     26  C   UNL     1       0.948   3.449  -4.859  1.00  0.00     0.016 A 
ATOM     27  C   UNL     1       0.255   2.975  -2.580  1.00  0.00     0.016 A 
ATOM     28  C   UNL     1       0.422   4.735  -4.763  1.00  0.00     0.010 A 
ATOM     29  C   UNL     1      -0.267   4.273  -2.484  1.00  0.00     0.010 A 
ATOM     30  C   UNL     1      -0.152   5.172  -3.561  1.00  0.00    -0.014 A 
BRANCH  30  31
ATOM     31  C   UNL     1      -0.483   6.612  -3.406  1.00  0.00     0.031 A 
ATOM     32  C   UNL     1       0.485   7.514  -2.686  1.00  0.00     0.074 A 
ATOM     33  C   UNL     1      -1.597   7.125  -3.960  1.00  0.00     0.049 A 
ATOM     34  N   UNL     1       0.415   8.801  -2.464  1.00  0.00    -0.248 NA
ATOM     35  C   UNL     1       1.694   6.875  -2.144  1.00  0.00     0.031 C 
ATOM     36  C   UNL     1      -2.587   6.363  -4.719  1.00  0.00     0.029 A 
ATOM     37  N   UNL     1      -2.078   8.410  -3.975  1.00  0.00    -0.354 N 
ATOM     38  C   UNL     1       1.571   9.130  -1.763  1.00  0.00     0.074 A 
ATOM     39  C   UNL     1       2.301   7.896  -1.559  1.00  0.00     0.031 C 
ATOM     40  C   UNL     1      -3.560   7.196  -5.125  1.00  0.00     0.029 A 
ATOM     41  C   UNL     1      -3.280   8.543  -4.630  1.00  0.00     0.049 A 
ATOM     42  H   UNL     1      -1.607   9.167  -3.557  1.00  0.00     0.167 HD
ATOM     43  C   UNL     1       1.990  10.349  -1.339  1.00  0.00     0.034 A 
ATOM     44  C   UNL     1      -4.072   9.622  -4.796  1.00  0.00     0.034 A 
ATOM     45  C   UNL     1       1.248  11.570  -1.538  1.00  0.00     0.049 A 
ATOM     46  C   UNL     1      -3.626  10.953  -4.240  1.00  0.00     0.074 A 
ATOM     47  C   UNL     1       1.590  12.858  -1.163  1.00  0.00     0.029 A 
ATOM     48  N   UNL     1       0.005  11.655  -2.152  1.00  0.00    -0.354 N 
ATOM     49  N   UNL     1      -2.523  11.251  -3.592  1.00  0.00    -0.248 NA
ATOM     50  C   UNL     1      -4.528  12.094  -4.449  1.00  0.00     0.031 C 
ATOM     51  C   UNL     1       0.525  13.708  -1.486  1.00  0.00     0.029 A 
ATOM     52  C   UNL     1      -0.449  12.966  -2.133  1.00  0.00     0.049 A 
ATOM     53  H   UNL     1      -0.483  10.895  -2.544  1.00  0.00     0.167 HD
ATOM     54  C   UNL     1      -2.588  12.620  -3.342  1.00  0.00     0.074 A 
ATOM     55  C   UNL     1      -3.831  13.089  -3.921  1.00  0.00     0.031 C 
ATOM     56  C   UNL     1      -1.699  13.419  -2.699  1.00  0.00     0.034 A 
BRANCH  43  57
ATOM     57  C   UNL     1       3.290  10.405  -0.572  1.00  0.00     0.023 A 
ATOM     58  C   UNL     1       4.519  10.069  -1.169  1.00  0.00     0.031 A 
ATOM     59  C   UNL     1       3.297  10.774   0.785  1.00  0.00     0.131 A 
ATOM     60  C   UNL     1       5.689  10.042  -0.394  1.00  0.00     0.055 A 
ATOM     61  C   UNL     1       4.476  10.820   1.530  1.00  0.00     0.041 A 
ATOM     62  F   UNL     1       2.152  11.084   1.414  1.00  0.00    -0.206 F 
ATOM     63  C   UNL     1       5.680  10.438   0.945  1.00  0.00     0.022 A 
BRANCH  60  64
ATOM     64  S   UNL     1       7.198   9.349  -1.124  1.00  0.00     0.124 S 
ATOM     65  O   UNL     1       6.760   8.002  -1.482  1.00  0.00    -0.237 OA
ATOM     66  O   UNL     1       7.455  10.255  -2.237  1.00  0.00    -0.237 OA
ATOM     67  O   UNL     1       8.167   9.411  -0.032  1.00  0.00    -0.744 OA
ENDBRANCH  60  64
ENDBRANCH  43  57
BRANCH  44  68
ATOM     68  C   UNL     1      -5.388   9.491  -5.485  1.00  0.00     0.023 A 
ATOM     69  C   UNL     1      -5.651  10.158  -6.692  1.00  0.00     0.031 A 
ATOM     70  C   UNL     1      -6.424   8.734  -4.910  1.00  0.00     0.131 A 
ATOM     71  C   UNL     1      -6.932  10.089  -7.263  1.00  0.00     0.055 A 
ATOM     72  C   UNL     1      -7.681   8.627  -5.508  1.00  0.00     0.041 A 
ATOM     73  F   UNL     1      -6.226   8.078  -3.755  1.00  0.00    -0.206 F 
ATOM     74  C   UNL     1      -7.944   9.318  -6.686  1.00  0.00     0.022 A 
BRANCH  71  75
ATOM     75  S   UNL     1      -7.283  11.088  -8.736  1.00  0.00     0.124 S 
ATOM     76  O   UNL     1      -7.001  12.436  -8.254  1.00  0.00    -0.237 OA
ATOM     77  O   UNL     1      -6.338  10.541  -9.704  1.00  0.00    -0.237 OA
ATOM     78  O   UNL     1      -8.690  10.805  -9.012  1.00  0.00    -0.744 OA
ENDBRANCH  71  75
ENDBRANCH  44  68
BRANCH  56  79
ATOM     79  C   UNL     1      -2.024  14.892  -2.626  1.00  0.00     0.023 A 
ATOM     80  C   UNL     1      -3.108  15.376  -1.872  1.00  0.00     0.031 A 
ATOM     81  C   UNL     1      -1.243  15.824  -3.333  1.00  0.00     0.131 A 
ATOM     82  C   UNL     1      -3.414  16.746  -1.886  1.00  0.00     0.055 A 
ATOM     83  C   UNL     1      -1.516  17.192  -3.296  1.00  0.00     0.041 A 
ATOM     84  F   UNL     1      -0.197  15.419  -4.070  1.00  0.00    -0.206 F 
ATOM     85  C   UNL     1      -2.615  17.659  -2.580  1.00  0.00     0.022 A 
BRANCH  82  86
ATOM     86  S   UNL     1      -4.924  17.311  -1.055  1.00  0.00     0.124 S 
ATOM     87  O   UNL     1      -5.956  16.544  -1.745  1.00  0.00    -0.237 OA
ATOM     88  O   UNL     1      -4.675  16.939   0.334  1.00  0.00    -0.237 OA
ATOM     89  O   UNL     1      -4.942  18.749  -1.317  1.00  0.00    -0.744 OA
ENDBRANCH  82  86
ENDBRANCH  56  79
ENDBRANCH  30  31
ENDBRANCH  23  25
ENDBRANCH  22  23
ENDBRANCH  21  22
ENDBRANCH  20  21
ENDBRANCH   1  20
TORSDOF 21
