REMARK SMILES CC[C@@H](C)N(CC(=O)OCCOCCOC(=O)c1ccc(-c2c3nc(c(-c4cc(S(=O)(=O)[O-])ccc4F)c4ccc([nH]4)c(-c4cc(S(=O)(=O)[O-])ccc4F)c4nc(c(-c5cc(S(=O)(=O)[O-])ccc5F)c5ccc2[nH]5)C=C4)C=C3)cc1)C(=O)NCc1cscc1C
REMARK SMILES IDX 11 1 10 2 9 3 7 4 8 5 6 6 5 7 3 8 4 9 2 10 1 11 81 12 82 13
REMARK SMILES IDX 83 14 84 16 85 17 86 18 89 19 87 20 88 21 90 22 12 23 13 24
REMARK SMILES IDX 14 25 15 26 16 27 17 28 18 29 19 30 80 31 20 32 79 33 21 34
REMARK SMILES IDX 22 35 23 36 73 37 24 38 78 39 72 40 74 41 25 42 77 43 71 44
REMARK SMILES IDX 70 45 26 47 58 48 38 49 57 50 39 51 42 52 56 53 75 54 40 55
REMARK SMILES IDX 41 56 55 58 76 59 43 60 27 61 28 62 36 63 29 64 35 65 37 66
REMARK SMILES IDX 34 67 30 68 31 69 32 70 33 71 59 72 60 73 68 74 61 75 67 76
REMARK SMILES IDX 69 77 66 78 62 79 63 80 64 81 65 82 44 83 45 84 53 85 46 86
REMARK SMILES IDX 52 87 54 88 51 89 47 90 48 91 49 92 50 93
REMARK H PARENT 83 15 74 46 42 57
REMARK Flexibility Score: inf
ROOT
ATOM      1  C   UNL     1       1.544  -7.217   2.589  1.00  0.00     0.202 C 
ENDROOT
BRANCH   1   2
ATOM      2  C   UNL     1       2.793  -6.766   1.787  1.00  0.00     0.261 C 
BRANCH   2   3
ATOM      3  O   UNL     1       2.520  -5.628   0.922  1.00  0.00    -0.462 OA
BRANCH   3   4
ATOM      4  C   UNL     1       2.627  -5.841  -0.414  1.00  0.00     0.325 C 
ATOM      5  O   UNL     1       3.347  -6.706  -0.908  1.00  0.00    -0.250 OA
BRANCH   4   6
ATOM      6  C   UNL     1       1.833  -4.853  -1.310  1.00  0.00     0.244 C 
BRANCH   6   7
ATOM      7  N   UNL     1       0.701  -3.995  -0.878  1.00  0.00    -0.311 N 
BRANCH   7   8
ATOM      8  C   UNL     1       1.102  -2.749  -0.126  1.00  0.00     0.084 C 
ATOM      9  C   UNL     1       0.567  -2.692   1.315  1.00  0.00     0.031 C 
BRANCH   8  10
ATOM     10  C   UNL     1       0.760  -1.451  -0.906  1.00  0.00     0.021 C 
ATOM     11  C   UNL     1       1.311  -0.175  -0.278  1.00  0.00     0.006 C 
ENDBRANCH   8  10
ENDBRANCH   7   8
BRANCH   7  12
ATOM     12  C   UNL     1      -0.634  -4.161  -1.159  1.00  0.00     0.318 C 
ATOM     13  O   UNL     1      -1.464  -3.296  -0.848  1.00  0.00    -0.249 OA
ATOM     14  N   UNL     1      -1.231  -5.238  -1.694  1.00  0.00    -0.334 N 
ATOM     15  H   UNL     1      -2.189  -5.212  -1.465  1.00  0.00     0.165 HD
BRANCH  14  16
ATOM     16  C   UNL     1      -0.975  -6.428  -2.488  1.00  0.00     0.154 C 
BRANCH  16  17
ATOM     17  C   UNL     1      -1.297  -7.758  -1.824  1.00  0.00    -0.015 A 
ATOM     18  C   UNL     1      -0.483  -8.854  -2.093  1.00  0.00     0.070 A 
ATOM     19  C   UNL     1      -2.410  -8.190  -0.974  1.00  0.00    -0.035 A 
ATOM     20  S   UNL     1      -0.892 -10.267  -1.241  1.00  0.00    -0.152 S 
ATOM     21  C   UNL     1      -2.215  -9.489  -0.519  1.00  0.00     0.068 A 
ATOM     22  C   UNL     1      -3.638  -7.448  -0.539  1.00  0.00     0.045 C 
ENDBRANCH  16  17
ENDBRANCH  14  16
ENDBRANCH   7  12
ENDBRANCH   6   7
ENDBRANCH   4   6
ENDBRANCH   3   4
ENDBRANCH   2   3
ENDBRANCH   1   2
BRANCH   1  23
ATOM     23  O   UNL     1       0.358  -7.467   1.823  1.00  0.00    -0.374 OA
BRANCH  23  24
ATOM     24  C   UNL     1      -0.102  -6.310   1.138  1.00  0.00     0.202 C 
BRANCH  24  25
ATOM     25  C   UNL     1      -1.485  -5.800   1.463  1.00  0.00     0.261 C 
BRANCH  25  26
ATOM     26  O   UNL     1      -1.546  -5.486   2.830  1.00  0.00    -0.460 OA
BRANCH  26  27
ATOM     27  C   UNL     1      -2.062  -6.489   3.563  1.00  0.00     0.338 C 
ATOM     28  O   UNL     1      -2.631  -7.496   3.199  1.00  0.00    -0.246 OA
BRANCH  27  29
ATOM     29  C   UNL     1      -1.619  -6.188   4.912  1.00  0.00     0.060 A 
ATOM     30  C   UNL     1      -1.165  -7.258   5.677  1.00  0.00     0.016 A 
ATOM     31  C   UNL     1      -1.602  -4.859   5.364  1.00  0.00     0.016 A 
ATOM     32  C   UNL     1      -0.757  -7.005   6.965  1.00  0.00     0.010 A 
ATOM     33  C   UNL     1      -1.160  -4.601   6.639  1.00  0.00     0.010 A 
ATOM     34  C   UNL     1      -0.797  -5.687   7.442  1.00  0.00    -0.014 A 
BRANCH  34  35
ATOM     35  C   UNL     1      -0.618  -5.462   8.870  1.00  0.00     0.031 A 
ATOM     36  C   UNL     1      -1.852  -5.288   9.693  1.00  0.00     0.074 A 
ATOM     37  C   UNL     1       0.633  -5.451   9.344  1.00  0.00     0.049 A 
ATOM     38  N   UNL     1      -1.964  -5.081  10.972  1.00  0.00    -0.248 NA
ATOM     39  C   UNL     1      -3.139  -5.338   8.973  1.00  0.00     0.031 C 
ATOM     40  C   UNL     1       1.841  -5.631   8.531  1.00  0.00     0.029 A 
ATOM     41  N   UNL     1       1.096  -5.293  10.611  1.00  0.00    -0.354 N 
ATOM     42  C   UNL     1      -3.328  -4.976  11.212  1.00  0.00     0.074 A 
ATOM     43  C   UNL     1      -4.004  -5.087   9.941  1.00  0.00     0.031 C 
ATOM     44  C   UNL     1       2.914  -5.589   9.335  1.00  0.00     0.029 A 
ATOM     45  C   UNL     1       2.465  -5.341  10.698  1.00  0.00     0.049 A 
ATOM     46  H   UNL     1       0.509  -5.158  11.390  1.00  0.00     0.167 HD
ATOM     47  C   UNL     1      -3.941  -4.810  12.406  1.00  0.00     0.034 A 
ATOM     48  C   UNL     1       3.245  -5.186  11.780  1.00  0.00     0.034 A 
ATOM     49  C   UNL     1      -3.188  -4.683  13.629  1.00  0.00     0.049 A 
ATOM     50  C   UNL     1       2.538  -4.979  13.093  1.00  0.00     0.074 A 
ATOM     51  C   UNL     1      -3.643  -4.493  14.918  1.00  0.00     0.029 A 
ATOM     52  N   UNL     1      -1.795  -4.725  13.697  1.00  0.00    -0.354 N 
ATOM     53  N   UNL     1       1.244  -4.890  13.328  1.00  0.00    -0.248 NA
ATOM     54  C   UNL     1       3.381  -4.873  14.283  1.00  0.00     0.031 C 
ATOM     55  C   UNL     1      -2.526  -4.359  15.752  1.00  0.00     0.029 A 
ATOM     56  C   UNL     1      -1.373  -4.543  15.001  1.00  0.00     0.049 A 
ATOM     57  H   UNL     1      -1.198  -4.865  12.927  1.00  0.00     0.167 HD
ATOM     58  C   UNL     1       1.115  -4.734  14.701  1.00  0.00     0.074 A 
ATOM     59  C   UNL     1       2.467  -4.773  15.237  1.00  0.00     0.031 C 
ATOM     60  C   UNL     1      -0.001  -4.570  15.460  1.00  0.00     0.034 A 
BRANCH  47  61
ATOM     61  C   UNL     1      -5.447  -4.695  12.404  1.00  0.00     0.023 A 
ATOM     62  C   UNL     1      -6.275  -5.737  11.943  1.00  0.00     0.031 A 
ATOM     63  C   UNL     1      -6.066  -3.495  12.794  1.00  0.00     0.131 A 
ATOM     64  C   UNL     1      -7.659  -5.534  11.812  1.00  0.00     0.055 A 
ATOM     65  C   UNL     1      -7.452  -3.326  12.738  1.00  0.00     0.041 A 
ATOM     66  F   UNL     1      -5.332  -2.451  13.208  1.00  0.00    -0.206 F 
ATOM     67  C   UNL     1      -8.256  -4.343  12.231  1.00  0.00     0.022 A 
BRANCH  64  68
ATOM     68  S   UNL     1      -8.650  -6.788  10.953  1.00  0.00     0.124 S 
ATOM     69  O   UNL     1      -8.034  -6.794   9.628  1.00  0.00    -0.237 OA
ATOM     70  O   UNL     1      -8.429  -7.978  11.766  1.00  0.00    -0.237 OA
ATOM     71  O   UNL     1     -10.006  -6.245  10.999  1.00  0.00    -0.744 OA
ENDBRANCH  64  68
ENDBRANCH  47  61
BRANCH  48  72
ATOM     72  C   UNL     1       4.725  -5.227  11.650  1.00  0.00     0.023 A 
ATOM     73  C   UNL     1       5.481  -6.232  12.269  1.00  0.00     0.031 A 
ATOM     74  C   UNL     1       5.410  -4.267  10.882  1.00  0.00     0.131 A 
ATOM     75  C   UNL     1       6.879  -6.237  12.140  1.00  0.00     0.055 A 
ATOM     76  C   UNL     1       6.796  -4.303  10.715  1.00  0.00     0.041 A 
ATOM     77  F   UNL     1       4.735  -3.291  10.253  1.00  0.00    -0.206 F 
ATOM     78  C   UNL     1       7.540  -5.287  11.357  1.00  0.00     0.022 A 
BRANCH  75  79
ATOM     79  S   UNL     1       7.832  -7.466  13.071  1.00  0.00     0.124 S 
ATOM     80  O   UNL     1       7.366  -7.236  14.434  1.00  0.00    -0.237 OA
ATOM     81  O   UNL     1       7.404  -8.714  12.447  1.00  0.00    -0.237 OA
ATOM     82  O   UNL     1       9.220  -7.086  12.813  1.00  0.00    -0.744 OA
ENDBRANCH  75  79
ENDBRANCH  48  72
BRANCH  60  83
ATOM     83  C   UNL     1       0.231  -4.444  16.941  1.00  0.00     0.023 A 
ATOM     84  C   UNL     1       0.898  -3.332  17.479  1.00  0.00     0.031 A 
ATOM     85  C   UNL     1      -0.191  -5.461  17.812  1.00  0.00     0.131 A 
ATOM     86  C   UNL     1       1.197  -3.302  18.846  1.00  0.00     0.055 A 
ATOM     87  C   UNL     1       0.043  -5.388  19.183  1.00  0.00     0.041 A 
ATOM     88  F   UNL     1      -0.833  -6.543  17.341  1.00  0.00    -0.206 F 
ATOM     89  C   UNL     1       0.757  -4.313  19.705  1.00  0.00     0.022 A 
BRANCH  86  90
ATOM     90  S   UNL     1       2.282  -1.986  19.458  1.00  0.00     0.124 S 
ATOM     91  O   UNL     1       3.481  -2.184  18.650  1.00  0.00    -0.237 OA
ATOM     92  O   UNL     1       1.508  -0.783  19.167  1.00  0.00    -0.237 OA
ATOM     93  O   UNL     1       2.431  -2.300  20.878  1.00  0.00    -0.744 OA
ENDBRANCH  86  90
ENDBRANCH  60  83
ENDBRANCH  34  35
ENDBRANCH  27  29
ENDBRANCH  26  27
ENDBRANCH  25  26
ENDBRANCH  24  25
ENDBRANCH  23  24
ENDBRANCH   1  23
TORSDOF 23
