REMARK SMILES COCCCC(=O)N[C@H]1CC[C@@H](C(=O)OCCOCCOC(=O)c2ccc(-c3c4nc(c(-c5cc(S(=O)(=O)[O-])ccc5F)c5ccc([nH]5)c(-c5cc(S(=O)(=O)[O-])ccc5F)c5nc(c(-c6cc(S(=O)(=O)[O-])ccc6F)c6ccc3[nH]6)C=C5)C=C4)cc2)CC1
REMARK SMILES IDX 17 1 16 2 15 3 13 4 14 5 12 6 9 7 10 8 88 9 11 10 87 11 8 12
REMARK SMILES IDX 6 13 7 14 5 16 4 17 3 18 2 19 1 20 18 21 19 22 20 23 21 24
REMARK SMILES IDX 22 25 23 26 24 27 25 28 86 29 26 30 85 31 27 32 28 33 29 34
REMARK SMILES IDX 79 35 30 36 84 37 78 38 80 39 31 40 83 41 77 42 76 43 32 45
REMARK SMILES IDX 64 46 44 47 63 48 45 49 48 50 62 51 81 52 46 53 47 54 61 56
REMARK SMILES IDX 82 57 49 58 33 59 34 60 42 61 35 62 41 63 43 64 40 65 36 66
REMARK SMILES IDX 37 67 38 68 39 69 65 70 66 71 74 72 67 73 73 74 75 75 72 76
REMARK SMILES IDX 68 77 69 78 70 79 71 80 50 81 51 82 59 83 52 84 58 85 60 86
REMARK SMILES IDX 57 87 53 88 54 89 55 90 56 91
REMARK H PARENT 8 15 80 44 48 55
REMARK Flexibility Score: inf
ROOT
ATOM      1  C   UNL     1       6.929   3.079   3.571  1.00  0.00     0.202 C 
ENDROOT
BRANCH   1   2
ATOM      2  C   UNL     1       5.964   2.227   4.396  1.00  0.00     0.261 C 
BRANCH   2   3
ATOM      3  O   UNL     1       4.792   1.895   3.633  1.00  0.00    -0.463 OA
BRANCH   3   4
ATOM      4  C   UNL     1       3.624   2.444   4.048  1.00  0.00     0.309 C 
ATOM      5  O   UNL     1       3.484   3.156   5.035  1.00  0.00    -0.252 OA
BRANCH   4   6
ATOM      6  C   UNL     1       2.460   2.034   3.163  1.00  0.00     0.099 C 
ATOM      7  C   UNL     1       2.742  -0.411   1.506  1.00  0.00     0.082 C 
ATOM      8  C   UNL     1       2.667  -0.500   3.034  1.00  0.00     0.026 C 
ATOM      9  C   UNL     1       3.444   0.870   1.069  1.00  0.00     0.026 C 
ATOM     10  C   UNL     1       1.923   0.687   3.639  1.00  0.00     0.017 C 
ATOM     11  C   UNL     1       2.714   2.088   1.646  1.00  0.00     0.017 C 
BRANCH   7  12
ATOM     12  N   UNL     1       3.334  -1.614   0.972  1.00  0.00    -0.353 N 
ATOM     13  C   UNL     1       2.712  -2.720   0.471  1.00  0.00     0.220 C 
ATOM     14  O   UNL     1       3.370  -3.755   0.368  1.00  0.00    -0.275 OA
ATOM     15  H   UNL     1       4.319  -1.640   0.968  1.00  0.00     0.163 HD
BRANCH  13  16
ATOM     16  C   UNL     1       1.280  -2.662  -0.046  1.00  0.00     0.102 C 
BRANCH  16  17
ATOM     17  C   UNL     1       0.138  -2.781   0.968  1.00  0.00     0.038 C 
BRANCH  17  18
ATOM     18  C   UNL     1      -0.555  -1.514   1.483  1.00  0.00     0.160 C 
BRANCH  18  19
ATOM     19  O   UNL     1      -1.342  -0.770   0.558  1.00  0.00    -0.385 OA
ATOM     20  C   UNL     1      -0.669  -0.153  -0.524  1.00  0.00     0.194 C 
ENDBRANCH  18  19
ENDBRANCH  17  18
ENDBRANCH  16  17
ENDBRANCH  13  16
ENDBRANCH   7  12
ENDBRANCH   4   6
ENDBRANCH   3   4
ENDBRANCH   2   3
ENDBRANCH   1   2
BRANCH   1  21
ATOM     21  O   UNL     1       6.528   4.428   3.333  1.00  0.00    -0.374 OA
BRANCH  21  22
ATOM     22  C   UNL     1       5.539   4.649   2.331  1.00  0.00     0.202 C 
BRANCH  22  23
ATOM     23  C   UNL     1       6.006   4.587   0.870  1.00  0.00     0.261 C 
BRANCH  23  24
ATOM     24  O   UNL     1       6.427   3.267   0.474  1.00  0.00    -0.460 OA
BRANCH  24  25
ATOM     25  C   UNL     1       7.763   3.143   0.275  1.00  0.00     0.338 C 
ATOM     26  O   UNL     1       8.600   4.034   0.353  1.00  0.00    -0.246 OA
BRANCH  25  27
ATOM     27  C   UNL     1       8.137   1.726   0.121  1.00  0.00     0.060 A 
ATOM     28  C   UNL     1       9.100   1.216   1.000  1.00  0.00     0.016 A 
ATOM     29  C   UNL     1       7.640   0.937  -0.919  1.00  0.00     0.016 A 
ATOM     30  C   UNL     1       9.604  -0.070   0.818  1.00  0.00     0.010 A 
ATOM     31  C   UNL     1       8.156  -0.353  -1.106  1.00  0.00     0.010 A 
ATOM     32  C   UNL     1       9.163  -0.851  -0.259  1.00  0.00    -0.014 A 
BRANCH  32  33
ATOM     33  C   UNL     1       9.856  -2.131  -0.558  1.00  0.00     0.031 A 
ATOM     34  C   UNL     1      10.898  -2.167  -1.645  1.00  0.00     0.074 A 
ATOM     35  C   UNL     1       9.593  -3.236   0.164  1.00  0.00     0.049 A 
ATOM     36  N   UNL     1      11.608  -3.175  -2.080  1.00  0.00    -0.248 NA
ATOM     37  C   UNL     1      11.176  -0.895  -2.332  1.00  0.00     0.031 C 
ATOM     38  C   UNL     1       8.638  -3.311   1.269  1.00  0.00     0.029 A 
ATOM     39  N   UNL     1      10.100  -4.509   0.071  1.00  0.00    -0.354 N 
ATOM     40  C   UNL     1      12.411  -2.666  -3.096  1.00  0.00     0.074 A 
ATOM     41  C   UNL     1      12.082  -1.262  -3.227  1.00  0.00     0.031 C 
ATOM     42  C   UNL     1       8.615  -4.570   1.740  1.00  0.00     0.029 A 
ATOM     43  C   UNL     1       9.523  -5.398   0.949  1.00  0.00     0.049 A 
ATOM     44  H   UNL     1      10.809  -4.761  -0.563  1.00  0.00     0.167 HD
ATOM     45  C   UNL     1      13.339  -3.311  -3.845  1.00  0.00     0.034 A 
ATOM     46  C   UNL     1       9.683  -6.731   1.076  1.00  0.00     0.034 A 
ATOM     47  C   UNL     1      13.658  -4.711  -3.703  1.00  0.00     0.049 A 
ATOM     48  C   UNL     1      10.666  -7.440   0.173  1.00  0.00     0.074 A 
ATOM     49  C   UNL     1      14.611  -5.449  -4.383  1.00  0.00     0.029 A 
ATOM     50  N   UNL     1      13.021  -5.590  -2.837  1.00  0.00    -0.354 N 
ATOM     51  N   UNL     1      11.443  -6.938  -0.760  1.00  0.00    -0.248 NA
ATOM     52  C   UNL     1      10.799  -8.893   0.345  1.00  0.00     0.031 C 
ATOM     53  C   UNL     1      14.498  -6.785  -3.986  1.00  0.00     0.029 A 
ATOM     54  C   UNL     1      13.530  -6.870  -2.998  1.00  0.00     0.049 A 
ATOM     55  H   UNL     1      12.312  -5.341  -2.201  1.00  0.00     0.167 HD
ATOM     56  C   UNL     1      12.173  -8.012  -1.265  1.00  0.00     0.074 A 
ATOM     57  C   UNL     1      11.761  -9.181  -0.518  1.00  0.00     0.031 C 
ATOM     58  C   UNL     1      13.101  -8.031  -2.256  1.00  0.00     0.034 A 
BRANCH  45  59
ATOM     59  C   UNL     1      14.040  -2.525  -4.926  1.00  0.00     0.023 A 
ATOM     60  C   UNL     1      14.929  -1.478  -4.631  1.00  0.00     0.031 A 
ATOM     61  C   UNL     1      13.822  -2.845  -6.278  1.00  0.00     0.131 A 
ATOM     62  C   UNL     1      15.534  -0.760  -5.675  1.00  0.00     0.055 A 
ATOM     63  C   UNL     1      14.477  -2.171  -7.310  1.00  0.00     0.041 A 
ATOM     64  F   UNL     1      12.965  -3.821  -6.619  1.00  0.00    -0.206 F 
ATOM     65  C   UNL     1      15.333  -1.116  -7.011  1.00  0.00     0.022 A 
BRANCH  62  66
ATOM     66  S   UNL     1      16.512   0.713  -5.269  1.00  0.00     0.124 S 
ATOM     67  O   UNL     1      15.520   1.552  -4.602  1.00  0.00    -0.237 OA
ATOM     68  O   UNL     1      17.565   0.169  -4.420  1.00  0.00    -0.237 OA
ATOM     69  O   UNL     1      16.954   1.201  -6.574  1.00  0.00    -0.744 OA
ENDBRANCH  62  66
ENDBRANCH  45  59
BRANCH  46  70
ATOM     70  C   UNL     1       8.855  -7.508   2.045  1.00  0.00     0.023 A 
ATOM     71  C   UNL     1       9.441  -8.237   3.092  1.00  0.00     0.031 A 
ATOM     72  C   UNL     1       7.460  -7.599   1.881  1.00  0.00     0.131 A 
ATOM     73  C   UNL     1       8.645  -9.067   3.898  1.00  0.00     0.055 A 
ATOM     74  C   UNL     1       6.665  -8.376   2.724  1.00  0.00     0.041 A 
ATOM     75  F   UNL     1       6.849  -6.931   0.891  1.00  0.00    -0.206 F 
ATOM     76  C   UNL     1       7.260  -9.130   3.730  1.00  0.00     0.022 A 
BRANCH  73  77
ATOM     77  S   UNL     1       9.463 -10.153   5.099  1.00  0.00     0.124 S 
ATOM     78  O   UNL     1      10.386 -10.896   4.249  1.00  0.00    -0.237 OA
ATOM     79  O   UNL     1      10.067  -9.191   6.014  1.00  0.00    -0.237 OA
ATOM     80  O   UNL     1       8.361 -10.934   5.657  1.00  0.00    -0.744 OA
ENDBRANCH  73  77
ENDBRANCH  46  70
BRANCH  58  81
ATOM     81  C   UNL     1      13.759  -9.357  -2.556  1.00  0.00     0.023 A 
ATOM     82  C   UNL     1      13.038 -10.435  -3.099  1.00  0.00     0.031 A 
ATOM     83  C   UNL     1      15.125  -9.548  -2.281  1.00  0.00     0.131 A 
ATOM     84  C   UNL     1      13.672 -11.671  -3.298  1.00  0.00     0.055 A 
ATOM     85  C   UNL     1      15.765 -10.761  -2.540  1.00  0.00     0.041 A 
ATOM     86  F   UNL     1      15.863  -8.554  -1.760  1.00  0.00    -0.206 F 
ATOM     87  C   UNL     1      15.035 -11.836  -3.038  1.00  0.00     0.022 A 
BRANCH  84  88
ATOM     88  S   UNL     1      12.670 -13.092  -3.815  1.00  0.00     0.124 S 
ATOM     89  O   UNL     1      11.695 -13.186  -2.734  1.00  0.00    -0.237 OA
ATOM     90  O   UNL     1      12.150 -12.655  -5.107  1.00  0.00    -0.237 OA
ATOM     91  O   UNL     1      13.635 -14.189  -3.877  1.00  0.00    -0.744 OA
ENDBRANCH  84  88
ENDBRANCH  58  81
ENDBRANCH  32  33
ENDBRANCH  25  27
ENDBRANCH  24  25
ENDBRANCH  23  24
ENDBRANCH  22  23
ENDBRANCH  21  22
ENDBRANCH   1  21
TORSDOF 22
