REMARK SMILES CS(=O)(=O)c1ccc(C2=NN(c3ccc(C(=O)OCCOCCOC(=O)c4ccc(-c5c6nc(c(-c7cc(S(=O)(=O)[O-])ccc7F)c7ccc([nH]7)c(-c7cc(S(=O)(=O)[O-])ccc7F)c7nc(c(-c8cc(S(=O)(=O)[O-])ccc8F)c8ccc5[nH]8)C=C7)C=C6)cc4)cc3)[C@H](c3ccc(F)cc3)C2)cc1
REMARK SMILES IDX 21 1 20 2 19 3 18 4 16 5 17 6 15 7 12 8 13 9 91 10 14 11
REMARK SMILES IDX 90 12 11 13 9 14 10 15 100 16 92 17 8 18 5 19 6 20 102 21
REMARK SMILES IDX 7 22 101 23 2 24 1 25 3 26 4 27 93 28 94 29 99 30 95 31
REMARK SMILES IDX 98 32 96 33 97 34 22 35 23 36 24 37 25 38 26 39 27 40 28 41
REMARK SMILES IDX 89 42 29 43 88 44 30 45 31 46 32 47 82 48 33 49 87 50 81 51
REMARK SMILES IDX 83 52 34 53 86 54 80 55 79 56 35 58 67 59 47 60 66 61 48 62
REMARK SMILES IDX 51 63 65 64 84 65 49 66 50 67 64 69 85 70 52 71 36 72 37 73
REMARK SMILES IDX 45 74 38 75 44 76 46 77 43 78 39 79 40 80 41 81 42 82 68 83
REMARK SMILES IDX 69 84 77 85 70 86 76 87 78 88 75 89 71 90 72 91 73 92 74 93
REMARK SMILES IDX 53 94 54 95 62 96 55 97 61 98 63 99 60 100 56 101 57 102
REMARK SMILES IDX 58 103 59 104
REMARK H PARENT 83 57 51 68
REMARK Flexibility Score: inf
ROOT
ATOM      1  O   UNL     1      -0.963 -14.520  -5.976  1.00  0.00    -0.374 OA
ENDROOT
BRANCH   1   2
ATOM      2  C   UNL     1      -0.473 -15.634  -5.226  1.00  0.00     0.202 C 
BRANCH   2   3
ATOM      3  C   UNL     1       0.988 -15.551  -4.776  1.00  0.00     0.261 C 
BRANCH   3   4
ATOM      4  O   UNL     1       1.172 -14.475  -3.842  1.00  0.00    -0.460 OA
BRANCH   4   5
ATOM      5  C   UNL     1       1.907 -13.432  -4.291  1.00  0.00     0.338 C 
ATOM      6  O   UNL     1       2.551 -13.383  -5.330  1.00  0.00    -0.246 OA
BRANCH   5   7
ATOM      7  C   UNL     1       1.762 -12.264  -3.386  1.00  0.00     0.060 A 
ATOM      8  C   UNL     1       1.773 -10.019  -1.703  1.00  0.00     0.060 A 
ATOM      9  C   UNL     1       2.130  -9.890  -3.048  1.00  0.00     0.029 A 
ATOM     10  C   UNL     1       1.286 -11.252  -1.246  1.00  0.00     0.029 A 
ATOM     11  C   UNL     1       2.132 -11.008  -3.884  1.00  0.00     0.018 A 
ATOM     12  C   UNL     1       1.286 -12.376  -2.075  1.00  0.00     0.018 A 
BRANCH   8  13
ATOM     13  N   UNL     1       2.078  -9.017  -0.777  1.00  0.00    -0.257 N 
ATOM     14  C   UNL     1       2.245  -6.945  -0.314  1.00  0.00     0.071 C 
ATOM     15  N   UNL     1       1.431  -7.823  -0.813  1.00  0.00    -0.176 NA
ATOM     16  C   UNL     1       3.641  -7.432  -0.036  1.00  0.00     0.091 C 
ATOM     17  C   UNL     1       3.466  -8.932  -0.298  1.00  0.00     0.144 C 
BRANCH  14  18
ATOM     18  C   UNL     1       1.845  -5.556  -0.017  1.00  0.00    -0.002 A 
ATOM     19  C   UNL     1       1.045  -2.986   0.715  1.00  0.00     0.067 A 
ATOM     20  C   UNL     1       0.134  -4.043   0.794  1.00  0.00     0.021 A 
ATOM     21  C   UNL     1       2.350  -3.203   0.260  1.00  0.00     0.021 A 
ATOM     22  C   UNL     1       0.534  -5.327   0.421  1.00  0.00     0.011 A 
ATOM     23  C   UNL     1       2.751  -4.493  -0.105  1.00  0.00     0.011 A 
BRANCH  19  24
ATOM     24  S   UNL     1       0.539  -1.364   1.240  1.00  0.00     0.175 S 
ATOM     25  C   UNL     1       1.045  -0.269  -0.057  1.00  0.00     0.163 C 
ATOM     26  O   UNL     1       1.315  -1.052   2.425  1.00  0.00    -0.224 OA
ATOM     27  O   UNL     1      -0.911  -1.345   1.267  1.00  0.00    -0.224 OA
ENDBRANCH  19  24
ENDBRANCH  14  18
BRANCH  17  28
ATOM     28  C   UNL     1       3.679  -9.893   0.865  1.00  0.00    -0.023 A 
ATOM     29  C   UNL     1       3.487  -9.538   2.209  1.00  0.00     0.009 A 
ATOM     30  C   UNL     1       3.992 -11.239   0.571  1.00  0.00     0.009 A 
ATOM     31  C   UNL     1       3.604 -10.496   3.221  1.00  0.00     0.039 A 
ATOM     32  C   UNL     1       4.070 -12.201   1.578  1.00  0.00     0.039 A 
ATOM     33  C   UNL     1       3.880 -11.818   2.896  1.00  0.00     0.123 A 
ATOM     34  F   UNL     1       3.952 -12.736   3.868  1.00  0.00    -0.207 F 
ENDBRANCH  17  28
ENDBRANCH   8  13
ENDBRANCH   5   7
ENDBRANCH   4   5
ENDBRANCH   3   4
ENDBRANCH   2   3
ENDBRANCH   1   2
BRANCH   1  35
ATOM     35  C   UNL     1      -1.341 -13.353  -5.246  1.00  0.00     0.202 C 
BRANCH  35  36
ATOM     36  C   UNL     1      -2.704 -13.378  -4.544  1.00  0.00     0.261 C 
BRANCH  36  37
ATOM     37  O   UNL     1      -2.776 -14.380  -3.516  1.00  0.00    -0.460 OA
BRANCH  37  38
ATOM     38  C   UNL     1      -3.545 -15.448  -3.837  1.00  0.00     0.338 C 
ATOM     39  O   UNL     1      -4.212 -15.588  -4.853  1.00  0.00    -0.246 OA
BRANCH  38  40
ATOM     40  C   UNL     1      -3.342 -16.545  -2.872  1.00  0.00     0.060 A 
ATOM     41  C   UNL     1      -3.097 -17.817  -3.401  1.00  0.00     0.016 A 
ATOM     42  C   UNL     1      -3.474 -16.364  -1.492  1.00  0.00     0.016 A 
ATOM     43  C   UNL     1      -3.058 -18.926  -2.562  1.00  0.00     0.010 A 
ATOM     44  C   UNL     1      -3.437 -17.483  -0.649  1.00  0.00     0.010 A 
ATOM     45  C   UNL     1      -3.278 -18.774  -1.186  1.00  0.00    -0.014 A 
BRANCH  45  46
ATOM     46  C   UNL     1      -3.518 -19.991  -0.369  1.00  0.00     0.031 A 
ATOM     47  C   UNL     1      -4.938 -20.382  -0.048  1.00  0.00     0.074 A 
ATOM     48  C   UNL     1      -2.497 -20.784   0.003  1.00  0.00     0.049 A 
ATOM     49  N   UNL     1      -5.389 -21.434   0.584  1.00  0.00    -0.248 NA
ATOM     50  C   UNL     1      -5.988 -19.458  -0.504  1.00  0.00     0.031 C 
ATOM     51  C   UNL     1      -1.085 -20.528  -0.281  1.00  0.00     0.029 A 
ATOM     52  N   UNL     1      -2.493 -21.973   0.688  1.00  0.00    -0.354 N 
ATOM     53  C   UNL     1      -6.774 -21.305   0.598  1.00  0.00     0.074 A 
ATOM     54  C   UNL     1      -7.082 -20.045  -0.045  1.00  0.00     0.031 C 
ATOM     55  C   UNL     1      -0.351 -21.536   0.222  1.00  0.00     0.029 A 
ATOM     56  C   UNL     1      -1.235 -22.493   0.884  1.00  0.00     0.049 A 
ATOM     57  H   UNL     1      -3.313 -22.411   1.010  1.00  0.00     0.167 HD
ATOM     58  C   UNL     1      -7.705 -22.163   1.086  1.00  0.00     0.034 A 
ATOM     59  C   UNL     1      -0.844 -23.611   1.528  1.00  0.00     0.034 A 
ATOM     60  C   UNL     1      -7.383 -23.410   1.737  1.00  0.00     0.049 A 
ATOM     61  C   UNL     1      -1.894 -24.521   2.120  1.00  0.00     0.074 A 
ATOM     62  C   UNL     1      -8.244 -24.355   2.268  1.00  0.00     0.029 A 
ATOM     63  N   UNL     1      -6.095 -23.884   1.957  1.00  0.00    -0.354 N 
ATOM     64  N   UNL     1      -3.202 -24.394   2.111  1.00  0.00    -0.248 NA
ATOM     65  C   UNL     1      -1.413 -25.736   2.789  1.00  0.00     0.031 C 
ATOM     66  C   UNL     1      -7.478 -25.362   2.867  1.00  0.00     0.029 A 
ATOM     67  C   UNL     1      -6.139 -25.091   2.639  1.00  0.00     0.049 A 
ATOM     68  H   UNL     1      -5.270 -23.428   1.670  1.00  0.00     0.167 HD
ATOM     69  C   UNL     1      -3.698 -25.532   2.744  1.00  0.00     0.074 A 
ATOM     70  C   UNL     1      -2.549 -26.339   3.102  1.00  0.00     0.031 C 
ATOM     71  C   UNL     1      -4.985 -25.881   3.003  1.00  0.00     0.034 A 
BRANCH  58  72
ATOM     72  C   UNL     1      -9.153 -21.747   0.974  1.00  0.00     0.023 A 
ATOM     73  C   UNL     1      -9.782 -21.575  -0.272  1.00  0.00     0.031 A 
ATOM     74  C   UNL     1      -9.906 -21.479   2.132  1.00  0.00     0.131 A 
ATOM     75  C   UNL     1     -11.093 -21.078  -0.334  1.00  0.00     0.055 A 
ATOM     76  C   UNL     1     -11.237 -21.062   2.066  1.00  0.00     0.041 A 
ATOM     77  F   UNL     1      -9.354 -21.602   3.349  1.00  0.00    -0.206 F 
ATOM     78  C   UNL     1     -11.834 -20.845   0.828  1.00  0.00     0.022 A 
BRANCH  75  79
ATOM     79  S   UNL     1     -11.768 -20.602  -1.949  1.00  0.00     0.124 S 
ATOM     80  O   UNL     1     -10.802 -19.598  -2.387  1.00  0.00    -0.237 OA
ATOM     81  O   UNL     1     -11.757 -21.863  -2.680  1.00  0.00    -0.237 OA
ATOM     82  O   UNL     1     -13.095 -20.080  -1.626  1.00  0.00    -0.744 OA
ENDBRANCH  75  79
ENDBRANCH  58  72
BRANCH  59  83
ATOM     83  C   UNL     1       0.606 -23.932   1.673  1.00  0.00     0.023 A 
ATOM     84  C   UNL     1       1.161 -25.087   1.098  1.00  0.00     0.031 A 
ATOM     85  C   UNL     1       1.446 -23.113   2.449  1.00  0.00     0.131 A 
ATOM     86  C   UNL     1       2.502 -25.417   1.349  1.00  0.00     0.055 A 
ATOM     87  C   UNL     1       2.793 -23.418   2.651  1.00  0.00     0.041 A 
ATOM     88  F   UNL     1       0.967 -21.997   3.021  1.00  0.00    -0.206 F 
ATOM     89  C   UNL     1       3.325 -24.585   2.111  1.00  0.00     0.022 A 
BRANCH  86  90
ATOM     90  S   UNL     1       3.137 -27.002   0.734  1.00  0.00     0.124 S 
ATOM     91  O   UNL     1       2.235 -27.952   1.374  1.00  0.00    -0.237 OA
ATOM     92  O   UNL     1       2.989 -26.847  -0.709  1.00  0.00    -0.237 OA
ATOM     93  O   UNL     1       4.516 -27.026   1.218  1.00  0.00    -0.744 OA
ENDBRANCH  86  90
ENDBRANCH  59  83
BRANCH  71  94
ATOM     94  C   UNL     1      -5.210 -27.222   3.665  1.00  0.00     0.023 A 
ATOM     95  C   UNL     1      -4.751 -27.494   4.966  1.00  0.00     0.031 A 
ATOM     96  C   UNL     1      -5.862 -28.255   2.967  1.00  0.00     0.131 A 
ATOM     97  C   UNL     1      -4.881 -28.786   5.499  1.00  0.00     0.055 A 
ATOM     98  C   UNL     1      -6.050 -29.518   3.529  1.00  0.00     0.041 A 
ATOM     99  F   UNL     1      -6.321 -28.054   1.722  1.00  0.00    -0.206 F 
ATOM    100  C   UNL     1      -5.542 -29.796   4.794  1.00  0.00     0.022 A 
BRANCH  97 101
ATOM    101  S   UNL     1      -4.062 -29.166   7.073  1.00  0.00     0.124 S 
ATOM    102  O   UNL     1      -2.681 -28.783   6.798  1.00  0.00    -0.237 OA
ATOM    103  O   UNL     1      -4.785 -28.315   8.012  1.00  0.00    -0.237 OA
ATOM    104  O   UNL     1      -4.286 -30.601   7.238  1.00  0.00    -0.744 OA
ENDBRANCH  97 101
ENDBRANCH  71  94
ENDBRANCH  45  46
ENDBRANCH  38  40
ENDBRANCH  37  38
ENDBRANCH  36  37
ENDBRANCH  35  36
ENDBRANCH   1  35
TORSDOF 21
