REMARK SMILES COc1ccc(C2=NN(C(=O)CCC(=O)OCCOCCOC(=O)c3ccc(-c4c5nc(c(-c6cc(S(=O)(=O)[O-])ccc6F)c6ccc([nH]6)c(-c6cc(S(=O)(=O)[O-])ccc6F)c6nc(c(-c7cc(S(=O)(=O)[O-])ccc7F)c7ccc4[nH]7)C=C6)C=C5)cc3)[C@@H](c3ccc(Cl)cc3Cl)C2)cc1
REMARK SMILES IDX 18 1 17 2 16 3 14 4 15 5 13 6 12 7 10 8 11 9 9 10 7 11 8 12
REMARK SMILES IDX 97 13 88 14 6 15 3 16 4 17 99 18 5 19 98 20 2 21 1 22 89 23
REMARK SMILES IDX 90 24 95 25 91 26 94 27 96 28 92 29 93 30 19 31 20 32 21 33
REMARK SMILES IDX 22 34 23 35 24 36 25 37 26 38 87 39 27 40 86 41 28 42 29 43
REMARK SMILES IDX 30 44 80 45 31 46 85 47 79 48 81 49 32 50 84 51 78 52 77 53
REMARK SMILES IDX 33 55 65 56 45 57 64 58 46 59 49 60 63 61 82 62 47 63 48 64
REMARK SMILES IDX 62 66 83 67 50 68 34 69 35 70 43 71 36 72 42 73 44 74 41 75
REMARK SMILES IDX 37 76 38 77 39 78 40 79 66 80 67 81 75 82 68 83 74 84 76 85
REMARK SMILES IDX 73 86 69 87 70 88 71 89 72 90 51 91 52 92 60 93 53 94 59 95
REMARK SMILES IDX 61 96 58 97 54 98 55 99 56 100 57 101
REMARK H PARENT 81 54 49 65
REMARK Flexibility Score: inf
ROOT
ATOM      1  C   UNL     1       5.960  10.220   1.444  1.00  0.00     0.202 C 
ENDROOT
BRANCH   1   2
ATOM      2  C   UNL     1       6.290   8.927   2.220  1.00  0.00     0.261 C 
BRANCH   2   3
ATOM      3  O   UNL     1       5.303   8.758   3.221  1.00  0.00    -0.463 OA
BRANCH   3   4
ATOM      4  C   UNL     1       5.559   8.889   4.506  1.00  0.00     0.306 C 
ATOM      5  O   UNL     1       6.696   9.040   5.003  1.00  0.00    -0.252 OA
BRANCH   4   6
ATOM      6  C   UNL     1       4.278   9.093   5.242  1.00  0.00     0.132 C 
BRANCH   6   7
ATOM      7  C   UNL     1       3.025   8.316   4.819  1.00  0.00     0.114 C 
BRANCH   7   8
ATOM      8  C   UNL     1       2.382   8.105   3.403  1.00  0.00     0.243 C 
ATOM      9  O   UNL     1       1.161   7.874   3.424  1.00  0.00    -0.273 OA
BRANCH   8  10
ATOM     10  N   UNL     1       3.173   7.948   2.252  1.00  0.00    -0.225 N 
ATOM     11  C   UNL     1       3.598   6.106   1.152  1.00  0.00     0.071 C 
ATOM     12  N   UNL     1       3.591   6.609   2.334  1.00  0.00    -0.174 NA
ATOM     13  C   UNL     1       3.511   7.003  -0.031  1.00  0.00     0.091 C 
ATOM     14  C   UNL     1       3.135   8.343   0.602  1.00  0.00     0.149 C 
BRANCH  11  15
ATOM     15  C   UNL     1       3.641   4.683   0.895  1.00  0.00    -0.002 A 
ATOM     16  C   UNL     1       3.495   2.261  -0.389  1.00  0.00     0.118 A 
ATOM     17  C   UNL     1       2.334   2.848   0.103  1.00  0.00     0.047 A 
ATOM     18  C   UNL     1       4.734   2.873  -0.196  1.00  0.00     0.047 A 
ATOM     19  C   UNL     1       2.406   4.051   0.790  1.00  0.00     0.014 A 
ATOM     20  C   UNL     1       4.816   4.101   0.445  1.00  0.00     0.014 A 
BRANCH  16  21
ATOM     21  O   UNL     1       3.499   1.134  -1.157  1.00  0.00    -0.497 OA
ATOM     22  C   UNL     1       2.644   0.097  -0.678  1.00  0.00     0.278 C 
ENDBRANCH  16  21
ENDBRANCH  11  15
BRANCH  14  23
ATOM     23  C   UNL     1       2.924   9.667  -0.523  1.00  0.00    -0.004 A 
ATOM     24  C   UNL     1       3.725   9.430  -1.687  1.00  0.00     0.009 A 
ATOM     25  C   UNL     1       2.311  10.994  -0.610  1.00  0.00     0.047 A 
ATOM     26  C   UNL     1       3.981  10.365  -2.720  1.00  0.00     0.021 A 
ATOM     27  C   UNL     1       2.641  11.942  -1.629  1.00  0.00     0.041 A 
ATOM     28  Cl  UNL     1       1.054  11.871   0.214  1.00  0.00    -0.084 Cl
ATOM     29  C   UNL     1       3.468  11.636  -2.668  1.00  0.00     0.042 A 
ATOM     30  Cl  UNL     1       3.805  12.818  -3.864  1.00  0.00    -0.084 Cl
ENDBRANCH  14  23
ENDBRANCH   8  10
ENDBRANCH   7   8
ENDBRANCH   6   7
ENDBRANCH   4   6
ENDBRANCH   3   4
ENDBRANCH   2   3
ENDBRANCH   1   2
BRANCH   1  31
ATOM     31  O   UNL     1       4.558  10.555   1.278  1.00  0.00    -0.374 OA
BRANCH  31  32
ATOM     32  C   UNL     1       3.748  11.123   2.312  1.00  0.00     0.202 C 
BRANCH  32  33
ATOM     33  C   UNL     1       2.123  10.729   2.523  1.00  0.00     0.261 C 
BRANCH  33  34
ATOM     34  O   UNL     1       1.400   9.599   1.697  1.00  0.00    -0.460 OA
BRANCH  34  35
ATOM     35  C   UNL     1       0.109   9.295   1.272  1.00  0.00     0.338 C 
ATOM     36  O   UNL     1      -0.835  10.085   1.309  1.00  0.00    -0.246 OA
BRANCH  35  37
ATOM     37  C   UNL     1      -0.200   7.846   0.765  1.00  0.00     0.060 A 
ATOM     38  C   UNL     1       0.314   7.209  -0.378  1.00  0.00     0.016 A 
ATOM     39  C   UNL     1      -1.247   7.142   1.387  1.00  0.00     0.016 A 
ATOM     40  C   UNL     1      -0.087   5.880  -0.775  1.00  0.00     0.010 A 
ATOM     41  C   UNL     1      -1.698   5.852   0.957  1.00  0.00     0.010 A 
ATOM     42  C   UNL     1      -1.108   5.167  -0.116  1.00  0.00    -0.014 A 
BRANCH  42  43
ATOM     43  C   UNL     1      -1.560   3.767  -0.546  1.00  0.00     0.031 A 
ATOM     44  C   UNL     1      -2.217   3.533  -1.897  1.00  0.00     0.074 A 
ATOM     45  C   UNL     1      -1.349   2.667   0.225  1.00  0.00     0.049 A 
ATOM     46  N   UNL     1      -2.742   2.432  -2.388  1.00  0.00    -0.248 NA
ATOM     47  C   UNL     1      -2.331   4.689  -2.793  1.00  0.00     0.031 C 
ATOM     48  C   UNL     1      -0.713   2.687   1.537  1.00  0.00     0.029 A 
ATOM     49  N   UNL     1      -1.534   1.310  -0.009  1.00  0.00    -0.354 N 
ATOM     50  C   UNL     1      -3.358   2.793  -3.587  1.00  0.00     0.074 A 
ATOM     51  C   UNL     1      -3.027   4.187  -3.805  1.00  0.00     0.031 C 
ATOM     52  C   UNL     1      -0.380   1.432   1.890  1.00  0.00     0.029 A 
ATOM     53  C   UNL     1      -0.891   0.482   0.904  1.00  0.00     0.049 A 
ATOM     54  H   UNL     1      -2.073   0.965  -0.757  1.00  0.00     0.167 HD
ATOM     55  C   UNL     1      -4.200   2.064  -4.370  1.00  0.00     0.034 A 
ATOM     56  C   UNL     1      -0.723  -0.867   0.928  1.00  0.00     0.034 A 
ATOM     57  C   UNL     1      -4.528   0.676  -4.128  1.00  0.00     0.049 A 
ATOM     58  C   UNL     1      -1.539  -1.694  -0.052  1.00  0.00     0.074 A 
ATOM     59  C   UNL     1      -5.513  -0.111  -4.707  1.00  0.00     0.029 A 
ATOM     60  N   UNL     1      -3.848  -0.145  -3.240  1.00  0.00    -0.354 N 
ATOM     61  N   UNL     1      -2.255  -1.292  -1.077  1.00  0.00    -0.248 NA
ATOM     62  C   UNL     1      -1.590  -3.149   0.175  1.00  0.00     0.031 C 
ATOM     63  C   UNL     1      -5.452  -1.392  -4.137  1.00  0.00     0.029 A 
ATOM     64  C   UNL     1      -4.387  -1.423  -3.254  1.00  0.00     0.049 A 
ATOM     65  H   UNL     1      -3.090   0.139  -2.679  1.00  0.00     0.167 HD
ATOM     66  C   UNL     1      -2.890  -2.433  -1.564  1.00  0.00     0.074 A 
ATOM     67  C   UNL     1      -2.374  -3.555  -0.812  1.00  0.00     0.031 C 
ATOM     68  C   UNL     1      -3.873  -2.535  -2.494  1.00  0.00     0.034 A 
BRANCH  55  69
ATOM     69  C   UNL     1      -4.971   2.826  -5.427  1.00  0.00     0.023 A 
ATOM     70  C   UNL     1      -4.356   3.401  -6.551  1.00  0.00     0.031 A 
ATOM     71  C   UNL     1      -6.344   3.078  -5.230  1.00  0.00     0.131 A 
ATOM     72  C   UNL     1      -5.086   4.279  -7.371  1.00  0.00     0.055 A 
ATOM     73  C   UNL     1      -7.085   3.881  -6.099  1.00  0.00     0.041 A 
ATOM     74  F   UNL     1      -6.985   2.572  -4.164  1.00  0.00    -0.206 F 
ATOM     75  C   UNL     1      -6.450   4.507  -7.165  1.00  0.00     0.022 A 
BRANCH  72  76
ATOM     76  S   UNL     1      -4.190   5.266  -8.603  1.00  0.00     0.124 S 
ATOM     77  O   UNL     1      -3.309   6.062  -7.752  1.00  0.00    -0.237 OA
ATOM     78  O   UNL     1      -3.538   4.244  -9.415  1.00  0.00    -0.237 OA
ATOM     79  O   UNL     1      -5.245   6.018  -9.276  1.00  0.00    -0.744 OA
ENDBRANCH  72  76
ENDBRANCH  55  69
BRANCH  56  80
ATOM     80  C   UNL     1       0.203  -1.582   1.891  1.00  0.00     0.023 A 
ATOM     81  C   UNL     1       1.124  -2.544   1.414  1.00  0.00     0.031 A 
ATOM     82  C   UNL     1       0.152  -1.409   3.285  1.00  0.00     0.131 A 
ATOM     83  C   UNL     1       1.910  -3.301   2.305  1.00  0.00     0.055 A 
ATOM     84  C   UNL     1       1.010  -2.087   4.160  1.00  0.00     0.041 A 
ATOM     85  F   UNL     1      -0.757  -0.594   3.841  1.00  0.00    -0.206 F 
ATOM     86  C   UNL     1       1.887  -3.050   3.674  1.00  0.00     0.022 A 
BRANCH  83  87
ATOM     87  S   UNL     1       2.838  -4.732   1.672  1.00  0.00     0.124 S 
ATOM     88  O   UNL     1       1.802  -5.465   0.955  1.00  0.00    -0.237 OA
ATOM     89  O   UNL     1       3.857  -4.089   0.850  1.00  0.00    -0.237 OA
ATOM     90  O   UNL     1       3.333  -5.381   2.886  1.00  0.00    -0.744 OA
ENDBRANCH  83  87
ENDBRANCH  56  80
BRANCH  68  91
ATOM     91  C   UNL     1      -4.482  -3.901  -2.703  1.00  0.00     0.023 A 
ATOM     92  C   UNL     1      -5.227  -4.525  -1.684  1.00  0.00     0.031 A 
ATOM     93  C   UNL     1      -4.325  -4.585  -3.919  1.00  0.00     0.131 A 
ATOM     94  C   UNL     1      -5.740  -5.816  -1.877  1.00  0.00     0.055 A 
ATOM     95  C   UNL     1      -4.881  -5.850  -4.124  1.00  0.00     0.041 A 
ATOM     96  F   UNL     1      -3.628  -4.037  -4.926  1.00  0.00    -0.206 F 
ATOM     97  C   UNL     1      -5.583  -6.477  -3.097  1.00  0.00     0.022 A 
BRANCH  94  98
ATOM     98  S   UNL     1      -6.555  -6.649  -0.486  1.00  0.00     0.124 S 
ATOM     99  O   UNL     1      -5.492  -6.686   0.513  1.00  0.00    -0.237 OA
ATOM    100  O   UNL     1      -7.672  -5.755  -0.197  1.00  0.00    -0.237 OA
ATOM    101  O   UNL     1      -6.932  -7.949  -1.038  1.00  0.00    -0.744 OA
ENDBRANCH  94  98
ENDBRANCH  68  91
ENDBRANCH  42  43
ENDBRANCH  35  37
ENDBRANCH  34  35
ENDBRANCH  33  34
ENDBRANCH  32  33
ENDBRANCH  31  32
ENDBRANCH   1  31
TORSDOF 23
