REMARK SMILES Cc1ccc2cc(C[N@H+]3CC[NH2+][C@H](C(=O)OCCOCCOC(=O)c4ccc(-c5c6nc(c(-c7cc(S(=O)(=O)[O-])ccc7F)c7ccc([nH]7)c(-c7cc(S(=O)(=O)[O-])ccc7F)c7nc(c(-c8cc(S(=O)(=O)[O-])ccc8F)c8ccc5[nH]8)C=C7)C=C6)cc4)C3)c(N3CCOCC3)nc2c1
REMARK SMILES IDX 19 1 18 2 17 3 16 4 14 5 15 6 13 7 9 8 10 9 88 10 11 12
REMARK SMILES IDX 12 13 8 16 7 17 1 18 2 19 3 20 98 21 4 22 97 23 5 24 96 25
REMARK SMILES IDX 6 26 89 27 90 28 91 29 95 30 92 31 94 32 93 33 20 34 21 35
REMARK SMILES IDX 22 36 23 37 24 38 25 39 26 40 87 41 27 42 86 43 28 44 29 45
REMARK SMILES IDX 30 46 80 47 31 48 85 49 79 50 81 51 32 52 84 53 78 54 77 55
REMARK SMILES IDX 33 57 65 58 45 59 64 60 46 61 49 62 63 63 82 64 47 65 48 66
REMARK SMILES IDX 62 68 83 69 50 70 34 71 35 72 43 73 36 74 42 75 44 76 41 77
REMARK SMILES IDX 37 78 38 79 39 80 40 81 66 82 67 83 75 84 68 85 74 86 76 87
REMARK SMILES IDX 73 88 69 89 70 90 71 91 72 92 51 93 52 94 60 95 53 96 59 97
REMARK SMILES IDX 61 98 58 99 54 100 55 101 56 102 57 103
REMARK H PARENT 9 11 12 14 12 15 81 56 49 67
REMARK Flexibility Score: inf
ROOT
ATOM      1  O   UNL     1      -4.391  -3.827   6.678  1.00  0.00    -0.374 OA
ENDROOT
BRANCH   1   2
ATOM      2  C   UNL     1      -3.504  -4.304   5.664  1.00  0.00     0.202 C 
BRANCH   2   3
ATOM      3  C   UNL     1      -3.330  -3.441   4.405  1.00  0.00     0.261 C 
BRANCH   3   4
ATOM      4  O   UNL     1      -2.880  -2.102   4.679  1.00  0.00    -0.459 OA
BRANCH   4   5
ATOM      5  C   UNL     1      -3.861  -1.148   4.675  1.00  0.00     0.371 C 
ATOM      6  O   UNL     1      -5.050  -1.372   4.477  1.00  0.00    -0.245 OA
BRANCH   5   7
ATOM      7  C   UNL     1      -3.287   0.237   5.024  1.00  0.00     0.348 C 
ATOM      8  N   UNL     1      -2.602   1.574   7.149  1.00  0.00    -0.321 N 
ATOM      9  C   UNL     1      -3.507   2.617   6.657  1.00  0.00     0.324 C 
ATOM     10  C   UNL     1      -2.916   0.276   6.536  1.00  0.00     0.341 C 
ATOM     11  H   UNL     1      -2.792   1.467   8.145  1.00  0.00     0.348 HD
ATOM     12  C   UNL     1      -3.823   2.583   5.146  1.00  0.00     0.323 C 
ATOM     13  N   UNL     1      -4.288   1.280   4.668  1.00  0.00    -0.325 N 
ATOM     14  H   UNL     1      -4.401   1.310   3.654  1.00  0.00     0.347 HD
ATOM     15  H   UNL     1      -5.183   1.056   5.102  1.00  0.00     0.347 HD
BRANCH   8  16
ATOM     16  C   UNL     1      -1.174   1.941   7.210  1.00  0.00     0.303 C 
BRANCH  16  17
ATOM     17  C   UNL     1      -0.425   1.983   5.900  1.00  0.00     0.049 A 
ATOM     18  C   UNL     1       0.888   0.314  -0.207  1.00  0.00     0.044 C 
ATOM     19  C   UNL     1       0.659   0.445   1.269  1.00  0.00    -0.049 A 
ATOM     20  C   UNL     1       0.639  -0.704   2.059  1.00  0.00     0.004 A 
ATOM     21  C   UNL     1       0.510   1.708   1.881  1.00  0.00     0.032 A 
ATOM     22  C   UNL     1       0.472  -0.591   3.431  1.00  0.00     0.010 A 
ATOM     23  C   UNL     1       0.291   1.853   3.252  1.00  0.00     0.073 A 
ATOM     24  C   UNL     1       0.295   0.672   4.014  1.00  0.00     0.001 A 
ATOM     25  N   UNL     1       0.045   3.067   3.812  1.00  0.00    -0.230 NA
ATOM     26  C   UNL     1       0.008   0.766   5.365  1.00  0.00     0.023 A 
ATOM     27  C   UNL     1      -0.304   3.141   5.120  1.00  0.00     0.138 A 
BRANCH  27  28
ATOM     28  N   UNL     1      -0.627   4.369   5.669  1.00  0.00    -0.352 N 
ATOM     29  C   UNL     1       0.255   4.930   6.700  1.00  0.00     0.146 C 
ATOM     30  C   UNL     1      -1.292   5.393   4.865  1.00  0.00     0.146 C 
ATOM     31  C   UNL     1      -0.595   5.830   7.614  1.00  0.00     0.181 C 
ATOM     32  C   UNL     1      -2.093   6.294   5.831  1.00  0.00     0.181 C 
ATOM     33  O   UNL     1      -1.262   6.863   6.863  1.00  0.00    -0.378 OA
ENDBRANCH  27  28
ENDBRANCH  16  17
ENDBRANCH   8  16
ENDBRANCH   5   7
ENDBRANCH   4   5
ENDBRANCH   3   4
ENDBRANCH   2   3
ENDBRANCH   1   2
BRANCH   1  34
ATOM     34  C   UNL     1      -3.863  -2.819   7.535  1.00  0.00     0.202 C 
BRANCH  34  35
ATOM     35  C   UNL     1      -3.057  -3.268   8.755  1.00  0.00     0.261 C 
BRANCH  35  36
ATOM     36  O   UNL     1      -1.799  -3.837   8.354  1.00  0.00    -0.460 OA
BRANCH  36  37
ATOM     37  C   UNL     1      -1.763  -5.191   8.378  1.00  0.00     0.338 C 
ATOM     38  O   UNL     1      -2.628  -5.938   8.808  1.00  0.00    -0.246 OA
BRANCH  37  39
ATOM     39  C   UNL     1      -0.603  -5.659   7.593  1.00  0.00     0.060 A 
ATOM     40  C   UNL     1       0.670  -5.106   7.747  1.00  0.00     0.016 A 
ATOM     41  C   UNL     1      -0.821  -6.695   6.676  1.00  0.00     0.016 A 
ATOM     42  C   UNL     1       1.736  -5.630   7.010  1.00  0.00     0.010 A 
ATOM     43  C   UNL     1       0.243  -7.219   5.944  1.00  0.00     0.010 A 
ATOM     44  C   UNL     1       1.535  -6.710   6.127  1.00  0.00    -0.014 A 
BRANCH  44  45
ATOM     45  C   UNL     1       2.697  -7.419   5.536  1.00  0.00     0.031 A 
ATOM     46  C   UNL     1       3.024  -7.327   4.077  1.00  0.00     0.074 A 
ATOM     47  C   UNL     1       3.437  -8.198   6.349  1.00  0.00     0.049 A 
ATOM     48  N   UNL     1       4.043  -7.836   3.436  1.00  0.00    -0.248 NA
ATOM     49  C   UNL     1       2.087  -6.582   3.224  1.00  0.00     0.031 C 
ATOM     50  C   UNL     1       3.162  -8.408   7.771  1.00  0.00     0.029 A 
ATOM     51  N   UNL     1       4.559  -8.952   6.111  1.00  0.00    -0.354 N 
ATOM     52  C   UNL     1       3.887  -7.460   2.108  1.00  0.00     0.074 A 
ATOM     53  C   UNL     1       2.642  -6.725   2.027  1.00  0.00     0.031 C 
ATOM     54  C   UNL     1       4.109  -9.203   8.288  1.00  0.00     0.029 A 
ATOM     55  C   UNL     1       5.035  -9.597   7.229  1.00  0.00     0.049 A 
ATOM     56  H   UNL     1       4.982  -9.024   5.225  1.00  0.00     0.167 HD
ATOM     57  C   UNL     1       4.721  -7.692   1.067  1.00  0.00     0.034 A 
ATOM     58  C   UNL     1       6.098 -10.411   7.391  1.00  0.00     0.034 A 
ATOM     59  C   UNL     1       5.949  -8.443   1.175  1.00  0.00     0.049 A 
ATOM     60  C   UNL     1       7.001 -10.667   6.212  1.00  0.00     0.074 A 
ATOM     61  C   UNL     1       6.889  -8.684   0.188  1.00  0.00     0.029 A 
ATOM     62  N   UNL     1       6.404  -9.084   2.319  1.00  0.00    -0.354 N 
ATOM     63  N   UNL     1       6.910 -10.197   4.990  1.00  0.00    -0.248 NA
ATOM     64  C   UNL     1       8.159 -11.544   6.430  1.00  0.00     0.031 C 
ATOM     65  C   UNL     1       7.862  -9.537   0.708  1.00  0.00     0.029 A 
ATOM     66  C   UNL     1       7.590  -9.751   2.050  1.00  0.00     0.049 A 
ATOM     67  H   UNL     1       5.952  -9.068   3.193  1.00  0.00     0.167 HD
ATOM     68  C   UNL     1       8.012 -10.698   4.302  1.00  0.00     0.074 A 
ATOM     69  C   UNL     1       8.769 -11.485   5.253  1.00  0.00     0.031 C 
ATOM     70  C   UNL     1       8.357 -10.522   3.002  1.00  0.00     0.034 A 
BRANCH  57  71
ATOM     71  C   UNL     1       4.380  -7.115  -0.287  1.00  0.00     0.023 A 
ATOM     72  C   UNL     1       4.216  -7.966  -1.398  1.00  0.00     0.031 A 
ATOM     73  C   UNL     1       4.387  -5.726  -0.512  1.00  0.00     0.131 A 
ATOM     74  C   UNL     1       4.119  -7.421  -2.685  1.00  0.00     0.055 A 
ATOM     75  C   UNL     1       4.240  -5.188  -1.791  1.00  0.00     0.041 A 
ATOM     76  F   UNL     1       4.545  -4.871   0.511  1.00  0.00    -0.206 F 
ATOM     77  C   UNL     1       4.123  -6.037  -2.887  1.00  0.00     0.022 A 
BRANCH  74  78
ATOM     78  S   UNL     1       4.074  -8.485  -4.154  1.00  0.00     0.124 S 
ATOM     79  O   UNL     1       2.809  -8.089  -4.770  1.00  0.00    -0.237 OA
ATOM     80  O   UNL     1       5.275  -8.066  -4.870  1.00  0.00    -0.237 OA
ATOM     81  O   UNL     1       4.101  -9.838  -3.608  1.00  0.00    -0.744 OA
ENDBRANCH  74  78
ENDBRANCH  57  71
BRANCH  58  82
ATOM     82  C   UNL     1       6.386 -10.965   8.747  1.00  0.00     0.023 A 
ATOM     83  C   UNL     1       5.450 -11.786   9.404  1.00  0.00     0.031 A 
ATOM     84  C   UNL     1       7.538 -10.582   9.453  1.00  0.00     0.131 A 
ATOM     85  C   UNL     1       5.647 -12.129  10.748  1.00  0.00     0.055 A 
ATOM     86  C   UNL     1       7.769 -10.996  10.767  1.00  0.00     0.041 A 
ATOM     87  F   UNL     1       8.451  -9.785   8.877  1.00  0.00    -0.206 F 
ATOM     88  C   UNL     1       6.810 -11.757  11.427  1.00  0.00     0.022 A 
BRANCH  85  89
ATOM     89  S   UNL     1       4.332 -12.941  11.699  1.00  0.00     0.124 S 
ATOM     90  O   UNL     1       4.986 -14.169  12.138  1.00  0.00    -0.237 OA
ATOM     91  O   UNL     1       4.072 -11.955  12.746  1.00  0.00    -0.237 OA
ATOM     92  O   UNL     1       3.257 -13.110  10.727  1.00  0.00    -0.744 OA
ENDBRANCH  85  89
ENDBRANCH  58  82
BRANCH  70  93
ATOM     93  C   UNL     1       9.622 -11.174   2.487  1.00  0.00     0.023 A 
ATOM     94  C   UNL     1      10.651 -10.376   1.947  1.00  0.00     0.031 A 
ATOM     95  C   UNL     1       9.737 -12.569   2.370  1.00  0.00     0.131 A 
ATOM     96  C   UNL     1      11.716 -10.976   1.264  1.00  0.00     0.055 A 
ATOM     97  C   UNL     1      10.833 -13.165   1.742  1.00  0.00     0.041 A 
ATOM     98  F   UNL     1       8.780 -13.376   2.856  1.00  0.00    -0.206 F 
ATOM     99  C   UNL     1      11.819 -12.367   1.169  1.00  0.00     0.022 A 
BRANCH  96 100
ATOM    100  S   UNL     1      12.945  -9.974   0.382  1.00  0.00     0.124 S 
ATOM    101  O   UNL     1      14.188 -10.374   1.037  1.00  0.00    -0.237 OA
ATOM    102  O   UNL     1      12.788 -10.439  -0.994  1.00  0.00    -0.237 OA
ATOM    103  O   UNL     1      12.525  -8.599   0.632  1.00  0.00    -0.744 OA
ENDBRANCH  96 100
ENDBRANCH  70  93
ENDBRANCH  44  45
ENDBRANCH  37  39
ENDBRANCH  36  37
ENDBRANCH  35  36
ENDBRANCH  34  35
ENDBRANCH   1  34
TORSDOF 20
