REMARK SMILES CCOc1cnc(C(=O)c2[nH]c3cc(Cl)ccc3c2CC(=O)OCCOCCOC(=O)c2ccc(-c3c4nc(c(-c5cc(S(=O)(=O)[O-])ccc5F)c5ccc([nH]5)c(-c5cc(S(=O)(=O)[O-])ccc5F)c5nc(c(-c6cc(S(=O)(=O)[O-])ccc6F)c6ccc3[nH]6)C=C5)C=C4)cc2)cc1CC
REMARK SMILES IDX 25 1 24 2 23 3 21 4 22 5 20 6 19 7 10 8 11 9 12 10 18 12
REMARK SMILES IDX 13 13 17 14 14 15 16 16 15 17 8 18 9 19 7 20 4 21 5 22 96 23
REMARK SMILES IDX 6 24 95 25 3 26 2 27 1 28 97 29 98 30 26 31 27 32 28 33
REMARK SMILES IDX 29 34 30 35 31 36 32 37 33 38 94 39 34 40 93 41 35 42 36 43
REMARK SMILES IDX 37 44 87 45 38 46 92 47 86 48 88 49 39 50 91 51 85 52 84 53
REMARK SMILES IDX 40 55 72 56 52 57 71 58 53 59 56 60 70 61 89 62 54 63 55 64
REMARK SMILES IDX 69 66 90 67 57 68 41 69 42 70 50 71 43 72 49 73 51 74 48 75
REMARK SMILES IDX 44 76 45 77 46 78 47 79 73 80 74 81 82 82 75 83 81 84 83 85
REMARK SMILES IDX 80 86 76 87 77 88 78 89 79 90 58 91 59 92 67 93 60 94 66 95
REMARK SMILES IDX 68 96 65 97 61 98 62 99 63 100 64 101
REMARK H PARENT 11 11 88 54 56 65
REMARK Flexibility Score: inf
ROOT
ATOM      1  C   UNL     1      10.176  -6.451   0.517  1.00  0.00     0.202 C 
ENDROOT
BRANCH   1   2
ATOM      2  C   UNL     1      10.842  -5.410  -0.389  1.00  0.00     0.261 C 
BRANCH   2   3
ATOM      3  O   UNL     1      10.217  -4.111  -0.281  1.00  0.00    -0.463 OA
BRANCH   3   4
ATOM      4  C   UNL     1       9.949  -3.490  -1.460  1.00  0.00     0.310 C 
ATOM      5  O   UNL     1      10.281  -3.929  -2.560  1.00  0.00    -0.252 OA
BRANCH   4   6
ATOM      6  C   UNL     1       9.268  -2.144  -1.341  1.00  0.00     0.161 C 
BRANCH   6   7
ATOM      7  C   UNL     1       8.660  -1.750  -0.019  1.00  0.00     0.000 A 
ATOM      8  C   UNL     1       7.373  -2.040   0.446  1.00  0.00     0.093 A 
ATOM      9  N   UNL     1       7.306  -1.539   1.731  1.00  0.00    -0.351 N 
ATOM     10  C   UNL     1       8.311  -0.627   1.937  1.00  0.00     0.048 A 
ATOM     11  H   UNL     1       6.634  -1.799   2.402  1.00  0.00     0.167 HD
ATOM     12  C   UNL     1       9.212  -0.781   0.887  1.00  0.00     0.004 A 
ATOM     13  C   UNL     1       8.482   0.314   2.961  1.00  0.00     0.047 A 
ATOM     14  C   UNL     1      10.365   0.032   0.871  1.00  0.00     0.012 A 
ATOM     15  C   UNL     1       9.603   1.143   2.885  1.00  0.00     0.043 A 
ATOM     16  C   UNL     1      10.540   1.003   1.865  1.00  0.00     0.021 A 
ATOM     17  Cl  UNL     1       9.811   2.384   4.062  1.00  0.00    -0.084 Cl
BRANCH   8  18
ATOM     18  C   UNL     1       6.296  -2.739  -0.249  1.00  0.00     0.227 C 
ATOM     19  O   UNL     1       6.518  -3.483  -1.202  1.00  0.00    -0.285 OA
BRANCH  18  20
ATOM     20  C   UNL     1       4.862  -2.501   0.137  1.00  0.00     0.113 A 
ATOM     21  C   UNL     1       2.180  -2.081   0.510  1.00  0.00     0.140 A 
ATOM     22  C   UNL     1       2.698  -3.304   0.099  1.00  0.00     0.158 A 
ATOM     23  C   UNL     1       3.061  -1.052   0.849  1.00  0.00    -0.002 A 
ATOM     24  N   UNL     1       4.015  -3.538  -0.087  1.00  0.00    -0.249 NA
ATOM     25  C   UNL     1       4.425  -1.259   0.600  1.00  0.00     0.040 A 
BRANCH  21  26
ATOM     26  O   UNL     1       0.828  -1.896   0.591  1.00  0.00    -0.492 OA
BRANCH  26  27
ATOM     27  C   UNL     1       0.259  -1.655  -0.708  1.00  0.00     0.226 C 
ATOM     28  C   UNL     1       0.049  -0.164  -0.924  1.00  0.00     0.049 C 
ENDBRANCH  26  27
ENDBRANCH  21  26
BRANCH  23  29
ATOM     29  C   UNL     1       2.581   0.268   1.404  1.00  0.00     0.036 C 
ATOM     30  C   UNL     1       3.215   0.623   2.743  1.00  0.00     0.009 C 
ENDBRANCH  23  29
ENDBRANCH  18  20
ENDBRANCH   8  18
ENDBRANCH   6   7
ENDBRANCH   4   6
ENDBRANCH   3   4
ENDBRANCH   2   3
ENDBRANCH   1   2
BRANCH   1  31
ATOM     31  O   UNL     1       8.868  -6.882   0.131  1.00  0.00    -0.374 OA
BRANCH  31  32
ATOM     32  C   UNL     1       7.820  -5.924   0.262  1.00  0.00     0.202 C 
BRANCH  32  33
ATOM     33  C   UNL     1       7.225  -5.762   1.667  1.00  0.00     0.261 C 
BRANCH  33  34
ATOM     34  O   UNL     1       8.218  -5.440   2.655  1.00  0.00    -0.460 OA
BRANCH  34  35
ATOM     35  C   UNL     1       8.471  -6.444   3.530  1.00  0.00     0.338 C 
ATOM     36  O   UNL     1       7.844  -7.489   3.649  1.00  0.00    -0.246 OA
BRANCH  35  37
ATOM     37  C   UNL     1       9.737  -6.203   4.245  1.00  0.00     0.060 A 
ATOM     38  C   UNL     1      10.679  -7.239   4.239  1.00  0.00     0.016 A 
ATOM     39  C   UNL     1       9.978  -5.029   4.963  1.00  0.00     0.016 A 
ATOM     40  C   UNL     1      11.839  -7.132   4.999  1.00  0.00     0.010 A 
ATOM     41  C   UNL     1      11.143  -4.925   5.733  1.00  0.00     0.010 A 
ATOM     42  C   UNL     1      12.058  -5.993   5.784  1.00  0.00    -0.014 A 
BRANCH  42  43
ATOM     43  C   UNL     1      13.165  -6.006   6.772  1.00  0.00     0.031 A 
ATOM     44  C   UNL     1      12.854  -6.353   8.202  1.00  0.00     0.074 A 
ATOM     45  C   UNL     1      14.431  -5.774   6.383  1.00  0.00     0.049 A 
ATOM     46  N   UNL     1      13.659  -6.459   9.227  1.00  0.00    -0.248 NA
ATOM     47  C   UNL     1      11.441  -6.614   8.516  1.00  0.00     0.031 C 
ATOM     48  C   UNL     1      14.848  -5.467   5.015  1.00  0.00     0.029 A 
ATOM     49  N   UNL     1      15.600  -5.767   7.101  1.00  0.00    -0.354 N 
ATOM     50  C   UNL     1      12.852  -6.801  10.309  1.00  0.00     0.074 A 
ATOM     51  C   UNL     1      11.490  -6.840   9.820  1.00  0.00     0.031 C 
ATOM     52  C   UNL     1      16.181  -5.298   4.993  1.00  0.00     0.029 A 
ATOM     53  C   UNL     1      16.708  -5.456   6.347  1.00  0.00     0.049 A 
ATOM     54  H   UNL     1      15.642  -5.965   8.064  1.00  0.00     0.167 HD
ATOM     55  C   UNL     1      13.218  -7.070  11.587  1.00  0.00     0.034 A 
ATOM     56  C   UNL     1      17.996  -5.303   6.714  1.00  0.00     0.034 A 
ATOM     57  C   UNL     1      14.582  -7.008  12.055  1.00  0.00     0.049 A 
ATOM     58  C   UNL     1      18.371  -5.533   8.158  1.00  0.00     0.074 A 
ATOM     59  C   UNL     1      15.074  -7.269  13.322  1.00  0.00     0.029 A 
ATOM     60  N   UNL     1      15.673  -6.642  11.275  1.00  0.00    -0.354 N 
ATOM     61  N   UNL     1      17.603  -5.876   9.167  1.00  0.00    -0.248 NA
ATOM     62  C   UNL     1      19.787  -5.368   8.509  1.00  0.00     0.031 C 
ATOM     63  C   UNL     1      16.446  -6.992  13.325  1.00  0.00     0.029 A 
ATOM     64  C   UNL     1      16.828  -6.635  12.041  1.00  0.00     0.049 A 
ATOM     65  H   UNL     1      15.631  -6.421  10.316  1.00  0.00     0.167 HD
ATOM     66  C   UNL     1      18.449  -5.993  10.267  1.00  0.00     0.074 A 
ATOM     67  C   UNL     1      19.786  -5.699   9.792  1.00  0.00     0.031 C 
ATOM     68  C   UNL     1      18.151  -6.320  11.552  1.00  0.00     0.034 A 
BRANCH  55  69
ATOM     69  C   UNL     1      12.115  -7.395  12.568  1.00  0.00     0.023 A 
ATOM     70  C   UNL     1      11.300  -8.532  12.421  1.00  0.00     0.031 A 
ATOM     71  C   UNL     1      11.842  -6.527  13.640  1.00  0.00     0.131 A 
ATOM     72  C   UNL     1      10.207  -8.728  13.280  1.00  0.00     0.055 A 
ATOM     73  C   UNL     1      10.803  -6.771  14.541  1.00  0.00     0.041 A 
ATOM     74  F   UNL     1      12.568  -5.412  13.820  1.00  0.00    -0.206 F 
ATOM     75  C   UNL     1       9.967  -7.868  14.354  1.00  0.00     0.022 A 
BRANCH  72  76
ATOM     76  S   UNL     1       9.012 -10.034  12.882  1.00  0.00     0.124 S 
ATOM     77  O   UNL     1       8.582  -9.642  11.542  1.00  0.00    -0.237 OA
ATOM     78  O   UNL     1       9.825 -11.242  12.967  1.00  0.00    -0.237 OA
ATOM     79  O   UNL     1       7.992  -9.893  13.920  1.00  0.00    -0.744 OA
ENDBRANCH  72  76
ENDBRANCH  55  69
BRANCH  56  80
ATOM     80  C   UNL     1      19.018  -4.880   5.714  1.00  0.00     0.023 A 
ATOM     81  C   UNL     1      20.086  -5.719   5.358  1.00  0.00     0.031 A 
ATOM     82  C   UNL     1      18.957  -3.605   5.122  1.00  0.00     0.131 A 
ATOM     83  C   UNL     1      21.068  -5.260   4.464  1.00  0.00     0.055 A 
ATOM     84  C   UNL     1      19.908  -3.171   4.198  1.00  0.00     0.041 A 
ATOM     85  F   UNL     1      17.957  -2.762   5.428  1.00  0.00    -0.206 F 
ATOM     86  C   UNL     1      20.979  -3.998   3.872  1.00  0.00     0.022 A 
BRANCH  83  87
ATOM     87  S   UNL     1      22.509  -6.312   4.136  1.00  0.00     0.124 S 
ATOM     88  O   UNL     1      23.065  -6.481   5.474  1.00  0.00    -0.237 OA
ATOM     89  O   UNL     1      21.892  -7.494   3.543  1.00  0.00    -0.237 OA
ATOM     90  O   UNL     1      23.317  -5.509   3.221  1.00  0.00    -0.744 OA
ENDBRANCH  83  87
ENDBRANCH  56  80
BRANCH  68  91
ATOM     91  C   UNL     1      19.306  -6.409  12.519  1.00  0.00     0.023 A 
ATOM     92  C   UNL     1      20.040  -5.272  12.902  1.00  0.00     0.031 A 
ATOM     93  C   UNL     1      19.683  -7.652  13.058  1.00  0.00     0.131 A 
ATOM     94  C   UNL     1      21.148  -5.410  13.752  1.00  0.00     0.055 A 
ATOM     95  C   UNL     1      20.747  -7.774  13.952  1.00  0.00     0.041 A 
ATOM     96  F   UNL     1      19.017  -8.770  12.727  1.00  0.00    -0.206 F 
ATOM     97  C   UNL     1      21.495  -6.651  14.293  1.00  0.00     0.022 A 
BRANCH  94  98
ATOM     98  S   UNL     1      22.186  -3.958  14.072  1.00  0.00     0.124 S 
ATOM     99  O   UNL     1      22.611  -3.587  12.726  1.00  0.00    -0.237 OA
ATOM    100  O   UNL     1      21.253  -3.043  14.721  1.00  0.00    -0.237 OA
ATOM    101  O   UNL     1      23.246  -4.477  14.935  1.00  0.00    -0.744 OA
ENDBRANCH  94  98
ENDBRANCH  68  91
ENDBRANCH  42  43
ENDBRANCH  35  37
ENDBRANCH  34  35
ENDBRANCH  33  34
ENDBRANCH  32  33
ENDBRANCH  31  32
ENDBRANCH   1  31
TORSDOF 23
