REMARK SMILES O=C(OCCOCCOC(=O)c1ccc(N2C(=O)C[C@H](c3c[nH]c4ccccc34)C2=O)cc1O)c1ccc(-c2c3nc(c(-c4cc(S(=O)(=O)[O-])ccc4F)c4ccc([nH]4)c(-c4cc(S(=O)(=O)[O-])ccc4F)c4nc(c(-c5cc(S(=O)(=O)[O-])ccc5F)c5ccc2[nH]5)C=C4)C=C3)cc1
REMARK SMILES IDX 5 1 4 2 3 3 2 4 1 5 35 6 36 7 97 8 37 9 96 10 38 11 39 12
REMARK SMILES IDX 40 13 90 14 41 15 95 16 89 17 91 18 42 19 94 20 88 21 87 22
REMARK SMILES IDX 43 24 75 25 55 26 74 27 56 28 59 29 73 30 92 31 57 32 58 33
REMARK SMILES IDX 72 35 93 36 60 37 44 38 45 39 53 40 46 41 52 42 54 43 51 44
REMARK SMILES IDX 47 45 48 46 49 47 50 48 76 49 77 50 85 51 78 52 84 53 86 54
REMARK SMILES IDX 83 55 79 56 80 57 81 58 82 59 61 60 62 61 70 62 63 63 69 64
REMARK SMILES IDX 71 65 68 66 64 67 65 68 66 69 67 70 6 71 7 72 8 73 9 74
REMARK SMILES IDX 10 75 11 76 12 77 13 78 33 79 14 80 32 81 15 82 34 83 16 85
REMARK SMILES IDX 17 86 30 87 18 88 19 89 20 90 31 91 21 92 22 93 29 94 23 95
REMARK SMILES IDX 24 96 28 97 25 99 27 100 26 101
REMARK H PARENT 91 23 59 34 34 84 23 98
REMARK Flexibility Score: inf
ROOT
ATOM      1  C   UNL     1       4.282   1.120  -1.307  1.00  0.00     0.202 C 
ENDROOT
BRANCH   1   2
ATOM      2  C   UNL     1       3.927  -0.366  -1.408  1.00  0.00     0.261 C 
BRANCH   2   3
ATOM      3  O   UNL     1       2.563  -0.586  -1.013  1.00  0.00    -0.460 OA
BRANCH   3   4
ATOM      4  C   UNL     1       2.104  -1.142   0.134  1.00  0.00     0.338 C 
ATOM      5  O   UNL     1       0.895  -1.343   0.243  1.00  0.00    -0.246 OA
BRANCH   4   6
ATOM      6  C   UNL     1       2.985  -1.515   1.283  1.00  0.00     0.060 A 
ATOM      7  C   UNL     1       4.212  -0.917   1.568  1.00  0.00     0.016 A 
ATOM      8  C   UNL     1       2.496  -2.471   2.190  1.00  0.00     0.016 A 
ATOM      9  C   UNL     1       4.967  -1.291   2.666  1.00  0.00     0.010 A 
ATOM     10  C   UNL     1       3.228  -2.820   3.332  1.00  0.00     0.010 A 
ATOM     11  C   UNL     1       4.476  -2.233   3.562  1.00  0.00    -0.014 A 
BRANCH  11  12
ATOM     12  C   UNL     1       5.364  -2.623   4.672  1.00  0.00     0.031 A 
ATOM     13  C   UNL     1       6.093  -3.926   4.574  1.00  0.00     0.074 A 
ATOM     14  C   UNL     1       5.642  -1.720   5.631  1.00  0.00     0.049 A 
ATOM     15  N   UNL     1       6.945  -4.462   5.403  1.00  0.00    -0.248 NA
ATOM     16  C   UNL     1       5.841  -4.724   3.362  1.00  0.00     0.031 C 
ATOM     17  C   UNL     1       5.068  -0.372   5.705  1.00  0.00     0.029 A 
ATOM     18  N   UNL     1       6.507  -1.769   6.691  1.00  0.00    -0.354 N 
ATOM     19  C   UNL     1       7.332  -5.662   4.818  1.00  0.00     0.074 A 
ATOM     20  C   UNL     1       6.599  -5.788   3.577  1.00  0.00     0.031 C 
ATOM     21  C   UNL     1       5.623   0.286   6.734  1.00  0.00     0.029 A 
ATOM     22  C   UNL     1       6.528  -0.614   7.439  1.00  0.00     0.049 A 
ATOM     23  H   UNL     1       7.060  -2.556   6.899  1.00  0.00     0.167 HD
ATOM     24  C   UNL     1       8.223  -6.569   5.284  1.00  0.00     0.034 A 
ATOM     25  C   UNL     1       7.181  -0.337   8.584  1.00  0.00     0.034 A 
ATOM     26  C   UNL     1       8.904  -6.413   6.545  1.00  0.00     0.049 A 
ATOM     27  C   UNL     1       8.069  -1.419   9.148  1.00  0.00     0.074 A 
ATOM     28  C   UNL     1       9.725  -7.304   7.208  1.00  0.00     0.029 A 
ATOM     29  N   UNL     1       8.835  -5.269   7.337  1.00  0.00    -0.354 N 
ATOM     30  N   UNL     1       8.347  -2.603   8.645  1.00  0.00    -0.248 NA
ATOM     31  C   UNL     1       8.726  -1.139  10.428  1.00  0.00     0.031 C 
ATOM     32  C   UNL     1      10.108  -6.722   8.423  1.00  0.00     0.029 A 
ATOM     33  C   UNL     1       9.586  -5.438   8.488  1.00  0.00     0.049 A 
ATOM     34  H   UNL     1       8.325  -4.458   7.111  1.00  0.00     0.167 HD
ATOM     35  C   UNL     1       9.222  -3.203   9.544  1.00  0.00     0.074 A 
ATOM     36  C   UNL     1       9.452  -2.233  10.598  1.00  0.00     0.031 C 
ATOM     37  C   UNL     1       9.777  -4.443   9.518  1.00  0.00     0.034 A 
BRANCH  24  38
ATOM     38  C   UNL     1       8.407  -7.821   4.464  1.00  0.00     0.023 A 
ATOM     39  C   UNL     1       8.957  -7.784   3.169  1.00  0.00     0.031 A 
ATOM     40  C   UNL     1       7.926  -9.053   4.939  1.00  0.00     0.131 A 
ATOM     41  C   UNL     1       8.937  -8.936   2.367  1.00  0.00     0.055 A 
ATOM     42  C   UNL     1       7.981 -10.214   4.164  1.00  0.00     0.041 A 
ATOM     43  F   UNL     1       7.359  -9.144   6.152  1.00  0.00    -0.206 F 
ATOM     44  C   UNL     1       8.473 -10.156   2.864  1.00  0.00     0.022 A 
BRANCH  41  45
ATOM     45  S   UNL     1       9.375  -8.783   0.612  1.00  0.00     0.124 S 
ATOM     46  O   UNL     1       8.355  -7.853   0.133  1.00  0.00    -0.237 OA
ATOM     47  O   UNL     1      10.737  -8.264   0.668  1.00  0.00    -0.237 OA
ATOM     48  O   UNL     1       9.249 -10.148   0.106  1.00  0.00    -0.744 OA
ENDBRANCH  41  45
ENDBRANCH  24  38
BRANCH  25  49
ATOM     49  C   UNL     1       6.957   0.951   9.310  1.00  0.00     0.023 A 
ATOM     50  C   UNL     1       8.015   1.816   9.631  1.00  0.00     0.031 A 
ATOM     51  C   UNL     1       5.669   1.303   9.761  1.00  0.00     0.131 A 
ATOM     52  C   UNL     1       7.777   2.955  10.421  1.00  0.00     0.055 A 
ATOM     53  C   UNL     1       5.427   2.470  10.488  1.00  0.00     0.041 A 
ATOM     54  F   UNL     1       4.616   0.512   9.501  1.00  0.00    -0.206 F 
ATOM     55  C   UNL     1       6.489   3.295  10.837  1.00  0.00     0.022 A 
BRANCH  52  56
ATOM     56  S   UNL     1       9.196   3.924  11.008  1.00  0.00     0.124 S 
ATOM     57  O   UNL     1      10.017   2.898  11.642  1.00  0.00    -0.237 OA
ATOM     58  O   UNL     1       9.715   4.484   9.765  1.00  0.00    -0.237 OA
ATOM     59  O   UNL     1       8.592   4.891  11.923  1.00  0.00    -0.744 OA
ENDBRANCH  52  56
ENDBRANCH  25  49
BRANCH  37  60
ATOM     60  C   UNL     1      10.706  -4.780  10.655  1.00  0.00     0.023 A 
ATOM     61  C   UNL     1      10.232  -4.919  11.971  1.00  0.00     0.031 A 
ATOM     62  C   UNL     1      12.082  -4.939  10.421  1.00  0.00     0.131 A 
ATOM     63  C   UNL     1      11.138  -5.141  13.016  1.00  0.00     0.055 A 
ATOM     64  C   UNL     1      12.971  -5.225  11.456  1.00  0.00     0.041 A 
ATOM     65  F   UNL     1      12.583  -4.816   9.181  1.00  0.00    -0.206 F 
ATOM     66  C   UNL     1      12.502  -5.311  12.765  1.00  0.00     0.022 A 
BRANCH  63  67
ATOM     67  S   UNL     1      10.523  -5.098  14.720  1.00  0.00     0.124 S 
ATOM     68  O   UNL     1       9.941  -3.762  14.800  1.00  0.00    -0.237 OA
ATOM     69  O   UNL     1       9.575  -6.207  14.737  1.00  0.00    -0.237 OA
ATOM     70  O   UNL     1      11.726  -5.300  15.524  1.00  0.00    -0.744 OA
ENDBRANCH  63  67
ENDBRANCH  37  60
ENDBRANCH  11  12
ENDBRANCH   4   6
ENDBRANCH   3   4
ENDBRANCH   2   3
ENDBRANCH   1   2
BRANCH   1  71
ATOM     71  O   UNL     1       4.123   1.696  -0.010  1.00  0.00    -0.374 OA
BRANCH  71  72
ATOM     72  C   UNL     1       2.800   2.132   0.324  1.00  0.00     0.202 C 
BRANCH  72  73
ATOM     73  C   UNL     1       2.859   3.561   0.866  1.00  0.00     0.261 C 
BRANCH  73  74
ATOM     74  O   UNL     1       3.313   4.408  -0.198  1.00  0.00    -0.460 OA
BRANCH  74  75
ATOM     75  C   UNL     1       4.657   4.580  -0.261  1.00  0.00     0.341 C 
ATOM     76  O   UNL     1       5.482   4.370   0.614  1.00  0.00    -0.246 OA
BRANCH  75  77
ATOM     77  C   UNL     1       5.010   4.799  -1.673  1.00  0.00     0.101 A 
ATOM     78  C   UNL     1       5.963   3.943  -2.241  1.00  0.00     0.022 A 
ATOM     79  C   UNL     1       4.395   5.772  -2.457  1.00  0.00     0.132 A 
ATOM     80  C   UNL     1       6.268   4.028  -3.601  1.00  0.00     0.028 A 
ATOM     81  C   UNL     1       4.757   5.910  -3.795  1.00  0.00     0.074 A 
ATOM     82  C   UNL     1       5.696   5.042  -4.377  1.00  0.00     0.055 A 
BRANCH  79  83
ATOM     83  O   UNL     1       3.462   6.611  -1.919  1.00  0.00    -0.507 OA
ATOM     84  H   UNL     1       3.215   6.523  -1.020  1.00  0.00     0.293 HD
ENDBRANCH  79  83
BRANCH  82  85
ATOM     85  N   UNL     1       6.154   5.275  -5.691  1.00  0.00    -0.250 N 
ATOM     86  C   UNL     1       6.496   6.529  -6.132  1.00  0.00     0.234 C 
ATOM     87  C   UNL     1       6.426   4.300  -6.625  1.00  0.00     0.241 C 
ATOM     88  O   UNL     1       6.330   7.607  -5.577  1.00  0.00    -0.274 OA
ATOM     89  C   UNL     1       7.278   6.386  -7.394  1.00  0.00     0.119 C 
ATOM     90  C   UNL     1       6.965   4.973  -7.870  1.00  0.00     0.121 C 
ATOM     91  O   UNL     1       6.232   3.095  -6.520  1.00  0.00    -0.273 OA
BRANCH  90  92
ATOM     92  C   UNL     1       6.041   4.997  -9.057  1.00  0.00    -0.010 A 
ATOM     93  C   UNL     1       4.746   4.533  -9.178  1.00  0.00     0.088 A 
ATOM     94  C   UNL     1       6.382   5.581 -10.327  1.00  0.00     0.003 A 
ATOM     95  N   UNL     1       4.297   4.820 -10.443  1.00  0.00    -0.361 N 
ATOM     96  C   UNL     1       5.269   5.481 -11.157  1.00  0.00     0.046 A 
ATOM     97  C   UNL     1       7.540   6.216 -10.827  1.00  0.00     0.010 A 
ATOM     98  H   UNL     1       3.406   4.586 -10.789  1.00  0.00     0.166 HD
ATOM     99  C   UNL     1       5.251   5.994 -12.461  1.00  0.00     0.026 A 
ATOM    100  C   UNL     1       7.538   6.741 -12.122  1.00  0.00     0.001 A 
ATOM    101  C   UNL     1       6.407   6.632 -12.925  1.00  0.00     0.002 A 
ENDBRANCH  90  92
ENDBRANCH  82  85
ENDBRANCH  75  77
ENDBRANCH  74  75
ENDBRANCH  73  74
ENDBRANCH  72  73
ENDBRANCH  71  72
ENDBRANCH   1  71
TORSDOF 20
