REMARK SMILES O=C(OCCOCCOC(=O)C1([C@H]2CS(=O)(=O)C[C@H]2O)CCCC1)c1ccc(-c2c3nc(c(-c4cc(S(=O)(=O)[O-])ccc4F)c4ccc([nH]4)c(-c4cc(S(=O)(=O)[O-])ccc4F)c4nc(c(-c5cc(S(=O)(=O)[O-])ccc5F)c5ccc2[nH]5)C=C4)C=C3)cc1
REMARK SMILES IDX 5 1 4 2 3 3 2 4 1 5 25 6 26 7 87 8 27 9 86 10 28 11 29 12
REMARK SMILES IDX 30 13 80 14 31 15 85 16 79 17 81 18 32 19 84 20 78 21 77 22
REMARK SMILES IDX 33 24 65 25 45 26 64 27 46 28 49 29 63 30 82 31 47 32 48 33
REMARK SMILES IDX 62 35 83 36 50 37 34 38 35 39 43 40 36 41 42 42 44 43 41 44
REMARK SMILES IDX 37 45 38 46 39 47 40 48 66 49 67 50 75 51 68 52 74 53 76 54
REMARK SMILES IDX 73 55 69 56 70 57 71 58 72 59 51 60 52 61 60 62 53 63 59 64
REMARK SMILES IDX 61 65 58 66 54 67 55 68 56 69 57 70 6 71 7 72 8 73 9 74
REMARK SMILES IDX 10 75 11 76 12 77 21 78 24 79 22 80 23 81 13 82 14 83 19 84
REMARK SMILES IDX 15 85 18 86 16 87 17 88 20 89
REMARK H PARENT 81 23 49 34 20 90
REMARK Flexibility Score: inf
ROOT
ATOM      1  C   UNL     1       7.230   1.007   1.404  1.00  0.00     0.202 C 
ENDROOT
BRANCH   1   2
ATOM      2  C   UNL     1       8.402   0.533   2.258  1.00  0.00     0.261 C 
BRANCH   2   3
ATOM      3  O   UNL     1       8.517  -0.898   2.282  1.00  0.00    -0.460 OA
BRANCH   3   4
ATOM      4  C   UNL     1       8.170  -1.675   3.347  1.00  0.00     0.338 C 
ATOM      5  O   UNL     1       8.514  -2.850   3.396  1.00  0.00    -0.246 OA
BRANCH   4   6
ATOM      6  C   UNL     1       7.374  -1.094   4.459  1.00  0.00     0.060 A 
ATOM      7  C   UNL     1       6.346  -0.206   4.195  1.00  0.00     0.016 A 
ATOM      8  C   UNL     1       7.585  -1.458   5.784  1.00  0.00     0.016 A 
ATOM      9  C   UNL     1       5.726   0.528   5.163  1.00  0.00     0.010 A 
ATOM     10  C   UNL     1       6.771  -0.903   6.785  1.00  0.00     0.010 A 
ATOM     11  C   UNL     1       5.842   0.104   6.468  1.00  0.00    -0.014 A 
BRANCH  11  12
ATOM     12  C   UNL     1       4.965   0.791   7.430  1.00  0.00     0.031 A 
ATOM     13  C   UNL     1       5.605   1.611   8.495  1.00  0.00     0.074 A 
ATOM     14  C   UNL     1       3.631   0.811   7.208  1.00  0.00     0.049 A 
ATOM     15  N   UNL     1       5.054   2.213   9.508  1.00  0.00    -0.248 NA
ATOM     16  C   UNL     1       7.066   1.775   8.408  1.00  0.00     0.031 C 
ATOM     17  C   UNL     1       2.945   0.167   6.074  1.00  0.00     0.029 A 
ATOM     18  N   UNL     1       2.614   1.436   7.876  1.00  0.00    -0.354 N 
ATOM     19  C   UNL     1       6.103   2.791  10.207  1.00  0.00     0.074 A 
ATOM     20  C   UNL     1       7.325   2.450   9.515  1.00  0.00     0.031 C 
ATOM     21  C   UNL     1       1.642   0.479   6.100  1.00  0.00     0.029 A 
ATOM     22  C   UNL     1       1.371   1.218   7.321  1.00  0.00     0.049 A 
ATOM     23  H   UNL     1       2.756   1.990   8.677  1.00  0.00     0.167 HD
ATOM     24  C   UNL     1       6.030   3.536  11.333  1.00  0.00     0.034 A 
ATOM     25  C   UNL     1       0.147   1.520   7.791  1.00  0.00     0.034 A 
ATOM     26  C   UNL     1       4.777   3.839  11.974  1.00  0.00     0.049 A 
ATOM     27  C   UNL     1       0.099   2.232   9.118  1.00  0.00     0.074 A 
ATOM     28  C   UNL     1       4.548   4.479  13.175  1.00  0.00     0.029 A 
ATOM     29  N   UNL     1       3.528   3.519  11.444  1.00  0.00    -0.354 N 
ATOM     30  N   UNL     1       1.099   2.660   9.858  1.00  0.00    -0.248 NA
ATOM     31  C   UNL     1      -1.227   2.491   9.681  1.00  0.00     0.031 C 
ATOM     32  C   UNL     1       3.167   4.492  13.400  1.00  0.00     0.029 A 
ATOM     33  C   UNL     1       2.526   3.936  12.302  1.00  0.00     0.049 A 
ATOM     34  H   UNL     1       3.381   3.063  10.585  1.00  0.00     0.167 HD
ATOM     35  C   UNL     1       0.519   3.255  10.971  1.00  0.00     0.074 A 
ATOM     36  C   UNL     1      -0.917   3.164  10.778  1.00  0.00     0.031 C 
ATOM     37  C   UNL     1       1.106   3.814  12.061  1.00  0.00     0.034 A 
BRANCH  24  38
ATOM     38  C   UNL     1       7.335   3.954  11.954  1.00  0.00     0.023 A 
ATOM     39  C   UNL     1       8.225   4.823  11.297  1.00  0.00     0.031 A 
ATOM     40  C   UNL     1       7.746   3.385  13.172  1.00  0.00     0.131 A 
ATOM     41  C   UNL     1       9.509   5.033  11.821  1.00  0.00     0.055 A 
ATOM     42  C   UNL     1       8.994   3.666  13.731  1.00  0.00     0.041 A 
ATOM     43  F   UNL     1       6.957   2.515  13.820  1.00  0.00    -0.206 F 
ATOM     44  C   UNL     1       9.890   4.482  13.047  1.00  0.00     0.022 A 
BRANCH  41  45
ATOM     45  S   UNL     1      10.732   5.900  10.800  1.00  0.00     0.124 S 
ATOM     46  O   UNL     1      10.846   5.001   9.653  1.00  0.00    -0.237 OA
ATOM     47  O   UNL     1      10.082   7.181  10.546  1.00  0.00    -0.237 OA
ATOM     48  O   UNL     1      11.914   5.960  11.657  1.00  0.00    -0.744 OA
ENDBRANCH  41  45
ENDBRANCH  24  38
BRANCH  25  49
ATOM     49  C   UNL     1      -1.096   1.058   7.098  1.00  0.00     0.023 A 
ATOM     50  C   UNL     1      -2.111   1.955   6.729  1.00  0.00     0.031 A 
ATOM     51  C   UNL     1      -1.331  -0.314   6.869  1.00  0.00     0.131 A 
ATOM     52  C   UNL     1      -3.328   1.471   6.217  1.00  0.00     0.055 A 
ATOM     53  C   UNL     1      -2.512  -0.784   6.290  1.00  0.00     0.041 A 
ATOM     54  F   UNL     1      -0.410  -1.231   7.208  1.00  0.00    -0.206 F 
ATOM     55  C   UNL     1      -3.529   0.110   5.981  1.00  0.00     0.022 A 
BRANCH  52  56
ATOM     56  S   UNL     1      -4.702   2.635   5.993  1.00  0.00     0.124 S 
ATOM     57  O   UNL     1      -4.800   3.237   7.318  1.00  0.00    -0.237 OA
ATOM     58  O   UNL     1      -4.197   3.499   4.932  1.00  0.00    -0.237 OA
ATOM     59  O   UNL     1      -5.820   1.773   5.615  1.00  0.00    -0.744 OA
ENDBRANCH  52  56
ENDBRANCH  25  49
BRANCH  37  60
ATOM     60  C   UNL     1       0.173   4.401  13.086  1.00  0.00     0.023 A 
ATOM     61  C   UNL     1      -0.711   3.593  13.820  1.00  0.00     0.031 A 
ATOM     62  C   UNL     1       0.150   5.788  13.306  1.00  0.00     0.131 A 
ATOM     63  C   UNL     1      -1.640   4.189  14.681  1.00  0.00     0.055 A 
ATOM     64  C   UNL     1      -0.721   6.367  14.227  1.00  0.00     0.041 A 
ATOM     65  F   UNL     1       0.973   6.603  12.626  1.00  0.00    -0.206 F 
ATOM     66  C   UNL     1      -1.636   5.568  14.906  1.00  0.00     0.022 A 
BRANCH  63  67
ATOM     67  S   UNL     1      -2.940   3.149  15.398  1.00  0.00     0.124 S 
ATOM     68  O   UNL     1      -3.572   2.592  14.207  1.00  0.00    -0.237 OA
ATOM     69  O   UNL     1      -2.175   2.210  16.212  1.00  0.00    -0.237 OA
ATOM     70  O   UNL     1      -3.759   4.098  16.150  1.00  0.00    -0.744 OA
ENDBRANCH  63  67
ENDBRANCH  37  60
ENDBRANCH  11  12
ENDBRANCH   4   6
ENDBRANCH   3   4
ENDBRANCH   2   3
ENDBRANCH   1   2
BRANCH   1  71
ATOM     71  O   UNL     1       6.040   0.241   1.350  1.00  0.00    -0.374 OA
BRANCH  71  72
ATOM     72  C   UNL     1       6.010  -0.942   0.575  1.00  0.00     0.202 C 
BRANCH  72  73
ATOM     73  C   UNL     1       4.925  -0.745  -0.479  1.00  0.00     0.261 C 
BRANCH  73  74
ATOM     74  O   UNL     1       5.385   0.249  -1.414  1.00  0.00    -0.463 OA
BRANCH  74  75
ATOM     75  C   UNL     1       5.258   1.568  -1.061  1.00  0.00     0.312 C 
ATOM     76  O   UNL     1       4.513   2.006  -0.199  1.00  0.00    -0.252 OA
BRANCH  75  77
ATOM     77  C   UNL     1       6.178   2.444  -1.948  1.00  0.00     0.074 C 
ATOM     78  C   UNL     1       7.552   1.760  -2.129  1.00  0.00     0.019 C 
ATOM     79  C   UNL     1       5.507   2.342  -3.342  1.00  0.00     0.019 C 
ATOM     80  C   UNL     1       7.889   1.823  -3.603  1.00  0.00     0.001 C 
ATOM     81  C   UNL     1       6.562   1.871  -4.333  1.00  0.00     0.001 C 
BRANCH  77  82
ATOM     82  C   UNL     1       6.229   3.943  -1.409  1.00  0.00     0.051 C 
ATOM     83  C   UNL     1       6.851   4.191  -0.016  1.00  0.00     0.144 C 
ATOM     84  C   UNL     1       6.902   5.051  -2.257  1.00  0.00     0.134 C 
ATOM     85  S   UNL     1       8.518   4.798  -0.231  1.00  0.00     0.153 S 
ATOM     86  C   UNL     1       8.397   5.078  -1.972  1.00  0.00     0.169 C 
ATOM     87  O   UNL     1       8.651   6.087   0.419  1.00  0.00    -0.229 OA
ATOM     88  O   UNL     1       9.454   3.721   0.001  1.00  0.00    -0.229 OA
BRANCH  84  89
ATOM     89  O   UNL     1       6.613   4.989  -3.637  1.00  0.00    -0.392 OA
ATOM     90  H   UNL     1       6.969   4.165  -4.005  1.00  0.00     0.211 HD
ENDBRANCH  84  89
ENDBRANCH  77  82
ENDBRANCH  75  77
ENDBRANCH  74  75
ENDBRANCH  73  74
ENDBRANCH  72  73
ENDBRANCH  71  72
ENDBRANCH   1  71
TORSDOF 19
