REMARK SMILES Cc1ccccc1NC(=O)CSc1nc(C(=O)OCCOCCOC(=O)c2ccc(-c3c4nc(c(-c5cc(S(=O)(=O)[O-])ccc5F)c5ccc([nH]5)c(-c5cc(S(=O)(=O)[O-])ccc5F)c5nc(c(-c6cc(S(=O)(=O)[O-])ccc6F)c6ccc3[nH]6)C=C5)C=C4)cc2)c2ccccc2n1
REMARK SMILES IDX 20 1 19 2 18 3 16 4 17 5 15 6 13 7 14 8 96 9 95 10 90 11
REMARK SMILES IDX 94 12 91 13 93 14 92 15 12 16 11 17 9 18 8 19 10 21 7 22
REMARK SMILES IDX 1 23 2 24 3 25 4 26 6 27 5 28 21 29 22 30 23 31 24 32 25 33
REMARK SMILES IDX 26 34 27 35 28 36 89 37 29 38 88 39 30 40 31 41 32 42 82 43
REMARK SMILES IDX 33 44 87 45 81 46 83 47 34 48 86 49 80 50 79 51 35 53 67 54
REMARK SMILES IDX 47 55 66 56 48 57 51 58 65 59 84 60 49 61 50 62 64 64 85 65
REMARK SMILES IDX 52 66 36 67 37 68 45 69 38 70 44 71 46 72 43 73 39 74 40 75
REMARK SMILES IDX 41 76 42 77 68 78 69 79 77 80 70 81 76 82 78 83 75 84 71 85
REMARK SMILES IDX 72 86 73 87 74 88 53 89 54 90 62 91 55 92 61 93 63 94 60 95
REMARK SMILES IDX 56 96 57 97 58 98 59 99
REMARK H PARENT 8 20 83 52 51 63
REMARK Flexibility Score: inf
ROOT
ATOM      1  C   UNL     1      -3.170   7.266  -6.339  1.00  0.00     0.202 C 
ENDROOT
BRANCH   1   2
ATOM      2  C   UNL     1      -1.753   7.730  -6.383  1.00  0.00     0.261 C 
BRANCH   2   3
ATOM      3  O   UNL     1      -0.904   6.800  -5.692  1.00  0.00    -0.458 OA
BRANCH   3   4
ATOM      4  C   UNL     1      -0.979   6.536  -4.367  1.00  0.00     0.357 C 
ATOM      5  O   UNL     1      -1.408   7.240  -3.482  1.00  0.00    -0.244 OA
BRANCH   4   6
ATOM      6  C   UNL     1      -0.629   5.098  -4.185  1.00  0.00     0.160 A 
ATOM      7  C   UNL     1      -1.208   3.320  -2.909  1.00  0.00     0.189 A 
ATOM      8  N   UNL     1      -1.160   4.630  -3.039  1.00  0.00    -0.215 NA
ATOM      9  N   UNL     1      -0.770   2.437  -3.814  1.00  0.00    -0.222 NA
ATOM     10  C   UNL     1      -0.208   2.922  -4.933  1.00  0.00     0.076 A 
ATOM     11  C   UNL     1      -0.075   4.286  -5.192  1.00  0.00     0.034 A 
ATOM     12  C   UNL     1       0.203   2.023  -5.914  1.00  0.00     0.029 A 
ATOM     13  C   UNL     1       0.518   4.694  -6.424  1.00  0.00     0.013 A 
ATOM     14  C   UNL     1       0.713   2.436  -7.150  1.00  0.00     0.002 A 
ATOM     15  C   UNL     1       0.868   3.782  -7.408  1.00  0.00     0.001 A 
BRANCH   7  16
ATOM     16  S   UNL     1      -2.163   2.741  -1.548  1.00  0.00    -0.076 SA
BRANCH  16  17
ATOM     17  C   UNL     1      -1.389   3.730  -0.221  1.00  0.00     0.178 C 
BRANCH  17  18
ATOM     18  C   UNL     1       0.102   3.491  -0.081  1.00  0.00     0.234 C 
ATOM     19  N   UNL     1       0.671   2.281   0.194  1.00  0.00    -0.325 N 
ATOM     20  H   UNL     1       1.646   2.335   0.323  1.00  0.00     0.169 HD
ATOM     21  O   UNL     1       0.889   4.436  -0.223  1.00  0.00    -0.274 OA
BRANCH  19  22
ATOM     22  C   UNL     1       0.169   0.973   0.335  1.00  0.00     0.044 A 
ATOM     23  C   UNL     1       2.516  -0.030  -0.077  1.00  0.00     0.046 C 
ATOM     24  C   UNL     1       1.022  -0.123   0.094  1.00  0.00    -0.027 A 
ATOM     25  C   UNL     1       0.465  -1.416  -0.004  1.00  0.00     0.005 A 
ATOM     26  C   UNL     1      -0.899  -1.631   0.167  1.00  0.00     0.000 A 
ATOM     27  C   UNL     1      -1.167   0.709   0.653  1.00  0.00     0.026 A 
ATOM     28  C   UNL     1      -1.712  -0.570   0.528  1.00  0.00     0.002 A 
ENDBRANCH  19  22
ENDBRANCH  17  18
ENDBRANCH  16  17
ENDBRANCH   7  16
ENDBRANCH   4   6
ENDBRANCH   3   4
ENDBRANCH   2   3
ENDBRANCH   1   2
BRANCH   1  29
ATOM     29  O   UNL     1      -3.559   7.435  -4.988  1.00  0.00    -0.374 OA
BRANCH  29  30
ATOM     30  C   UNL     1      -4.798   6.890  -4.617  1.00  0.00     0.202 C 
BRANCH  30  31
ATOM     31  C   UNL     1      -5.932   7.588  -5.368  1.00  0.00     0.261 C 
BRANCH  31  32
ATOM     32  O   UNL     1      -5.991   8.991  -5.007  1.00  0.00    -0.460 OA
BRANCH  32  33
ATOM     33  C   UNL     1      -5.326   9.860  -5.829  1.00  0.00     0.338 C 
ATOM     34  O   UNL     1      -5.590  10.036  -7.007  1.00  0.00    -0.246 OA
BRANCH  33  35
ATOM     35  C   UNL     1      -4.141  10.450  -5.132  1.00  0.00     0.060 A 
ATOM     36  C   UNL     1      -3.131  11.122  -5.854  1.00  0.00     0.016 A 
ATOM     37  C   UNL     1      -3.898  10.044  -3.828  1.00  0.00     0.016 A 
ATOM     38  C   UNL     1      -1.826  11.216  -5.333  1.00  0.00     0.010 A 
ATOM     39  C   UNL     1      -2.593  10.004  -3.396  1.00  0.00     0.010 A 
ATOM     40  C   UNL     1      -1.537  10.555  -4.146  1.00  0.00    -0.014 A 
BRANCH  40  41
ATOM     41  C   UNL     1      -0.215  10.294  -3.556  1.00  0.00     0.031 A 
ATOM     42  C   UNL     1      -0.027  10.762  -2.163  1.00  0.00     0.074 A 
ATOM     43  C   UNL     1       0.616   9.346  -4.064  1.00  0.00     0.049 A 
ATOM     44  N   UNL     1       1.016  10.532  -1.458  1.00  0.00    -0.248 NA
ATOM     45  C   UNL     1      -1.012  11.568  -1.436  1.00  0.00     0.031 C 
ATOM     46  C   UNL     1       1.518   8.443  -3.336  1.00  0.00     0.029 A 
ATOM     47  N   UNL     1       0.813   8.959  -5.388  1.00  0.00    -0.354 N 
ATOM     48  C   UNL     1       0.712  10.799  -0.145  1.00  0.00     0.074 A 
ATOM     49  C   UNL     1      -0.506  11.559  -0.201  1.00  0.00     0.031 C 
ATOM     50  C   UNL     1       2.325   7.800  -4.199  1.00  0.00     0.029 A 
ATOM     51  C   UNL     1       2.080   8.365  -5.512  1.00  0.00     0.049 A 
ATOM     52  H   UNL     1       0.167   9.083  -6.120  1.00  0.00     0.167 HD
ATOM     53  C   UNL     1       1.493  10.221   0.808  1.00  0.00     0.034 A 
ATOM     54  C   UNL     1       2.988   8.903  -6.369  1.00  0.00     0.034 A 
ATOM     55  C   UNL     1       2.666   9.592   0.176  1.00  0.00     0.049 A 
ATOM     56  C   UNL     1       4.083   9.514  -5.518  1.00  0.00     0.074 A 
ATOM     57  C   UNL     1       3.067   8.287  -0.052  1.00  0.00     0.029 A 
ATOM     58  N   UNL     1       3.473  10.387  -0.638  1.00  0.00    -0.354 N 
ATOM     59  N   UNL     1       3.918   9.822  -4.255  1.00  0.00    -0.248 NA
ATOM     60  C   UNL     1       5.467   9.670  -5.946  1.00  0.00     0.031 C 
ATOM     61  C   UNL     1       4.074   8.315  -1.071  1.00  0.00     0.029 A 
ATOM     62  C   UNL     1       4.306   9.635  -1.436  1.00  0.00     0.049 A 
ATOM     63  H   UNL     1       3.450  11.371  -0.641  1.00  0.00     0.167 HD
ATOM     64  C   UNL     1       5.122  10.082  -3.672  1.00  0.00     0.074 A 
ATOM     65  C   UNL     1       6.059  10.016  -4.787  1.00  0.00     0.031 C 
ATOM     66  C   UNL     1       5.264  10.294  -2.326  1.00  0.00     0.034 A 
BRANCH  53  67
ATOM     67  C   UNL     1       1.171  10.086   2.283  1.00  0.00     0.023 A 
ATOM     68  C   UNL     1       2.081   9.383   3.102  1.00  0.00     0.031 A 
ATOM     69  C   UNL     1       0.007  10.537   2.944  1.00  0.00     0.131 A 
ATOM     70  C   UNL     1       1.828   9.157   4.469  1.00  0.00     0.055 A 
ATOM     71  C   UNL     1      -0.230  10.341   4.312  1.00  0.00     0.041 A 
ATOM     72  F   UNL     1      -0.990  11.164   2.317  1.00  0.00    -0.206 F 
ATOM     73  C   UNL     1       0.680   9.645   5.084  1.00  0.00     0.022 A 
BRANCH  70  74
ATOM     74  S   UNL     1       3.017   8.195   5.441  1.00  0.00     0.124 S 
ATOM     75  O   UNL     1       2.943   6.883   4.808  1.00  0.00    -0.237 OA
ATOM     76  O   UNL     1       4.255   8.941   5.247  1.00  0.00    -0.237 OA
ATOM     77  O   UNL     1       2.472   8.254   6.797  1.00  0.00    -0.744 OA
ENDBRANCH  70  74
ENDBRANCH  53  67
BRANCH  54  78
ATOM     78  C   UNL     1       2.291   9.418  -7.604  1.00  0.00     0.023 A 
ATOM     79  C   UNL     1       1.748   8.449  -8.500  1.00  0.00     0.031 A 
ATOM     80  C   UNL     1       1.678  10.684  -7.587  1.00  0.00     0.131 A 
ATOM     81  C   UNL     1       0.549   8.707  -9.200  1.00  0.00     0.055 A 
ATOM     82  C   UNL     1       0.480  10.925  -8.280  1.00  0.00     0.041 A 
ATOM     83  F   UNL     1       2.115  11.639  -6.754  1.00  0.00    -0.206 F 
ATOM     84  C   UNL     1      -0.112   9.927  -9.052  1.00  0.00     0.022 A 
BRANCH  81  85
ATOM     85  S   UNL     1      -0.261   7.367 -10.147  1.00  0.00     0.124 S 
ATOM     86  O   UNL     1       0.712   7.093 -11.197  1.00  0.00    -0.237 OA
ATOM     87  O   UNL     1      -0.419   6.319  -9.144  1.00  0.00    -0.237 OA
ATOM     88  O   UNL     1      -1.516   7.970 -10.593  1.00  0.00    -0.744 OA
ENDBRANCH  81  85
ENDBRANCH  54  78
BRANCH  66  89
ATOM     89  C   UNL     1       6.375  11.126  -1.721  1.00  0.00     0.023 A 
ATOM     90  C   UNL     1       7.324  11.782  -2.508  1.00  0.00     0.031 A 
ATOM     91  C   UNL     1       6.455  11.397  -0.332  1.00  0.00     0.131 A 
ATOM     92  C   UNL     1       8.346  12.552  -1.940  1.00  0.00     0.055 A 
ATOM     93  C   UNL     1       7.407  12.254   0.226  1.00  0.00     0.041 A 
ATOM     94  F   UNL     1       5.599  10.874   0.556  1.00  0.00    -0.206 F 
ATOM     95  C   UNL     1       8.382  12.820  -0.578  1.00  0.00     0.022 A 
BRANCH  92  96
ATOM     96  S   UNL     1       9.665  13.107  -3.041  1.00  0.00     0.124 S 
ATOM     97  O   UNL     1      10.203  11.838  -3.524  1.00  0.00    -0.237 OA
ATOM     98  O   UNL     1       8.938  13.898  -4.029  1.00  0.00    -0.237 OA
ATOM     99  O   UNL     1      10.551  13.865  -2.162  1.00  0.00    -0.744 OA
ENDBRANCH  92  96
ENDBRANCH  66  89
ENDBRANCH  40  41
ENDBRANCH  33  35
ENDBRANCH  32  33
ENDBRANCH  31  32
ENDBRANCH  30  31
ENDBRANCH  29  30
ENDBRANCH   1  29
TORSDOF 21
