REMARK SMILES O=C(C[C@H]1COCC[NH2+]1)Nc1cncc(C(=O)OCCOCCOC(=O)c2ccc(-c3c4nc(c(-c5cc(S(=O)(=O)[O-])ccc5F)c5ccc([nH]5)c(-c5cc(S(=O)(=O)[O-])ccc5F)c5nc(c(-c6cc(S(=O)(=O)[O-])ccc6F)c6ccc3[nH]6)C=C5)C=C4)cc2)c1
REMARK SMILES IDX 21 1 20 2 19 3 18 4 16 5 17 6 15 7 11 8 12 9 90 10 13 11
REMARK SMILES IDX 14 12 10 13 1 14 2 15 3 17 4 18 5 19 9 20 6 21 8 22 7 25
REMARK SMILES IDX 22 26 23 27 24 28 25 29 26 30 27 31 28 32 89 33 29 34 88 35
REMARK SMILES IDX 30 36 31 37 32 38 82 39 33 40 87 41 81 42 83 43 34 44 86 45
REMARK SMILES IDX 80 46 79 47 35 49 67 50 47 51 66 52 48 53 51 54 65 55 84 56
REMARK SMILES IDX 49 57 50 58 64 60 85 61 52 62 36 63 37 64 45 65 38 66 44 67
REMARK SMILES IDX 46 68 43 69 39 70 40 71 41 72 42 73 68 74 69 75 77 76 70 77
REMARK SMILES IDX 76 78 78 79 75 80 71 81 72 82 73 83 74 84 53 85 54 86 62 87
REMARK SMILES IDX 55 88 61 89 63 90 60 91 56 92 57 93 58 94 59 95
REMARK H PARENT 10 16 9 23 9 24 83 48 51 59
REMARK Flexibility Score: inf
ROOT
ATOM      1  O   UNL     1      12.603  -5.675  -4.805  1.00  0.00    -0.374 OA
ENDROOT
BRANCH   1   2
ATOM      2  C   UNL     1      13.029  -4.499  -4.109  1.00  0.00     0.202 C 
BRANCH   2   3
ATOM      3  C   UNL     1      12.350  -3.196  -4.548  1.00  0.00     0.261 C 
BRANCH   3   4
ATOM      4  O   UNL     1      10.969  -3.188  -4.144  1.00  0.00    -0.460 OA
BRANCH   4   5
ATOM      5  C   UNL     1      10.053  -3.240  -5.140  1.00  0.00     0.339 C 
ATOM      6  O   UNL     1      10.245  -3.118  -6.338  1.00  0.00    -0.246 OA
BRANCH   5   7
ATOM      7  C   UNL     1       8.796  -3.754  -4.573  1.00  0.00     0.080 A 
ATOM      8  C   UNL     1       7.177  -4.010  -2.821  1.00  0.00     0.060 A 
ATOM      9  C   UNL     1       6.677  -5.098  -3.539  1.00  0.00     0.137 A 
ATOM     10  C   UNL     1       8.285  -3.347  -3.340  1.00  0.00     0.045 A 
ATOM     11  N   UNL     1       7.131  -5.497  -4.751  1.00  0.00    -0.262 NA
ATOM     12  C   UNL     1       8.172  -4.794  -5.252  1.00  0.00     0.126 A 
BRANCH   8  13
ATOM     13  N   UNL     1       6.505  -3.616  -1.648  1.00  0.00    -0.324 N 
ATOM     14  O   UNL     1       7.150  -1.384  -1.524  1.00  0.00    -0.274 OA
ATOM     15  C   UNL     1       6.462  -2.329  -1.152  1.00  0.00     0.230 C 
ATOM     16  H   UNL     1       6.028  -4.313  -1.142  1.00  0.00     0.169 HD
BRANCH  15  17
ATOM     17  C   UNL     1       5.390  -2.142  -0.098  1.00  0.00     0.167 C 
BRANCH  17  18
ATOM     18  C   UNL     1       3.958  -1.929  -0.635  1.00  0.00     0.218 C 
ATOM     19  C   UNL     1       3.871  -1.001  -1.864  1.00  0.00     0.225 C 
ATOM     20  N   UNL     1       3.177  -3.189  -0.781  1.00  0.00    -0.340 N 
ATOM     21  O   UNL     1       4.174  -1.698  -3.074  1.00  0.00    -0.369 OA
ATOM     22  C   UNL     1       3.233  -3.756  -2.140  1.00  0.00     0.289 C 
ATOM     23  H   UNL     1       2.203  -2.994  -0.551  1.00  0.00     0.346 HD
ATOM     24  H   UNL     1       3.591  -3.875  -0.150  1.00  0.00     0.346 HD
ATOM     25  C   UNL     1       3.235  -2.748  -3.294  1.00  0.00     0.221 C 
ENDBRANCH  17  18
ENDBRANCH  15  17
ENDBRANCH   8  13
ENDBRANCH   5   7
ENDBRANCH   4   5
ENDBRANCH   3   4
ENDBRANCH   2   3
ENDBRANCH   1   2
BRANCH   1  26
ATOM     26  C   UNL     1      11.416  -6.305  -4.322  1.00  0.00     0.202 C 
BRANCH  26  27
ATOM     27  C   UNL     1      11.586  -7.268  -3.142  1.00  0.00     0.261 C 
BRANCH  27  28
ATOM     28  O   UNL     1      11.979  -6.576  -1.944  1.00  0.00    -0.460 OA
BRANCH  28  29
ATOM     29  C   UNL     1      13.283  -6.742  -1.614  1.00  0.00     0.338 C 
ATOM     30  O   UNL     1      14.090  -7.468  -2.169  1.00  0.00    -0.246 OA
BRANCH  29  31
ATOM     31  C   UNL     1      13.674  -5.774  -0.570  1.00  0.00     0.060 A 
ATOM     32  C   UNL     1      14.862  -5.065  -0.781  1.00  0.00     0.016 A 
ATOM     33  C   UNL     1      12.955  -5.617   0.618  1.00  0.00     0.016 A 
ATOM     34  C   UNL     1      15.379  -4.256   0.226  1.00  0.00     0.010 A 
ATOM     35  C   UNL     1      13.477  -4.803   1.631  1.00  0.00     0.010 A 
ATOM     36  C   UNL     1      14.717  -4.159   1.456  1.00  0.00    -0.014 A 
BRANCH  36  37
ATOM     37  C   UNL     1      15.425  -3.525   2.597  1.00  0.00     0.031 A 
ATOM     38  C   UNL     1      16.078  -4.407   3.629  1.00  0.00     0.074 A 
ATOM     39  C   UNL     1      15.547  -2.188   2.673  1.00  0.00     0.049 A 
ATOM     40  N   UNL     1      16.785  -4.076   4.679  1.00  0.00    -0.248 NA
ATOM     41  C   UNL     1      15.903  -5.856   3.454  1.00  0.00     0.031 C 
ATOM     42  C   UNL     1      14.980  -1.236   1.719  1.00  0.00     0.029 A 
ATOM     43  N   UNL     1      16.191  -1.400   3.593  1.00  0.00    -0.354 N 
ATOM     44  C   UNL     1      17.134  -5.275   5.294  1.00  0.00     0.074 A 
ATOM     45  C   UNL     1      16.521  -6.335   4.522  1.00  0.00     0.031 C 
ATOM     46  C   UNL     1      15.298   0.010   2.106  1.00  0.00     0.029 A 
ATOM     47  C   UNL     1      16.066  -0.053   3.349  1.00  0.00     0.049 A 
ATOM     48  H   UNL     1      16.695  -1.765   4.356  1.00  0.00     0.167 HD
ATOM     49  C   UNL     1      17.905  -5.473   6.393  1.00  0.00     0.034 A 
ATOM     50  C   UNL     1      16.505   1.008   4.056  1.00  0.00     0.034 A 
ATOM     51  C   UNL     1      18.506  -4.402   7.152  1.00  0.00     0.049 A 
ATOM     52  C   UNL     1      17.321   0.768   5.302  1.00  0.00     0.074 A 
ATOM     53  C   UNL     1      19.333  -4.487   8.259  1.00  0.00     0.029 A 
ATOM     54  N   UNL     1      18.332  -3.047   6.894  1.00  0.00    -0.354 N 
ATOM     55  N   UNL     1      17.675  -0.371   5.854  1.00  0.00    -0.248 NA
ATOM     56  C   UNL     1      17.814   1.957   6.008  1.00  0.00     0.031 C 
ATOM     57  C   UNL     1      19.590  -3.190   8.716  1.00  0.00     0.029 A 
ATOM     58  C   UNL     1      19.001  -2.288   7.844  1.00  0.00     0.049 A 
ATOM     59  H   UNL     1      17.809  -2.679   6.145  1.00  0.00     0.167 HD
ATOM     60  C   UNL     1      18.454  -0.033   6.959  1.00  0.00     0.074 A 
ATOM     61  C   UNL     1      18.533   1.414   6.979  1.00  0.00     0.031 C 
ATOM     62  C   UNL     1      19.055  -0.844   7.869  1.00  0.00     0.034 A 
BRANCH  49  63
ATOM     63  C   UNL     1      18.085  -6.898   6.866  1.00  0.00     0.023 A 
ATOM     64  C   UNL     1      18.715  -7.875   6.074  1.00  0.00     0.031 A 
ATOM     65  C   UNL     1      17.576  -7.296   8.115  1.00  0.00     0.131 A 
ATOM     66  C   UNL     1      18.745  -9.212   6.501  1.00  0.00     0.055 A 
ATOM     67  C   UNL     1      17.686  -8.611   8.573  1.00  0.00     0.041 A 
ATOM     68  F   UNL     1      16.943  -6.417   8.907  1.00  0.00    -0.206 F 
ATOM     69  C   UNL     1      18.258  -9.582   7.756  1.00  0.00     0.022 A 
BRANCH  66  70
ATOM     70  S   UNL     1      19.279 -10.488   5.326  1.00  0.00     0.124 S 
ATOM     71  O   UNL     1      18.355 -10.272   4.215  1.00  0.00    -0.237 OA
ATOM     72  O   UNL     1      20.670 -10.128   5.081  1.00  0.00    -0.237 OA
ATOM     73  O   UNL     1      19.076 -11.736   6.060  1.00  0.00    -0.744 OA
ENDBRANCH  66  70
ENDBRANCH  49  63
BRANCH  50  74
ATOM     74  C   UNL     1      16.152   2.391   3.625  1.00  0.00     0.023 A 
ATOM     75  C   UNL     1      17.132   3.307   3.214  1.00  0.00     0.031 A 
ATOM     76  C   UNL     1      14.814   2.825   3.655  1.00  0.00     0.131 A 
ATOM     77  C   UNL     1      16.765   4.622   2.884  1.00  0.00     0.055 A 
ATOM     78  C   UNL     1      14.448   4.117   3.276  1.00  0.00     0.041 A 
ATOM     79  F   UNL     1      13.837   1.989   4.041  1.00  0.00    -0.206 F 
ATOM     80  C   UNL     1      15.428   5.029   2.899  1.00  0.00     0.022 A 
BRANCH  77  81
ATOM     81  S   UNL     1      18.071   5.822   2.502  1.00  0.00     0.124 S 
ATOM     82  O   UNL     1      18.855   5.810   3.731  1.00  0.00    -0.237 OA
ATOM     83  O   UNL     1      18.702   5.221   1.331  1.00  0.00    -0.237 OA
ATOM     84  O   UNL     1      17.333   7.057   2.243  1.00  0.00    -0.744 OA
ENDBRANCH  77  81
ENDBRANCH  50  74
BRANCH  62  85
ATOM     85  C   UNL     1      19.885  -0.175   8.942  1.00  0.00     0.023 A 
ATOM     86  C   UNL     1      19.309   0.669   9.908  1.00  0.00     0.031 A 
ATOM     87  C   UNL     1      21.278  -0.368   8.982  1.00  0.00     0.131 A 
ATOM     88  C   UNL     1      20.129   1.342  10.828  1.00  0.00     0.055 A 
ATOM     89  C   UNL     1      22.080   0.249   9.943  1.00  0.00     0.041 A 
ATOM     90  F   UNL     1      21.885  -1.160   8.084  1.00  0.00    -0.206 F 
ATOM     91  C   UNL     1      21.508   1.123  10.863  1.00  0.00     0.022 A 
BRANCH  88  92
ATOM     92  S   UNL     1      19.383   2.599  11.903  1.00  0.00     0.124 S 
ATOM     93  O   UNL     1      18.765   3.498  10.935  1.00  0.00    -0.237 OA
ATOM     94  O   UNL     1      18.464   1.808  12.716  1.00  0.00    -0.237 OA
ATOM     95  O   UNL     1      20.526   3.155  12.624  1.00  0.00    -0.744 OA
ENDBRANCH  88  92
ENDBRANCH  62  85
ENDBRANCH  36  37
ENDBRANCH  29  31
ENDBRANCH  28  29
ENDBRANCH  27  28
ENDBRANCH  26  27
ENDBRANCH   1  26
TORSDOF 20
