REMARK SMILES CCCCCn1c(SCC(=O)OCCOCCOC(=O)c2ccc(-c3c4nc(c(-c5cc(S(=O)(=O)[O-])ccc5F)c5ccc([nH]5)c(-c5cc(S(=O)(=O)[O-])ccc5F)c5nc(c(-c6cc(S(=O)(=O)[O-])ccc6F)c6ccc3[nH]6)C=C5)C=C4)cc2)nc2ccccc2c1=O
REMARK SMILES IDX 13 1 12 2 10 3 11 4 9 5 8 6 7 7 6 8 91 9 84 10 90 11 92 12
REMARK SMILES IDX 85 13 89 14 86 15 88 16 87 17 5 18 4 19 3 20 2 21 1 22 14 23
REMARK SMILES IDX 15 24 16 25 17 26 18 27 19 28 20 29 21 30 22 31 83 32 23 33
REMARK SMILES IDX 82 34 24 35 25 36 26 37 76 38 27 39 81 40 75 41 77 42 28 43
REMARK SMILES IDX 80 44 74 45 73 46 29 48 61 49 41 50 60 51 42 52 45 53 59 54
REMARK SMILES IDX 78 55 43 56 44 57 58 59 79 60 46 61 30 62 31 63 39 64 32 65
REMARK SMILES IDX 38 66 40 67 37 68 33 69 34 70 35 71 36 72 62 73 63 74 71 75
REMARK SMILES IDX 64 76 70 77 72 78 69 79 65 80 66 81 67 82 68 83 47 84 48 85
REMARK SMILES IDX 56 86 49 87 55 88 57 89 54 90 50 91 51 92 52 93 53 94
REMARK H PARENT 77 47 45 58
REMARK Flexibility Score: inf
ROOT
ATOM      1  C   UNL     1       1.521   0.833  -2.667  1.00  0.00     0.261 C 
ENDROOT
BRANCH   1   2
ATOM      2  O   UNL     1       1.438   2.281  -2.918  1.00  0.00    -0.463 OA
BRANCH   2   3
ATOM      3  C   UNL     1       0.738   2.751  -3.980  1.00  0.00     0.316 C 
ATOM      4  O   UNL     1       0.322   2.000  -4.862  1.00  0.00    -0.251 OA
BRANCH   3   5
ATOM      5  C   UNL     1       0.397   4.257  -4.025  1.00  0.00     0.200 C 
BRANCH   5   6
ATOM      6  S   UNL     1       0.984   5.468  -2.797  1.00  0.00    -0.076 SA
BRANCH   6   7
ATOM      7  C   UNL     1      -0.328   5.616  -1.630  1.00  0.00     0.171 A 
ATOM      8  N   UNL     1      -0.738   4.471  -1.026  1.00  0.00    -0.287 N 
ATOM      9  C   UNL     1      -2.077   4.377  -0.656  1.00  0.00     0.262 A 
ATOM     10  N   UNL     1      -0.867   6.763  -1.324  1.00  0.00    -0.224 NA
ATOM     11  C   UNL     1      -2.580   5.582  -0.014  1.00  0.00     0.066 A 
ATOM     12  O   UNL     1      -2.781   3.376  -0.751  1.00  0.00    -0.269 OA
ATOM     13  C   UNL     1      -1.862   6.744  -0.298  1.00  0.00     0.079 A 
ATOM     14  C   UNL     1      -3.541   5.483   1.004  1.00  0.00     0.016 A 
ATOM     15  C   UNL     1      -2.113   7.843   0.525  1.00  0.00     0.029 A 
ATOM     16  C   UNL     1      -3.758   6.582   1.822  1.00  0.00     0.001 A 
ATOM     17  C   UNL     1      -3.036   7.755   1.589  1.00  0.00     0.002 A 
BRANCH   8  18
ATOM     18  C   UNL     1       0.050   3.277  -0.845  1.00  0.00     0.128 C 
BRANCH  18  19
ATOM     19  C   UNL     1       1.554   3.357  -0.328  1.00  0.00     0.022 C 
BRANCH  19  20
ATOM     20  C   UNL     1       2.555   2.147   0.184  1.00  0.00     0.002 C 
BRANCH  20  21
ATOM     21  C   UNL     1       2.463   1.100   1.379  1.00  0.00    -0.003 C 
ATOM     22  C   UNL     1       2.438  -0.422   1.188  1.00  0.00     0.004 C 
ENDBRANCH  20  21
ENDBRANCH  19  20
ENDBRANCH  18  19
ENDBRANCH   8  18
ENDBRANCH   6   7
ENDBRANCH   5   6
ENDBRANCH   3   5
ENDBRANCH   2   3
ENDBRANCH   1   2
BRANCH   1  23
ATOM     23  C   UNL     1       0.509   0.196  -1.583  1.00  0.00     0.202 C 
BRANCH  23  24
ATOM     24  O   UNL     1       0.395   0.935  -0.351  1.00  0.00    -0.374 OA
BRANCH  24  25
ATOM     25  C   UNL     1      -0.578   0.725   0.703  1.00  0.00     0.202 C 
BRANCH  25  26
ATOM     26  C   UNL     1      -0.658   1.908   1.911  1.00  0.00     0.261 C 
BRANCH  26  27
ATOM     27  O   UNL     1       0.431   2.940   1.989  1.00  0.00    -0.460 OA
BRANCH  27  28
ATOM     28  C   UNL     1       1.025   3.373   3.155  1.00  0.00     0.338 C 
ATOM     29  O   UNL     1       0.566   3.136   4.265  1.00  0.00    -0.246 OA
BRANCH  28  30
ATOM     30  C   UNL     1       2.454   3.952   2.971  1.00  0.00     0.060 A 
ATOM     31  C   UNL     1       2.792   5.157   2.332  1.00  0.00     0.016 A 
ATOM     32  C   UNL     1       3.540   3.216   3.479  1.00  0.00     0.016 A 
ATOM     33  C   UNL     1       4.166   5.559   2.151  1.00  0.00     0.010 A 
ATOM     34  C   UNL     1       4.901   3.593   3.267  1.00  0.00     0.010 A 
ATOM     35  C   UNL     1       5.254   4.775   2.598  1.00  0.00    -0.014 A 
BRANCH  35  36
ATOM     36  C   UNL     1       6.699   5.269   2.639  1.00  0.00     0.031 A 
ATOM     37  C   UNL     1       7.815   4.846   1.684  1.00  0.00     0.074 A 
ATOM     38  C   UNL     1       7.070   6.059   3.674  1.00  0.00     0.049 A 
ATOM     39  N   UNL     1       9.086   5.203   1.683  1.00  0.00    -0.248 NA
ATOM     40  C   UNL     1       7.478   3.908   0.608  1.00  0.00     0.031 C 
ATOM     41  C   UNL     1       6.164   6.528   4.717  1.00  0.00     0.029 A 
ATOM     42  N   UNL     1       8.296   6.583   4.039  1.00  0.00    -0.354 N 
ATOM     43  C   UNL     1       9.697   4.551   0.608  1.00  0.00     0.074 A 
ATOM     44  C   UNL     1       8.653   3.748  -0.003  1.00  0.00     0.031 C 
ATOM     45  C   UNL     1       6.854   7.264   5.601  1.00  0.00     0.029 A 
ATOM     46  C   UNL     1       8.265   7.308   5.213  1.00  0.00     0.049 A 
ATOM     47  H   UNL     1       9.116   6.452   3.511  1.00  0.00     0.167 HD
ATOM     48  C   UNL     1      10.986   4.618   0.162  1.00  0.00     0.034 A 
ATOM     49  C   UNL     1       9.233   7.940   5.915  1.00  0.00     0.034 A 
ATOM     50  C   UNL     1      12.045   5.414   0.758  1.00  0.00     0.049 A 
ATOM     51  C   UNL     1      10.659   7.974   5.418  1.00  0.00     0.074 A 
ATOM     52  C   UNL     1      13.343   5.595   0.292  1.00  0.00     0.029 A 
ATOM     53  N   UNL     1      11.959   6.142   1.933  1.00  0.00    -0.354 N 
ATOM     54  N   UNL     1      11.163   7.473   4.318  1.00  0.00    -0.248 NA
ATOM     55  C   UNL     1      11.648   8.681   6.252  1.00  0.00     0.031 C 
ATOM     56  C   UNL     1      14.055   6.360   1.216  1.00  0.00     0.029 A 
ATOM     57  C   UNL     1      13.184   6.733   2.223  1.00  0.00     0.049 A 
ATOM     58  H   UNL     1      11.147   6.228   2.484  1.00  0.00     0.167 HD
ATOM     59  C   UNL     1      12.508   7.843   4.307  1.00  0.00     0.074 A 
ATOM     60  C   UNL     1      12.739   8.624   5.500  1.00  0.00     0.031 C 
ATOM     61  C   UNL     1      13.455   7.549   3.382  1.00  0.00     0.034 A 
BRANCH  48  62
ATOM     62  C   UNL     1      11.391   3.867  -1.100  1.00  0.00     0.023 A 
ATOM     63  C   UNL     1      12.416   2.894  -1.065  1.00  0.00     0.031 A 
ATOM     64  C   UNL     1      10.956   4.315  -2.361  1.00  0.00     0.131 A 
ATOM     65  C   UNL     1      13.000   2.443  -2.261  1.00  0.00     0.055 A 
ATOM     66  C   UNL     1      11.516   3.835  -3.549  1.00  0.00     0.041 A 
ATOM     67  F   UNL     1      10.008   5.260  -2.456  1.00  0.00    -0.206 F 
ATOM     68  C   UNL     1      12.553   2.908  -3.502  1.00  0.00     0.022 A 
BRANCH  65  69
ATOM     69  S   UNL     1      14.425   1.313  -2.262  1.00  0.00     0.124 S 
ATOM     70  O   UNL     1      13.921   0.196  -3.059  1.00  0.00    -0.237 OA
ATOM     71  O   UNL     1      15.458   2.119  -2.906  1.00  0.00    -0.237 OA
ATOM     72  O   UNL     1      14.640   1.019  -0.850  1.00  0.00    -0.744 OA
ENDBRANCH  65  69
ENDBRANCH  48  62
BRANCH  49  73
ATOM     73  C   UNL     1       8.857   8.681   7.158  1.00  0.00     0.023 A 
ATOM     74  C   UNL     1       8.332   8.016   8.280  1.00  0.00     0.031 A 
ATOM     75  C   UNL     1       8.957  10.083   7.206  1.00  0.00     0.131 A 
ATOM     76  C   UNL     1       7.871   8.759   9.375  1.00  0.00     0.055 A 
ATOM     77  C   UNL     1       8.566  10.813   8.328  1.00  0.00     0.041 A 
ATOM     78  F   UNL     1       9.447  10.762   6.156  1.00  0.00    -0.206 F 
ATOM     79  C   UNL     1       8.003  10.151   9.414  1.00  0.00     0.022 A 
BRANCH  76  80
ATOM     80  S   UNL     1       6.964   7.958  10.727  1.00  0.00     0.124 S 
ATOM     81  O   UNL     1       7.841   8.202  11.867  1.00  0.00    -0.237 OA
ATOM     82  O   UNL     1       5.707   8.703  10.726  1.00  0.00    -0.237 OA
ATOM     83  O   UNL     1       6.860   6.568  10.295  1.00  0.00    -0.744 OA
ENDBRANCH  76  80
ENDBRANCH  49  73
BRANCH  61  84
ATOM     84  C   UNL     1      14.865   8.081   3.560  1.00  0.00     0.023 A 
ATOM     85  C   UNL     1      15.430   8.936   2.591  1.00  0.00     0.031 A 
ATOM     86  C   UNL     1      15.695   7.640   4.606  1.00  0.00     0.131 A 
ATOM     87  C   UNL     1      16.786   9.291   2.668  1.00  0.00     0.055 A 
ATOM     88  C   UNL     1      17.033   8.034   4.705  1.00  0.00     0.041 A 
ATOM     89  F   UNL     1      15.218   6.816   5.553  1.00  0.00    -0.206 F 
ATOM     90  C   UNL     1      17.587   8.852   3.726  1.00  0.00     0.022 A 
BRANCH  87  91
ATOM     91  S   UNL     1      17.584  10.270   1.362  1.00  0.00     0.124 S 
ATOM     92  O   UNL     1      18.046  11.443   2.101  1.00  0.00    -0.237 OA
ATOM     93  O   UNL     1      18.638   9.370   0.903  1.00  0.00    -0.237 OA
ATOM     94  O   UNL     1      16.512  10.522   0.406  1.00  0.00    -0.744 OA
ENDBRANCH  87  91
ENDBRANCH  61  84
ENDBRANCH  35  36
ENDBRANCH  28  30
ENDBRANCH  27  28
ENDBRANCH  26  27
ENDBRANCH  25  26
ENDBRANCH  24  25
ENDBRANCH  23  24
ENDBRANCH   1  23
TORSDOF 23
