REMARK SMILES COc1ccc(-c2noc(CC(=O)OCCOCCOC(=O)c3ccc(-c4c5nc(c(-c6cc(S(=O)(=O)[O-])ccc6F)c6ccc([nH]6)c(-c6cc(S(=O)(=O)[O-])ccc6F)c6nc(c(-c7cc(S(=O)(=O)[O-])ccc7F)c7ccc4[nH]7)C=C6)C=C5)cc3)c2-c2ccc(OC)cc2)cc1
REMARK SMILES IDX 17 1 16 2 15 3 14 4 12 5 13 6 11 7 10 8 7 9 8 10 86 11 9 12
REMARK SMILES IDX 6 13 3 14 4 15 96 16 5 17 95 18 2 19 1 20 87 21 88 22 94 23
REMARK SMILES IDX 89 24 93 25 90 26 91 27 92 28 18 29 19 30 20 31 21 32 22 33
REMARK SMILES IDX 23 34 24 35 85 36 25 37 84 38 26 39 27 40 28 41 78 42 29 43
REMARK SMILES IDX 83 44 77 45 79 46 30 47 82 48 76 49 75 50 31 52 63 53 43 54
REMARK SMILES IDX 62 55 44 56 47 57 61 58 80 59 45 60 46 61 60 63 81 64 48 65
REMARK SMILES IDX 32 66 33 67 41 68 34 69 40 70 42 71 39 72 35 73 36 74 37 75
REMARK SMILES IDX 38 76 64 77 65 78 73 79 66 80 72 81 74 82 71 83 67 84 68 85
REMARK SMILES IDX 69 86 70 87 49 88 50 89 58 90 51 91 57 92 59 93 56 94 52 95
REMARK SMILES IDX 53 96 54 97 55 98
REMARK H PARENT 79 51 47 62
REMARK Flexibility Score: inf
ROOT
ATOM      1  O   UNL     1       2.239   3.623 -12.248  1.00  0.00    -0.374 OA
ENDROOT
BRANCH   1   2
ATOM      2  C   UNL     1       1.839   2.281 -12.529  1.00  0.00     0.202 C 
BRANCH   2   3
ATOM      3  C   UNL     1       2.835   1.178 -12.156  1.00  0.00     0.261 C 
BRANCH   3   4
ATOM      4  O   UNL     1       3.167   1.205 -10.757  1.00  0.00    -0.463 OA
BRANCH   4   5
ATOM      5  C   UNL     1       4.475   1.421 -10.475  1.00  0.00     0.313 C 
ATOM      6  O   UNL     1       5.375   1.442 -11.312  1.00  0.00    -0.252 OA
BRANCH   5   7
ATOM      7  C   UNL     1       4.778   1.724  -9.034  1.00  0.00     0.201 C 
BRANCH   7   8
ATOM      8  C   UNL     1       3.669   1.600  -8.056  1.00  0.00     0.156 A 
ATOM      9  C   UNL     1       2.331   1.334  -6.305  1.00  0.00     0.122 A 
ATOM     10  N   UNL     1       1.991   2.505  -6.861  1.00  0.00    -0.079 NA
ATOM     11  C   UNL     1       3.340   0.687  -7.078  1.00  0.00     0.053 A 
ATOM     12  O   UNL     1       2.842   2.676  -7.937  1.00  0.00    -0.359 OA
BRANCH   9  13
ATOM     13  C   UNL     1       1.803   0.911  -5.015  1.00  0.00     0.005 A 
ATOM     14  C   UNL     1       0.872   0.032  -2.516  1.00  0.00     0.118 A 
ATOM     15  C   UNL     1      -0.006   0.161  -3.597  1.00  0.00     0.047 A 
ATOM     16  C   UNL     1       2.221   0.332  -2.688  1.00  0.00     0.047 A 
ATOM     17  C   UNL     1       0.451   0.615  -4.840  1.00  0.00     0.014 A 
ATOM     18  C   UNL     1       2.683   0.771  -3.931  1.00  0.00     0.014 A 
BRANCH  14  19
ATOM     19  O   UNL     1       0.318  -0.438  -1.357  1.00  0.00    -0.497 OA
ATOM     20  C   UNL     1       0.945   0.003  -0.157  1.00  0.00     0.278 C 
ENDBRANCH  14  19
ENDBRANCH   9  13
BRANCH  11  21
ATOM     21  C   UNL     1       4.024  -0.564  -6.849  1.00  0.00    -0.012 A 
ATOM     22  C   UNL     1       3.314  -1.766  -6.904  1.00  0.00     0.013 A 
ATOM     23  C   UNL     1       5.389  -0.582  -6.546  1.00  0.00     0.013 A 
ATOM     24  C   UNL     1       3.977  -2.976  -6.689  1.00  0.00     0.047 A 
ATOM     25  C   UNL     1       6.051  -1.794  -6.343  1.00  0.00     0.047 A 
ATOM     26  C   UNL     1       5.348  -2.997  -6.425  1.00  0.00     0.118 A 
BRANCH  26  27
ATOM     27  O   UNL     1       5.884  -4.243  -6.250  1.00  0.00    -0.497 OA
ATOM     28  C   UNL     1       7.303  -4.324  -6.236  1.00  0.00     0.278 C 
ENDBRANCH  26  27
ENDBRANCH  11  21
ENDBRANCH   7   8
ENDBRANCH   5   7
ENDBRANCH   4   5
ENDBRANCH   3   4
ENDBRANCH   2   3
ENDBRANCH   1   2
BRANCH   1  29
ATOM     29  C   UNL     1       2.179   4.056 -10.888  1.00  0.00     0.202 C 
BRANCH  29  30
ATOM     30  C   UNL     1       0.790   4.257 -10.269  1.00  0.00     0.261 C 
BRANCH  30  31
ATOM     31  O   UNL     1       0.055   3.026 -10.146  1.00  0.00    -0.460 OA
BRANCH  31  32
ATOM     32  C   UNL     1      -1.101   2.986 -10.853  1.00  0.00     0.338 C 
ATOM     33  O   UNL     1      -1.594   3.898 -11.505  1.00  0.00    -0.246 OA
BRANCH  32  34
ATOM     34  C   UNL     1      -1.624   1.609 -10.909  1.00  0.00     0.060 A 
ATOM     35  C   UNL     1      -1.894   1.078 -12.177  1.00  0.00     0.016 A 
ATOM     36  C   UNL     1      -1.934   0.882  -9.757  1.00  0.00     0.016 A 
ATOM     37  C   UNL     1      -2.528  -0.156 -12.299  1.00  0.00     0.010 A 
ATOM     38  C   UNL     1      -2.581  -0.355  -9.882  1.00  0.00     0.010 A 
ATOM     39  C   UNL     1      -2.916  -0.861 -11.152  1.00  0.00    -0.014 A 
BRANCH  39  40
ATOM     40  C   UNL     1      -3.813  -2.036 -11.298  1.00  0.00     0.031 A 
ATOM     41  C   UNL     1      -5.293  -1.853 -11.089  1.00  0.00     0.074 A 
ATOM     42  C   UNL     1      -3.327  -3.234 -11.672  1.00  0.00     0.049 A 
ATOM     43  N   UNL     1      -6.260  -2.731 -11.166  1.00  0.00    -0.248 NA
ATOM     44  C   UNL     1      -5.739  -0.493 -10.749  1.00  0.00     0.031 C 
ATOM     45  C   UNL     1      -1.923  -3.522 -11.958  1.00  0.00     0.029 A 
ATOM     46  N   UNL     1      -3.965  -4.431 -11.881  1.00  0.00    -0.354 N 
ATOM     47  C   UNL     1      -7.430  -2.032 -10.888  1.00  0.00     0.074 A 
ATOM     48  C   UNL     1      -7.043  -0.667 -10.599  1.00  0.00     0.031 C 
ATOM     49  C   UNL     1      -1.805  -4.816 -12.301  1.00  0.00     0.029 A 
ATOM     50  C   UNL     1      -3.117  -5.457 -12.226  1.00  0.00     0.049 A 
ATOM     51  H   UNL     1      -4.939  -4.545 -11.793  1.00  0.00     0.167 HD
ATOM     52  C   UNL     1      -8.709  -2.484 -10.884  1.00  0.00     0.034 A 
ATOM     53  C   UNL     1      -3.368  -6.765 -12.436  1.00  0.00     0.034 A 
ATOM     54  C   UNL     1      -9.080  -3.851 -11.158  1.00  0.00     0.049 A 
ATOM     55  C   UNL     1      -4.788  -7.267 -12.328  1.00  0.00     0.074 A 
ATOM     56  C   UNL     1     -10.345  -4.413 -11.186  1.00  0.00     0.029 A 
ATOM     57  N   UNL     1      -8.186  -4.876 -11.440  1.00  0.00    -0.354 N 
ATOM     58  N   UNL     1      -5.886  -6.596 -12.065  1.00  0.00    -0.248 NA
ATOM     59  C   UNL     1      -5.002  -8.703 -12.553  1.00  0.00     0.031 C 
ATOM     60  C   UNL     1     -10.210  -5.788 -11.414  1.00  0.00     0.029 A 
ATOM     61  C   UNL     1      -8.868  -6.072 -11.607  1.00  0.00     0.049 A 
ATOM     62  H   UNL     1      -7.210  -4.769 -11.511  1.00  0.00     0.167 HD
ATOM     63  C   UNL     1      -6.922  -7.524 -12.123  1.00  0.00     0.074 A 
ATOM     64  C   UNL     1      -6.320  -8.798 -12.458  1.00  0.00     0.031 C 
ATOM     65  C   UNL     1      -8.253  -7.340 -11.926  1.00  0.00     0.034 A 
BRANCH  52  66
ATOM     66  C   UNL     1      -9.789  -1.494 -10.516  1.00  0.00     0.023 A 
ATOM     67  C   UNL     1     -10.071  -0.373 -11.317  1.00  0.00     0.031 A 
ATOM     68  C   UNL     1     -10.524  -1.656  -9.329  1.00  0.00     0.131 A 
ATOM     69  C   UNL     1     -11.010   0.577 -10.886  1.00  0.00     0.055 A 
ATOM     70  C   UNL     1     -11.511  -0.747  -8.943  1.00  0.00     0.041 A 
ATOM     71  F   UNL     1     -10.284  -2.695  -8.513  1.00  0.00    -0.206 F 
ATOM     72  C   UNL     1     -11.748   0.386  -9.716  1.00  0.00     0.022 A 
BRANCH  69  73
ATOM     73  S   UNL     1     -11.151   2.137 -11.802  1.00  0.00     0.124 S 
ATOM     74  O   UNL     1      -9.788   2.655 -11.715  1.00  0.00    -0.237 OA
ATOM     75  O   UNL     1     -11.583   1.690 -13.120  1.00  0.00    -0.237 OA
ATOM     76  O   UNL     1     -12.146   2.892 -11.041  1.00  0.00    -0.744 OA
ENDBRANCH  69  73
ENDBRANCH  52  66
BRANCH  53  77
ATOM     77  C   UNL     1      -2.251  -7.711 -12.724  1.00  0.00     0.023 A 
ATOM     78  C   UNL     1      -2.174  -8.397 -13.947  1.00  0.00     0.031 A 
ATOM     79  C   UNL     1      -1.274  -7.985 -11.751  1.00  0.00     0.131 A 
ATOM     80  C   UNL     1      -1.167  -9.355 -14.147  1.00  0.00     0.055 A 
ATOM     81  C   UNL     1      -0.245  -8.901 -11.975  1.00  0.00     0.041 A 
ATOM     82  F   UNL     1      -1.303  -7.358 -10.564  1.00  0.00    -0.206 F 
ATOM     83  C   UNL     1      -0.195  -9.602 -13.175  1.00  0.00     0.022 A 
BRANCH  80  84
ATOM     84  S   UNL     1      -1.192 -10.337 -15.672  1.00  0.00     0.124 S 
ATOM     85  O   UNL     1      -2.502 -10.973 -15.595  1.00  0.00    -0.237 OA
ATOM     86  O   UNL     1      -1.036  -9.310 -16.697  1.00  0.00    -0.237 OA
ATOM     87  O   UNL     1      -0.051 -11.237 -15.517  1.00  0.00    -0.744 OA
ENDBRANCH  80  84
ENDBRANCH  53  77
BRANCH  65  88
ATOM     88  C   UNL     1      -9.149  -8.542 -12.112  1.00  0.00     0.023 A 
ATOM     89  C   UNL     1      -9.105  -9.642 -11.237  1.00  0.00     0.031 A 
ATOM     90  C   UNL     1     -10.051  -8.589 -13.190  1.00  0.00     0.131 A 
ATOM     91  C   UNL     1      -9.910 -10.765 -11.486  1.00  0.00     0.055 A 
ATOM     92  C   UNL     1     -10.890  -9.684 -13.399  1.00  0.00     0.041 A 
ATOM     93  F   UNL     1     -10.133  -7.568 -14.057  1.00  0.00    -0.206 F 
ATOM     94  C   UNL     1     -10.813 -10.786 -12.552  1.00  0.00     0.022 A 
BRANCH  91  95
ATOM     95  S   UNL     1      -9.699 -12.238 -10.448  1.00  0.00     0.124 S 
ATOM     96  O   UNL     1      -8.290 -12.557 -10.655  1.00  0.00    -0.237 OA
ATOM     97  O   UNL     1     -10.051 -11.739  -9.122  1.00  0.00    -0.237 OA
ATOM     98  O   UNL     1     -10.643 -13.198 -11.018  1.00  0.00    -0.744 OA
ENDBRANCH  91  95
ENDBRANCH  65  88
ENDBRANCH  39  40
ENDBRANCH  32  34
ENDBRANCH  31  32
ENDBRANCH  30  31
ENDBRANCH  29  30
ENDBRANCH   1  29
TORSDOF 22
