REMARK SMILES Cc1ccc(C(C)(C)C)c(OCC(=O)c2nc(C)c(C(=O)OCCOCCOC(=O)c3ccc(-c4c5nc(c(-c6cc(S(=O)(=O)[O-])ccc6F)c6ccc([nH]6)c(-c6cc(S(=O)(=O)[O-])ccc6F)c6nc(c(-c7cc(S(=O)(=O)[O-])ccc7F)c7ccc4[nH]7)C=C6)C=C5)cc3)s2)c1
REMARK SMILES IDX 24 1 23 2 22 3 20 4 21 5 19 6 15 7 16 8 94 9 17 10 18 11
REMARK SMILES IDX 13 12 14 13 12 14 11 15 10 16 1 17 2 18 3 19 95 20 4 21 5 22
REMARK SMILES IDX 6 23 7 24 8 25 9 26 25 27 26 28 27 29 28 30 29 31 30 32
REMARK SMILES IDX 31 33 32 34 93 35 33 36 92 37 34 38 35 39 36 40 86 41 37 42
REMARK SMILES IDX 91 43 85 44 87 45 38 46 90 47 84 48 83 49 39 51 71 52 51 53
REMARK SMILES IDX 70 54 52 55 55 56 69 57 88 58 53 59 54 60 68 62 89 63 56 64
REMARK SMILES IDX 40 65 41 66 49 67 42 68 48 69 50 70 47 71 43 72 44 73 45 74
REMARK SMILES IDX 46 75 72 76 73 77 81 78 74 79 80 80 82 81 79 82 75 83 76 84
REMARK SMILES IDX 77 85 78 86 57 87 58 88 66 89 59 90 65 91 67 92 64 93 60 94
REMARK SMILES IDX 61 95 62 96 63 97
REMARK H PARENT 87 50 55 61
REMARK Flexibility Score: inf
ROOT
ATOM      1  C   UNL     1      -4.998   4.808   5.465  1.00  0.00     0.202 C 
ENDROOT
BRANCH   1   2
ATOM      2  C   UNL     1      -3.949   4.091   6.269  1.00  0.00     0.261 C 
BRANCH   2   3
ATOM      3  O   UNL     1      -2.682   4.097   5.610  1.00  0.00    -0.459 OA
BRANCH   3   4
ATOM      4  C   UNL     1      -2.408   3.055   4.781  1.00  0.00     0.350 C 
ATOM      5  O   UNL     1      -3.046   2.026   4.712  1.00  0.00    -0.245 OA
BRANCH   4   6
ATOM      6  C   UNL     1      -1.347   3.466   3.889  1.00  0.00     0.136 A 
ATOM      7  C   UNL     1      -0.157   3.844   1.823  1.00  0.00     0.164 A 
ATOM      8  N   UNL     1       0.294   4.672   2.743  1.00  0.00    -0.237 NA
ATOM      9  S   UNL     1      -1.239   2.663   2.390  1.00  0.00    -0.103 S 
ATOM     10  C   UNL     1      -0.395   4.472   3.939  1.00  0.00     0.064 A 
ATOM     11  C   UNL     1      -0.070   5.392   5.063  1.00  0.00     0.068 C 
BRANCH   7  12
ATOM     12  C   UNL     1       0.246   3.934   0.430  1.00  0.00     0.228 C 
ATOM     13  O   UNL     1       1.331   4.407   0.062  1.00  0.00    -0.288 OA
BRANCH  12  14
ATOM     14  C   UNL     1      -0.787   3.562  -0.663  1.00  0.00     0.313 C 
BRANCH  14  15
ATOM     15  O   UNL     1      -1.541   2.368  -0.714  1.00  0.00    -0.485 OA
BRANCH  15  16
ATOM     16  C   UNL     1      -0.926   1.161  -0.536  1.00  0.00     0.123 A 
ATOM     17  C   UNL     1       2.602  -0.256  -0.180  1.00  0.00     0.044 C 
ATOM     18  C   UNL     1       1.107  -0.168  -0.248  1.00  0.00    -0.047 A 
ATOM     19  C   UNL     1       0.324  -1.283   0.019  1.00  0.00     0.004 A 
ATOM     20  C   UNL     1       0.474   1.030  -0.583  1.00  0.00     0.050 A 
ATOM     21  C   UNL     1      -1.069  -1.183  -0.002  1.00  0.00     0.008 A 
ATOM     22  C   UNL     1      -1.739   0.040  -0.246  1.00  0.00    -0.000 A 
BRANCH  22  23
ATOM     23  C   UNL     1      -3.290   0.031  -0.171  1.00  0.00    -0.010 C 
ATOM     24  C   UNL     1      -3.826  -0.763  -1.383  1.00  0.00     0.016 C 
ATOM     25  C   UNL     1      -3.771  -0.663   1.132  1.00  0.00     0.016 C 
ATOM     26  C   UNL     1      -4.003   1.403  -0.191  1.00  0.00     0.016 C 
ENDBRANCH  22  23
ENDBRANCH  15  16
ENDBRANCH  14  15
ENDBRANCH  12  14
ENDBRANCH   7  12
ENDBRANCH   4   6
ENDBRANCH   3   4
ENDBRANCH   2   3
ENDBRANCH   1   2
BRANCH   1  27
ATOM     27  O   UNL     1      -5.689   3.814   4.706  1.00  0.00    -0.374 OA
BRANCH  27  28
ATOM     28  C   UNL     1      -6.878   4.277   4.082  1.00  0.00     0.202 C 
BRANCH  28  29
ATOM     29  C   UNL     1      -7.965   4.735   5.069  1.00  0.00     0.261 C 
BRANCH  29  30
ATOM     30  O   UNL     1      -8.293   3.645   5.951  1.00  0.00    -0.460 OA
BRANCH  30  31
ATOM     31  C   UNL     1      -7.988   3.837   7.264  1.00  0.00     0.338 C 
ATOM     32  O   UNL     1      -8.310   4.807   7.928  1.00  0.00    -0.246 OA
BRANCH  31  33
ATOM     33  C   UNL     1      -7.067   2.756   7.718  1.00  0.00     0.060 A 
ATOM     34  C   UNL     1      -6.315   2.913   8.896  1.00  0.00     0.016 A 
ATOM     35  C   UNL     1      -6.779   1.705   6.848  1.00  0.00     0.016 A 
ATOM     36  C   UNL     1      -5.205   2.086   9.140  1.00  0.00     0.010 A 
ATOM     37  C   UNL     1      -5.648   0.940   7.059  1.00  0.00     0.010 A 
ATOM     38  C   UNL     1      -4.835   1.133   8.188  1.00  0.00    -0.014 A 
BRANCH  38  39
ATOM     39  C   UNL     1      -3.546   0.427   8.146  1.00  0.00     0.031 A 
ATOM     40  C   UNL     1      -3.484  -1.054   8.123  1.00  0.00     0.074 A 
ATOM     41  C   UNL     1      -2.408   1.107   7.871  1.00  0.00     0.049 A 
ATOM     42  N   UNL     1      -2.427  -1.735   8.416  1.00  0.00    -0.248 NA
ATOM     43  C   UNL     1      -4.622  -1.900   7.784  1.00  0.00     0.031 C 
ATOM     44  C   UNL     1      -1.176   0.588   7.279  1.00  0.00     0.029 A 
ATOM     45  N   UNL     1      -2.109   2.432   8.134  1.00  0.00    -0.354 N 
ATOM     46  C   UNL     1      -2.627  -3.027   7.982  1.00  0.00     0.074 A 
ATOM     47  C   UNL     1      -4.036  -3.094   7.671  1.00  0.00     0.031 C 
ATOM     48  C   UNL     1      -0.208   1.516   7.374  1.00  0.00     0.029 A 
ATOM     49  C   UNL     1      -0.727   2.620   8.162  1.00  0.00     0.049 A 
ATOM     50  H   UNL     1      -2.776   3.141   8.282  1.00  0.00     0.167 HD
ATOM     51  C   UNL     1      -1.556  -3.850   7.789  1.00  0.00     0.034 A 
ATOM     52  C   UNL     1      -0.143   3.223   9.234  1.00  0.00     0.034 A 
ATOM     53  C   UNL     1      -0.289  -3.155   8.063  1.00  0.00     0.049 A 
ATOM     54  C   UNL     1       0.700   2.209   9.971  1.00  0.00     0.074 A 
ATOM     55  C   UNL     1       0.685  -2.633   7.226  1.00  0.00     0.029 A 
ATOM     56  N   UNL     1      -0.016  -2.651   9.336  1.00  0.00    -0.354 N 
ATOM     57  N   UNL     1       0.632   0.929   9.724  1.00  0.00    -0.248 NA
ATOM     58  C   UNL     1       1.682   2.521  11.002  1.00  0.00     0.031 C 
ATOM     59  C   UNL     1       1.501  -1.758   7.991  1.00  0.00     0.029 A 
ATOM     60  C   UNL     1       1.053  -1.772   9.303  1.00  0.00     0.049 A 
ATOM     61  H   UNL     1      -0.517  -2.889  10.149  1.00  0.00     0.167 HD
ATOM     62  C   UNL     1       1.485   0.248  10.533  1.00  0.00     0.074 A 
ATOM     63  C   UNL     1       2.139   1.292  11.307  1.00  0.00     0.031 C 
ATOM     64  C   UNL     1       1.545  -1.116  10.512  1.00  0.00     0.034 A 
BRANCH  51  65
ATOM     65  C   UNL     1      -1.623  -5.181   7.053  1.00  0.00     0.023 A 
ATOM     66  C   UNL     1      -0.462  -5.698   6.438  1.00  0.00     0.031 A 
ATOM     67  C   UNL     1      -2.774  -5.982   6.906  1.00  0.00     0.131 A 
ATOM     68  C   UNL     1      -0.499  -6.862   5.643  1.00  0.00     0.055 A 
ATOM     69  C   UNL     1      -2.832  -7.098   6.059  1.00  0.00     0.041 A 
ATOM     70  F   UNL     1      -3.878  -5.772   7.633  1.00  0.00    -0.206 F 
ATOM     71  C   UNL     1      -1.691  -7.539   5.411  1.00  0.00     0.022 A 
BRANCH  68  72
ATOM     72  S   UNL     1       1.046  -7.516   4.952  1.00  0.00     0.124 S 
ATOM     73  O   UNL     1       1.453  -6.450   4.042  1.00  0.00    -0.237 OA
ATOM     74  O   UNL     1       1.867  -7.699   6.143  1.00  0.00    -0.237 OA
ATOM     75  O   UNL     1       0.628  -8.757   4.299  1.00  0.00    -0.744 OA
ENDBRANCH  68  72
ENDBRANCH  51  65
BRANCH  52  76
ATOM     76  C   UNL     1      -1.015   4.295   9.819  1.00  0.00     0.023 A 
ATOM     77  C   UNL     1      -1.266   5.440   9.018  1.00  0.00     0.031 A 
ATOM     78  C   UNL     1      -1.924   4.020  10.852  1.00  0.00     0.131 A 
ATOM     79  C   UNL     1      -2.456   6.175   9.165  1.00  0.00     0.055 A 
ATOM     80  C   UNL     1      -3.099   4.771  11.009  1.00  0.00     0.041 A 
ATOM     81  F   UNL     1      -1.763   2.944  11.634  1.00  0.00    -0.206 F 
ATOM     82  C   UNL     1      -3.390   5.824  10.140  1.00  0.00     0.022 A 
BRANCH  79  83
ATOM     83  S   UNL     1      -2.911   7.424   7.911  1.00  0.00     0.124 S 
ATOM     84  O   UNL     1      -2.229   8.615   8.399  1.00  0.00    -0.237 OA
ATOM     85  O   UNL     1      -2.388   6.857   6.673  1.00  0.00    -0.237 OA
ATOM     86  O   UNL     1      -4.371   7.450   7.976  1.00  0.00    -0.744 OA
ENDBRANCH  79  83
ENDBRANCH  52  76
BRANCH  64  87
ATOM     87  C   UNL     1       2.171  -1.920  11.614  1.00  0.00     0.023 A 
ATOM     88  C   UNL     1       2.344  -1.394  12.901  1.00  0.00     0.031 A 
ATOM     89  C   UNL     1       2.533  -3.272  11.440  1.00  0.00     0.131 A 
ATOM     90  C   UNL     1       2.969  -2.135  13.909  1.00  0.00     0.055 A 
ATOM     91  C   UNL     1       3.060  -4.046  12.477  1.00  0.00     0.041 A 
ATOM     92  F   UNL     1       2.381  -3.896  10.262  1.00  0.00    -0.206 F 
ATOM     93  C   UNL     1       3.308  -3.471  13.716  1.00  0.00     0.022 A 
BRANCH  90  94
ATOM     94  S   UNL     1       3.421  -1.263  15.428  1.00  0.00     0.124 S 
ATOM     95  O   UNL     1       4.317  -0.226  14.920  1.00  0.00    -0.237 OA
ATOM     96  O   UNL     1       2.130  -0.796  15.921  1.00  0.00    -0.237 OA
ATOM     97  O   UNL     1       4.064  -2.295  16.238  1.00  0.00    -0.744 OA
ENDBRANCH  90  94
ENDBRANCH  64  87
ENDBRANCH  38  39
ENDBRANCH  31  33
ENDBRANCH  30  31
ENDBRANCH  29  30
ENDBRANCH  28  29
ENDBRANCH  27  28
ENDBRANCH   1  27
TORSDOF 22
