REMARK SMILES CCCCCCCNC(=O)Oc1cccc(-c2ccc([C@@H](C)C(=O)OCCOCCOC(=O)c3ccc(-c4c5nc(c(-c6cc(S(=O)(=O)[O-])ccc6F)c6ccc([nH]6)c(-c6cc(S(=O)(=O)[O-])ccc6F)c6nc(c(-c7cc(S(=O)(=O)[O-])ccc7F)c7ccc4[nH]7)C=C6)C=C5)cc3)cc2F)c1
REMARK SMILES IDX 23 1 24 2 21 3 22 4 20 5 17 6 18 7 98 8 19 9 97 10 99 11
REMARK SMILES IDX 16 12 12 13 13 14 100 15 14 16 15 17 11 18 9 19 8 20 10 22
REMARK SMILES IDX 7 23 6 24 5 25 4 26 3 27 2 28 1 29 25 30 26 31 27 32 28 33
REMARK SMILES IDX 29 34 30 35 31 36 32 37 33 38 34 39 35 40 96 41 36 42 95 43
REMARK SMILES IDX 37 44 38 45 39 46 89 47 40 48 94 49 88 50 90 51 41 52 93 53
REMARK SMILES IDX 87 54 86 55 42 57 74 58 54 59 73 60 55 61 58 62 72 63 91 64
REMARK SMILES IDX 56 65 57 66 71 68 92 69 59 70 43 71 44 72 52 73 45 74 51 75
REMARK SMILES IDX 53 76 50 77 46 78 47 79 48 80 49 81 75 82 76 83 84 84 77 85
REMARK SMILES IDX 83 86 85 87 82 88 78 89 79 90 80 91 81 92 60 93 61 94 69 95
REMARK SMILES IDX 62 96 68 97 70 98 67 99 63 100 64 101 65 102 66 103
REMARK H PARENT 8 21 90 56 58 67
REMARK Flexibility Score: inf
ROOT
ATOM      1  C   UNL     1     -10.956 -10.648  -0.860  1.00  0.00     0.313 C 
ATOM      2  O   UNL     1     -11.959 -10.456  -0.178  1.00  0.00    -0.252 OA
ENDROOT
BRANCH   1   3
ATOM      3  C   UNL     1     -10.805 -10.033  -2.243  1.00  0.00     0.126 C 
ATOM      4  C   UNL     1     -11.570 -10.879  -3.256  1.00  0.00     0.025 C 
BRANCH   3   5
ATOM      5  C   UNL     1      -9.401  -9.693  -2.732  1.00  0.00    -0.031 A 
ATOM      6  C   UNL     1      -6.876  -8.984  -3.867  1.00  0.00     0.018 A 
ATOM      7  C   UNL     1      -7.197 -10.320  -3.577  1.00  0.00     0.012 A 
ATOM      8  C   UNL     1      -7.828  -8.013  -3.534  1.00  0.00     0.131 A 
ATOM      9  C   UNL     1      -8.439 -10.671  -3.022  1.00  0.00     0.005 A 
ATOM     10  C   UNL     1      -9.064  -8.353  -2.978  1.00  0.00     0.044 A 
ATOM     11  F   UNL     1      -7.590  -6.715  -3.782  1.00  0.00    -0.206 F 
BRANCH   6  12
ATOM     12  C   UNL     1      -5.609  -8.627  -4.529  1.00  0.00    -0.012 A 
ATOM     13  C   UNL     1      -3.556  -7.332  -4.640  1.00  0.00     0.133 A 
ATOM     14  C   UNL     1      -3.213  -7.919  -5.855  1.00  0.00     0.047 A 
ATOM     15  C   UNL     1      -4.747  -7.662  -3.987  1.00  0.00     0.056 A 
ATOM     16  C   UNL     1      -4.058  -8.876  -6.409  1.00  0.00     0.004 A 
ATOM     17  C   UNL     1      -5.242  -9.228  -5.750  1.00  0.00     0.009 A 
BRANCH  13  18
ATOM     18  O   UNL     1      -2.710  -6.324  -4.155  1.00  0.00    -0.410 OA
BRANCH  18  19
ATOM     19  C   UNL     1      -2.210  -6.491  -2.875  1.00  0.00     0.412 C 
ATOM     20  N   UNL     1      -1.402  -5.469  -2.467  1.00  0.00    -0.321 N 
ATOM     21  H   UNL     1      -1.017  -5.549  -1.564  1.00  0.00     0.167 HD
ATOM     22  O   UNL     1      -2.433  -7.446  -2.129  1.00  0.00    -0.224 OA
BRANCH  20  23
ATOM     23  C   UNL     1      -1.049  -4.280  -3.216  1.00  0.00     0.119 C 
BRANCH  23  24
ATOM     24  C   UNL     1      -1.528  -3.004  -2.522  1.00  0.00     0.021 C 
BRANCH  24  25
ATOM     25  C   UNL     1      -0.930  -2.764  -1.129  1.00  0.00     0.002 C 
BRANCH  25  26
ATOM     26  C   UNL     1       0.597  -2.652  -1.080  1.00  0.00     0.000 C 
BRANCH  26  27
ATOM     27  C   UNL     1       1.194  -1.490  -1.882  1.00  0.00    -0.000 C 
BRANCH  27  28
ATOM     28  C   UNL     1       0.741  -0.094  -1.446  1.00  0.00    -0.003 C 
ATOM     29  C   UNL     1       1.116   0.243  -0.011  1.00  0.00     0.004 C 
ENDBRANCH  27  28
ENDBRANCH  26  27
ENDBRANCH  25  26
ENDBRANCH  24  25
ENDBRANCH  23  24
ENDBRANCH  20  23
ENDBRANCH  18  19
ENDBRANCH  13  18
ENDBRANCH   6  12
ENDBRANCH   3   5
ENDBRANCH   1   3
BRANCH   1  30
ATOM     30  O   UNL     1      -9.910 -11.430  -0.490  1.00  0.00    -0.463 OA
BRANCH  30  31
ATOM     31  C   UNL     1      -9.946 -11.935   0.857  1.00  0.00     0.261 C 
BRANCH  31  32
ATOM     32  C   UNL     1      -8.830 -11.332   1.713  1.00  0.00     0.202 C 
BRANCH  32  33
ATOM     33  O   UNL     1      -8.894  -9.925   1.945  1.00  0.00    -0.374 OA
BRANCH  33  34
ATOM     34  C   UNL     1      -8.488  -9.062   0.883  1.00  0.00     0.202 C 
BRANCH  34  35
ATOM     35  C   UNL     1      -6.985  -8.941   0.600  1.00  0.00     0.261 C 
BRANCH  35  36
ATOM     36  O   UNL     1      -6.401 -10.171   0.136  1.00  0.00    -0.460 OA
BRANCH  36  37
ATOM     37  C   UNL     1      -5.563 -10.764   1.024  1.00  0.00     0.338 C 
ATOM     38  O   UNL     1      -5.247 -10.344   2.124  1.00  0.00    -0.246 OA
BRANCH  37  39
ATOM     39  C   UNL     1      -5.230 -12.130   0.572  1.00  0.00     0.060 A 
ATOM     40  C   UNL     1      -5.447 -13.174   1.479  1.00  0.00     0.016 A 
ATOM     41  C   UNL     1      -4.653 -12.382  -0.674  1.00  0.00     0.016 A 
ATOM     42  C   UNL     1      -5.044 -14.470   1.165  1.00  0.00     0.010 A 
ATOM     43  C   UNL     1      -4.242 -13.685  -0.985  1.00  0.00     0.010 A 
ATOM     44  C   UNL     1      -4.405 -14.729  -0.054  1.00  0.00    -0.014 A 
BRANCH  44  45
ATOM     45  C   UNL     1      -3.789 -16.061  -0.283  1.00  0.00     0.031 A 
ATOM     46  C   UNL     1      -2.302 -16.220  -0.112  1.00  0.00     0.074 A 
ATOM     47  C   UNL     1      -4.551 -17.127  -0.591  1.00  0.00     0.049 A 
ATOM     48  N   UNL     1      -1.554 -17.280  -0.282  1.00  0.00    -0.248 NA
ATOM     49  C   UNL     1      -1.562 -15.020   0.305  1.00  0.00     0.031 C 
ATOM     50  C   UNL     1      -6.007 -17.110  -0.730  1.00  0.00     0.029 A 
ATOM     51  N   UNL     1      -4.206 -18.432  -0.842  1.00  0.00    -0.354 N 
ATOM     52  C   UNL     1      -0.253 -16.876   0.003  1.00  0.00     0.074 A 
ATOM     53  C   UNL     1      -0.314 -15.464   0.319  1.00  0.00     0.031 C 
ATOM     54  C   UNL     1      -6.429 -18.345  -1.049  1.00  0.00     0.029 A 
ATOM     55  C   UNL     1      -5.274 -19.231  -1.178  1.00  0.00     0.049 A 
ATOM     56  H   UNL     1      -3.281 -18.765  -0.787  1.00  0.00     0.167 HD
ATOM     57  C   UNL     1       0.884 -17.616   0.008  1.00  0.00     0.034 A 
ATOM     58  C   UNL     1      -5.312 -20.520  -1.573  1.00  0.00     0.034 A 
ATOM     59  C   UNL     1       0.928 -19.021  -0.320  1.00  0.00     0.049 A 
ATOM     60  C   UNL     1      -4.021 -21.301  -1.652  1.00  0.00     0.074 A 
ATOM     61  C   UNL     1       2.022 -19.870  -0.328  1.00  0.00     0.029 A 
ATOM     62  N   UNL     1      -0.165 -19.783  -0.714  1.00  0.00    -0.354 N 
ATOM     63  N   UNL     1      -2.799 -20.910  -1.373  1.00  0.00    -0.248 NA
ATOM     64  C   UNL     1      -4.118 -22.698  -2.095  1.00  0.00     0.031 C 
ATOM     65  C   UNL     1       1.606 -21.119  -0.802  1.00  0.00     0.029 A 
ATOM     66  C   UNL     1       0.236 -21.078  -1.007  1.00  0.00     0.049 A 
ATOM     67  H   UNL     1      -1.090 -19.452  -0.776  1.00  0.00     0.167 HD
ATOM     68  C   UNL     1      -1.987 -22.023  -1.577  1.00  0.00     0.074 A 
ATOM     69  C   UNL     1      -2.861 -23.103  -1.988  1.00  0.00     0.031 C 
ATOM     70  C   UNL     1      -0.642 -22.145  -1.433  1.00  0.00     0.034 A 
BRANCH  57  71
ATOM     71  C   UNL     1       2.177 -16.901   0.322  1.00  0.00     0.023 A 
ATOM     72  C   UNL     1       2.418 -16.313   1.577  1.00  0.00     0.031 A 
ATOM     73  C   UNL     1       3.178 -16.787  -0.660  1.00  0.00     0.131 A 
ATOM     74  C   UNL     1       3.597 -15.582   1.793  1.00  0.00     0.055 A 
ATOM     75  C   UNL     1       4.382 -16.126  -0.413  1.00  0.00     0.041 A 
ATOM     76  F   UNL     1       2.996 -17.308  -1.884  1.00  0.00    -0.206 F 
ATOM     77  C   UNL     1       4.591 -15.505   0.815  1.00  0.00     0.022 A 
BRANCH  74  78
ATOM     78  S   UNL     1       3.752 -14.614   3.319  1.00  0.00     0.124 S 
ATOM     79  O   UNL     1       2.581 -13.744   3.239  1.00  0.00    -0.237 OA
ATOM     80  O   UNL     1       3.715 -15.643   4.351  1.00  0.00    -0.237 OA
ATOM     81  O   UNL     1       5.036 -13.932   3.164  1.00  0.00    -0.744 OA
ENDBRANCH  74  78
ENDBRANCH  57  71
BRANCH  58  82
ATOM     82  C   UNL     1      -6.605 -21.150  -1.972  1.00  0.00     0.023 A 
ATOM     83  C   UNL     1      -7.131 -22.246  -1.271  1.00  0.00     0.031 A 
ATOM     84  C   UNL     1      -7.306 -20.694  -3.103  1.00  0.00     0.131 A 
ATOM     85  C   UNL     1      -8.297 -22.877  -1.733  1.00  0.00     0.055 A 
ATOM     86  C   UNL     1      -8.495 -21.289  -3.526  1.00  0.00     0.041 A 
ATOM     87  F   UNL     1      -6.846 -19.651  -3.814  1.00  0.00    -0.206 F 
ATOM     88  C   UNL     1      -8.990 -22.397  -2.847  1.00  0.00     0.022 A 
BRANCH  85  89
ATOM     89  S   UNL     1      -8.850 -24.395  -0.907  1.00  0.00     0.124 S 
ATOM     90  O   UNL     1      -7.687 -25.260  -1.068  1.00  0.00    -0.237 OA
ATOM     91  O   UNL     1      -9.117 -23.922   0.447  1.00  0.00    -0.237 OA
ATOM     92  O   UNL     1     -10.032 -24.787  -1.673  1.00  0.00    -0.744 OA
ENDBRANCH  85  89
ENDBRANCH  58  82
BRANCH  70  93
ATOM     93  C   UNL     1      -0.042 -23.509  -1.683  1.00  0.00     0.023 A 
ATOM     94  C   UNL     1      -0.047 -24.100  -2.959  1.00  0.00     0.031 A 
ATOM     95  C   UNL     1       0.534 -24.233  -0.623  1.00  0.00     0.131 A 
ATOM     96  C   UNL     1       0.459 -25.398  -3.131  1.00  0.00     0.055 A 
ATOM     97  C   UNL     1       1.094 -25.497  -0.814  1.00  0.00     0.041 A 
ATOM     98  F   UNL     1       0.564 -23.721   0.618  1.00  0.00    -0.206 F 
ATOM     99  C   UNL     1       1.046 -26.093  -2.070  1.00  0.00     0.022 A 
BRANCH  96 100
ATOM    100  S   UNL     1       0.252 -26.209  -4.741  1.00  0.00     0.124 S 
ATOM    101  O   UNL     1      -1.198 -26.186  -4.908  1.00  0.00    -0.237 OA
ATOM    102  O   UNL     1       1.010 -25.336  -5.630  1.00  0.00    -0.237 OA
ATOM    103  O   UNL     1       0.831 -27.535  -4.534  1.00  0.00    -0.744 OA
ENDBRANCH  96 100
ENDBRANCH  70  93
ENDBRANCH  44  45
ENDBRANCH  37  39
ENDBRANCH  36  37
ENDBRANCH  35  36
ENDBRANCH  34  35
ENDBRANCH  33  34
ENDBRANCH  32  33
ENDBRANCH  31  32
ENDBRANCH  30  31
ENDBRANCH   1  30
TORSDOF 27
