REMARK SMILES CCCCCCNC(=O)Oc1cccc(-c2ccc([C@H](C)C(=O)OCCOCCOC(=O)c3ccc(-c4c5nc(c(-c6cc(S(=O)(=O)[O-])ccc6F)c6ccc([nH]6)c(-c6cc(S(=O)(=O)[O-])ccc6F)c6nc(c(-c7cc(S(=O)(=O)[O-])ccc7F)c7ccc4[nH]7)C=C6)C=C5)cc3)cc2F)c1
REMARK SMILES IDX 24 1 22 2 23 3 20 4 21 5 19 6 16 7 17 8 97 9 18 10 96 11
REMARK SMILES IDX 98 12 15 13 11 14 12 15 99 16 13 17 14 18 10 19 8 20 7 21
REMARK SMILES IDX 9 23 6 24 5 25 4 26 3 27 2 28 1 29 25 30 26 31 27 32 28 33
REMARK SMILES IDX 29 34 30 35 31 36 32 37 33 38 34 39 95 40 35 41 94 42 36 43
REMARK SMILES IDX 37 44 38 45 88 46 39 47 93 48 87 49 89 50 40 51 92 52 86 53
REMARK SMILES IDX 85 54 41 56 73 57 53 58 72 59 54 60 57 61 71 62 90 63 55 64
REMARK SMILES IDX 56 65 70 67 91 68 58 69 42 70 43 71 51 72 44 73 50 74 52 75
REMARK SMILES IDX 49 76 45 77 46 78 47 79 48 80 74 81 75 82 83 83 76 84 82 85
REMARK SMILES IDX 84 86 81 87 77 88 78 89 79 90 80 91 59 92 60 93 68 94 61 95
REMARK SMILES IDX 67 96 69 97 66 98 62 99 63 100 64 101 65 102
REMARK H PARENT 7 22 89 55 57 66
REMARK Flexibility Score: inf
ROOT
ATOM      1  O   UNL     1      -2.431 -12.741  -7.154  1.00  0.00    -0.463 OA
ENDROOT
BRANCH   1   2
ATOM      2  C   UNL     1      -2.996 -13.314  -6.055  1.00  0.00     0.313 C 
ATOM      3  O   UNL     1      -2.581 -14.321  -5.491  1.00  0.00    -0.252 OA
BRANCH   2   4
ATOM      4  C   UNL     1      -4.262 -12.588  -5.615  1.00  0.00     0.126 C 
ATOM      5  C   UNL     1      -4.295 -11.083  -5.881  1.00  0.00     0.025 C 
BRANCH   4   6
ATOM      6  C   UNL     1      -5.461 -13.280  -6.216  1.00  0.00    -0.031 A 
ATOM      7  C   UNL     1      -7.569 -14.758  -7.335  1.00  0.00     0.018 A 
ATOM      8  C   UNL     1      -6.601 -14.173  -8.159  1.00  0.00     0.012 A 
ATOM      9  C   UNL     1      -7.485 -14.557  -5.951  1.00  0.00     0.131 A 
ATOM     10  C   UNL     1      -5.564 -13.432  -7.607  1.00  0.00     0.005 A 
ATOM     11  C   UNL     1      -6.443 -13.831  -5.389  1.00  0.00     0.044 A 
ATOM     12  F   UNL     1      -8.414 -15.073  -5.131  1.00  0.00    -0.206 F 
BRANCH   7  13
ATOM     13  C   UNL     1      -8.664 -15.509  -7.936  1.00  0.00    -0.012 A 
ATOM     14  C   UNL     1     -11.001 -15.655  -8.514  1.00  0.00     0.133 A 
ATOM     15  C   UNL     1     -10.781 -16.842  -9.207  1.00  0.00     0.047 A 
ATOM     16  C   UNL     1      -9.963 -15.007  -7.853  1.00  0.00     0.056 A 
ATOM     17  C   UNL     1      -9.491 -17.363  -9.276  1.00  0.00     0.004 A 
ATOM     18  C   UNL     1      -8.436 -16.695  -8.651  1.00  0.00     0.009 A 
BRANCH  14  19
ATOM     19  O   UNL     1     -12.312 -15.179  -8.418  1.00  0.00    -0.410 OA
BRANCH  19  20
ATOM     20  C   UNL     1     -12.507 -13.831  -8.673  1.00  0.00     0.412 C 
ATOM     21  N   UNL     1     -13.732 -13.386  -8.277  1.00  0.00    -0.321 N 
ATOM     22  H   UNL     1     -13.949 -12.445  -8.472  1.00  0.00     0.167 HD
ATOM     23  O   UNL     1     -11.699 -13.059  -9.187  1.00  0.00    -0.224 OA
BRANCH  21  24
ATOM     24  C   UNL     1     -14.744 -14.163  -7.596  1.00  0.00     0.119 C 
BRANCH  24  25
ATOM     25  C   UNL     1     -15.157 -13.518  -6.274  1.00  0.00     0.021 C 
BRANCH  25  26
ATOM     26  C   UNL     1     -15.806 -12.137  -6.413  1.00  0.00     0.002 C 
BRANCH  26  27
ATOM     27  C   UNL     1     -17.038 -12.083  -7.323  1.00  0.00    -0.000 C 
BRANCH  27  28
ATOM     28  C   UNL     1     -18.179 -13.025  -6.929  1.00  0.00    -0.003 C 
ATOM     29  C   UNL     1     -18.766 -12.712  -5.561  1.00  0.00     0.004 C 
ENDBRANCH  27  28
ENDBRANCH  26  27
ENDBRANCH  25  26
ENDBRANCH  24  25
ENDBRANCH  21  24
ENDBRANCH  19  20
ENDBRANCH  14  19
ENDBRANCH   7  13
ENDBRANCH   4   6
ENDBRANCH   2   4
ENDBRANCH   1   2
BRANCH   1  30
ATOM     30  C   UNL     1      -1.264 -13.403  -7.656  1.00  0.00     0.261 C 
BRANCH  30  31
ATOM     31  C   UNL     1       0.026 -12.639  -7.347  1.00  0.00     0.202 C 
BRANCH  31  32
ATOM     32  O   UNL     1       0.319 -12.339  -5.986  1.00  0.00    -0.374 OA
BRANCH  32  33
ATOM     33  C   UNL     1      -0.468 -11.361  -5.313  1.00  0.00     0.202 C 
BRANCH  33  34
ATOM     34  C   UNL     1      -0.427  -9.905  -5.799  1.00  0.00     0.261 C 
BRANCH  34  35
ATOM     35  O   UNL     1      -0.900  -9.724  -7.146  1.00  0.00    -0.460 OA
BRANCH  35  36
ATOM     36  C   UNL     1       0.058  -9.314  -8.019  1.00  0.00     0.338 C 
ATOM     37  O   UNL     1       1.229  -9.089  -7.766  1.00  0.00    -0.246 OA
BRANCH  36  38
ATOM     38  C   UNL     1      -0.453  -9.337  -9.402  1.00  0.00     0.060 A 
ATOM     39  C   UNL     1       0.173 -10.198 -10.313  1.00  0.00     0.016 A 
ATOM     40  C   UNL     1      -1.427  -8.435  -9.830  1.00  0.00     0.016 A 
ATOM     41  C   UNL     1      -0.147 -10.135 -11.667  1.00  0.00     0.010 A 
ATOM     42  C   UNL     1      -1.740  -8.368 -11.193  1.00  0.00     0.010 A 
ATOM     43  C   UNL     1      -1.079  -9.194 -12.122  1.00  0.00    -0.014 A 
BRANCH  43  44
ATOM     44  C   UNL     1      -1.265  -8.985 -13.581  1.00  0.00     0.031 A 
ATOM     45  C   UNL     1      -0.626  -7.791 -14.238  1.00  0.00     0.074 A 
ATOM     46  C   UNL     1      -1.973  -9.862 -14.314  1.00  0.00     0.049 A 
ATOM     47  N   UNL     1      -0.727  -7.368 -15.471  1.00  0.00    -0.248 NA
ATOM     48  C   UNL     1       0.240  -6.963 -13.385  1.00  0.00     0.031 C 
ATOM     49  C   UNL     1      -2.582 -11.089 -13.802  1.00  0.00     0.029 A 
ATOM     50  N   UNL     1      -2.308  -9.851 -15.645  1.00  0.00    -0.354 N 
ATOM     51  C   UNL     1       0.053  -6.218 -15.544  1.00  0.00     0.074 A 
ATOM     52  C   UNL     1       0.592  -5.995 -14.218  1.00  0.00     0.031 C 
ATOM     53  C   UNL     1      -3.228 -11.706 -14.806  1.00  0.00     0.029 A 
ATOM     54  C   UNL     1      -3.124 -10.893 -16.017  1.00  0.00     0.049 A 
ATOM     55  H   UNL     1      -1.994  -9.162 -16.274  1.00  0.00     0.167 HD
ATOM     56  C   UNL     1       0.299  -5.428 -16.618  1.00  0.00     0.034 A 
ATOM     57  C   UNL     1      -3.749 -11.142 -17.186  1.00  0.00     0.034 A 
ATOM     58  C   UNL     1      -0.256  -5.663 -17.930  1.00  0.00     0.049 A 
ATOM     59  C   UNL     1      -3.554 -10.183 -18.338  1.00  0.00     0.074 A 
ATOM     60  C   UNL     1      -0.060  -4.936 -19.091  1.00  0.00     0.029 A 
ATOM     61  N   UNL     1      -1.130  -6.694 -18.253  1.00  0.00    -0.354 N 
ATOM     62  N   UNL     1      -2.816  -9.098 -18.395  1.00  0.00    -0.248 NA
ATOM     63  C   UNL     1      -4.277 -10.483 -19.581  1.00  0.00     0.031 C 
ATOM     64  C   UNL     1      -0.878  -5.474 -20.090  1.00  0.00     0.029 A 
ATOM     65  C   UNL     1      -1.516  -6.594 -19.581  1.00  0.00     0.049 A 
ATOM     66  H   UNL     1      -1.432  -7.394 -17.629  1.00  0.00     0.167 HD
ATOM     67  C   UNL     1      -2.963  -8.607 -19.691  1.00  0.00     0.074 A 
ATOM     68  C   UNL     1      -3.848  -9.520 -20.383  1.00  0.00     0.031 C 
ATOM     69  C   UNL     1      -2.409  -7.505 -20.259  1.00  0.00     0.034 A 
BRANCH  56  70
ATOM     70  C   UNL     1       1.158  -4.205 -16.404  1.00  0.00     0.023 A 
ATOM     71  C   UNL     1       2.506  -4.301 -16.017  1.00  0.00     0.031 A 
ATOM     72  C   UNL     1       0.613  -2.919 -16.573  1.00  0.00     0.131 A 
ATOM     73  C   UNL     1       3.241  -3.136 -15.745  1.00  0.00     0.055 A 
ATOM     74  C   UNL     1       1.374  -1.764 -16.382  1.00  0.00     0.041 A 
ATOM     75  F   UNL     1      -0.675  -2.762 -16.918  1.00  0.00    -0.206 F 
ATOM     76  C   UNL     1       2.693  -1.869 -15.951  1.00  0.00     0.022 A 
BRANCH  73  77
ATOM     77  S   UNL     1       4.877  -3.303 -14.979  1.00  0.00     0.124 S 
ATOM     78  O   UNL     1       4.558  -4.046 -13.762  1.00  0.00    -0.237 OA
ATOM     79  O   UNL     1       5.628  -4.031 -15.994  1.00  0.00    -0.237 OA
ATOM     80  O   UNL     1       5.297  -1.919 -14.763  1.00  0.00    -0.744 OA
ENDBRANCH  73  77
ENDBRANCH  56  70
BRANCH  57  81
ATOM     81  C   UNL     1      -4.662 -12.313 -17.320  1.00  0.00     0.023 A 
ATOM     82  C   UNL     1      -4.402 -13.335 -18.246  1.00  0.00     0.031 A 
ATOM     83  C   UNL     1      -5.844 -12.398 -16.561  1.00  0.00     0.131 A 
ATOM     84  C   UNL     1      -5.333 -14.371 -18.424  1.00  0.00     0.055 A 
ATOM     85  C   UNL     1      -6.736 -13.463 -16.698  1.00  0.00     0.041 A 
ATOM     86  F   UNL     1      -6.147 -11.445 -15.665  1.00  0.00    -0.206 F 
ATOM     87  C   UNL     1      -6.489 -14.451 -17.645  1.00  0.00     0.022 A 
BRANCH  84  88
ATOM     88  S   UNL     1      -5.056 -15.564 -19.762  1.00  0.00     0.124 S 
ATOM     89  O   UNL     1      -5.004 -14.692 -20.930  1.00  0.00    -0.237 OA
ATOM     90  O   UNL     1      -3.795 -16.179 -19.363  1.00  0.00    -0.237 OA
ATOM     91  O   UNL     1      -6.225 -16.438 -19.686  1.00  0.00    -0.744 OA
ENDBRANCH  84  88
ENDBRANCH  57  81
BRANCH  69  92
ATOM     92  C   UNL     1      -2.709  -7.251 -21.718  1.00  0.00     0.023 A 
ATOM     93  C   UNL     1      -3.999  -6.918 -22.166  1.00  0.00     0.031 A 
ATOM     94  C   UNL     1      -1.679  -7.335 -22.674  1.00  0.00     0.131 A 
ATOM     95  C   UNL     1      -4.236  -6.725 -23.536  1.00  0.00     0.055 A 
ATOM     96  C   UNL     1      -1.908  -7.080 -24.027  1.00  0.00     0.041 A 
ATOM     97  F   UNL     1      -0.428  -7.654 -22.305  1.00  0.00    -0.206 F 
ATOM     98  C   UNL     1      -3.194  -6.784 -24.466  1.00  0.00     0.022 A 
BRANCH  95  99
ATOM     99  S   UNL     1      -5.941  -6.476 -24.101  1.00  0.00     0.124 S 
ATOM    100  O   UNL     1      -6.591  -7.703 -23.653  1.00  0.00    -0.237 OA
ATOM    101  O   UNL     1      -6.329  -5.256 -23.400  1.00  0.00    -0.237 OA
ATOM    102  O   UNL     1      -5.806  -6.340 -25.550  1.00  0.00    -0.744 OA
ENDBRANCH  95  99
ENDBRANCH  69  92
ENDBRANCH  43  44
ENDBRANCH  36  38
ENDBRANCH  35  36
ENDBRANCH  34  35
ENDBRANCH  33  34
ENDBRANCH  32  33
ENDBRANCH  31  32
ENDBRANCH  30  31
ENDBRANCH   1  30
TORSDOF 26
