REMARK SMILES COc1ccc(-c2ccc(CCC(=O)OCCOCCOC(=O)c3ccc(-c4c5nc(c(-c6cc(S(=O)(=O)[O-])ccc6F)c6ccc([nH]6)c(-c6cc(S(=O)(=O)[O-])ccc6F)c6nc(c(-c7cc(S(=O)(=O)[O-])ccc7F)c7ccc4[nH]7)C=C6)C=C5)cc3)n2-c2ccc(C(C)=O)cc2)cc1
REMARK SMILES IDX 17 1 16 2 15 3 13 4 14 5 12 6 11 7 10 8 7 9 8 10 87 11 9 12
REMARK SMILES IDX 6 13 3 14 4 15 98 16 5 17 97 18 2 19 1 20 88 21 89 22 96 23
REMARK SMILES IDX 90 24 95 25 91 26 92 27 93 28 94 29 18 30 19 31 20 32 21 33
REMARK SMILES IDX 22 34 23 35 24 36 25 37 86 38 26 39 85 40 27 41 28 42 29 43
REMARK SMILES IDX 79 44 30 45 84 46 78 47 80 48 31 49 83 50 77 51 76 52 32 54
REMARK SMILES IDX 64 55 44 56 63 57 45 58 48 59 62 60 81 61 46 62 47 63 61 65
REMARK SMILES IDX 82 66 49 67 33 68 34 69 42 70 35 71 41 72 43 73 40 74 36 75
REMARK SMILES IDX 37 76 38 77 39 78 65 79 66 80 74 81 67 82 73 83 75 84 72 85
REMARK SMILES IDX 68 86 69 87 70 88 71 89 50 90 51 91 59 92 52 93 58 94 60 95
REMARK SMILES IDX 57 96 53 97 54 98 55 99 56 100
REMARK H PARENT 80 53 48 64
REMARK Flexibility Score: inf
ROOT
ATOM      1  C   UNL     1       6.100   2.933 -10.229  1.00  0.00     0.202 C 
ENDROOT
BRANCH   1   2
ATOM      2  C   UNL     1       6.548   3.559  -8.906  1.00  0.00     0.261 C 
BRANCH   2   3
ATOM      3  O   UNL     1       5.416   4.009  -8.134  1.00  0.00    -0.463 OA
BRANCH   3   4
ATOM      4  C   UNL     1       5.118   5.329  -8.166  1.00  0.00     0.306 C 
ATOM      5  O   UNL     1       5.814   6.189  -8.691  1.00  0.00    -0.252 OA
BRANCH   4   6
ATOM      6  C   UNL     1       3.815   5.645  -7.459  1.00  0.00     0.129 C 
BRANCH   6   7
ATOM      7  C   UNL     1       2.556   4.891  -7.910  1.00  0.00     0.066 C 
BRANCH   7   8
ATOM      8  C   UNL     1       2.419   3.506  -7.333  1.00  0.00     0.024 A 
ATOM      9  C   UNL     1       2.003   1.904  -5.796  1.00  0.00     0.053 A 
ATOM     10  C   UNL     1       2.825   1.360  -6.765  1.00  0.00     0.029 A 
ATOM     11  N   UNL     1       1.634   3.176  -6.229  1.00  0.00    -0.314 N 
ATOM     12  C   UNL     1       3.048   2.345  -7.737  1.00  0.00     0.024 A 
BRANCH   9  13
ATOM     13  C   UNL     1       1.544   1.236  -4.585  1.00  0.00    -0.001 A 
ATOM     14  C   UNL     1       0.743  -0.030  -2.226  1.00  0.00     0.118 A 
ATOM     15  C   UNL     1      -0.181   0.199  -3.246  1.00  0.00     0.047 A 
ATOM     16  C   UNL     1       2.082   0.314  -2.409  1.00  0.00     0.047 A 
ATOM     17  C   UNL     1       0.215   0.838  -4.423  1.00  0.00     0.014 A 
ATOM     18  C   UNL     1       2.479   0.947  -3.585  1.00  0.00     0.014 A 
BRANCH  14  19
ATOM     19  O   UNL     1       0.272  -0.645  -1.099  1.00  0.00    -0.497 OA
ATOM     20  C   UNL     1       0.762  -0.062   0.106  1.00  0.00     0.278 C 
ENDBRANCH  14  19
ENDBRANCH   9  13
BRANCH  11  21
ATOM     21  C   UNL     1       0.647   4.015  -5.654  1.00  0.00     0.046 A 
ATOM     22  C   UNL     1      -0.362   4.535  -6.475  1.00  0.00     0.027 A 
ATOM     23  C   UNL     1       0.690   4.335  -4.300  1.00  0.00     0.027 A 
ATOM     24  C   UNL     1      -1.313   5.413  -5.946  1.00  0.00     0.014 A 
ATOM     25  C   UNL     1      -0.251   5.229  -3.782  1.00  0.00     0.014 A 
ATOM     26  C   UNL     1      -1.252   5.785  -4.598  1.00  0.00     0.017 A 
BRANCH  26  27
ATOM     27  C   UNL     1      -2.186   6.774  -3.974  1.00  0.00     0.159 C 
ATOM     28  C   UNL     1      -3.351   7.344  -4.743  1.00  0.00     0.093 C 
ATOM     29  O   UNL     1      -1.992   7.129  -2.810  1.00  0.00    -0.295 OA
ENDBRANCH  26  27
ENDBRANCH  11  21
ENDBRANCH   7   8
ENDBRANCH   6   7
ENDBRANCH   4   6
ENDBRANCH   3   4
ENDBRANCH   2   3
ENDBRANCH   1   2
BRANCH   1  30
ATOM     30  O   UNL     1       5.743   3.868 -11.250  1.00  0.00    -0.374 OA
BRANCH  30  31
ATOM     31  C   UNL     1       4.429   4.413 -11.204  1.00  0.00     0.202 C 
BRANCH  31  32
ATOM     32  C   UNL     1       3.336   3.599 -11.876  1.00  0.00     0.261 C 
BRANCH  32  33
ATOM     33  O   UNL     1       3.011   2.453 -11.100  1.00  0.00    -0.460 OA
BRANCH  33  34
ATOM     34  C   UNL     1       3.648   1.325 -11.487  1.00  0.00     0.338 C 
ATOM     35  O   UNL     1       4.638   1.236 -12.181  1.00  0.00    -0.246 OA
BRANCH  34  36
ATOM     36  C   UNL     1       2.829   0.178 -11.091  1.00  0.00     0.060 A 
ATOM     37  C   UNL     1       3.294  -1.062 -11.528  1.00  0.00     0.016 A 
ATOM     38  C   UNL     1       1.511   0.383 -10.656  1.00  0.00     0.016 A 
ATOM     39  C   UNL     1       2.370  -2.052 -11.748  1.00  0.00     0.010 A 
ATOM     40  C   UNL     1       0.578  -0.587 -10.926  1.00  0.00     0.010 A 
ATOM     41  C   UNL     1       1.016  -1.775 -11.514  1.00  0.00    -0.014 A 
BRANCH  41  42
ATOM     42  C   UNL     1       0.086  -2.885 -11.679  1.00  0.00     0.031 A 
ATOM     43  C   UNL     1       0.141  -3.719 -10.374  1.00  0.00     0.074 A 
ATOM     44  C   UNL     1      -0.491  -2.983 -12.924  1.00  0.00     0.049 A 
ATOM     45  N   UNL     1       0.101  -5.000 -10.213  1.00  0.00    -0.248 NA
ATOM     46  C   UNL     1       0.446  -3.054  -9.062  1.00  0.00     0.031 C 
ATOM     47  C   UNL     1      -0.387  -1.972 -14.015  1.00  0.00     0.029 A 
ATOM     48  N   UNL     1      -1.275  -3.929 -13.548  1.00  0.00    -0.354 N 
ATOM     49  C   UNL     1       0.027  -5.247  -8.824  1.00  0.00     0.074 A 
ATOM     50  C   UNL     1       0.460  -4.054  -8.179  1.00  0.00     0.031 C 
ATOM     51  C   UNL     1      -0.973  -2.408 -15.160  1.00  0.00     0.029 A 
ATOM     52  C   UNL     1      -1.545  -3.723 -14.943  1.00  0.00     0.049 A 
ATOM     53  H   UNL     1      -1.633  -4.707 -13.061  1.00  0.00     0.167 HD
ATOM     54  C   UNL     1      -0.614  -6.342  -8.318  1.00  0.00     0.034 A 
ATOM     55  C   UNL     1      -2.152  -4.584 -15.834  1.00  0.00     0.034 A 
ATOM     56  C   UNL     1      -1.081  -7.135  -9.410  1.00  0.00     0.049 A 
ATOM     57  C   UNL     1      -2.658  -5.648 -14.954  1.00  0.00     0.074 A 
ATOM     58  C   UNL     1      -0.409  -7.821 -10.388  1.00  0.00     0.029 A 
ATOM     59  N   UNL     1      -2.373  -6.885  -9.828  1.00  0.00    -0.354 N 
ATOM     60  N   UNL     1      -3.664  -5.515 -14.147  1.00  0.00    -0.248 NA
ATOM     61  C   UNL     1      -1.927  -6.920 -14.891  1.00  0.00     0.031 C 
ATOM     62  C   UNL     1      -1.118  -7.445 -11.545  1.00  0.00     0.029 A 
ATOM     63  C   UNL     1      -2.355  -6.884 -11.195  1.00  0.00     0.049 A 
ATOM     64  H   UNL     1      -3.157  -6.737  -9.252  1.00  0.00     0.167 HD
ATOM     65  C   UNL     1      -3.453  -6.529 -13.250  1.00  0.00     0.074 A 
ATOM     66  C   UNL     1      -2.631  -7.513 -13.929  1.00  0.00     0.031 C 
ATOM     67  C   UNL     1      -3.423  -6.236 -11.922  1.00  0.00     0.034 A 
BRANCH  54  68
ATOM     68  C   UNL     1      -1.179  -6.668  -6.961  1.00  0.00     0.023 A 
ATOM     69  C   UNL     1      -1.741  -7.964  -6.845  1.00  0.00     0.031 A 
ATOM     70  C   UNL     1      -1.520  -5.751  -5.961  1.00  0.00     0.131 A 
ATOM     71  C   UNL     1      -2.744  -8.243  -5.915  1.00  0.00     0.055 A 
ATOM     72  C   UNL     1      -2.459  -6.066  -4.966  1.00  0.00     0.041 A 
ATOM     73  F   UNL     1      -1.040  -4.502  -5.951  1.00  0.00    -0.206 F 
ATOM     74  C   UNL     1      -3.114  -7.297  -4.969  1.00  0.00     0.022 A 
BRANCH  71  75
ATOM     75  S   UNL     1      -3.687  -9.778  -6.136  1.00  0.00     0.124 S 
ATOM     76  O   UNL     1      -4.176  -9.638  -7.503  1.00  0.00    -0.237 OA
ATOM     77  O   UNL     1      -2.663 -10.797  -5.926  1.00  0.00    -0.237 OA
ATOM     78  O   UNL     1      -4.709  -9.699  -5.095  1.00  0.00    -0.744 OA
ENDBRANCH  71  75
ENDBRANCH  54  68
BRANCH  55  79
ATOM     79  C   UNL     1      -2.417  -4.833 -17.328  1.00  0.00     0.023 A 
ATOM     80  C   UNL     1      -2.095  -4.010 -18.424  1.00  0.00     0.031 A 
ATOM     81  C   UNL     1      -2.968  -6.108 -17.707  1.00  0.00     0.131 A 
ATOM     82  C   UNL     1      -2.230  -4.509 -19.763  1.00  0.00     0.055 A 
ATOM     83  C   UNL     1      -2.992  -6.625 -19.002  1.00  0.00     0.041 A 
ATOM     84  F   UNL     1      -3.523  -6.944 -16.819  1.00  0.00    -0.206 F 
ATOM     85  C   UNL     1      -2.601  -5.828 -20.044  1.00  0.00     0.022 A 
BRANCH  82  86
ATOM     86  S   UNL     1      -1.915  -3.468 -21.226  1.00  0.00     0.124 S 
ATOM     87  O   UNL     1      -3.227  -2.872 -21.461  1.00  0.00    -0.237 OA
ATOM     88  O   UNL     1      -0.870  -2.562 -20.766  1.00  0.00    -0.237 OA
ATOM     89  O   UNL     1      -1.487  -4.433 -22.241  1.00  0.00    -0.744 OA
ENDBRANCH  82  86
ENDBRANCH  55  79
BRANCH  67  90
ATOM     90  C   UNL     1      -4.227  -5.002 -11.504  1.00  0.00     0.023 A 
ATOM     91  C   UNL     1      -5.568  -4.871 -11.923  1.00  0.00     0.031 A 
ATOM     92  C   UNL     1      -3.701  -3.900 -10.804  1.00  0.00     0.131 A 
ATOM     93  C   UNL     1      -6.303  -3.691 -11.687  1.00  0.00     0.055 A 
ATOM     94  C   UNL     1      -4.430  -2.722 -10.565  1.00  0.00     0.041 A 
ATOM     95  F   UNL     1      -2.454  -3.917 -10.333  1.00  0.00    -0.206 F 
ATOM     96  C   UNL     1      -5.739  -2.611 -11.010  1.00  0.00     0.022 A 
BRANCH  93  97
ATOM     97  S   UNL     1      -8.021  -3.588 -12.261  1.00  0.00     0.124 S 
ATOM     98  O   UNL     1      -7.873  -3.522 -13.710  1.00  0.00    -0.237 OA
ATOM     99  O   UNL     1      -8.605  -4.817 -11.732  1.00  0.00    -0.237 OA
ATOM    100  O   UNL     1      -8.517  -2.361 -11.637  1.00  0.00    -0.744 OA
ENDBRANCH  93  97
ENDBRANCH  67  90
ENDBRANCH  41  42
ENDBRANCH  34  36
ENDBRANCH  33  34
ENDBRANCH  32  33
ENDBRANCH  31  32
ENDBRANCH  30  31
ENDBRANCH   1  30
TORSDOF 23
