REMARK SMILES O=C(OCCOCCOC(=O)[C@H](CCSc1ccccc1)Cc1ccccc1Br)c1ccc(-c2c3nc(c(-c4cc(S(=O)(=O)[O-])ccc4F)c4ccc([nH]4)c(-c4cc(S(=O)(=O)[O-])ccc4F)c4nc(c(-c5cc(S(=O)(=O)[O-])ccc5F)c5ccc2[nH]5)C=C4)C=C3)cc1
REMARK SMILES IDX 7 1 6 2 5 3 4 4 3 5 2 6 1 7 30 8 31 9 92 10 32 11 91 12
REMARK SMILES IDX 33 13 34 14 35 15 85 16 36 17 90 18 84 19 86 20 37 21 89 22
REMARK SMILES IDX 83 23 82 24 38 26 70 27 50 28 69 29 51 30 54 31 68 32 87 33
REMARK SMILES IDX 52 34 53 35 67 37 88 38 55 39 39 40 40 41 48 42 41 43 47 44
REMARK SMILES IDX 49 45 46 46 42 47 43 48 44 49 45 50 71 51 72 52 80 53 73 54
REMARK SMILES IDX 79 55 81 56 78 57 74 58 75 59 76 60 77 61 56 62 57 63 65 64
REMARK SMILES IDX 58 65 64 66 66 67 63 68 59 69 60 70 61 71 62 72 8 73 9 74
REMARK SMILES IDX 10 75 11 76 12 77 22 78 23 79 24 80 28 81 25 82 27 83 29 84
REMARK SMILES IDX 26 85 13 86 14 87 15 88 16 89 17 90 21 91 18 92 20 93 19 94
REMARK H PARENT 86 25 54 36
REMARK Flexibility Score: inf
ROOT
ATOM      1  C   UNL     1       3.799   2.419   2.591  1.00  0.00     0.202 C 
ENDROOT
BRANCH   1   2
ATOM      2  O   UNL     1       2.856   1.432   2.992  1.00  0.00    -0.374 OA
BRANCH   2   3
ATOM      3  C   UNL     1       2.957   0.218   2.269  1.00  0.00     0.202 C 
BRANCH   3   4
ATOM      4  C   UNL     1       1.975  -0.034   1.131  1.00  0.00     0.261 C 
BRANCH   4   5
ATOM      5  O   UNL     1       1.897   1.109   0.253  1.00  0.00    -0.460 OA
BRANCH   5   6
ATOM      6  C   UNL     1       0.818   1.938   0.199  1.00  0.00     0.338 C 
ATOM      7  O   UNL     1       0.720   2.824  -0.642  1.00  0.00    -0.246 OA
BRANCH   6   8
ATOM      8  C   UNL     1      -0.251   1.700   1.183  1.00  0.00     0.060 A 
ATOM      9  C   UNL     1       0.078   1.740   2.529  1.00  0.00     0.016 A 
ATOM     10  C   UNL     1      -1.539   1.347   0.798  1.00  0.00     0.016 A 
ATOM     11  C   UNL     1      -0.734   1.146   3.464  1.00  0.00     0.010 A 
ATOM     12  C   UNL     1      -2.471   1.043   1.795  1.00  0.00     0.010 A 
ATOM     13  C   UNL     1      -2.067   0.943   3.142  1.00  0.00    -0.014 A 
BRANCH  13  14
ATOM     14  C   UNL     1      -3.031   0.772   4.253  1.00  0.00     0.031 A 
ATOM     15  C   UNL     1      -3.989  -0.374   4.225  1.00  0.00     0.074 A 
ATOM     16  C   UNL     1      -3.039   1.680   5.257  1.00  0.00     0.049 A 
ATOM     17  N   UNL     1      -5.102  -0.527   4.885  1.00  0.00    -0.248 NA
ATOM     18  C   UNL     1      -3.669  -1.482   3.310  1.00  0.00     0.031 C 
ATOM     19  C   UNL     1      -2.080   2.786   5.422  1.00  0.00     0.029 A 
ATOM     20  N   UNL     1      -3.873   1.832   6.335  1.00  0.00    -0.354 N 
ATOM     21  C   UNL     1      -5.662  -1.705   4.407  1.00  0.00     0.074 A 
ATOM     22  C   UNL     1      -4.752  -2.239   3.417  1.00  0.00     0.031 C 
ATOM     23  C   UNL     1      -2.344   3.455   6.548  1.00  0.00     0.029 A 
ATOM     24  C   UNL     1      -3.594   2.957   7.084  1.00  0.00     0.049 A 
ATOM     25  H   UNL     1      -4.597   1.202   6.552  1.00  0.00     0.167 HD
ATOM     26  C   UNL     1      -6.851  -2.249   4.758  1.00  0.00     0.034 A 
ATOM     27  C   UNL     1      -4.319   3.591   8.022  1.00  0.00     0.034 A 
ATOM     28  C   UNL     1      -7.694  -1.671   5.776  1.00  0.00     0.049 A 
ATOM     29  C   UNL     1      -5.668   3.008   8.335  1.00  0.00     0.074 A 
ATOM     30  C   UNL     1      -8.921  -2.111   6.236  1.00  0.00     0.029 A 
ATOM     31  N   UNL     1      -7.390  -0.514   6.490  1.00  0.00    -0.354 N 
ATOM     32  N   UNL     1      -6.229   1.928   7.837  1.00  0.00    -0.248 NA
ATOM     33  C   UNL     1      -6.492   3.731   9.305  1.00  0.00     0.031 C 
ATOM     34  C   UNL     1      -9.390  -1.182   7.171  1.00  0.00     0.029 A 
ATOM     35  C   UNL     1      -8.423  -0.204   7.356  1.00  0.00     0.049 A 
ATOM     36  H   UNL     1      -6.560   0.006   6.392  1.00  0.00     0.167 HD
ATOM     37  C   UNL     1      -7.472   1.837   8.444  1.00  0.00     0.074 A 
ATOM     38  C   UNL     1      -7.563   2.954   9.367  1.00  0.00     0.031 C 
ATOM     39  C   UNL     1      -8.459   0.925   8.257  1.00  0.00     0.034 A 
BRANCH  26  40
ATOM     40  C   UNL     1      -7.338  -3.436   3.968  1.00  0.00     0.023 A 
ATOM     41  C   UNL     1      -6.677  -4.676   3.978  1.00  0.00     0.031 A 
ATOM     42  C   UNL     1      -8.469  -3.301   3.141  1.00  0.00     0.131 A 
ATOM     43  C   UNL     1      -7.112  -5.706   3.127  1.00  0.00     0.055 A 
ATOM     44  C   UNL     1      -8.942  -4.353   2.356  1.00  0.00     0.041 A 
ATOM     45  F   UNL     1      -9.123  -2.130   3.065  1.00  0.00    -0.206 F 
ATOM     46  C   UNL     1      -8.254  -5.561   2.336  1.00  0.00     0.022 A 
BRANCH  43  47
ATOM     47  S   UNL     1      -6.084  -7.192   2.964  1.00  0.00     0.124 S 
ATOM     48  O   UNL     1      -4.845  -6.636   2.425  1.00  0.00    -0.237 OA
ATOM     49  O   UNL     1      -6.019  -7.686   4.334  1.00  0.00    -0.237 OA
ATOM     50  O   UNL     1      -6.838  -8.031   2.034  1.00  0.00    -0.744 OA
ENDBRANCH  43  47
ENDBRANCH  26  40
BRANCH  27  51
ATOM     51  C   UNL     1      -3.861   4.885   8.614  1.00  0.00     0.023 A 
ATOM     52  C   UNL     1      -3.700   5.027   9.999  1.00  0.00     0.031 A 
ATOM     53  C   UNL     1      -3.627   6.022   7.812  1.00  0.00     0.131 A 
ATOM     54  C   UNL     1      -3.375   6.281  10.544  1.00  0.00     0.055 A 
ATOM     55  C   UNL     1      -3.227   7.246   8.351  1.00  0.00     0.041 A 
ATOM     56  F   UNL     1      -3.771   5.958   6.478  1.00  0.00    -0.206 F 
ATOM     57  C   UNL     1      -3.118   7.386   9.729  1.00  0.00     0.022 A 
BRANCH  54  58
ATOM     58  S   UNL     1      -3.424   6.478  12.346  1.00  0.00     0.124 S 
ATOM     59  O   UNL     1      -4.766   5.998  12.659  1.00  0.00    -0.237 OA
ATOM     60  O   UNL     1      -2.321   5.624  12.773  1.00  0.00    -0.237 OA
ATOM     61  O   UNL     1      -3.213   7.911  12.537  1.00  0.00    -0.744 OA
ENDBRANCH  54  58
ENDBRANCH  27  51
BRANCH  39  62
ATOM     62  C   UNL     1      -9.689   1.095   9.102  1.00  0.00     0.023 A 
ATOM     63  C   UNL     1     -10.571   2.168   8.900  1.00  0.00     0.031 A 
ATOM     64  C   UNL     1      -9.980   0.164  10.113  1.00  0.00     0.131 A 
ATOM     65  C   UNL     1     -11.690   2.307   9.730  1.00  0.00     0.055 A 
ATOM     66  C   UNL     1     -11.130   0.272  10.891  1.00  0.00     0.041 A 
ATOM     67  F   UNL     1      -9.159  -0.873  10.345  1.00  0.00    -0.206 F 
ATOM     68  C   UNL     1     -11.988   1.353  10.708  1.00  0.00     0.022 A 
BRANCH  65  69
ATOM     69  S   UNL     1     -12.716   3.791   9.559  1.00  0.00     0.124 S 
ATOM     70  O   UNL     1     -11.770   4.851   9.893  1.00  0.00    -0.237 OA
ATOM     71  O   UNL     1     -13.134   3.726   8.163  1.00  0.00    -0.237 OA
ATOM     72  O   UNL     1     -13.783   3.581  10.535  1.00  0.00    -0.744 OA
ENDBRANCH  65  69
ENDBRANCH  39  62
ENDBRANCH  13  14
ENDBRANCH   6   8
ENDBRANCH   5   6
ENDBRANCH   4   5
ENDBRANCH   3   4
ENDBRANCH   2   3
ENDBRANCH   1   2
BRANCH   1  73
ATOM     73  C   UNL     1       5.096   2.277   3.388  1.00  0.00     0.261 C 
BRANCH  73  74
ATOM     74  O   UNL     1       5.639   0.939   3.250  1.00  0.00    -0.463 OA
BRANCH  74  75
ATOM     75  C   UNL     1       5.519   0.127   4.345  1.00  0.00     0.309 C 
ATOM     76  O   UNL     1       5.165   0.526   5.445  1.00  0.00    -0.252 OA
BRANCH  75  77
ATOM     77  C   UNL     1       6.003  -1.303   4.055  1.00  0.00     0.104 C 
BRANCH  77  78
ATOM     78  C   UNL     1       6.199  -2.066   5.368  1.00  0.00     0.052 C 
BRANCH  78  79
ATOM     79  C   UNL     1       6.767  -3.465   5.285  1.00  0.00    -0.033 A 
ATOM     80  C   UNL     1       5.883  -4.551   5.156  1.00  0.00     0.005 A 
ATOM     81  C   UNL     1       8.128  -3.762   5.392  1.00  0.00     0.021 A 
ATOM     82  C   UNL     1       6.309  -5.874   5.125  1.00  0.00     0.000 A 
ATOM     83  C   UNL     1       8.564  -5.095   5.394  1.00  0.00     0.016 A 
ATOM     84  Br  UNL     1       9.450  -2.412   5.565  1.00  0.00    -0.051 Br
ATOM     85  C   UNL     1       7.658  -6.148   5.260  1.00  0.00     0.001 A 
ENDBRANCH  78  79
ENDBRANCH  77  78
BRANCH  77  86
ATOM     86  C   UNL     1       5.241  -2.057   2.947  1.00  0.00     0.027 C 
BRANCH  86  87
ATOM     87  C   UNL     1       3.969  -2.947   3.079  1.00  0.00     0.076 C 
BRANCH  87  88
ATOM     88  S   UNL     1       2.388  -2.843   4.054  1.00  0.00    -0.126 SA
BRANCH  88  89
ATOM     89  C   UNL     1       2.771  -2.388   5.724  1.00  0.00     0.007 A 
ATOM     90  C   UNL     1       3.133  -3.326   6.699  1.00  0.00     0.015 A 
ATOM     91  C   UNL     1       2.637  -1.052   6.109  1.00  0.00     0.015 A 
ATOM     92  C   UNL     1       3.558  -2.909   7.967  1.00  0.00     0.001 A 
ATOM     93  C   UNL     1       3.021  -0.637   7.387  1.00  0.00     0.001 A 
ATOM     94  C   UNL     1       3.526  -1.557   8.300  1.00  0.00     0.000 A 
ENDBRANCH  88  89
ENDBRANCH  87  88
ENDBRANCH  86  87
ENDBRANCH  77  86
ENDBRANCH  75  77
ENDBRANCH  74  75
ENDBRANCH  73  74
ENDBRANCH   1  73
TORSDOF 23
