REMARK SMILES C[C@H](C1CCCC1)[N@@H+](CC(=O)OCCOCCOC(=O)c1ccc(-c2c3nc(c(-c4cc(S(=O)(=O)[O-])ccc4F)c4ccc([nH]4)c(-c4cc(S(=O)(=O)[O-])ccc4F)c4nc(c(-c5cc(S(=O)(=O)[O-])ccc5F)c5ccc2[nH]5)C=C4)C=C3)cc1)CC(F)(F)F
REMARK SMILES IDX 15 1 14 2 13 3 12 4 10 5 11 6 9 7 8 8 2 10 1 11 3 12 4 13
REMARK SMILES IDX 7 14 5 15 6 16 84 17 85 18 86 19 87 20 88 21 16 22 17 23
REMARK SMILES IDX 18 24 19 25 20 26 21 27 22 28 83 29 23 30 82 31 24 32 25 33
REMARK SMILES IDX 26 34 76 35 27 36 81 37 75 38 77 39 28 40 80 41 74 42 73 43
REMARK SMILES IDX 29 45 61 46 41 47 60 48 42 49 45 50 59 51 78 52 43 53 44 54
REMARK SMILES IDX 58 56 79 57 46 58 30 59 31 60 39 61 32 62 38 63 40 64 37 65
REMARK SMILES IDX 33 66 34 67 35 68 36 69 62 70 63 71 71 72 64 73 70 74 72 75
REMARK SMILES IDX 69 76 65 77 66 78 67 79 68 80 47 81 48 82 56 83 49 84 55 85
REMARK SMILES IDX 57 86 54 87 50 88 51 89 52 90 53 91
REMARK H PARENT 8 9 77 44 45 55
REMARK Flexibility Score: inf
ROOT
ATOM      1  O   UNL     1      -0.910  -3.059  -5.307  1.00  0.00    -0.374 OA
ENDROOT
BRANCH   1   2
ATOM      2  C   UNL     1       0.269  -2.255  -5.388  1.00  0.00     0.202 C 
BRANCH   2   3
ATOM      3  C   UNL     1      -0.028  -0.789  -5.721  1.00  0.00     0.261 C 
BRANCH   3   4
ATOM      4  O   UNL     1      -0.072   0.038  -4.539  1.00  0.00    -0.459 OA
BRANCH   4   5
ATOM      5  C   UNL     1      -1.254   0.356  -3.956  1.00  0.00     0.361 C 
ATOM      6  O   UNL     1      -2.354  -0.008  -4.351  1.00  0.00    -0.245 OA
BRANCH   5   7
ATOM      7  C   UNL     1      -1.042   1.286  -2.754  1.00  0.00     0.387 C 
BRANCH   7   8
ATOM      8  N   UNL     1      -0.709   0.645  -1.465  1.00  0.00    -0.316 N 
ATOM      9  H   UNL     1      -0.541   1.319  -0.718  1.00  0.00     0.349 HD
BRANCH   8  10
ATOM     10  C   UNL     1       0.710   0.450  -1.095  1.00  0.00     0.184 C 
ATOM     11  C   UNL     1       1.470  -0.327  -2.175  1.00  0.00     0.075 C 
BRANCH  10  12
ATOM     12  C   UNL     1       1.114   0.060   0.380  1.00  0.00     0.047 C 
ATOM     13  C   UNL     1       0.506  -1.157   1.078  1.00  0.00     0.010 C 
ATOM     14  C   UNL     1       2.621  -0.243   0.568  1.00  0.00     0.010 C 
ATOM     15  C   UNL     1       1.364  -1.337   2.329  1.00  0.00     0.001 C 
ATOM     16  C   UNL     1       2.771  -0.948   1.912  1.00  0.00     0.001 C 
ENDBRANCH  10  12
ENDBRANCH   8  10
BRANCH   8  17
ATOM     17  C   UNL     1      -1.827   0.040  -0.733  1.00  0.00     0.380 C 
BRANCH  17  18
ATOM     18  C   UNL     1      -2.119  -1.468  -0.840  1.00  0.00     0.438 C 
ATOM     19  F   UNL     1      -1.015  -2.189  -1.106  1.00  0.00    -0.165 F 
ATOM     20  F   UNL     1      -2.639  -1.940   0.319  1.00  0.00    -0.165 F 
ATOM     21  F   UNL     1      -3.022  -1.731  -1.811  1.00  0.00    -0.165 F 
ENDBRANCH  17  18
ENDBRANCH   8  17
ENDBRANCH   7   8
ENDBRANCH   5   7
ENDBRANCH   4   5
ENDBRANCH   3   4
ENDBRANCH   2   3
ENDBRANCH   1   2
BRANCH   1  22
ATOM     22  C   UNL     1      -1.514  -3.101  -4.014  1.00  0.00     0.202 C 
BRANCH  22  23
ATOM     23  C   UNL     1      -0.999  -4.250  -3.145  1.00  0.00     0.261 C 
BRANCH  23  24
ATOM     24  O   UNL     1       0.350  -3.973  -2.716  1.00  0.00    -0.460 OA
BRANCH  24  25
ATOM     25  C   UNL     1       1.287  -4.810  -3.215  1.00  0.00     0.338 C 
ATOM     26  O   UNL     1       1.091  -5.840  -3.836  1.00  0.00    -0.246 OA
BRANCH  25  27
ATOM     27  C   UNL     1       2.631  -4.209  -3.080  1.00  0.00     0.060 A 
ATOM     28  C   UNL     1       3.423  -4.209  -4.231  1.00  0.00     0.016 A 
ATOM     29  C   UNL     1       3.147  -3.733  -1.871  1.00  0.00     0.016 A 
ATOM     30  C   UNL     1       4.758  -3.824  -4.161  1.00  0.00     0.010 A 
ATOM     31  C   UNL     1       4.492  -3.330  -1.807  1.00  0.00     0.010 A 
ATOM     32  C   UNL     1       5.322  -3.425  -2.941  1.00  0.00    -0.014 A 
BRANCH  32  33
ATOM     33  C   UNL     1       6.805  -3.284  -2.864  1.00  0.00     0.031 A 
ATOM     34  C   UNL     1       7.616  -4.354  -2.174  1.00  0.00     0.074 A 
ATOM     35  C   UNL     1       7.441  -2.290  -3.516  1.00  0.00     0.049 A 
ATOM     36  N   UNL     1       8.916  -4.485  -2.084  1.00  0.00    -0.248 NA
ATOM     37  C   UNL     1       6.861  -5.421  -1.500  1.00  0.00     0.031 C 
ATOM     38  C   UNL     1       6.783  -1.222  -4.268  1.00  0.00     0.029 A 
ATOM     39  N   UNL     1       8.781  -2.034  -3.677  1.00  0.00    -0.354 N 
ATOM     40  C   UNL     1       9.134  -5.644  -1.345  1.00  0.00     0.074 A 
ATOM     41  C   UNL     1       7.831  -6.149  -0.970  1.00  0.00     0.031 C 
ATOM     42  C   UNL     1       7.721  -0.443  -4.833  1.00  0.00     0.029 A 
ATOM     43  C   UNL     1       9.047  -0.927  -4.450  1.00  0.00     0.049 A 
ATOM     44  H   UNL     1       9.487  -2.591  -3.275  1.00  0.00     0.167 HD
ATOM     45  C   UNL     1      10.308  -6.244  -1.023  1.00  0.00     0.034 A 
ATOM     46  C   UNL     1      10.220  -0.358  -4.803  1.00  0.00     0.034 A 
ATOM     47  C   UNL     1      11.606  -5.740  -1.405  1.00  0.00     0.049 A 
ATOM     48  C   UNL     1      11.515  -0.992  -4.350  1.00  0.00     0.074 A 
ATOM     49  C   UNL     1      12.851  -6.290  -1.149  1.00  0.00     0.029 A 
ATOM     50  N   UNL     1      11.833  -4.564  -2.108  1.00  0.00    -0.354 N 
ATOM     51  N   UNL     1      11.702  -2.096  -3.664  1.00  0.00    -0.248 NA
ATOM     52  C   UNL     1      12.758  -0.305  -4.727  1.00  0.00     0.031 C 
ATOM     53  C   UNL     1      13.829  -5.406  -1.614  1.00  0.00     0.029 A 
ATOM     54  C   UNL     1      13.197  -4.350  -2.250  1.00  0.00     0.049 A 
ATOM     55  H   UNL     1      11.130  -3.969  -2.454  1.00  0.00     0.167 HD
ATOM     56  C   UNL     1      13.083  -2.251  -3.560  1.00  0.00     0.074 A 
ATOM     57  C   UNL     1      13.680  -1.137  -4.266  1.00  0.00     0.031 C 
ATOM     58  C   UNL     1      13.793  -3.231  -2.943  1.00  0.00     0.034 A 
BRANCH  45  59
ATOM     59  C   UNL     1      10.244  -7.487  -0.167  1.00  0.00     0.023 A 
ATOM     60  C   UNL     1       9.629  -8.671  -0.612  1.00  0.00     0.031 A 
ATOM     61  C   UNL     1      10.797  -7.481   1.127  1.00  0.00     0.131 A 
ATOM     62  C   UNL     1       9.521  -9.771   0.253  1.00  0.00     0.055 A 
ATOM     63  C   UNL     1      10.762  -8.607   1.950  1.00  0.00     0.041 A 
ATOM     64  F   UNL     1      11.377  -6.374   1.617  1.00  0.00    -0.206 F 
ATOM     65  C   UNL     1      10.107  -9.757   1.521  1.00  0.00     0.022 A 
BRANCH  62  66
ATOM     66  S   UNL     1       8.473 -11.166  -0.243  1.00  0.00     0.124 S 
ATOM     67  O   UNL     1       7.189 -10.506  -0.466  1.00  0.00    -0.237 OA
ATOM     68  O   UNL     1       9.152 -11.662  -1.434  1.00  0.00    -0.237 OA
ATOM     69  O   UNL     1       8.515 -12.056   0.916  1.00  0.00    -0.744 OA
ENDBRANCH  62  66
ENDBRANCH  45  59
BRANCH  46  70
ATOM     70  C   UNL     1      10.241   0.907  -5.597  1.00  0.00     0.023 A 
ATOM     71  C   UNL     1      10.853   0.971  -6.859  1.00  0.00     0.031 A 
ATOM     72  C   UNL     1       9.710   2.096  -5.063  1.00  0.00     0.131 A 
ATOM     73  C   UNL     1      10.965   2.205  -7.521  1.00  0.00     0.055 A 
ATOM     74  C   UNL     1       9.768   3.308  -5.753  1.00  0.00     0.041 A 
ATOM     75  F   UNL     1       9.121   2.096  -3.857  1.00  0.00    -0.206 F 
ATOM     76  C   UNL     1      10.412   3.370  -6.984  1.00  0.00     0.022 A 
BRANCH  73  77
ATOM     77  S   UNL     1      11.938   2.289  -9.050  1.00  0.00     0.124 S 
ATOM     78  O   UNL     1      13.241   1.816  -8.598  1.00  0.00    -0.237 OA
ATOM     79  O   UNL     1      11.198   1.391  -9.930  1.00  0.00    -0.237 OA
ATOM     80  O   UNL     1      11.878   3.703  -9.414  1.00  0.00    -0.744 OA
ENDBRANCH  73  77
ENDBRANCH  46  70
BRANCH  58  81
ATOM     81  C   UNL     1      15.301  -3.169  -3.045  1.00  0.00     0.023 A 
ATOM     82  C   UNL     1      16.046  -2.128  -2.463  1.00  0.00     0.031 A 
ATOM     83  C   UNL     1      16.004  -4.169  -3.742  1.00  0.00     0.131 A 
ATOM     84  C   UNL     1      17.439  -2.079  -2.638  1.00  0.00     0.055 A 
ATOM     85  C   UNL     1      17.395  -4.152  -3.855  1.00  0.00     0.041 A 
ATOM     86  F   UNL     1      15.348  -5.187  -4.324  1.00  0.00    -0.206 F 
ATOM     87  C   UNL     1      18.120  -3.095  -3.313  1.00  0.00     0.022 A 
BRANCH  84  88
ATOM     88  S   UNL     1      18.341  -0.616  -2.058  1.00  0.00     0.124 S 
ATOM     89  O   UNL     1      17.676   0.459  -2.787  1.00  0.00    -0.237 OA
ATOM     90  O   UNL     1      18.105  -0.653  -0.619  1.00  0.00    -0.237 OA
ATOM     91  O   UNL     1      19.721  -0.879  -2.466  1.00  0.00    -0.744 OA
ENDBRANCH  84  88
ENDBRANCH  58  81
ENDBRANCH  32  33
ENDBRANCH  25  27
ENDBRANCH  24  25
ENDBRANCH  23  24
ENDBRANCH  22  23
ENDBRANCH   1  22
TORSDOF 22
