REMARK SMILES C#CCN(CC(=O)OCCOCCOC(=O)c1ccc(-c2c3nc(c(-c4cc(S(=O)(=O)[O-])ccc4F)c4ccc([nH]4)c(-c4cc(S(=O)(=O)[O-])ccc4F)c4nc(c(-c5cc(S(=O)(=O)[O-])ccc5F)c5ccc2[nH]5)C=C4)C=C3)cc1)C(=O)C(C)(C)[NH2+]CC
REMARK SMILES IDX 10 1 9 2 8 3 6 4 7 5 5 6 4 7 3 8 2 9 1 10 80 11 81 12 82 13
REMARK SMILES IDX 83 14 84 15 85 16 86 19 87 20 11 21 12 22 13 23 14 24 15 25
REMARK SMILES IDX 16 26 17 27 18 28 79 29 19 30 78 31 20 32 21 33 22 34 72 35
REMARK SMILES IDX 23 36 77 37 71 38 73 39 24 40 76 41 70 42 69 43 25 45 57 46
REMARK SMILES IDX 37 47 56 48 38 49 41 50 55 51 74 52 39 53 40 54 54 56 75 57
REMARK SMILES IDX 42 58 26 59 27 60 35 61 28 62 34 63 36 64 33 65 29 66 30 67
REMARK SMILES IDX 31 68 32 69 58 70 59 71 67 72 60 73 66 74 68 75 65 76 61 77
REMARK SMILES IDX 62 78 63 79 64 80 43 81 44 82 52 83 45 84 51 85 53 86 50 87
REMARK SMILES IDX 46 88 47 89 48 90 49 91
REMARK H PARENT 85 17 85 18 73 44 41 55
REMARK Flexibility Score: inf
ROOT
ATOM      1  C   UNL     1      -7.444   1.229  -1.588  1.00  0.00     0.202 C 
ENDROOT
BRANCH   1   2
ATOM      2  C   UNL     1      -6.734  -0.113  -1.359  1.00  0.00     0.261 C 
BRANCH   2   3
ATOM      3  O   UNL     1      -5.284  -0.021  -1.332  1.00  0.00    -0.462 OA
BRANCH   3   4
ATOM      4  C   UNL     1      -4.630  -1.080  -1.876  1.00  0.00     0.325 C 
ATOM      5  O   UNL     1      -5.198  -2.058  -2.360  1.00  0.00    -0.250 OA
BRANCH   4   6
ATOM      6  C   UNL     1      -3.089  -0.984  -1.933  1.00  0.00     0.243 C 
BRANCH   6   7
ATOM      7  N   UNL     1      -2.284   0.104  -1.365  1.00  0.00    -0.315 N 
BRANCH   7   8
ATOM      8  C   UNL     1      -1.857  -0.039   0.086  1.00  0.00     0.210 C 
BRANCH   8   9
ATOM      9  C   UNL     1      -0.337  -0.039   0.086  1.00  0.00    -0.085 C 
ATOM     10  C   UNL     1       0.966  -0.039   0.086  1.00  0.00     0.006 C 
ENDBRANCH   8   9
ENDBRANCH   7   8
BRANCH   7  11
ATOM     11  C   UNL     1      -1.859   1.256  -2.059  1.00  0.00     0.284 C 
ATOM     12  O   UNL     1      -1.548   2.248  -1.381  1.00  0.00    -0.268 OA
BRANCH  11  13
ATOM     13  C   UNL     1      -1.673   1.314  -3.689  1.00  0.00     0.170 C 
ATOM     14  C   UNL     1      -0.792   0.167  -4.198  1.00  0.00     0.090 C 
ATOM     15  C   UNL     1      -2.950   1.271  -4.546  1.00  0.00     0.090 C 
BRANCH  13  16
ATOM     16  N   UNL     1      -1.108   2.651  -4.050  1.00  0.00    -0.334 N 
ATOM     17  H   UNL     1      -1.648   3.348  -3.536  1.00  0.00     0.347 HD
ATOM     18  H   UNL     1      -1.173   2.666  -5.068  1.00  0.00     0.347 HD
BRANCH  16  19
ATOM     19  C   UNL     1       0.296   2.939  -3.799  1.00  0.00     0.257 C 
ATOM     20  C   UNL     1       1.212   2.477  -4.927  1.00  0.00     0.071 C 
ENDBRANCH  16  19
ENDBRANCH  13  16
ENDBRANCH  11  13
ENDBRANCH   7  11
ENDBRANCH   6   7
ENDBRANCH   4   6
ENDBRANCH   3   4
ENDBRANCH   2   3
ENDBRANCH   1   2
BRANCH   1  21
ATOM     21  O   UNL     1      -7.298   1.851  -2.860  1.00  0.00    -0.374 OA
BRANCH  21  22
ATOM     22  C   UNL     1      -5.996   2.014  -3.395  1.00  0.00     0.202 C 
BRANCH  22  23
ATOM     23  C   UNL     1      -4.902   2.660  -2.534  1.00  0.00     0.261 C 
BRANCH  23  24
ATOM     24  O   UNL     1      -5.333   3.217  -1.320  1.00  0.00    -0.460 OA
BRANCH  24  25
ATOM     25  C   UNL     1      -5.745   4.495  -1.430  1.00  0.00     0.338 C 
ATOM     26  O   UNL     1      -5.756   5.218  -2.395  1.00  0.00    -0.246 OA
BRANCH  25  27
ATOM     27  C   UNL     1      -6.375   4.724  -0.137  1.00  0.00     0.060 A 
ATOM     28  C   UNL     1      -7.767   4.717  -0.111  1.00  0.00     0.016 A 
ATOM     29  C   UNL     1      -5.593   4.767   1.022  1.00  0.00     0.016 A 
ATOM     30  C   UNL     1      -8.402   4.818   1.110  1.00  0.00     0.010 A 
ATOM     31  C   UNL     1      -6.233   4.858   2.247  1.00  0.00     0.010 A 
ATOM     32  C   UNL     1      -7.634   4.921   2.280  1.00  0.00    -0.014 A 
BRANCH  32  33
ATOM     33  C   UNL     1      -8.331   5.273   3.523  1.00  0.00     0.031 A 
ATOM     34  C   UNL     1      -8.318   6.711   3.940  1.00  0.00     0.074 A 
ATOM     35  C   UNL     1      -9.030   4.329   4.172  1.00  0.00     0.049 A 
ATOM     36  N   UNL     1      -8.931   7.286   4.936  1.00  0.00    -0.248 NA
ATOM     37  C   UNL     1      -7.503   7.625   3.120  1.00  0.00     0.031 C 
ATOM     38  C   UNL     1      -9.104   2.920   3.780  1.00  0.00     0.029 A 
ATOM     39  N   UNL     1      -9.828   4.416   5.276  1.00  0.00    -0.354 N 
ATOM     40  C   UNL     1      -8.583   8.629   4.860  1.00  0.00     0.074 A 
ATOM     41  C   UNL     1      -7.664   8.774   3.755  1.00  0.00     0.031 C 
ATOM     42  C   UNL     1      -9.926   2.277   4.625  1.00  0.00     0.029 A 
ATOM     43  C   UNL     1     -10.400   3.220   5.633  1.00  0.00     0.049 A 
ATOM     44  H   UNL     1      -9.978   5.255   5.770  1.00  0.00     0.167 HD
ATOM     45  C   UNL     1      -9.013   9.645   5.643  1.00  0.00     0.034 A 
ATOM     46  C   UNL     1     -11.210   2.934   6.670  1.00  0.00     0.034 A 
ATOM     47  C   UNL     1      -9.916   9.442   6.748  1.00  0.00     0.049 A 
ATOM     48  C   UNL     1     -11.615   4.073   7.571  1.00  0.00     0.074 A 
ATOM     49  C   UNL     1     -10.425  10.374   7.631  1.00  0.00     0.029 A 
ATOM     50  N   UNL     1     -10.433   8.206   7.128  1.00  0.00    -0.354 N 
ATOM     51  N   UNL     1     -11.294   5.347   7.489  1.00  0.00    -0.248 NA
ATOM     52  C   UNL     1     -12.501   3.744   8.689  1.00  0.00     0.031 C 
ATOM     53  C   UNL     1     -11.181   9.693   8.591  1.00  0.00     0.029 A 
ATOM     54  C   UNL     1     -11.226   8.347   8.255  1.00  0.00     0.049 A 
ATOM     55  H   UNL     1     -10.259   7.356   6.664  1.00  0.00     0.167 HD
ATOM     56  C   UNL     1     -11.962   5.976   8.534  1.00  0.00     0.074 A 
ATOM     57  C   UNL     1     -12.724   4.941   9.209  1.00  0.00     0.031 C 
ATOM     58  C   UNL     1     -11.953   7.283   8.909  1.00  0.00     0.034 A 
BRANCH  45  59
ATOM     59  C   UNL     1      -8.453  11.019   5.366  1.00  0.00     0.023 A 
ATOM     60  C   UNL     1      -8.670  11.682   4.144  1.00  0.00     0.031 A 
ATOM     61  C   UNL     1      -7.639  11.653   6.320  1.00  0.00     0.131 A 
ATOM     62  C   UNL     1      -8.024  12.901   3.882  1.00  0.00     0.055 A 
ATOM     63  C   UNL     1      -7.066  12.905   6.086  1.00  0.00     0.041 A 
ATOM     64  F   UNL     1      -7.365  11.056   7.491  1.00  0.00    -0.206 F 
ATOM     65  C   UNL     1      -7.245  13.530   4.856  1.00  0.00     0.022 A 
BRANCH  62  66
ATOM     66  S   UNL     1      -8.093  13.581   2.201  1.00  0.00     0.124 S 
ATOM     67  O   UNL     1      -7.492  12.501   1.421  1.00  0.00    -0.237 OA
ATOM     68  O   UNL     1      -9.522  13.793   2.004  1.00  0.00    -0.237 OA
ATOM     69  O   UNL     1      -7.287  14.797   2.290  1.00  0.00    -0.744 OA
ENDBRANCH  62  66
ENDBRANCH  45  59
BRANCH  46  70
ATOM     70  C   UNL     1     -11.658   1.535   6.919  1.00  0.00     0.023 A 
ATOM     71  C   UNL     1     -13.018   1.188   6.908  1.00  0.00     0.031 A 
ATOM     72  C   UNL     1     -10.725   0.522   7.213  1.00  0.00     0.131 A 
ATOM     73  C   UNL     1     -13.409  -0.121   7.233  1.00  0.00     0.055 A 
ATOM     74  C   UNL     1     -11.116  -0.791   7.476  1.00  0.00     0.041 A 
ATOM     75  F   UNL     1      -9.411   0.795   7.236  1.00  0.00    -0.206 F 
ATOM     76  C   UNL     1     -12.467  -1.116   7.502  1.00  0.00     0.022 A 
BRANCH  73  77
ATOM     77  S   UNL     1     -15.180  -0.483   7.396  1.00  0.00     0.124 S 
ATOM     78  O   UNL     1     -15.592   0.495   8.395  1.00  0.00    -0.237 OA
ATOM     79  O   UNL     1     -15.660  -0.255   6.037  1.00  0.00    -0.237 OA
ATOM     80  O   UNL     1     -15.202  -1.876   7.837  1.00  0.00    -0.744 OA
ENDBRANCH  73  77
ENDBRANCH  46  70
BRANCH  58  81
ATOM     81  C   UNL     1     -12.825   7.650  10.084  1.00  0.00     0.023 A 
ATOM     82  C   UNL     1     -12.581   7.138  11.370  1.00  0.00     0.031 A 
ATOM     83  C   UNL     1     -13.931   8.500   9.907  1.00  0.00     0.131 A 
ATOM     84  C   UNL     1     -13.479   7.412  12.409  1.00  0.00     0.055 A 
ATOM     85  C   UNL     1     -14.773   8.837  10.966  1.00  0.00     0.041 A 
ATOM     86  F   UNL     1     -14.212   9.015   8.700  1.00  0.00    -0.206 F 
ATOM     87  C   UNL     1     -14.561   8.276  12.222  1.00  0.00     0.022 A 
BRANCH  84  88
ATOM     88  S   UNL     1     -13.293   6.511  13.971  1.00  0.00     0.124 S 
ATOM     89  O   UNL     1     -13.358   5.122  13.527  1.00  0.00    -0.237 OA
ATOM     90  O   UNL     1     -11.990   6.968  14.442  1.00  0.00    -0.237 OA
ATOM     91  O   UNL     1     -14.434   6.962  14.765  1.00  0.00    -0.744 OA
ENDBRANCH  84  88
ENDBRANCH  58  81
ENDBRANCH  32  33
ENDBRANCH  25  27
ENDBRANCH  24  25
ENDBRANCH  23  24
ENDBRANCH  22  23
ENDBRANCH  21  22
ENDBRANCH   1  21
TORSDOF 24
