REMARK SMILES CC1=C(CC(=O)OCCOCCOC(=O)c2ccc(-c3c4nc(c(-c5cc(S(=O)(=O)[O-])ccc5F)c5ccc([nH]5)c(-c5cc(S(=O)(=O)[O-])ccc5F)c5nc(c(-c6cc(S(=O)(=O)[O-])ccc6F)c6ccc3[nH]6)C=C5)C=C4)cc2)c2cc(F)ccc2/C1=C\c1cccc(OCc2ccccc2)c1
REMARK SMILES IDX 9 1 8 2 7 3 5 4 6 5 4 6 3 7 1 8 2 9 86 10 79 11 85 12 87 13
REMARK SMILES IDX 80 14 84 15 81 16 83 17 82 18 88 19 89 20 101 21 90 22 92 23
REMARK SMILES IDX 91 24 93 25 94 26 95 27 96 28 100 29 97 30 99 31 98 32 10 33
REMARK SMILES IDX 11 34 12 35 13 36 14 37 15 38 16 39 17 40 78 41 18 42 77 43
REMARK SMILES IDX 19 44 20 45 21 46 71 47 22 48 76 49 70 50 72 51 23 52 75 53
REMARK SMILES IDX 69 54 68 55 24 57 56 58 36 59 55 60 37 61 40 62 54 63 73 64
REMARK SMILES IDX 38 65 39 66 53 68 74 69 41 70 25 71 26 72 34 73 27 74 33 75
REMARK SMILES IDX 35 76 32 77 28 78 29 79 30 80 31 81 57 82 58 83 66 84 59 85
REMARK SMILES IDX 65 86 67 87 64 88 60 89 61 90 62 91 63 92 42 93 43 94 51 95
REMARK SMILES IDX 44 96 50 97 52 98 49 99 45 100 46 101 47 102 48 103
REMARK H PARENT 72 56 40 67
REMARK Flexibility Score: inf
ROOT
ATOM      1  C   UNL     1      -4.848   0.181  -3.187  1.00  0.00     0.202 C 
ENDROOT
BRANCH   1   2
ATOM      2  C   UNL     1      -3.909  -0.757  -2.411  1.00  0.00     0.261 C 
BRANCH   2   3
ATOM      3  O   UNL     1      -2.537  -0.316  -2.343  1.00  0.00    -0.463 OA
BRANCH   3   4
ATOM      4  C   UNL     1      -1.630  -1.137  -2.939  1.00  0.00     0.310 C 
ATOM      5  O   UNL     1      -1.912  -2.200  -3.487  1.00  0.00    -0.252 OA
BRANCH   4   6
ATOM      6  C   UNL     1      -0.183  -0.648  -2.908  1.00  0.00     0.159 C 
BRANCH   6   7
ATOM      7  C   UNL     1       0.140   0.695  -2.338  1.00  0.00    -0.025 C 
ATOM      8  C   UNL     1       0.741   0.067   0.064  1.00  0.00     0.045 C 
ATOM      9  C   UNL     1       0.532   1.005  -1.080  1.00  0.00    -0.039 C 
ATOM     10  C   UNL     1       0.798   2.449  -0.985  1.00  0.00    -0.014 C 
ATOM     11  C   UNL     1       0.233   1.929  -3.145  1.00  0.00    -0.011 A 
ATOM     12  C   UNL     1       0.557   3.020  -2.319  1.00  0.00    -0.010 A 
ATOM     13  C   UNL     1       1.236   3.078   0.119  1.00  0.00     0.017 C 
ATOM     14  C   UNL     1       0.074   2.117  -4.512  1.00  0.00     0.048 A 
ATOM     15  C   UNL     1       0.614   4.313  -2.829  1.00  0.00     0.012 A 
ATOM     16  C   UNL     1       0.149   3.416  -5.017  1.00  0.00     0.123 A 
ATOM     17  C   UNL     1       0.389   4.512  -4.190  1.00  0.00     0.040 A 
ATOM     18  F   UNL     1      -0.073   3.624  -6.322  1.00  0.00    -0.207 F 
BRANCH  13  19
ATOM     19  C   UNL     1       1.579   4.497   0.198  1.00  0.00    -0.021 A 
ATOM     20  C   UNL     1       0.596   5.451   0.479  1.00  0.00     0.008 A 
ATOM     21  C   UNL     1       2.901   4.900  -0.033  1.00  0.00     0.054 A 
ATOM     22  C   UNL     1       0.925   6.805   0.485  1.00  0.00     0.004 A 
ATOM     23  C   UNL     1       3.247   6.248   0.075  1.00  0.00     0.120 A 
ATOM     24  C   UNL     1       2.246   7.200   0.279  1.00  0.00     0.046 A 
BRANCH  23  25
ATOM     25  O   UNL     1       4.521   6.745   0.115  1.00  0.00    -0.489 OA
BRANCH  25  26
ATOM     26  C   UNL     1       5.612   5.840   0.312  1.00  0.00     0.265 C 
BRANCH  26  27
ATOM     27  C   UNL     1       5.776   5.202   1.687  1.00  0.00    -0.011 A 
ATOM     28  C   UNL     1       7.024   4.649   2.021  1.00  0.00     0.007 A 
ATOM     29  C   UNL     1       4.727   5.040   2.605  1.00  0.00     0.007 A 
ATOM     30  C   UNL     1       7.199   3.929   3.207  1.00  0.00     0.000 A 
ATOM     31  C   UNL     1       4.890   4.291   3.771  1.00  0.00     0.000 A 
ATOM     32  C   UNL     1       6.125   3.730   4.070  1.00  0.00     0.000 A 
ENDBRANCH  26  27
ENDBRANCH  25  26
ENDBRANCH  23  25
ENDBRANCH  13  19
ENDBRANCH   6   7
ENDBRANCH   4   6
ENDBRANCH   3   4
ENDBRANCH   2   3
ENDBRANCH   1   2
BRANCH   1  33
ATOM     33  O   UNL     1      -4.477   0.574  -4.505  1.00  0.00    -0.374 OA
BRANCH  33  34
ATOM     34  C   UNL     1      -3.319   1.390  -4.652  1.00  0.00     0.202 C 
BRANCH  34  35
ATOM     35  C   UNL     1      -3.352   2.816  -4.089  1.00  0.00     0.261 C 
BRANCH  35  36
ATOM     36  O   UNL     1      -3.703   2.893  -2.708  1.00  0.00    -0.460 OA
BRANCH  36  37
ATOM     37  C   UNL     1      -4.851   3.569  -2.469  1.00  0.00     0.338 C 
ATOM     38  O   UNL     1      -5.576   4.120  -3.284  1.00  0.00    -0.246 OA
BRANCH  37  39
ATOM     39  C   UNL     1      -5.208   3.399  -1.057  1.00  0.00     0.060 A 
ATOM     40  C   UNL     1      -4.340   3.806  -0.042  1.00  0.00     0.016 A 
ATOM     41  C   UNL     1      -6.460   2.848  -0.764  1.00  0.00     0.016 A 
ATOM     42  C   UNL     1      -4.749   3.685   1.285  1.00  0.00     0.010 A 
ATOM     43  C   UNL     1      -6.867   2.735   0.559  1.00  0.00     0.010 A 
ATOM     44  C   UNL     1      -6.024   3.172   1.590  1.00  0.00    -0.014 A 
BRANCH  44  45
ATOM     45  C   UNL     1      -6.541   3.224   2.975  1.00  0.00     0.031 A 
ATOM     46  C   UNL     1      -6.727   1.976   3.779  1.00  0.00     0.074 A 
ATOM     47  C   UNL     1      -6.904   4.424   3.468  1.00  0.00     0.049 A 
ATOM     48  N   UNL     1      -7.170   1.850   5.001  1.00  0.00    -0.248 NA
ATOM     49  C   UNL     1      -6.383   0.703   3.127  1.00  0.00     0.031 C 
ATOM     50  C   UNL     1      -6.806   5.686   2.733  1.00  0.00     0.029 A 
ATOM     51  N   UNL     1      -7.430   4.783   4.681  1.00  0.00    -0.354 N 
ATOM     52  C   UNL     1      -7.154   0.488   5.273  1.00  0.00     0.074 A 
ATOM     53  C   UNL     1      -6.703  -0.176   4.069  1.00  0.00     0.031 C 
ATOM     54  C   UNL     1      -7.232   6.684   3.518  1.00  0.00     0.029 A 
ATOM     55  C   UNL     1      -7.681   6.131   4.793  1.00  0.00     0.049 A 
ATOM     56  H   UNL     1      -7.612   4.139   5.403  1.00  0.00     0.167 HD
ATOM     57  C   UNL     1      -7.471  -0.137   6.431  1.00  0.00     0.034 A 
ATOM     58  C   UNL     1      -8.217   6.843   5.806  1.00  0.00     0.034 A 
ATOM     59  C   UNL     1      -7.928   0.558   7.610  1.00  0.00     0.049 A 
ATOM     60  C   UNL     1      -8.581   6.119   7.076  1.00  0.00     0.074 A 
ATOM     61  C   UNL     1      -8.226   0.024   8.851  1.00  0.00     0.029 A 
ATOM     62  N   UNL     1      -8.164   1.924   7.698  1.00  0.00    -0.354 N 
ATOM     63  N   UNL     1      -8.455   4.843   7.360  1.00  0.00    -0.248 NA
ATOM     64  C   UNL     1      -9.142   6.923   8.169  1.00  0.00     0.031 C 
ATOM     65  C   UNL     1      -8.720   1.048   9.658  1.00  0.00     0.029 A 
ATOM     66  C   UNL     1      -8.640   2.243   8.960  1.00  0.00     0.049 A 
ATOM     67  H   UNL     1      -8.015   2.571   6.970  1.00  0.00     0.167 HD
ATOM     68  C   UNL     1      -8.895   4.696   8.672  1.00  0.00     0.074 A 
ATOM     69  C   UNL     1      -9.264   6.019   9.133  1.00  0.00     0.031 C 
ATOM     70  C   UNL     1      -8.989   3.568   9.420  1.00  0.00     0.034 A 
BRANCH  57  71
ATOM     71  C   UNL     1      -7.323  -1.637   6.518  1.00  0.00     0.023 A 
ATOM     72  C   UNL     1      -8.439  -2.438   6.825  1.00  0.00     0.031 A 
ATOM     73  C   UNL     1      -6.060  -2.254   6.457  1.00  0.00     0.131 A 
ATOM     74  C   UNL     1      -8.264  -3.798   7.109  1.00  0.00     0.055 A 
ATOM     75  C   UNL     1      -5.898  -3.620   6.691  1.00  0.00     0.041 A 
ATOM     76  F   UNL     1      -4.962  -1.535   6.174  1.00  0.00    -0.206 F 
ATOM     77  C   UNL     1      -7.001  -4.395   7.035  1.00  0.00     0.022 A 
BRANCH  74  78
ATOM     78  S   UNL     1      -9.649  -4.826   7.670  1.00  0.00     0.124 S 
ATOM     79  O   UNL     1      -9.669  -5.880   6.658  1.00  0.00    -0.237 OA
ATOM     80  O   UNL     1      -9.202  -5.242   8.996  1.00  0.00    -0.237 OA
ATOM     81  O   UNL     1     -10.792  -3.919   7.643  1.00  0.00    -0.744 OA
ENDBRANCH  74  78
ENDBRANCH  57  71
BRANCH  58  82
ATOM     82  C   UNL     1      -8.361   8.320   5.656  1.00  0.00     0.023 A 
ATOM     83  C   UNL     1      -9.155   8.871   4.632  1.00  0.00     0.031 A 
ATOM     84  C   UNL     1      -7.609   9.200   6.452  1.00  0.00     0.131 A 
ATOM     85  C   UNL     1      -9.115  10.248   4.383  1.00  0.00     0.055 A 
ATOM     86  C   UNL     1      -7.636  10.582   6.251  1.00  0.00     0.041 A 
ATOM     87  F   UNL     1      -6.822   8.724   7.428  1.00  0.00    -0.206 F 
ATOM     88  C   UNL     1      -8.377  11.110   5.198  1.00  0.00     0.022 A 
BRANCH  85  89
ATOM     89  S   UNL     1      -9.899  10.948   2.903  1.00  0.00     0.124 S 
ATOM     90  O   UNL     1     -10.840  11.904   3.479  1.00  0.00    -0.237 OA
ATOM     91  O   UNL     1      -8.754  11.530   2.208  1.00  0.00    -0.237 OA
ATOM     92  O   UNL     1     -10.498   9.789   2.249  1.00  0.00    -0.744 OA
ENDBRANCH  85  89
ENDBRANCH  58  82
BRANCH  70  93
ATOM     93  C   UNL     1      -9.500   3.678  10.839  1.00  0.00     0.023 A 
ATOM     94  C   UNL     1      -8.684   3.265  11.910  1.00  0.00     0.031 A 
ATOM     95  C   UNL     1     -10.835   4.019  11.116  1.00  0.00     0.131 A 
ATOM     96  C   UNL     1      -9.225   3.145  13.195  1.00  0.00     0.055 A 
ATOM     97  C   UNL     1     -11.353   3.958  12.410  1.00  0.00     0.041 A 
ATOM     98  F   UNL     1     -11.659   4.406  10.129  1.00  0.00    -0.206 F 
ATOM     99  C   UNL     1     -10.553   3.501  13.454  1.00  0.00     0.022 A 
BRANCH  96 100
ATOM    100  S   UNL     1      -8.264   2.418  14.551  1.00  0.00     0.124 S 
ATOM    101  O   UNL     1      -8.246   3.506  15.526  1.00  0.00    -0.237 OA
ATOM    102  O   UNL     1      -9.079   1.264  14.919  1.00  0.00    -0.237 OA
ATOM    103  O   UNL     1      -6.974   2.108  13.943  1.00  0.00    -0.744 OA
ENDBRANCH  96 100
ENDBRANCH  70  93
ENDBRANCH  44  45
ENDBRANCH  37  39
ENDBRANCH  36  37
ENDBRANCH  35  36
ENDBRANCH  34  35
ENDBRANCH  33  34
ENDBRANCH   1  33
TORSDOF 22
