REMARK SMILES O=C(OCCOCCOC(=O)[C@H]1[C@H]2C[C@@H]3[C@@H](OC(=O)[C@@H]31)[C@@H]2Sc1ccccc1)c1ccc(-c2c3nc(c(-c4cc(S(=O)(=O)[O-])ccc4F)c4ccc([nH]4)c(-c4cc(S(=O)(=O)[O-])ccc4F)c4nc(c(-c5cc(S(=O)(=O)[O-])ccc5F)c5ccc2[nH]5)C=C4)C=C3)cc1
REMARK SMILES IDX 5 1 4 2 3 3 2 4 1 5 29 6 30 7 91 8 31 9 90 10 32 11 33 12
REMARK SMILES IDX 34 13 84 14 35 15 89 16 83 17 85 18 36 19 88 20 82 21 81 22
REMARK SMILES IDX 37 24 69 25 49 26 68 27 50 28 53 29 67 30 86 31 51 32 52 33
REMARK SMILES IDX 66 35 87 36 54 37 38 38 39 39 47 40 40 41 46 42 48 43 45 44
REMARK SMILES IDX 41 45 42 46 43 47 44 48 70 49 71 50 79 51 72 52 78 53 80 54
REMARK SMILES IDX 77 55 73 56 74 57 75 58 76 59 55 60 56 61 64 62 57 63 63 64
REMARK SMILES IDX 65 65 62 66 58 67 59 68 60 69 61 70 6 71 7 72 8 73 9 74
REMARK SMILES IDX 10 75 11 76 12 77 13 78 20 79 14 80 21 81 15 82 18 83 16 84
REMARK SMILES IDX 17 85 19 86 22 87 23 88 24 89 28 90 25 91 27 92 26 93
REMARK H PARENT 85 23 53 34
REMARK Flexibility Score: inf
ROOT
ATOM      1  C   UNL     1       4.789  -0.262  -1.097  1.00  0.00     0.202 C 
ENDROOT
BRANCH   1   2
ATOM      2  C   UNL     1       4.386  -0.947   0.222  1.00  0.00     0.261 C 
BRANCH   2   3
ATOM      3  O   UNL     1       2.965  -0.884   0.442  1.00  0.00    -0.460 OA
BRANCH   3   4
ATOM      4  C   UNL     1       2.288   0.059   1.147  1.00  0.00     0.338 C 
ATOM      5  O   UNL     1       1.068  -0.045   1.260  1.00  0.00    -0.246 OA
BRANCH   4   6
ATOM      6  C   UNL     1       2.964   1.233   1.776  1.00  0.00     0.060 A 
ATOM      7  C   UNL     1       4.190   1.729   1.351  1.00  0.00     0.016 A 
ATOM      8  C   UNL     1       2.321   1.914   2.820  1.00  0.00     0.016 A 
ATOM      9  C   UNL     1       4.804   2.803   1.924  1.00  0.00     0.010 A 
ATOM     10  C   UNL     1       2.928   3.029   3.417  1.00  0.00     0.010 A 
ATOM     11  C   UNL     1       4.181   3.457   2.966  1.00  0.00    -0.014 A 
BRANCH  11  12
ATOM     12  C   UNL     1       5.060   4.410   3.645  1.00  0.00     0.031 A 
ATOM     13  C   UNL     1       5.755   3.921   4.875  1.00  0.00     0.074 A 
ATOM     14  C   UNL     1       5.462   5.502   2.967  1.00  0.00     0.049 A 
ATOM     15  N   UNL     1       6.612   4.532   5.638  1.00  0.00    -0.248 NA
ATOM     16  C   UNL     1       5.463   2.533   5.282  1.00  0.00     0.031 C 
ATOM     17  C   UNL     1       5.011   5.869   1.616  1.00  0.00     0.029 A 
ATOM     18  N   UNL     1       6.396   6.447   3.270  1.00  0.00    -0.354 N 
ATOM     19  C   UNL     1       6.915   3.631   6.651  1.00  0.00     0.074 A 
ATOM     20  C   UNL     1       6.165   2.424   6.396  1.00  0.00     0.031 C 
ATOM     21  C   UNL     1       5.699   6.943   1.200  1.00  0.00     0.029 A 
ATOM     22  C   UNL     1       6.550   7.399   2.289  1.00  0.00     0.049 A 
ATOM     23  H   UNL     1       6.911   6.449   4.109  1.00  0.00     0.167 HD
ATOM     24  C   UNL     1       7.732   3.831   7.709  1.00  0.00     0.034 A 
ATOM     25  C   UNL     1       7.265   8.537   2.313  1.00  0.00     0.034 A 
ATOM     26  C   UNL     1       8.449   5.067   7.890  1.00  0.00     0.049 A 
ATOM     27  C   UNL     1       8.045   8.810   3.573  1.00  0.00     0.074 A 
ATOM     28  C   UNL     1       9.223   5.478   8.956  1.00  0.00     0.029 A 
ATOM     29  N   UNL     1       8.469   6.103   6.956  1.00  0.00    -0.354 N 
ATOM     30  N   UNL     1       8.205   8.036   4.626  1.00  0.00    -0.248 NA
ATOM     31  C   UNL     1       8.724  10.102   3.661  1.00  0.00     0.031 C 
ATOM     32  C   UNL     1       9.642   6.789   8.702  1.00  0.00     0.029 A 
ATOM     33  C   UNL     1       9.216   7.163   7.434  1.00  0.00     0.049 A 
ATOM     34  H   UNL     1       8.016   6.082   6.082  1.00  0.00     0.167 HD
ATOM     35  C   UNL     1       9.034   8.737   5.492  1.00  0.00     0.074 A 
ATOM     36  C   UNL     1       9.349   9.988   4.823  1.00  0.00     0.031 C 
ATOM     37  C   UNL     1       9.498   8.390   6.721  1.00  0.00     0.034 A 
BRANCH  24  38
ATOM     38  C   UNL     1       7.731   2.767   8.778  1.00  0.00     0.023 A 
ATOM     39  C   UNL     1       8.166   1.450   8.539  1.00  0.00     0.031 A 
ATOM     40  C   UNL     1       7.146   3.047  10.026  1.00  0.00     0.131 A 
ATOM     41  C   UNL     1       7.918   0.449   9.493  1.00  0.00     0.055 A 
ATOM     42  C   UNL     1       6.989   2.066  11.007  1.00  0.00     0.041 A 
ATOM     43  F   UNL     1       6.669   4.272  10.297  1.00  0.00    -0.206 F 
ATOM     44  C   UNL     1       7.358   0.753  10.735  1.00  0.00     0.022 A 
BRANCH  41  45
ATOM     45  S   UNL     1       8.154  -1.287   9.013  1.00  0.00     0.124 S 
ATOM     46  O   UNL     1       7.232  -1.409   7.886  1.00  0.00    -0.237 OA
ATOM     47  O   UNL     1       9.574  -1.335   8.684  1.00  0.00    -0.237 OA
ATOM     48  O   UNL     1       7.765  -2.031  10.210  1.00  0.00    -0.744 OA
ENDBRANCH  41  45
ENDBRANCH  24  38
BRANCH  25  49
ATOM     49  C   UNL     1       7.196   9.519   1.191  1.00  0.00     0.023 A 
ATOM     50  C   UNL     1       8.352   9.953   0.525  1.00  0.00     0.031 A 
ATOM     51  C   UNL     1       5.968  10.092   0.805  1.00  0.00     0.131 A 
ATOM     52  C   UNL     1       8.264  10.960  -0.452  1.00  0.00     0.055 A 
ATOM     53  C   UNL     1       5.877  11.046  -0.211  1.00  0.00     0.041 A 
ATOM     54  F   UNL     1       4.825   9.731   1.411  1.00  0.00    -0.206 F 
ATOM     55  C   UNL     1       7.033  11.498  -0.835  1.00  0.00     0.022 A 
BRANCH  52  56
ATOM     56  S   UNL     1       9.798  11.639  -1.141  1.00  0.00     0.124 S 
ATOM     57  O   UNL     1      10.492  12.083   0.062  1.00  0.00    -0.237 OA
ATOM     58  O   UNL     1      10.365  10.478  -1.819  1.00  0.00    -0.237 OA
ATOM     59  O   UNL     1       9.331  12.707  -2.023  1.00  0.00    -0.744 OA
ENDBRANCH  52  56
ENDBRANCH  25  49
BRANCH  37  60
ATOM     60  C   UNL     1      10.452   9.357   7.370  1.00  0.00     0.023 A 
ATOM     61  C   UNL     1      10.049  10.640   7.768  1.00  0.00     0.031 A 
ATOM     62  C   UNL     1      11.792   8.982   7.575  1.00  0.00     0.131 A 
ATOM     63  C   UNL     1      10.996  11.533   8.284  1.00  0.00     0.055 A 
ATOM     64  C   UNL     1      12.710   9.847   8.164  1.00  0.00     0.041 A 
ATOM     65  F   UNL     1      12.226   7.765   7.207  1.00  0.00    -0.206 F 
ATOM     66  C   UNL     1      12.318  11.137   8.506  1.00  0.00     0.022 A 
BRANCH  63  67
ATOM     67  S   UNL     1      10.506  13.259   8.539  1.00  0.00     0.124 S 
ATOM     68  O   UNL     1      10.042  13.641   7.209  1.00  0.00    -0.237 OA
ATOM     69  O   UNL     1       9.474  13.142   9.564  1.00  0.00    -0.237 OA
ATOM     70  O   UNL     1      11.743  13.905   8.974  1.00  0.00    -0.744 OA
ENDBRANCH  63  67
ENDBRANCH  37  60
ENDBRANCH  11  12
ENDBRANCH   4   6
ENDBRANCH   3   4
ENDBRANCH   2   3
ENDBRANCH   1   2
BRANCH   1  71
ATOM     71  O   UNL     1       4.281   1.045  -1.370  1.00  0.00    -0.374 OA
BRANCH  71  72
ATOM     72  C   UNL     1       2.946   1.119  -1.870  1.00  0.00     0.202 C 
BRANCH  72  73
ATOM     73  C   UNL     1       2.954   1.471  -3.354  1.00  0.00     0.261 C 
BRANCH  73  74
ATOM     74  O   UNL     1       3.312   0.295  -4.102  1.00  0.00    -0.463 OA
BRANCH  74  75
ATOM     75  C   UNL     1       4.635   0.012  -4.217  1.00  0.00     0.310 C 
ATOM     76  O   UNL     1       5.548   0.795  -4.003  1.00  0.00    -0.252 OA
BRANCH  75  77
ATOM     77  C   UNL     1       4.859  -1.441  -4.618  1.00  0.00     0.118 C 
ATOM     78  C   UNL     1       4.385  -2.587  -3.648  1.00  0.00     0.022 C 
ATOM     79  C   UNL     1       4.038  -1.743  -5.881  1.00  0.00     0.120 C 
ATOM     80  C   UNL     1       2.891  -2.631  -3.947  1.00  0.00     0.014 C 
ATOM     81  C   UNL     1       4.886  -3.939  -4.224  1.00  0.00     0.097 C 
ATOM     82  C   UNL     1       3.101  -2.865  -5.433  1.00  0.00     0.047 C 
ATOM     83  C   UNL     1       4.913  -2.421  -6.880  1.00  0.00     0.310 C 
ATOM     84  C   UNL     1       4.066  -4.048  -5.526  1.00  0.00     0.194 C 
ATOM     85  O   UNL     1       4.880  -3.768  -6.673  1.00  0.00    -0.461 OA
ATOM     86  O   UNL     1       5.616  -1.863  -7.712  1.00  0.00    -0.252 OA
BRANCH  81  87
ATOM     87  S   UNL     1       4.857  -5.405  -3.080  1.00  0.00    -0.119 SA
BRANCH  87  88
ATOM     88  C   UNL     1       3.169  -5.651  -2.555  1.00  0.00     0.008 A 
ATOM     89  C   UNL     1       2.861  -5.595  -1.189  1.00  0.00     0.015 A 
ATOM     90  C   UNL     1       2.150  -5.998  -3.449  1.00  0.00     0.015 A 
ATOM     91  C   UNL     1       1.553  -5.817  -0.739  1.00  0.00     0.001 A 
ATOM     92  C   UNL     1       0.836  -6.181  -3.007  1.00  0.00     0.001 A 
ATOM     93  C   UNL     1       0.537  -6.089  -1.652  1.00  0.00     0.000 A 
ENDBRANCH  87  88
ENDBRANCH  81  87
ENDBRANCH  75  77
ENDBRANCH  74  75
ENDBRANCH  73  74
ENDBRANCH  72  73
ENDBRANCH  71  72
ENDBRANCH   1  71
TORSDOF 19
