REMARK SMILES O=C(OCCOCCOC(=O)c1cc(N2Cc3ccccc3CC2=O)ccn1)c1ccc(-c2c3nc(c(-c4cc(S(=O)(=O)[O-])ccc4F)c4ccc([nH]4)c(-c4cc(S(=O)(=O)[O-])ccc4F)c4nc(c(-c5cc(S(=O)(=O)[O-])ccc5F)c5ccc2[nH]5)C=C4)C=C3)cc1
REMARK SMILES IDX 5 1 4 2 3 3 2 4 1 5 29 6 30 7 91 8 31 9 90 10 32 11 33 12
REMARK SMILES IDX 34 13 84 14 35 15 89 16 83 17 85 18 36 19 88 20 82 21 81 22
REMARK SMILES IDX 37 24 69 25 49 26 68 27 50 28 53 29 67 30 86 31 51 32 52 33
REMARK SMILES IDX 66 35 87 36 54 37 38 38 39 39 47 40 40 41 46 42 48 43 45 44
REMARK SMILES IDX 41 45 42 46 43 47 44 48 70 49 71 50 79 51 72 52 78 53 80 54
REMARK SMILES IDX 77 55 73 56 74 57 75 58 76 59 55 60 56 61 64 62 57 63 63 64
REMARK SMILES IDX 65 65 62 66 58 67 59 68 60 69 61 70 6 71 7 72 8 73 9 74
REMARK SMILES IDX 10 75 11 76 12 77 13 78 28 79 14 80 27 81 26 82 15 83 16 84
REMARK SMILES IDX 24 85 17 86 23 87 25 88 18 89 22 90 19 91 21 92 20 93
REMARK H PARENT 85 23 53 34
REMARK Flexibility Score: inf
ROOT
ATOM      1  C   UNL     1       4.240  -0.001  -1.743  1.00  0.00     0.202 C 
ENDROOT
BRANCH   1   2
ATOM      2  C   UNL     1       3.946  -1.203  -0.844  1.00  0.00     0.261 C 
BRANCH   2   3
ATOM      3  O   UNL     1       2.583  -1.169  -0.396  1.00  0.00    -0.460 OA
BRANCH   3   4
ATOM      4  C   UNL     1       2.097  -0.666   0.764  1.00  0.00     0.338 C 
ATOM      5  O   UNL     1       0.877  -0.690   0.932  1.00  0.00    -0.246 OA
BRANCH   4   6
ATOM      6  C   UNL     1       2.941  -0.095   1.863  1.00  0.00     0.060 A 
ATOM      7  C   UNL     1       4.208   0.472   1.709  1.00  0.00     0.016 A 
ATOM      8  C   UNL     1       2.364  -0.055   3.146  1.00  0.00     0.016 A 
ATOM      9  C   UNL     1       4.899   1.021   2.779  1.00  0.00     0.010 A 
ATOM     10  C   UNL     1       3.041   0.517   4.229  1.00  0.00     0.010 A 
ATOM     11  C   UNL     1       4.322   1.044   4.043  1.00  0.00    -0.014 A 
BRANCH  11  12
ATOM     12  C   UNL     1       5.163   1.513   5.158  1.00  0.00     0.031 A 
ATOM     13  C   UNL     1       5.836   0.484   6.013  1.00  0.00     0.074 A 
ATOM     14  C   UNL     1       5.442   2.824   5.267  1.00  0.00     0.049 A 
ATOM     15  N   UNL     1       6.656   0.643   7.014  1.00  0.00    -0.248 NA
ATOM     16  C   UNL     1       5.556  -0.921   5.675  1.00  0.00     0.031 C 
ATOM     17  C   UNL     1       4.928   3.867   4.375  1.00  0.00     0.029 A 
ATOM     18  N   UNL     1       6.259   3.498   6.132  1.00  0.00    -0.354 N 
ATOM     19  C   UNL     1       6.983  -0.640   7.437  1.00  0.00     0.074 A 
ATOM     20  C   UNL     1       6.255  -1.564   6.595  1.00  0.00     0.031 C 
ATOM     21  C   UNL     1       5.472   5.045   4.720  1.00  0.00     0.029 A 
ATOM     22  C   UNL     1       6.318   4.852   5.892  1.00  0.00     0.049 A 
ATOM     23  H   UNL     1       6.757   3.057   6.858  1.00  0.00     0.167 HD
ATOM     24  C   UNL     1       7.814  -1.002   8.444  1.00  0.00     0.034 A 
ATOM     25  C   UNL     1       6.970   5.819   6.567  1.00  0.00     0.034 A 
ATOM     26  C   UNL     1       8.495  -0.041   9.275  1.00  0.00     0.049 A 
ATOM     27  C   UNL     1       7.790   5.399   7.761  1.00  0.00     0.074 A 
ATOM     28  C   UNL     1       9.288  -0.256  10.386  1.00  0.00     0.029 A 
ATOM     29  N   UNL     1       8.449   1.338   9.080  1.00  0.00    -0.354 N 
ATOM     30  N   UNL     1       8.030   4.187   8.214  1.00  0.00    -0.248 NA
ATOM     31  C   UNL     1       8.418   6.470   8.541  1.00  0.00     0.031 C 
ATOM     32  C   UNL     1       9.668   0.991  10.898  1.00  0.00     0.029 A 
ATOM     33  C   UNL     1       9.175   1.986  10.066  1.00  0.00     0.049 A 
ATOM     34  H   UNL     1       7.970   1.788   8.347  1.00  0.00     0.167 HD
ATOM     35  C   UNL     1       8.852   4.350   9.323  1.00  0.00     0.074 A 
ATOM     36  C   UNL     1       9.084   5.777   9.453  1.00  0.00     0.031 C 
ATOM     37  C   UNL     1       9.368   3.415  10.164  1.00  0.00     0.034 A 
BRANCH  24  38
ATOM     38  C   UNL     1       7.909  -2.479   8.741  1.00  0.00     0.023 A 
ATOM     39  C   UNL     1       8.430  -3.397   7.808  1.00  0.00     0.031 A 
ATOM     40  C   UNL     1       7.353  -2.993   9.926  1.00  0.00     0.131 A 
ATOM     41  C   UNL     1       8.292  -4.776   8.032  1.00  0.00     0.055 A 
ATOM     42  C   UNL     1       7.297  -4.364  10.181  1.00  0.00     0.041 A 
ATOM     43  F   UNL     1       6.811  -2.171  10.838  1.00  0.00    -0.206 F 
ATOM     44  C   UNL     1       7.749  -5.266   9.223  1.00  0.00     0.022 A 
BRANCH  41  45
ATOM     45  S   UNL     1       8.659  -5.921   6.670  1.00  0.00     0.124 S 
ATOM     46  O   UNL     1       7.741  -5.452   5.634  1.00  0.00    -0.237 OA
ATOM     47  O   UNL     1      10.076  -5.679   6.426  1.00  0.00    -0.237 OA
ATOM     48  O   UNL     1       8.336  -7.233   7.228  1.00  0.00    -0.744 OA
ENDBRANCH  41  45
ENDBRANCH  24  38
BRANCH  25  49
ATOM     49  C   UNL     1       6.829   7.255   6.181  1.00  0.00     0.023 A 
ATOM     50  C   UNL     1       7.941   8.034   5.822  1.00  0.00     0.031 A 
ATOM     51  C   UNL     1       5.572   7.889   6.215  1.00  0.00     0.131 A 
ATOM     52  C   UNL     1       7.782   9.403   5.549  1.00  0.00     0.055 A 
ATOM     53  C   UNL     1       5.410   9.237   5.888  1.00  0.00     0.041 A 
ATOM     54  F   UNL     1       4.472   7.202   6.564  1.00  0.00    -0.206 F 
ATOM     55  C   UNL     1       6.521  10.005   5.565  1.00  0.00     0.022 A 
BRANCH  52  56
ATOM     56  S   UNL     1       9.260  10.417   5.262  1.00  0.00     0.124 S 
ATOM     57  O   UNL     1      10.025  10.180   6.481  1.00  0.00    -0.237 OA
ATOM     58  O   UNL     1       9.799   9.830   4.041  1.00  0.00    -0.237 OA
ATOM     59  O   UNL     1       8.723  11.769   5.117  1.00  0.00    -0.744 OA
ENDBRANCH  52  56
ENDBRANCH  25  49
BRANCH  37  60
ATOM     60  C   UNL     1      10.257   3.929  11.267  1.00  0.00     0.023 A 
ATOM     61  C   UNL     1       9.745   4.702  12.323  1.00  0.00     0.031 A 
ATOM     62  C   UNL     1      11.635   3.655  11.247  1.00  0.00     0.131 A 
ATOM     63  C   UNL     1      10.618   5.228  13.285  1.00  0.00     0.055 A 
ATOM     64  C   UNL     1      12.490   4.131  12.241  1.00  0.00     0.041 A 
ATOM     65  F   UNL     1      12.172   2.921  10.259  1.00  0.00    -0.206 F 
ATOM     66  C   UNL     1      11.985   4.934  13.259  1.00  0.00     0.022 A 
BRANCH  63  67
ATOM     67  S   UNL     1       9.958   6.383  14.517  1.00  0.00     0.124 S 
ATOM     68  O   UNL     1       9.411   7.444  13.677  1.00  0.00    -0.237 OA
ATOM     69  O   UNL     1       8.981   5.561  15.223  1.00  0.00    -0.237 OA
ATOM     70  O   UNL     1      11.134   6.757  15.300  1.00  0.00    -0.744 OA
ENDBRANCH  63  67
ENDBRANCH  37  60
ENDBRANCH  11  12
ENDBRANCH   4   6
ENDBRANCH   3   4
ENDBRANCH   2   3
ENDBRANCH   1   2
BRANCH   1  71
ATOM     71  O   UNL     1       3.990   1.255  -1.114  1.00  0.00    -0.374 OA
BRANCH  71  72
ATOM     72  C   UNL     1       2.706   1.838  -1.332  1.00  0.00     0.202 C 
BRANCH  72  73
ATOM     73  C   UNL     1       2.892   3.237  -1.925  1.00  0.00     0.261 C 
BRANCH  73  74
ATOM     74  O   UNL     1       3.497   3.099  -3.220  1.00  0.00    -0.459 OA
BRANCH  74  75
ATOM     75  C   UNL     1       4.861   3.029  -3.213  1.00  0.00     0.357 C 
ATOM     76  O   UNL     1       5.615   3.454  -2.356  1.00  0.00    -0.244 OA
BRANCH  75  77
ATOM     77  C   UNL     1       5.240   2.163  -4.360  1.00  0.00     0.150 A 
ATOM     78  C   UNL     1       4.615   2.347  -5.578  1.00  0.00     0.062 A 
ATOM     79  N   UNL     1       6.091   1.136  -4.108  1.00  0.00    -0.249 NA
ATOM     80  C   UNL     1       4.849   1.431  -6.600  1.00  0.00     0.048 A 
ATOM     81  C   UNL     1       6.285   0.248  -5.102  1.00  0.00     0.114 A 
ATOM     82  C   UNL     1       5.674   0.336  -6.343  1.00  0.00     0.046 A 
BRANCH  80  83
ATOM     83  N   UNL     1       4.264   1.649  -7.882  1.00  0.00    -0.308 N 
ATOM     84  C   UNL     1       3.606   0.529  -8.562  1.00  0.00     0.161 C 
ATOM     85  C   UNL     1       4.173   2.953  -8.390  1.00  0.00     0.231 C 
ATOM     86  C   UNL     1       3.649   0.664 -10.061  1.00  0.00    -0.024 A 
ATOM     87  C   UNL     1       3.419   3.118  -9.690  1.00  0.00     0.136 C 
ATOM     88  O   UNL     1       4.648   3.953  -7.847  1.00  0.00    -0.274 OA
ATOM     89  C   UNL     1       3.700  -0.448 -10.906  1.00  0.00     0.006 A 
ATOM     90  C   UNL     1       3.582   1.950 -10.616  1.00  0.00    -0.034 A 
ATOM     91  C   UNL     1       3.731  -0.272 -12.290  1.00  0.00     0.000 A 
ATOM     92  C   UNL     1       3.615   2.122 -12.002  1.00  0.00     0.004 A 
ATOM     93  C   UNL     1       3.701   1.011 -12.836  1.00  0.00     0.000 A 
ENDBRANCH  80  83
ENDBRANCH  75  77
ENDBRANCH  74  75
ENDBRANCH  73  74
ENDBRANCH  72  73
ENDBRANCH  71  72
ENDBRANCH   1  71
TORSDOF 18
