REMARK SMILES Cc1ccccc1C(=O)Nc1cc(C(=O)OCCOCCOC(=O)c2ccc(-c3c4nc(c(-c5cc(S(=O)(=O)[O-])ccc5F)c5ccc([nH]5)c(-c5cc(S(=O)(=O)[O-])ccc5F)c5nc(c(-c6cc(S(=O)(=O)[O-])ccc6F)c6ccc3[nH]6)C=C5)C=C4)cc2)ccc1N1CC[NH+](CC(=O)Nc2ccc(F)cc2)CC1
REMARK SMILES IDX 18 1 17 2 16 3 14 4 15 5 13 6 11 7 12 8 90 9 89 10 88 11
REMARK SMILES IDX 10 12 8 13 9 14 7 16 1 17 2 18 3 19 4 20 6 21 5 22 91 23
REMARK SMILES IDX 92 24 107 25 93 26 106 27 94 28 95 30 96 31 97 32 98 33
REMARK SMILES IDX 99 35 100 36 105 37 101 38 104 39 102 40 103 41 19 42 20 43
REMARK SMILES IDX 21 44 22 45 23 46 24 47 25 48 26 49 87 50 27 51 86 52 28 53
REMARK SMILES IDX 29 54 30 55 80 56 31 57 85 58 79 59 81 60 32 61 84 62 78 63
REMARK SMILES IDX 77 64 33 66 65 67 45 68 64 69 46 70 49 71 63 72 82 73 47 74
REMARK SMILES IDX 48 75 62 77 83 78 50 79 34 80 35 81 43 82 36 83 42 84 44 85
REMARK SMILES IDX 41 86 37 87 38 88 39 89 40 90 66 91 67 92 75 93 68 94 74 95
REMARK SMILES IDX 76 96 73 97 69 98 70 99 71 100 72 101 51 102 52 103 60 104
REMARK SMILES IDX 53 105 59 106 61 107 58 108 54 109 55 110 56 111 57 112
REMARK H PARENT 10 15 94 29 98 34 81 65 49 76
REMARK Flexibility Score: inf
ROOT
ATOM      1  C   UNL     1       3.416  -1.207  -3.978  1.00  0.00     0.202 C 
ENDROOT
BRANCH   1   2
ATOM      2  C   UNL     1       2.204  -1.530  -3.160  1.00  0.00     0.261 C 
BRANCH   2   3
ATOM      3  O   UNL     1       2.359  -1.774  -1.738  1.00  0.00    -0.460 OA
BRANCH   3   4
ATOM      4  C   UNL     1       3.579  -1.974  -1.205  1.00  0.00     0.338 C 
ATOM      5  O   UNL     1       3.982  -3.046  -0.753  1.00  0.00    -0.246 OA
BRANCH   4   6
ATOM      6  C   UNL     1       4.269  -0.693  -0.947  1.00  0.00     0.062 A 
ATOM      7  C   UNL     1       4.018   1.652  -0.586  1.00  0.00     0.065 A 
ATOM      8  C   UNL     1       3.565   0.484  -1.150  1.00  0.00     0.044 A 
ATOM      9  C   UNL     1       5.268   1.741   0.097  1.00  0.00     0.061 A 
ATOM     10  C   UNL     1       6.024   0.557   0.174  1.00  0.00     0.029 A 
ATOM     11  C   UNL     1       5.511  -0.660  -0.306  1.00  0.00     0.018 A 
BRANCH   7  12
ATOM     12  N   UNL     1       3.119   2.716  -0.602  1.00  0.00    -0.320 N 
ATOM     13  C   UNL     1       1.844   2.775  -0.051  1.00  0.00     0.255 C 
ATOM     14  O   UNL     1       1.376   3.922   0.045  1.00  0.00    -0.269 OA
ATOM     15  H   UNL     1       3.425   3.530  -1.064  1.00  0.00     0.170 HD
BRANCH  13  16
ATOM     16  C   UNL     1       1.046   1.653   0.596  1.00  0.00     0.043 A 
ATOM     17  C   UNL     1       2.802   0.210   1.931  1.00  0.00     0.045 C 
ATOM     18  C   UNL     1       1.436   0.581   1.441  1.00  0.00    -0.038 A 
ATOM     19  C   UNL     1       0.442  -0.271   1.985  1.00  0.00     0.004 A 
ATOM     20  C   UNL     1      -0.912  -0.004   1.848  1.00  0.00     0.000 A 
ATOM     21  C   UNL     1      -0.346   1.867   0.450  1.00  0.00     0.014 A 
ATOM     22  C   UNL     1      -1.308   1.079   1.089  1.00  0.00     0.001 A 
ENDBRANCH  13  16
ENDBRANCH   7  12
BRANCH   9  23
ATOM     23  N   UNL     1       5.625   2.892   0.815  1.00  0.00    -0.359 N 
ATOM     24  C   UNL     1       6.952   3.075   1.455  1.00  0.00     0.178 C 
ATOM     25  C   UNL     1       4.572   3.423   1.685  1.00  0.00     0.178 C 
ATOM     26  C   UNL     1       7.098   4.513   2.085  1.00  0.00     0.284 C 
ATOM     27  C   UNL     1       4.779   4.924   1.836  1.00  0.00     0.284 C 
ATOM     28  N   UNL     1       5.918   5.162   2.709  1.00  0.00    -0.324 N 
ATOM     29  H   UNL     1       6.187   6.143   2.785  1.00  0.00     0.348 HD
BRANCH  28  30
ATOM     30  C   UNL     1       5.590   4.924   4.141  1.00  0.00     0.364 C 
BRANCH  30  31
ATOM     31  C   UNL     1       5.323   3.504   4.659  1.00  0.00     0.279 C 
ATOM     32  O   UNL     1       6.297   2.756   4.848  1.00  0.00    -0.268 OA
ATOM     33  N   UNL     1       4.107   2.994   5.045  1.00  0.00    -0.321 N 
ATOM     34  H   UNL     1       4.244   2.229   5.649  1.00  0.00     0.170 HD
BRANCH  33  35
ATOM     35  C   UNL     1       2.717   3.212   4.854  1.00  0.00     0.041 A 
ATOM     36  C   UNL     1       1.852   2.432   5.648  1.00  0.00     0.029 A 
ATOM     37  C   UNL     1       2.114   4.008   3.886  1.00  0.00     0.029 A 
ATOM     38  C   UNL     1       0.457   2.458   5.479  1.00  0.00     0.041 A 
ATOM     39  C   UNL     1       0.723   3.998   3.668  1.00  0.00     0.041 A 
ATOM     40  C   UNL     1      -0.098   3.234   4.477  1.00  0.00     0.123 A 
ATOM     41  F   UNL     1      -1.425   3.252   4.298  1.00  0.00    -0.207 F 
ENDBRANCH  33  35
ENDBRANCH  30  31
ENDBRANCH  28  30
ENDBRANCH   9  23
ENDBRANCH   4   6
ENDBRANCH   3   4
ENDBRANCH   2   3
ENDBRANCH   1   2
BRANCH   1  42
ATOM     42  O   UNL     1       4.367  -2.228  -3.717  1.00  0.00    -0.374 OA
BRANCH  42  43
ATOM     43  C   UNL     1       5.633  -2.030  -4.307  1.00  0.00     0.202 C 
BRANCH  43  44
ATOM     44  C   UNL     1       5.548  -1.986  -5.836  1.00  0.00     0.261 C 
BRANCH  44  45
ATOM     45  O   UNL     1       5.093  -3.265  -6.332  1.00  0.00    -0.460 OA
BRANCH  45  46
ATOM     46  C   UNL     1       3.799  -3.303  -6.774  1.00  0.00     0.338 C 
ATOM     47  O   UNL     1       3.352  -2.620  -7.668  1.00  0.00    -0.246 OA
BRANCH  46  48
ATOM     48  C   UNL     1       2.978  -4.184  -5.887  1.00  0.00     0.060 A 
ATOM     49  C   UNL     1       1.571  -4.171  -5.974  1.00  0.00     0.016 A 
ATOM     50  C   UNL     1       3.597  -4.775  -4.791  1.00  0.00     0.016 A 
ATOM     51  C   UNL     1       0.792  -4.593  -4.884  1.00  0.00     0.010 A 
ATOM     52  C   UNL     1       2.835  -5.054  -3.680  1.00  0.00     0.010 A 
ATOM     53  C   UNL     1       1.435  -4.934  -3.700  1.00  0.00    -0.014 A 
BRANCH  53  54
ATOM     54  C   UNL     1       0.833  -5.108  -2.374  1.00  0.00     0.031 A 
ATOM     55  C   UNL     1       1.143  -6.382  -1.688  1.00  0.00     0.074 A 
ATOM     56  C   UNL     1       0.390  -4.043  -1.657  1.00  0.00     0.049 A 
ATOM     57  N   UNL     1       0.973  -6.575  -0.438  1.00  0.00    -0.248 NA
ATOM     58  C   UNL     1       1.744  -7.542  -2.345  1.00  0.00     0.031 C 
ATOM     59  C   UNL     1       0.285  -3.901  -0.205  1.00  0.00     0.029 A 
ATOM     60  N   UNL     1      -0.147  -2.829  -2.100  1.00  0.00    -0.354 N 
ATOM     61  C   UNL     1       1.640  -7.706  -0.057  1.00  0.00     0.074 A 
ATOM     62  C   UNL     1       2.087  -8.295  -1.292  1.00  0.00     0.031 C 
ATOM     63  C   UNL     1      -0.597  -2.934   0.090  1.00  0.00     0.029 A 
ATOM     64  C   UNL     1      -1.124  -2.449  -1.167  1.00  0.00     0.049 A 
ATOM     65  H   UNL     1       0.112  -2.336  -2.912  1.00  0.00     0.167 HD
ATOM     66  C   UNL     1       1.757  -7.912   1.284  1.00  0.00     0.034 A 
ATOM     67  C   UNL     1      -2.422  -2.350  -1.540  1.00  0.00     0.034 A 
ATOM     68  C   UNL     1       0.788  -7.050   1.992  1.00  0.00     0.049 A 
ATOM     69  C   UNL     1      -3.132  -3.422  -0.748  1.00  0.00     0.074 A 
ATOM     70  C   UNL     1       0.868  -5.931   2.802  1.00  0.00     0.029 A 
ATOM     71  N   UNL     1      -0.551  -7.136   1.593  1.00  0.00    -0.354 N 
ATOM     72  N   UNL     1      -2.581  -4.570  -0.409  1.00  0.00    -0.248 NA
ATOM     73  C   UNL     1      -4.326  -3.105   0.029  1.00  0.00     0.031 C 
ATOM     74  C   UNL     1      -0.416  -5.286   2.770  1.00  0.00     0.029 A 
ATOM     75  C   UNL     1      -1.273  -6.015   1.950  1.00  0.00     0.049 A 
ATOM     76  H   UNL     1      -0.934  -7.907   1.113  1.00  0.00     0.167 HD
ATOM     77  C   UNL     1      -3.180  -5.009   0.748  1.00  0.00     0.074 A 
ATOM     78  C   UNL     1      -4.296  -4.083   0.947  1.00  0.00     0.031 C 
ATOM     79  C   UNL     1      -2.700  -5.931   1.646  1.00  0.00     0.034 A 
BRANCH  66  80
ATOM     80  C   UNL     1       2.768  -8.803   1.972  1.00  0.00     0.023 A 
ATOM     81  C   UNL     1       2.823  -8.803   3.382  1.00  0.00     0.031 A 
ATOM     82  C   UNL     1       3.752  -9.594   1.339  1.00  0.00     0.131 A 
ATOM     83  C   UNL     1       3.790  -9.551   4.086  1.00  0.00     0.055 A 
ATOM     84  C   UNL     1       4.691 -10.365   2.038  1.00  0.00     0.041 A 
ATOM     85  F   UNL     1       3.894  -9.647   0.011  1.00  0.00    -0.206 F 
ATOM     86  C   UNL     1       4.717 -10.346   3.420  1.00  0.00     0.022 A 
BRANCH  83  87
ATOM     87  S   UNL     1       3.845  -9.450   5.896  1.00  0.00     0.124 S 
ATOM     88  O   UNL     1       4.176  -8.046   6.117  1.00  0.00    -0.237 OA
ATOM     89  O   UNL     1       2.498  -9.865   6.272  1.00  0.00    -0.237 OA
ATOM     90  O   UNL     1       4.902 -10.394   6.257  1.00  0.00    -0.744 OA
ENDBRANCH  83  87
ENDBRANCH  66  80
BRANCH  67  91
ATOM     91  C   UNL     1      -2.513  -1.807  -2.938  1.00  0.00     0.023 A 
ATOM     92  C   UNL     1      -2.044  -0.468  -3.095  1.00  0.00     0.031 A 
ATOM     93  C   UNL     1      -2.450  -2.632  -4.072  1.00  0.00     0.131 A 
ATOM     94  C   UNL     1      -1.358  -0.069  -4.260  1.00  0.00     0.055 A 
ATOM     95  C   UNL     1      -1.811  -2.205  -5.253  1.00  0.00     0.041 A 
ATOM     96  F   UNL     1      -2.844  -3.913  -4.008  1.00  0.00    -0.206 F 
ATOM     97  C   UNL     1      -1.212  -0.947  -5.332  1.00  0.00     0.022 A 
BRANCH  94  98
ATOM     98  S   UNL     1      -0.455   1.519  -4.263  1.00  0.00     0.124 S 
ATOM     99  O   UNL     1      -1.540   2.490  -4.191  1.00  0.00    -0.237 OA
ATOM    100  O   UNL     1       0.386   1.409  -3.075  1.00  0.00    -0.237 OA
ATOM    101  O   UNL     1       0.283   1.492  -5.525  1.00  0.00    -0.744 OA
ENDBRANCH  94  98
ENDBRANCH  67  91
BRANCH  79 102
ATOM    102  C   UNL     1      -3.655  -6.837   2.389  1.00  0.00     0.023 A 
ATOM    103  C   UNL     1      -5.031  -6.796   2.150  1.00  0.00     0.031 A 
ATOM    104  C   UNL     1      -3.217  -7.857   3.265  1.00  0.00     0.131 A 
ATOM    105  C   UNL     1      -5.919  -7.617   2.847  1.00  0.00     0.055 A 
ATOM    106  C   UNL     1      -4.095  -8.760   3.869  1.00  0.00     0.041 A 
ATOM    107  F   UNL     1      -1.923  -8.052   3.553  1.00  0.00    -0.206 F 
ATOM    108  C   UNL     1      -5.463  -8.626   3.684  1.00  0.00     0.022 A 
BRANCH 105 109
ATOM    109  S   UNL     1      -7.674  -7.230   2.691  1.00  0.00     0.124 S 
ATOM    110  O   UNL     1      -7.736  -5.903   3.299  1.00  0.00    -0.237 OA
ATOM    111  O   UNL     1      -7.881  -7.271   1.246  1.00  0.00    -0.237 OA
ATOM    112  O   UNL     1      -8.326  -8.295   3.446  1.00  0.00    -0.744 OA
ENDBRANCH 105 109
ENDBRANCH  79 102
ENDBRANCH  53  54
ENDBRANCH  46  48
ENDBRANCH  45  46
ENDBRANCH  44  45
ENDBRANCH  43  44
ENDBRANCH  42  43
ENDBRANCH   1  42
TORSDOF 23
