REMARK SMILES C[C@H]1c2ccc(O)cc2OC(=O)[C@@H]1CC(=O)N[C@@H](CC1=c2ccccc2=NC1)C(=O)OCCOCCOC(=O)c1ccc(-c2c3nc(c(-c4cc(S(=O)(=O)[O-])ccc4F)c4ccc([nH]4)c(-c4cc(S(=O)(=O)[O-])ccc4F)c4nc(c(-c5cc(S(=O)(=O)[O-])ccc5F)c5ccc2[nH]5)C=C4)C=C3)cc1
REMARK SMILES IDX 33 1 32 2 31 3 29 4 30 5 18 6 17 7 15 8 16 9 14 11 13 12
REMARK SMILES IDX 1 13 2 14 3 15 4 16 9 17 11 18 5 19 8 20 10 21 12 22 6 23
REMARK SMILES IDX 7 24 19 26 20 27 21 28 28 29 22 30 26 31 27 32 23 33 25 34
REMARK SMILES IDX 24 35 34 36 35 37 36 38 37 39 38 40 39 41 40 42 41 43 102 44
REMARK SMILES IDX 42 45 101 46 43 47 44 48 45 49 95 50 46 51 100 52 94 53
REMARK SMILES IDX 96 54 47 55 99 56 93 57 92 58 48 60 80 61 60 62 79 63 61 64
REMARK SMILES IDX 64 65 78 66 97 67 62 68 63 69 77 71 98 72 65 73 49 74 50 75
REMARK SMILES IDX 58 76 51 77 57 78 59 79 56 80 52 81 53 82 54 83 55 84 81 85
REMARK SMILES IDX 82 86 90 87 83 88 89 89 91 90 88 91 84 92 85 93 86 94 87 95
REMARK SMILES IDX 66 96 67 97 75 98 68 99 74 100 76 101 73 102 69 103 70 104
REMARK SMILES IDX 71 105 72 106
REMARK H PARENT 17 10 7 25 96 59 64 70
REMARK Flexibility Score: inf
ROOT
ATOM      1  C   UNL     1      -1.532  -8.387   2.822  1.00  0.00     0.202 C 
ENDROOT
BRANCH   1   2
ATOM      2  C   UNL     1      -0.445  -8.431   1.744  1.00  0.00     0.261 C 
BRANCH   2   3
ATOM      3  O   UNL     1       0.527  -7.388   1.900  1.00  0.00    -0.462 OA
BRANCH   3   4
ATOM      4  C   UNL     1       0.557  -6.508   0.871  1.00  0.00     0.329 C 
ATOM      5  O   UNL     1      -0.048  -6.641  -0.190  1.00  0.00    -0.250 OA
BRANCH   4   6
ATOM      6  C   UNL     1       1.431  -5.287   1.127  1.00  0.00     0.196 C 
BRANCH   6   7
ATOM      7  N   UNL     1       1.896  -4.874   2.460  1.00  0.00    -0.342 N 
ATOM      8  C   UNL     1       1.967  -3.601   2.966  1.00  0.00     0.221 C 
ATOM      9  O   UNL     1       2.756  -3.363   3.881  1.00  0.00    -0.275 OA
ATOM     10  H   UNL     1       2.191  -5.597   3.060  1.00  0.00     0.164 HD
BRANCH   8  11
ATOM     11  C   UNL     1       0.979  -2.529   2.509  1.00  0.00     0.116 C 
BRANCH  11  12
ATOM     12  C   UNL     1       1.408  -1.575   1.369  1.00  0.00     0.116 C 
ATOM     13  C   UNL     1       1.004   0.672   0.193  1.00  0.00     0.014 C 
ATOM     14  C   UNL     1       0.491  -0.328   1.242  1.00  0.00     0.034 C 
ATOM     15  C   UNL     1      -0.899  -0.791   0.871  1.00  0.00    -0.001 A 
ATOM     16  C   UNL     1      -2.051  -0.102   1.258  1.00  0.00     0.011 A 
ATOM     17  C   UNL     1      -1.042  -1.977   0.143  1.00  0.00     0.138 A 
ATOM     18  C   UNL     1       1.347  -2.221   0.008  1.00  0.00     0.315 C 
ATOM     19  C   UNL     1      -3.313  -0.639   0.977  1.00  0.00     0.047 A 
ATOM     20  C   UNL     1      -2.285  -2.545  -0.105  1.00  0.00     0.093 A 
ATOM     21  O   UNL     1       0.082  -2.624  -0.397  1.00  0.00    -0.426 OA
ATOM     22  O   UNL     1       2.332  -2.383  -0.702  1.00  0.00    -0.251 OA
ATOM     23  C   UNL     1      -3.417  -1.868   0.325  1.00  0.00     0.119 A 
BRANCH  23  24
ATOM     24  O   UNL     1      -4.629  -2.439   0.074  1.00  0.00    -0.508 OA
ATOM     25  H   UNL     1      -5.415  -2.011   0.349  1.00  0.00     0.293 HD
ENDBRANCH  23  24
ENDBRANCH  11  12
ENDBRANCH   8  11
ENDBRANCH   6   7
BRANCH   6  26
ATOM     26  C   UNL     1       2.596  -5.349   0.123  1.00  0.00     0.070 C 
BRANCH  26  27
ATOM     27  C   UNL     1       3.719  -6.381   0.286  1.00  0.00    -0.037 C 
ATOM     28  C   UNL     1       4.214  -6.643   1.503  1.00  0.00     0.001 A 
ATOM     29  C   UNL     1       4.891  -5.951  -0.583  1.00  0.00     0.174 C 
ATOM     30  C   UNL     1       4.343  -7.879   2.231  1.00  0.00     0.010 A 
ATOM     31  C   UNL     1       5.446  -5.811   1.493  1.00  0.00     0.065 A 
ATOM     32  N   UNL     1       5.850  -5.331   0.360  1.00  0.00    -0.280 NA
ATOM     33  C   UNL     1       5.207  -7.891   3.264  1.00  0.00     0.001 A 
ATOM     34  C   UNL     1       6.073  -5.650   2.818  1.00  0.00     0.028 A 
ATOM     35  C   UNL     1       5.910  -6.679   3.668  1.00  0.00     0.002 A 
ENDBRANCH  26  27
ENDBRANCH   6  26
ENDBRANCH   4   6
ENDBRANCH   3   4
ENDBRANCH   2   3
ENDBRANCH   1   2
BRANCH   1  36
ATOM     36  O   UNL     1      -2.145  -7.130   3.091  1.00  0.00    -0.374 OA
BRANCH  36  37
ATOM     37  C   UNL     1      -1.357  -6.088   3.664  1.00  0.00     0.202 C 
BRANCH  37  38
ATOM     38  C   UNL     1      -0.562  -6.365   4.951  1.00  0.00     0.261 C 
BRANCH  38  39
ATOM     39  O   UNL     1       0.492  -7.333   4.788  1.00  0.00    -0.460 OA
BRANCH  39  40
ATOM     40  C   UNL     1       0.376  -8.442   5.565  1.00  0.00     0.338 C 
ATOM     41  O   UNL     1      -0.509  -8.688   6.364  1.00  0.00    -0.246 OA
BRANCH  40  42
ATOM     42  C   UNL     1       1.401  -9.432   5.190  1.00  0.00     0.060 A 
ATOM     43  C   UNL     1       2.738  -9.223   5.517  1.00  0.00     0.016 A 
ATOM     44  C   UNL     1       0.987 -10.645   4.626  1.00  0.00     0.016 A 
ATOM     45  C   UNL     1       3.661 -10.251   5.295  1.00  0.00     0.010 A 
ATOM     46  C   UNL     1       1.915 -11.662   4.391  1.00  0.00     0.010 A 
ATOM     47  C   UNL     1       3.260 -11.479   4.736  1.00  0.00    -0.014 A 
BRANCH  47  48
ATOM     48  C   UNL     1       4.215 -12.613   4.653  1.00  0.00     0.031 A 
ATOM     49  C   UNL     1       4.759 -13.093   3.339  1.00  0.00     0.074 A 
ATOM     50  C   UNL     1       4.564 -13.238   5.795  1.00  0.00     0.049 A 
ATOM     51  N   UNL     1       5.652 -14.021   3.114  1.00  0.00    -0.248 NA
ATOM     52  C   UNL     1       4.232 -12.457   2.122  1.00  0.00     0.031 C 
ATOM     53  C   UNL     1       4.048 -12.892   7.120  1.00  0.00     0.029 A 
ATOM     54  N   UNL     1       5.420 -14.285   6.032  1.00  0.00    -0.354 N 
ATOM     55  C   UNL     1       5.813 -14.073   1.735  1.00  0.00     0.074 A 
ATOM     56  C   UNL     1       4.884 -13.117   1.171  1.00  0.00     0.031 C 
ATOM     57  C   UNL     1       4.617 -13.692   8.033  1.00  0.00     0.029 A 
ATOM     58  C   UNL     1       5.511 -14.632   7.360  1.00  0.00     0.049 A 
ATOM     59  H   UNL     1       5.921 -14.743   5.319  1.00  0.00     0.167 HD
ATOM     60  C   UNL     1       6.671 -14.836   1.015  1.00  0.00     0.034 A 
ATOM     61  C   UNL     1       6.232 -15.594   7.973  1.00  0.00     0.034 A 
ATOM     62  C   UNL     1       7.577 -15.796   1.598  1.00  0.00     0.049 A 
ATOM     63  C   UNL     1       7.167 -16.441   7.146  1.00  0.00     0.074 A 
ATOM     64  C   UNL     1       8.523 -16.576   0.954  1.00  0.00     0.029 A 
ATOM     65  N   UNL     1       7.647 -16.121   2.945  1.00  0.00    -0.354 N 
ATOM     66  N   UNL     1       7.400 -16.389   5.856  1.00  0.00    -0.248 NA
ATOM     67  C   UNL     1       7.951 -17.463   7.854  1.00  0.00     0.031 C 
ATOM     68  C   UNL     1       9.106 -17.424   1.895  1.00  0.00     0.029 A 
ATOM     69  C   UNL     1       8.594 -17.114   3.145  1.00  0.00     0.049 A 
ATOM     70  H   UNL     1       7.104 -15.708   3.655  1.00  0.00     0.167 HD
ATOM     71  C   UNL     1       8.377 -17.348   5.603  1.00  0.00     0.074 A 
ATOM     72  C   UNL     1       8.709 -17.948   6.878  1.00  0.00     0.031 C 
ATOM     73  C   UNL     1       8.941 -17.700   4.419  1.00  0.00     0.034 A 
BRANCH  60  74
ATOM     74  C   UNL     1       6.723 -14.661  -0.485  1.00  0.00     0.023 A 
ATOM     75  C   UNL     1       6.443 -15.748  -1.335  1.00  0.00     0.031 A 
ATOM     76  C   UNL     1       7.216 -13.477  -1.062  1.00  0.00     0.131 A 
ATOM     77  C   UNL     1       6.704 -15.644  -2.708  1.00  0.00     0.055 A 
ATOM     78  C   UNL     1       7.433 -13.364  -2.436  1.00  0.00     0.041 A 
ATOM     79  F   UNL     1       7.505 -12.414  -0.293  1.00  0.00    -0.206 F 
ATOM     80  C   UNL     1       7.191 -14.457  -3.263  1.00  0.00     0.022 A 
BRANCH  77  81
ATOM     81  S   UNL     1       6.500 -17.069  -3.813  1.00  0.00     0.124 S 
ATOM     82  O   UNL     1       5.545 -16.553  -4.793  1.00  0.00    -0.237 OA
ATOM     83  O   UNL     1       7.859 -17.265  -4.311  1.00  0.00    -0.237 OA
ATOM     84  O   UNL     1       5.987 -18.119  -2.941  1.00  0.00    -0.744 OA
ENDBRANCH  77  81
ENDBRANCH  60  74
BRANCH  61  85
ATOM     85  C   UNL     1       6.139 -15.736   9.456  1.00  0.00     0.023 A 
ATOM     86  C   UNL     1       4.916 -16.046  10.078  1.00  0.00     0.031 A 
ATOM     87  C   UNL     1       7.243 -15.453  10.277  1.00  0.00     0.131 A 
ATOM     88  C   UNL     1       4.810 -15.996  11.474  1.00  0.00     0.055 A 
ATOM     89  C   UNL     1       7.152 -15.479  11.670  1.00  0.00     0.041 A 
ATOM     90  F   UNL     1       8.427 -15.134   9.733  1.00  0.00    -0.206 F 
ATOM     91  C   UNL     1       5.925 -15.734  12.275  1.00  0.00     0.022 A 
BRANCH  88  92
ATOM     92  S   UNL     1       3.194 -16.128  12.288  1.00  0.00     0.124 S 
ATOM     93  O   UNL     1       3.375 -17.301  13.137  1.00  0.00    -0.237 OA
ATOM     94  O   UNL     1       3.109 -14.848  12.989  1.00  0.00    -0.237 OA
ATOM     95  O   UNL     1       2.261 -16.289  11.178  1.00  0.00    -0.744 OA
ENDBRANCH  88  92
ENDBRANCH  61  85
BRANCH  73  96
ATOM     96  C   UNL     1       9.997 -18.782   4.406  1.00  0.00     0.023 A 
ATOM     97  C   UNL     1      11.293 -18.492   3.937  1.00  0.00     0.031 A 
ATOM     98  C   UNL     1       9.680 -20.122   4.689  1.00  0.00     0.131 A 
ATOM     99  C   UNL     1      12.206 -19.531   3.714  1.00  0.00     0.055 A 
ATOM    100  C   UNL     1      10.611 -21.148   4.520  1.00  0.00     0.041 A 
ATOM    101  F   UNL     1       8.455 -20.455   5.127  1.00  0.00    -0.206 F 
ATOM    102  C   UNL     1      11.875 -20.857   4.013  1.00  0.00     0.022 A 
BRANCH  99 103
ATOM    103  S   UNL     1      13.813 -19.217   2.932  1.00  0.00     0.124 S 
ATOM    104  O   UNL     1      14.744 -19.682   3.958  1.00  0.00    -0.237 OA
ATOM    105  O   UNL     1      13.739 -20.048   1.734  1.00  0.00    -0.237 OA
ATOM    106  O   UNL     1      13.815 -17.777   2.699  1.00  0.00    -0.744 OA
ENDBRANCH  99 103
ENDBRANCH  73  96
ENDBRANCH  47  48
ENDBRANCH  40  42
ENDBRANCH  39  40
ENDBRANCH  38  39
ENDBRANCH  37  38
ENDBRANCH  36  37
ENDBRANCH   1  36
TORSDOF 23
