REMARK SMILES CCN(C(=O)Cc1c(C(=O)OCCOCCOC(=O)c2ccc(-c3c4nc(c(-c5cc(S(=O)(=O)[O-])ccc5F)c5ccc([nH]5)c(-c5cc(S(=O)(=O)[O-])ccc5F)c5nc(c(-c6cc(S(=O)(=O)[O-])ccc6F)c6ccc3[nH]6)C=C5)C=C4)cc2)[nH]c2ccc(Cl)cc12)c1ccc(C)c(C)c1
REMARK SMILES IDX 13 1 12 2 11 3 9 4 10 5 8 6 7 7 90 8 83 9 84 10 89 11 85 13
REMARK SMILES IDX 87 14 86 15 88 16 6 17 4 18 5 19 3 20 2 21 1 22 91 23 92 24
REMARK SMILES IDX 98 25 93 26 96 27 94 28 97 29 95 30 14 31 15 32 16 33 17 34
REMARK SMILES IDX 18 35 19 36 20 37 21 38 82 39 22 40 81 41 23 42 24 43 25 44
REMARK SMILES IDX 75 45 26 46 80 47 74 48 76 49 27 50 79 51 73 52 72 53 28 55
REMARK SMILES IDX 60 56 40 57 59 58 41 59 44 60 58 61 77 62 42 63 43 64 57 66
REMARK SMILES IDX 78 67 45 68 29 69 30 70 38 71 31 72 37 73 39 74 36 75 32 76
REMARK SMILES IDX 33 77 34 78 35 79 61 80 62 81 70 82 63 83 69 84 71 85 68 86
REMARK SMILES IDX 64 87 65 88 66 89 67 90 46 91 47 92 55 93 48 94 54 95 56 96
REMARK SMILES IDX 53 97 49 98 50 99 51 100 52 101
REMARK H PARENT 83 12 76 54 44 65
REMARK Flexibility Score: inf
ROOT
ATOM      1  C   UNL     1      -5.765   3.358  -3.610  1.00  0.00     0.202 C 
ENDROOT
BRANCH   1   2
ATOM      2  C   UNL     1      -5.657   3.276  -2.084  1.00  0.00     0.261 C 
BRANCH   2   3
ATOM      3  O   UNL     1      -4.393   2.703  -1.702  1.00  0.00    -0.459 OA
BRANCH   3   4
ATOM      4  C   UNL     1      -4.468   1.499  -1.080  1.00  0.00     0.355 C 
ATOM      5  O   UNL     1      -5.481   1.007  -0.601  1.00  0.00    -0.244 OA
BRANCH   4   6
ATOM      6  C   UNL     1      -3.226   0.766  -1.213  1.00  0.00     0.129 A 
ATOM      7  C   UNL     1      -1.895   1.121  -1.458  1.00  0.00     0.002 A 
ATOM      8  C   UNL     1      -1.176  -0.117  -1.673  1.00  0.00     0.005 A 
ATOM      9  N   UNL     1      -3.273  -0.605  -1.134  1.00  0.00    -0.349 N 
ATOM     10  C   UNL     1      -2.058  -1.165  -1.411  1.00  0.00     0.046 A 
ATOM     11  C   UNL     1       0.142  -0.466  -2.045  1.00  0.00     0.031 A 
ATOM     12  H   UNL     1      -4.081  -1.120  -0.906  1.00  0.00     0.167 HD
ATOM     13  C   UNL     1      -1.695  -2.516  -1.452  1.00  0.00     0.028 A 
ATOM     14  C   UNL     1       0.533  -1.810  -2.055  1.00  0.00     0.041 A 
ATOM     15  C   UNL     1      -0.370  -2.822  -1.759  1.00  0.00     0.022 A 
ATOM     16  Cl  UNL     1       2.169  -2.215  -2.415  1.00  0.00    -0.084 Cl
BRANCH   7  17
ATOM     17  C   UNL     1      -1.365   2.539  -1.488  1.00  0.00     0.139 C 
BRANCH  17  18
ATOM     18  C   UNL     1       0.138   2.686  -1.705  1.00  0.00     0.231 C 
ATOM     19  O   UNL     1       0.531   3.014  -2.831  1.00  0.00    -0.274 OA
BRANCH  18  20
ATOM     20  N   UNL     1       1.020   2.400  -0.649  1.00  0.00    -0.312 N 
BRANCH  20  21
ATOM     21  C   UNL     1       0.610   2.083   0.731  1.00  0.00     0.122 C 
ATOM     22  C   UNL     1       1.175   0.802   1.333  1.00  0.00     0.028 C 
ENDBRANCH  20  21
BRANCH  20  23
ATOM     23  C   UNL     1       2.418   2.595  -0.885  1.00  0.00     0.044 A 
ATOM     24  C   UNL     1       2.909   3.861  -1.203  1.00  0.00     0.026 A 
ATOM     25  C   UNL     1       3.299   1.507  -0.897  1.00  0.00     0.030 A 
ATOM     26  C   UNL     1       4.263   4.037  -1.499  1.00  0.00     0.006 A 
ATOM     27  C   UNL     1       4.662   1.664  -1.215  1.00  0.00    -0.046 A 
ATOM     28  C   UNL     1       5.153   2.949  -1.509  1.00  0.00    -0.048 A 
ATOM     29  C   UNL     1       5.537   0.442  -1.272  1.00  0.00     0.044 C 
ATOM     30  C   UNL     1       6.585   3.216  -1.889  1.00  0.00     0.044 C 
ENDBRANCH  20  23
ENDBRANCH  18  20
ENDBRANCH  17  18
ENDBRANCH   7  17
ENDBRANCH   4   6
ENDBRANCH   3   4
ENDBRANCH   2   3
ENDBRANCH   1   2
BRANCH   1  31
ATOM     31  O   UNL     1      -5.779   2.090  -4.271  1.00  0.00    -0.374 OA
BRANCH  31  32
ATOM     32  C   UNL     1      -4.501   1.533  -4.597  1.00  0.00     0.202 C 
BRANCH  32  33
ATOM     33  C   UNL     1      -3.837   2.085  -5.864  1.00  0.00     0.261 C 
BRANCH  33  34
ATOM     34  O   UNL     1      -3.371   3.431  -5.663  1.00  0.00    -0.460 OA
BRANCH  34  35
ATOM     35  C   UNL     1      -4.050   4.381  -6.349  1.00  0.00     0.338 C 
ATOM     36  O   UNL     1      -4.933   4.198  -7.171  1.00  0.00    -0.246 OA
BRANCH  35  37
ATOM     37  C   UNL     1      -3.715   5.720  -5.819  1.00  0.00     0.060 A 
ATOM     38  C   UNL     1      -4.779   6.600  -5.584  1.00  0.00     0.016 A 
ATOM     39  C   UNL     1      -2.398   6.130  -5.592  1.00  0.00     0.016 A 
ATOM     40  C   UNL     1      -4.530   7.908  -5.174  1.00  0.00     0.010 A 
ATOM     41  C   UNL     1      -2.149   7.448  -5.190  1.00  0.00     0.010 A 
ATOM     42  C   UNL     1      -3.212   8.352  -5.012  1.00  0.00    -0.014 A 
BRANCH  42  43
ATOM     43  C   UNL     1      -2.953   9.800  -4.813  1.00  0.00     0.031 A 
ATOM     44  C   UNL     1      -2.598  10.643  -6.008  1.00  0.00     0.074 A 
ATOM     45  C   UNL     1      -3.076  10.363  -3.598  1.00  0.00     0.049 A 
ATOM     46  N   UNL     1      -2.323  11.920  -6.072  1.00  0.00    -0.248 NA
ATOM     47  C   UNL     1      -2.546   9.949  -7.303  1.00  0.00     0.031 C 
ATOM     48  C   UNL     1      -3.459   9.657  -2.376  1.00  0.00     0.029 A 
ATOM     49  N   UNL     1      -2.888  11.661  -3.192  1.00  0.00    -0.354 N 
ATOM     50  C   UNL     1      -2.067  12.185  -7.413  1.00  0.00     0.074 A 
ATOM     51  C   UNL     1      -2.185  10.927  -8.120  1.00  0.00     0.031 C 
ATOM     52  C   UNL     1      -3.466  10.530  -1.353  1.00  0.00     0.029 A 
ATOM     53  C   UNL     1      -3.058  11.846  -1.840  1.00  0.00     0.049 A 
ATOM     54  H   UNL     1      -2.654  12.390  -3.810  1.00  0.00     0.167 HD
ATOM     55  C   UNL     1      -1.772  13.370  -8.003  1.00  0.00     0.034 A 
ATOM     56  C   UNL     1      -2.881  12.947  -1.081  1.00  0.00     0.034 A 
ATOM     57  C   UNL     1      -1.639  14.614  -7.285  1.00  0.00     0.049 A 
ATOM     58  C   UNL     1      -2.463  14.237  -1.746  1.00  0.00     0.074 A 
ATOM     59  C   UNL     1      -1.354  15.873  -7.784  1.00  0.00     0.029 A 
ATOM     60  N   UNL     1      -1.769  14.754  -5.909  1.00  0.00    -0.354 N 
ATOM     61  N   UNL     1      -2.237  14.477  -3.018  1.00  0.00    -0.248 NA
ATOM     62  C   UNL     1      -2.283  15.405  -0.874  1.00  0.00     0.031 C 
ATOM     63  C   UNL     1      -1.245  16.759  -6.706  1.00  0.00     0.029 A 
ATOM     64  C   UNL     1      -1.534  16.070  -5.539  1.00  0.00     0.049 A 
ATOM     65  H   UNL     1      -1.994  14.025  -5.287  1.00  0.00     0.167 HD
ATOM     66  C   UNL     1      -1.917  15.830  -3.098  1.00  0.00     0.074 A 
ATOM     67  C   UNL     1      -1.990  16.355  -1.750  1.00  0.00     0.031 C 
ATOM     68  C   UNL     1      -1.597  16.575  -4.188  1.00  0.00     0.034 A 
BRANCH  55  69
ATOM     69  C   UNL     1      -1.518  13.356  -9.491  1.00  0.00     0.023 A 
ATOM     70  C   UNL     1      -2.534  13.040 -10.411  1.00  0.00     0.031 A 
ATOM     71  C   UNL     1      -0.234  13.630  -9.993  1.00  0.00     0.131 A 
ATOM     72  C   UNL     1      -2.232  12.941 -11.778  1.00  0.00     0.055 A 
ATOM     73  C   UNL     1       0.042  13.601 -11.361  1.00  0.00     0.041 A 
ATOM     74  F   UNL     1       0.778  13.916  -9.160  1.00  0.00    -0.206 F 
ATOM     75  C   UNL     1      -0.957  13.242 -12.262  1.00  0.00     0.022 A 
BRANCH  72  76
ATOM     76  S   UNL     1      -3.497  12.288 -12.902  1.00  0.00     0.124 S 
ATOM     77  O   UNL     1      -3.746  10.966 -12.331  1.00  0.00    -0.237 OA
ATOM     78  O   UNL     1      -4.576  13.258 -12.761  1.00  0.00    -0.237 OA
ATOM     79  O   UNL     1      -2.830  12.281 -14.202  1.00  0.00    -0.744 OA
ENDBRANCH  72  76
ENDBRANCH  55  69
BRANCH  56  80
ATOM     80  C   UNL     1      -3.049  12.880   0.399  1.00  0.00     0.023 A 
ATOM     81  C   UNL     1      -4.052  13.612   1.053  1.00  0.00     0.031 A 
ATOM     82  C   UNL     1      -2.163  12.124   1.187  1.00  0.00     0.131 A 
ATOM     83  C   UNL     1      -4.117  13.608   2.456  1.00  0.00     0.055 A 
ATOM     84  C   UNL     1      -2.262  12.085   2.578  1.00  0.00     0.041 A 
ATOM     85  F   UNL     1      -1.185  11.406   0.611  1.00  0.00    -0.206 F 
ATOM     86  C   UNL     1      -3.237  12.841   3.222  1.00  0.00     0.022 A 
BRANCH  83  87
ATOM     87  S   UNL     1      -5.324  14.688   3.274  1.00  0.00     0.124 S 
ATOM     88  O   UNL     1      -4.937  16.001   2.771  1.00  0.00    -0.237 OA
ATOM     89  O   UNL     1      -6.589  14.157   2.778  1.00  0.00    -0.237 OA
ATOM     90  O   UNL     1      -5.072  14.464   4.696  1.00  0.00    -0.744 OA
ENDBRANCH  83  87
ENDBRANCH  56  80
BRANCH  68  91
ATOM     91  C   UNL     1      -1.347  18.046  -3.964  1.00  0.00     0.023 A 
ATOM     92  C   UNL     1      -0.223  18.507  -3.256  1.00  0.00     0.031 A 
ATOM     93  C   UNL     1      -2.253  19.000  -4.462  1.00  0.00     0.131 A 
ATOM     94  C   UNL     1      -0.061  19.881  -3.021  1.00  0.00     0.055 A 
ATOM     95  C   UNL     1      -2.058  20.368  -4.273  1.00  0.00     0.041 A 
ATOM     96  F   UNL     1      -3.344  18.614  -5.144  1.00  0.00    -0.206 F 
ATOM     97  C   UNL     1      -0.963  20.815  -3.539  1.00  0.00     0.022 A 
BRANCH  94  98
ATOM     98  S   UNL     1       1.304  20.430  -1.960  1.00  0.00     0.124 S 
ATOM     99  O   UNL     1       1.015  19.735  -0.710  1.00  0.00    -0.237 OA
ATOM    100  O   UNL     1       2.477  19.965  -2.692  1.00  0.00    -0.237 OA
ATOM    101  O   UNL     1       1.140  21.882  -1.913  1.00  0.00    -0.744 OA
ENDBRANCH  94  98
ENDBRANCH  68  91
ENDBRANCH  42  43
ENDBRANCH  35  37
ENDBRANCH  34  35
ENDBRANCH  33  34
ENDBRANCH  32  33
ENDBRANCH  31  32
ENDBRANCH   1  31
TORSDOF 22
