REMARK SMILES CNC(=O)c1cc(S(=O)(=O)N2CCC(C(=O)OCCOCCOC(=O)c3ccc(-c4c5nc(c(-c6cc(S(=O)(=O)[O-])ccc6F)c6ccc([nH]6)c(-c6cc(S(=O)(=O)[O-])ccc6F)c6nc(c(-c7cc(S(=O)(=O)[O-])ccc7F)c7ccc4[nH]7)C=C6)C=C5)cc3)CC2)ccc1OC
REMARK SMILES IDX 20 1 19 2 18 3 17 4 15 5 16 6 14 7 11 8 12 9 90 10 13 11
REMARK SMILES IDX 89 12 8 13 9 14 10 15 7 16 5 17 6 18 93 19 92 20 91 21 3 22
REMARK SMILES IDX 1 23 2 24 4 26 94 27 95 28 21 29 22 30 23 31 24 32 25 33
REMARK SMILES IDX 26 34 27 35 88 36 28 37 87 38 29 39 30 40 31 41 81 42 32 43
REMARK SMILES IDX 86 44 80 45 82 46 33 47 85 48 79 49 78 50 34 52 66 53 46 54
REMARK SMILES IDX 65 55 47 56 50 57 64 58 83 59 48 60 49 61 63 63 84 64 51 65
REMARK SMILES IDX 35 66 36 67 44 68 37 69 43 70 45 71 42 72 38 73 39 74 40 75
REMARK SMILES IDX 41 76 67 77 68 78 76 79 69 80 75 81 77 82 74 83 70 84 71 85
REMARK SMILES IDX 72 86 73 87 52 88 53 89 61 90 54 91 60 92 62 93 59 94 55 95
REMARK SMILES IDX 56 96 57 97 58 98
REMARK H PARENT 2 25 82 51 50 62
REMARK Flexibility Score: inf
ROOT
ATOM      1  O   UNL     1      -5.688  -8.121   7.710  1.00  0.00    -0.374 OA
ENDROOT
BRANCH   1   2
ATOM      2  C   UNL     1      -6.498  -8.988   6.916  1.00  0.00     0.202 C 
BRANCH   2   3
ATOM      3  C   UNL     1      -7.130  -8.352   5.676  1.00  0.00     0.261 C 
BRANCH   3   4
ATOM      4  O   UNL     1      -6.131  -8.022   4.692  1.00  0.00    -0.463 OA
BRANCH   4   5
ATOM      5  C   UNL     1      -6.033  -6.710   4.370  1.00  0.00     0.309 C 
ATOM      6  O   UNL     1      -6.759  -5.817   4.793  1.00  0.00    -0.252 OA
BRANCH   5   7
ATOM      7  C   UNL     1      -4.920  -6.419   3.390  1.00  0.00     0.102 C 
ATOM      8  N   UNL     1      -3.130  -6.375   1.154  1.00  0.00    -0.198 NA
ATOM      9  C   UNL     1      -2.638  -6.839   2.472  1.00  0.00     0.103 C 
ATOM     10  C   UNL     1      -4.446  -5.701   1.058  1.00  0.00     0.103 C 
ATOM     11  C   UNL     1      -3.751  -7.396   3.354  1.00  0.00     0.032 C 
ATOM     12  C   UNL     1      -5.485  -6.314   1.981  1.00  0.00     0.032 C 
BRANCH   8  13
ATOM     13  S   UNL     1      -1.947  -5.872   0.030  1.00  0.00     0.243 S 
ATOM     14  O   UNL     1      -2.569  -5.890  -1.276  1.00  0.00    -0.207 OA
ATOM     15  O   UNL     1      -0.720  -6.591   0.300  1.00  0.00    -0.207 OA
BRANCH  13  16
ATOM     16  C   UNL     1      -1.584  -4.151   0.365  1.00  0.00     0.083 A 
ATOM     17  C   UNL     1      -0.700  -2.055  -0.496  1.00  0.00     0.083 A 
ATOM     18  C   UNL     1      -0.986  -3.417  -0.669  1.00  0.00     0.039 A 
ATOM     19  C   UNL     1      -1.079  -1.409   0.687  1.00  0.00     0.131 A 
ATOM     20  C   UNL     1      -1.639  -2.155   1.728  1.00  0.00     0.048 A 
ATOM     21  C   UNL     1      -1.892  -3.521   1.571  1.00  0.00     0.025 A 
BRANCH  17  22
ATOM     22  C   UNL     1      -0.024  -1.373  -1.618  1.00  0.00     0.254 C 
ATOM     23  C   UNL     1       1.948  -0.599  -0.215  1.00  0.00     0.143 C 
ATOM     24  N   UNL     1       1.167  -0.723  -1.425  1.00  0.00    -0.355 N 
ATOM     25  H   UNL     1       1.542  -0.278  -2.219  1.00  0.00     0.163 HD
ATOM     26  O   UNL     1      -0.530  -1.414  -2.736  1.00  0.00    -0.269 OA
ENDBRANCH  17  22
BRANCH  19  27
ATOM     27  O   UNL     1      -0.913  -0.075   0.949  1.00  0.00    -0.496 OA
ATOM     28  C   UNL     1      -1.567   0.767  -0.003  1.00  0.00     0.278 C 
ENDBRANCH  19  27
ENDBRANCH  13  16
ENDBRANCH   8  13
ENDBRANCH   5   7
ENDBRANCH   4   5
ENDBRANCH   3   4
ENDBRANCH   2   3
ENDBRANCH   1   2
BRANCH   1  29
ATOM     29  C   UNL     1      -4.366  -7.854   7.246  1.00  0.00     0.202 C 
BRANCH  29  30
ATOM     30  C   UNL     1      -3.333  -8.972   7.441  1.00  0.00     0.261 C 
BRANCH  30  31
ATOM     31  O   UNL     1      -3.572 -10.096   6.574  1.00  0.00    -0.460 OA
BRANCH  31  32
ATOM     32  C   UNL     1      -3.971 -11.227   7.213  1.00  0.00     0.338 C 
ATOM     33  O   UNL     1      -4.092 -11.379   8.417  1.00  0.00    -0.246 OA
BRANCH  32  34
ATOM     34  C   UNL     1      -4.432 -12.233   6.234  1.00  0.00     0.060 A 
ATOM     35  C   UNL     1      -5.674 -12.840   6.466  1.00  0.00     0.016 A 
ATOM     36  C   UNL     1      -3.638 -12.636   5.159  1.00  0.00     0.016 A 
ATOM     37  C   UNL     1      -6.103 -13.891   5.657  1.00  0.00     0.010 A 
ATOM     38  C   UNL     1      -4.065 -13.698   4.354  1.00  0.00     0.010 A 
ATOM     39  C   UNL     1      -5.281 -14.354   4.623  1.00  0.00    -0.014 A 
BRANCH  39  40
ATOM     40  C   UNL     1      -5.595 -15.637   3.945  1.00  0.00     0.031 A 
ATOM     41  C   UNL     1      -4.903 -16.886   4.419  1.00  0.00     0.074 A 
ATOM     42  C   UNL     1      -6.485 -15.696   2.940  1.00  0.00     0.049 A 
ATOM     43  N   UNL     1      -4.932 -18.095   3.922  1.00  0.00    -0.248 NA
ATOM     44  C   UNL     1      -4.060 -16.743   5.615  1.00  0.00     0.031 C 
ATOM     45  C   UNL     1      -7.270 -14.569   2.440  1.00  0.00     0.029 A 
ATOM     46  N   UNL     1      -6.868 -16.751   2.152  1.00  0.00    -0.354 N 
ATOM     47  C   UNL     1      -4.106 -18.859   4.741  1.00  0.00     0.074 A 
ATOM     48  C   UNL     1      -3.566 -17.964   5.743  1.00  0.00     0.031 C 
ATOM     49  C   UNL     1      -8.032 -14.992   1.416  1.00  0.00     0.029 A 
ATOM     50  C   UNL     1      -7.754 -16.404   1.159  1.00  0.00     0.049 A 
ATOM     51  H   UNL     1      -6.540 -17.670   2.284  1.00  0.00     0.167 HD
ATOM     52  C   UNL     1      -3.828 -20.185   4.667  1.00  0.00     0.034 A 
ATOM     53  C   UNL     1      -8.253 -17.134   0.142  1.00  0.00     0.034 A 
ATOM     54  C   UNL     1      -4.355 -21.057   3.646  1.00  0.00     0.049 A 
ATOM     55  C   UNL     1      -7.840 -18.580   0.003  1.00  0.00     0.074 A 
ATOM     56  C   UNL     1      -4.130 -22.410   3.462  1.00  0.00     0.029 A 
ATOM     57  N   UNL     1      -5.208 -20.656   2.624  1.00  0.00    -0.354 N 
ATOM     58  N   UNL     1      -7.036 -19.288   0.764  1.00  0.00    -0.248 NA
ATOM     59  C   UNL     1      -8.402 -19.324  -1.132  1.00  0.00     0.031 C 
ATOM     60  C   UNL     1      -4.792 -22.812   2.296  1.00  0.00     0.029 A 
ATOM     61  C   UNL     1      -5.493 -21.727   1.792  1.00  0.00     0.049 A 
ATOM     62  H   UNL     1      -5.558 -19.743   2.508  1.00  0.00     0.167 HD
ATOM     63  C   UNL     1      -7.027 -20.569   0.218  1.00  0.00     0.074 A 
ATOM     64  C   UNL     1      -7.902 -20.536  -0.935  1.00  0.00     0.031 C 
ATOM     65  C   UNL     1      -6.365 -21.677   0.641  1.00  0.00     0.034 A 
BRANCH  52  66
ATOM     66  C   UNL     1      -2.859 -20.738   5.684  1.00  0.00     0.023 A 
ATOM     67  C   UNL     1      -3.152 -20.737   7.060  1.00  0.00     0.031 A 
ATOM     68  C   UNL     1      -1.599 -21.212   5.281  1.00  0.00     0.131 A 
ATOM     69  C   UNL     1      -2.168 -21.116   7.986  1.00  0.00     0.055 A 
ATOM     70  C   UNL     1      -0.654 -21.668   6.203  1.00  0.00     0.041 A 
ATOM     71  F   UNL     1      -1.252 -21.216   3.984  1.00  0.00    -0.206 F 
ATOM     72  C   UNL     1      -0.929 -21.604   7.566  1.00  0.00     0.022 A 
BRANCH  69  73
ATOM     73  S   UNL     1      -2.469 -20.801   9.747  1.00  0.00     0.124 S 
ATOM     74  O   UNL     1      -2.721 -19.362   9.751  1.00  0.00    -0.237 OA
ATOM     75  O   UNL     1      -3.619 -21.652  10.028  1.00  0.00    -0.237 OA
ATOM     76  O   UNL     1      -1.219 -21.207  10.386  1.00  0.00    -0.744 OA
ENDBRANCH  69  73
ENDBRANCH  52  66
BRANCH  53  77
ATOM     77  C   UNL     1      -9.160 -16.506  -0.860  1.00  0.00     0.023 A 
ATOM     78  C   UNL     1     -10.498 -16.909  -0.979  1.00  0.00     0.031 A 
ATOM     79  C   UNL     1      -8.685 -15.517  -1.740  1.00  0.00     0.131 A 
ATOM     80  C   UNL     1     -11.309 -16.350  -1.980  1.00  0.00     0.055 A 
ATOM     81  C   UNL     1      -9.507 -14.932  -2.704  1.00  0.00     0.041 A 
ATOM     82  F   UNL     1      -7.412 -15.097  -1.666  1.00  0.00    -0.206 F 
ATOM     83  C   UNL     1     -10.826 -15.355  -2.834  1.00  0.00     0.022 A 
BRANCH  80  84
ATOM     84  S   UNL     1     -12.996 -16.984  -2.188  1.00  0.00     0.124 S 
ATOM     85  O   UNL     1     -12.749 -18.386  -2.505  1.00  0.00    -0.237 OA
ATOM     86  O   UNL     1     -13.584 -16.715  -0.880  1.00  0.00    -0.237 OA
ATOM     87  O   UNL     1     -13.529 -16.179  -3.285  1.00  0.00    -0.744 OA
ENDBRANCH  80  84
ENDBRANCH  53  77
BRANCH  65  88
ATOM     88  C   UNL     1      -6.616 -22.959  -0.113  1.00  0.00     0.023 A 
ATOM     89  C   UNL     1      -6.147 -23.160  -1.422  1.00  0.00     0.031 A 
ATOM     90  C   UNL     1      -7.337 -24.000   0.501  1.00  0.00     0.131 A 
ATOM     91  C   UNL     1      -6.440 -24.359  -2.091  1.00  0.00     0.055 A 
ATOM     92  C   UNL     1      -7.581 -25.209  -0.151  1.00  0.00     0.041 A 
ATOM     93  F   UNL     1      -7.808 -23.860   1.751  1.00  0.00    -0.206 F 
ATOM     94  C   UNL     1      -7.141 -25.390  -1.459  1.00  0.00     0.022 A 
BRANCH  91  95
ATOM     95  S   UNL     1      -5.951 -24.533  -3.830  1.00  0.00     0.124 S 
ATOM     96  O   UNL     1      -6.676 -23.434  -4.461  1.00  0.00    -0.237 OA
ATOM     97  O   UNL     1      -4.501 -24.385  -3.763  1.00  0.00    -0.237 OA
ATOM     98  O   UNL     1      -6.420 -25.870  -4.187  1.00  0.00    -0.744 OA
ENDBRANCH  91  95
ENDBRANCH  65  88
ENDBRANCH  39  40
ENDBRANCH  32  34
ENDBRANCH  31  32
ENDBRANCH  30  31
ENDBRANCH  29  30
ENDBRANCH   1  29
TORSDOF 21
