REMARK SMILES CCCCCCNC(=O)Oc1cccc(-c2ccc(CC(=O)OCCOCCOC(=O)c3ccc(-c4c5nc(c(-c6cc(S(=O)(=O)[O-])ccc6F)c6ccc([nH]6)c(-c6cc(S(=O)(=O)[O-])ccc6F)c6nc(c(-c7cc(S(=O)(=O)[O-])ccc7F)c7ccc4[nH]7)C=C6)C=C5)cc3)cc2F)c1
REMARK SMILES IDX 23 1 21 2 22 3 20 4 19 5 16 6 17 7 96 8 18 9 95 10 97 11
REMARK SMILES IDX 15 12 11 13 12 14 98 15 13 16 14 17 10 18 8 19 7 20 9 22
REMARK SMILES IDX 6 23 5 24 4 25 3 26 2 27 1 28 24 29 25 30 26 31 27 32 28 33
REMARK SMILES IDX 29 34 30 35 31 36 32 37 33 38 94 39 34 40 93 41 35 42 36 43
REMARK SMILES IDX 37 44 87 45 38 46 92 47 86 48 88 49 39 50 91 51 85 52 84 53
REMARK SMILES IDX 40 55 72 56 52 57 71 58 53 59 56 60 70 61 89 62 54 63 55 64
REMARK SMILES IDX 69 66 90 67 57 68 41 69 42 70 50 71 43 72 49 73 51 74 48 75
REMARK SMILES IDX 44 76 45 77 46 78 47 79 73 80 74 81 82 82 75 83 81 84 83 85
REMARK SMILES IDX 80 86 76 87 77 88 78 89 79 90 58 91 59 92 67 93 60 94 66 95
REMARK SMILES IDX 68 96 65 97 61 98 62 99 63 100 64 101
REMARK H PARENT 7 21 88 54 56 65
REMARK Flexibility Score: inf
ROOT
ATOM      1  O   UNL     1      -6.519  13.135   5.496  1.00  0.00    -0.463 OA
ENDROOT
BRANCH   1   2
ATOM      2  C   UNL     1      -5.227  13.545   5.580  1.00  0.00     0.310 C 
ATOM      3  O   UNL     1      -4.871  14.676   5.899  1.00  0.00    -0.252 OA
BRANCH   2   4
ATOM      4  C   UNL     1      -4.221  12.494   5.174  1.00  0.00     0.158 C 
BRANCH   4   5
ATOM      5  C   UNL     1      -4.580  11.035   5.340  1.00  0.00    -0.034 A 
ATOM      6  C   UNL     1      -5.022   8.238   5.574  1.00  0.00     0.018 A 
ATOM      7  C   UNL     1      -4.666   9.005   6.693  1.00  0.00     0.012 A 
ATOM      8  C   UNL     1      -5.181   8.903   4.352  1.00  0.00     0.131 A 
ATOM      9  C   UNL     1      -4.434  10.383   6.574  1.00  0.00     0.005 A 
ATOM     10  C   UNL     1      -4.979  10.278   4.232  1.00  0.00     0.044 A 
ATOM     11  F   UNL     1      -5.505   8.212   3.248  1.00  0.00    -0.206 F 
BRANCH   6  12
ATOM     12  C   UNL     1      -5.171   6.782   5.672  1.00  0.00    -0.012 A 
ATOM     13  C   UNL     1      -4.343   4.546   5.216  1.00  0.00     0.133 A 
ATOM     14  C   UNL     1      -5.478   3.982   5.793  1.00  0.00     0.047 A 
ATOM     15  C   UNL     1      -4.190   5.931   5.138  1.00  0.00     0.056 A 
ATOM     16  C   UNL     1      -6.457   4.816   6.331  1.00  0.00     0.004 A 
ATOM     17  C   UNL     1      -6.302   6.206   6.276  1.00  0.00     0.009 A 
BRANCH  13  18
ATOM     18  O   UNL     1      -3.432   3.668   4.604  1.00  0.00    -0.410 OA
BRANCH  18  19
ATOM     19  C   UNL     1      -2.089   3.779   4.934  1.00  0.00     0.412 C 
ATOM     20  N   UNL     1      -1.286   2.928   4.223  1.00  0.00    -0.321 N 
ATOM     21  H   UNL     1      -0.323   2.962   4.426  1.00  0.00     0.167 HD
ATOM     22  O   UNL     1      -1.609   4.531   5.773  1.00  0.00    -0.224 OA
BRANCH  20  23
ATOM     23  C   UNL     1      -1.699   1.982   3.206  1.00  0.00     0.119 C 
BRANCH  23  24
ATOM     24  C   UNL     1      -1.083   2.299   1.842  1.00  0.00     0.021 C 
BRANCH  24  25
ATOM     25  C   UNL     1       0.447   2.204   1.782  1.00  0.00     0.002 C 
BRANCH  25  26
ATOM     26  C   UNL     1       1.043   0.840   2.147  1.00  0.00    -0.000 C 
BRANCH  26  27
ATOM     27  C   UNL     1       0.572  -0.337   1.290  1.00  0.00    -0.003 C 
ATOM     28  C   UNL     1       0.954  -0.207  -0.177  1.00  0.00     0.004 C 
ENDBRANCH  26  27
ENDBRANCH  25  26
ENDBRANCH  24  25
ENDBRANCH  23  24
ENDBRANCH  20  23
ENDBRANCH  18  19
ENDBRANCH  13  18
ENDBRANCH   6  12
ENDBRANCH   4   5
ENDBRANCH   2   4
ENDBRANCH   1   2
BRANCH   1  29
ATOM     29  C   UNL     1      -7.514  14.108   5.874  1.00  0.00     0.261 C 
BRANCH  29  30
ATOM     30  C   UNL     1      -8.321  13.668   7.099  1.00  0.00     0.202 C 
BRANCH  30  31
ATOM     31  O   UNL     1      -7.593  13.555   8.323  1.00  0.00    -0.374 OA
BRANCH  31  32
ATOM     32  C   UNL     1      -6.794  12.384   8.486  1.00  0.00     0.202 C 
BRANCH  32  33
ATOM     33  C   UNL     1      -7.532  11.098   8.875  1.00  0.00     0.261 C 
BRANCH  33  34
ATOM     34  O   UNL     1      -8.423  10.647   7.841  1.00  0.00    -0.460 OA
BRANCH  34  35
ATOM     35  C   UNL     1      -9.740  10.744   8.154  1.00  0.00     0.338 C 
ATOM     36  O   UNL     1     -10.211  11.070   9.231  1.00  0.00    -0.246 OA
BRANCH  35  37
ATOM     37  C   UNL     1     -10.571  10.576   6.943  1.00  0.00     0.060 A 
ATOM     38  C   UNL     1     -11.604  11.501   6.748  1.00  0.00     0.016 A 
ATOM     39  C   UNL     1     -10.393   9.515   6.051  1.00  0.00     0.016 A 
ATOM     40  C   UNL     1     -12.504  11.335   5.698  1.00  0.00     0.010 A 
ATOM     41  C   UNL     1     -11.302   9.346   4.999  1.00  0.00     0.010 A 
ATOM     42  C   UNL     1     -12.384  10.232   4.843  1.00  0.00    -0.014 A 
BRANCH  42  43
ATOM     43  C   UNL     1     -13.486   9.928   3.897  1.00  0.00     0.031 A 
ATOM     44  C   UNL     1     -14.507   8.892   4.281  1.00  0.00     0.074 A 
ATOM     45  C   UNL     1     -13.597  10.590   2.732  1.00  0.00     0.049 A 
ATOM     46  N   UNL     1     -15.550   8.464   3.618  1.00  0.00    -0.248 NA
ATOM     47  C   UNL     1     -14.314   8.247   5.587  1.00  0.00     0.031 C 
ATOM     48  C   UNL     1     -12.683  11.630   2.266  1.00  0.00     0.029 A 
ATOM     49  N   UNL     1     -14.523  10.476   1.726  1.00  0.00    -0.354 N 
ATOM     50  C   UNL     1     -16.139   7.495   4.425  1.00  0.00     0.074 A 
ATOM     51  C   UNL     1     -15.306   7.370   5.603  1.00  0.00     0.031 C 
ATOM     52  C   UNL     1     -13.081  12.045   1.051  1.00  0.00     0.029 A 
ATOM     53  C   UNL     1     -14.260  11.282   0.645  1.00  0.00     0.049 A 
ATOM     54  H   UNL     1     -15.300   9.874   1.774  1.00  0.00     0.167 HD
ATOM     55  C   UNL     1     -17.274   6.784   4.207  1.00  0.00     0.034 A 
ATOM     56  C   UNL     1     -14.882  11.373  -0.547  1.00  0.00     0.034 A 
ATOM     57  C   UNL     1     -18.080   6.911   3.016  1.00  0.00     0.049 A 
ATOM     58  C   UNL     1     -16.105  10.529  -0.804  1.00  0.00     0.074 A 
ATOM     59  C   UNL     1     -19.268   6.272   2.704  1.00  0.00     0.029 A 
ATOM     60  N   UNL     1     -17.766   7.715   1.926  1.00  0.00    -0.354 N 
ATOM     61  N   UNL     1     -16.678   9.645  -0.018  1.00  0.00    -0.248 NA
ATOM     62  C   UNL     1     -16.771  10.703  -2.100  1.00  0.00     0.031 C 
ATOM     63  C   UNL     1     -19.630   6.631   1.400  1.00  0.00     0.029 A 
ATOM     64  C   UNL     1     -18.713   7.556   0.924  1.00  0.00     0.049 A 
ATOM     65  H   UNL     1     -16.985   8.312   1.873  1.00  0.00     0.167 HD
ATOM     66  C   UNL     1     -17.784   9.172  -0.720  1.00  0.00     0.074 A 
ATOM     67  C   UNL     1     -17.802   9.878  -1.986  1.00  0.00     0.031 C 
ATOM     68  C   UNL     1     -18.705   8.246  -0.347  1.00  0.00     0.034 A 
BRANCH  55  69
ATOM     69  C   UNL     1     -17.659   5.767   5.257  1.00  0.00     0.023 A 
ATOM     70  C   UNL     1     -17.954   6.141   6.581  1.00  0.00     0.031 A 
ATOM     71  C   UNL     1     -17.661   4.395   4.948  1.00  0.00     0.131 A 
ATOM     72  C   UNL     1     -18.139   5.156   7.564  1.00  0.00     0.055 A 
ATOM     73  C   UNL     1     -17.935   3.422   5.913  1.00  0.00     0.041 A 
ATOM     74  F   UNL     1     -17.367   3.972   3.709  1.00  0.00    -0.206 F 
ATOM     75  C   UNL     1     -18.154   3.799   7.234  1.00  0.00     0.022 A 
BRANCH  72  76
ATOM     76  S   UNL     1     -18.171   5.666   9.305  1.00  0.00     0.124 S 
ATOM     77  O   UNL     1     -16.913   6.400   9.422  1.00  0.00    -0.237 OA
ATOM     78  O   UNL     1     -19.387   6.467   9.376  1.00  0.00    -0.237 OA
ATOM     79  O   UNL     1     -18.212   4.399  10.032  1.00  0.00    -0.744 OA
ENDBRANCH  72  76
ENDBRANCH  55  69
BRANCH  56  80
ATOM     80  C   UNL     1     -14.325  12.264  -1.603  1.00  0.00     0.023 A 
ATOM     81  C   UNL     1     -14.999  13.420  -2.024  1.00  0.00     0.031 A 
ATOM     82  C   UNL     1     -13.091  11.959  -2.208  1.00  0.00     0.131 A 
ATOM     83  C   UNL     1     -14.444  14.220  -3.036  1.00  0.00     0.055 A 
ATOM     84  C   UNL     1     -12.525  12.778  -3.184  1.00  0.00     0.041 A 
ATOM     85  F   UNL     1     -12.406  10.866  -1.835  1.00  0.00    -0.206 F 
ATOM     86  C   UNL     1     -13.206  13.915  -3.608  1.00  0.00     0.022 A 
BRANCH  83  87
ATOM     87  S   UNL     1     -15.379  15.660  -3.622  1.00  0.00     0.124 S 
ATOM     88  O   UNL     1     -16.582  15.035  -4.159  1.00  0.00    -0.237 OA
ATOM     89  O   UNL     1     -15.549  16.432  -2.396  1.00  0.00    -0.237 OA
ATOM     90  O   UNL     1     -14.491  16.262  -4.614  1.00  0.00    -0.744 OA
ENDBRANCH  83  87
ENDBRANCH  56  80
BRANCH  68  91
ATOM     91  C   UNL     1     -19.829   7.966  -1.315  1.00  0.00     0.023 A 
ATOM     92  C   UNL     1     -19.606   7.327  -2.546  1.00  0.00     0.031 A 
ATOM     93  C   UNL     1     -21.146   8.346  -0.996  1.00  0.00     0.131 A 
ATOM     94  C   UNL     1     -20.675   7.127  -3.434  1.00  0.00     0.055 A 
ATOM     95  C   UNL     1     -22.214   8.095  -1.859  1.00  0.00     0.041 A 
ATOM     96  F   UNL     1     -21.417   8.963   0.166  1.00  0.00    -0.206 F 
ATOM     97  C   UNL     1     -21.979   7.492  -3.091  1.00  0.00     0.022 A 
BRANCH  94  98
ATOM     98  S   UNL     1     -20.327   6.455  -5.083  1.00  0.00     0.124 S 
ATOM     99  O   UNL     1     -19.401   7.444  -5.625  1.00  0.00    -0.237 OA
ATOM    100  O   UNL     1     -19.757   5.148  -4.775  1.00  0.00    -0.237 OA
ATOM    101  O   UNL     1     -21.641   6.421  -5.724  1.00  0.00    -0.744 OA
ENDBRANCH  94  98
ENDBRANCH  68  91
ENDBRANCH  42  43
ENDBRANCH  35  37
ENDBRANCH  34  35
ENDBRANCH  33  34
ENDBRANCH  32  33
ENDBRANCH  31  32
ENDBRANCH  30  31
ENDBRANCH  29  30
ENDBRANCH   1  29
TORSDOF 26
