REMARK SMILES CS(=O)(=O)c1ccc(N2N=C(C(=O)OCCOCCOC(=O)c3ccc(-c4c5nc(c(-c6cc(S(=O)(=O)[O-])ccc6F)c6ccc([nH]6)c(-c6cc(S(=O)(=O)[O-])ccc6F)c6nc(c(-c7cc(S(=O)(=O)[O-])ccc7F)c7ccc4[nH]7)C=C6)C=C5)cc3)C[C@H]2c2ccco2)cc1
REMARK SMILES IDX 18 1 17 2 16 3 15 4 14 5 12 6 13 7 11 8 9 9 10 10 87 11
REMARK SMILES IDX 86 12 8 13 5 14 6 15 94 16 7 17 93 18 2 19 1 20 3 21 4 22
REMARK SMILES IDX 88 23 89 24 92 25 90 26 91 27 19 28 20 29 21 30 22 31 23 32
REMARK SMILES IDX 24 33 85 34 25 35 84 36 26 37 27 38 28 39 78 40 29 41 83 42
REMARK SMILES IDX 77 43 79 44 30 45 82 46 76 47 75 48 31 50 63 51 43 52 62 53
REMARK SMILES IDX 44 54 47 55 61 56 80 57 45 58 46 59 60 61 81 62 48 63 32 64
REMARK SMILES IDX 33 65 41 66 34 67 40 68 42 69 39 70 35 71 36 72 37 73 38 74
REMARK SMILES IDX 64 75 65 76 73 77 66 78 72 79 74 80 71 81 67 82 68 83 69 84
REMARK SMILES IDX 70 85 49 86 50 87 58 88 51 89 57 90 59 91 56 92 52 93 53 94
REMARK SMILES IDX 54 95 55 96
REMARK H PARENT 79 49 47 60
REMARK Flexibility Score: inf
ROOT
ATOM      1  C   UNL     1       5.453   7.965  -5.619  1.00  0.00     0.202 C 
ENDROOT
BRANCH   1   2
ATOM      2  O   UNL     1       5.147   8.700  -6.807  1.00  0.00    -0.374 OA
BRANCH   2   3
ATOM      3  C   UNL     1       4.670  10.036  -6.601  1.00  0.00     0.202 C 
BRANCH   3   4
ATOM      4  C   UNL     1       3.148  10.071  -6.457  1.00  0.00     0.261 C 
BRANCH   4   5
ATOM      5  O   UNL     1       2.827   9.522  -5.170  1.00  0.00    -0.459 OA
BRANCH   5   6
ATOM      6  C   UNL     1       1.702   8.787  -5.109  1.00  0.00     0.354 C 
ATOM      7  O   UNL     1       0.785   8.741  -5.904  1.00  0.00    -0.245 OA
BRANCH   6   8
ATOM      8  C   UNL     1       1.837   7.873  -3.922  1.00  0.00     0.148 C 
ATOM      9  N   UNL     1       1.910   6.113  -2.751  1.00  0.00    -0.254 N 
ATOM     10  N   UNL     1       1.623   6.593  -3.995  1.00  0.00    -0.169 NA
ATOM     11  C   UNL     1       1.982   7.183  -1.743  1.00  0.00     0.180 C 
ATOM     12  C   UNL     1       2.374   8.380  -2.620  1.00  0.00     0.101 C 
BRANCH   9  13
ATOM     13  C   UNL     1       1.570   4.803  -2.452  1.00  0.00     0.060 A 
ATOM     14  C   UNL     1       0.921   2.124  -1.951  1.00  0.00     0.067 A 
ATOM     15  C   UNL     1       2.262   2.499  -2.072  1.00  0.00     0.022 A 
ATOM     16  C   UNL     1      -0.099   3.066  -2.093  1.00  0.00     0.022 A 
ATOM     17  C   UNL     1       2.578   3.838  -2.310  1.00  0.00     0.029 A 
ATOM     18  C   UNL     1       0.233   4.397  -2.351  1.00  0.00     0.029 A 
BRANCH  14  19
ATOM     19  S   UNL     1       0.524   0.419  -1.657  1.00  0.00     0.175 S 
ATOM     20  C   UNL     1       1.040   0.162   0.020  1.00  0.00     0.163 C 
ATOM     21  O   UNL     1       1.372  -0.382  -2.518  1.00  0.00    -0.224 OA
ATOM     22  O   UNL     1      -0.920   0.279  -1.693  1.00  0.00    -0.224 OA
ENDBRANCH  14  19
ENDBRANCH   9  13
BRANCH  11  23
ATOM     23  C   UNL     1       0.723   7.452  -0.966  1.00  0.00     0.128 A 
ATOM     24  C   UNL     1       0.223   6.950   0.220  1.00  0.00     0.048 A 
ATOM     25  O   UNL     1      -0.158   8.360  -1.486  1.00  0.00    -0.467 OA
ATOM     26  C   UNL     1      -1.024   7.588   0.433  1.00  0.00     0.042 A 
ATOM     27  C   UNL     1      -1.206   8.440  -0.631  1.00  0.00     0.195 A 
ENDBRANCH  11  23
ENDBRANCH   6   8
ENDBRANCH   5   6
ENDBRANCH   4   5
ENDBRANCH   3   4
ENDBRANCH   2   3
ENDBRANCH   1   2
BRANCH   1  28
ATOM     28  C   UNL     1       6.927   8.070  -5.219  1.00  0.00     0.261 C 
BRANCH  28  29
ATOM     29  O   UNL     1       7.211   9.386  -4.710  1.00  0.00    -0.460 OA
BRANCH  29  30
ATOM     30  C   UNL     1       7.835  10.219  -5.579  1.00  0.00     0.338 C 
ATOM     31  O   UNL     1       8.257   9.926  -6.686  1.00  0.00    -0.246 OA
BRANCH  30  32
ATOM     32  C   UNL     1       7.830  11.607  -5.053  1.00  0.00     0.060 A 
ATOM     33  C   UNL     1       7.959  12.650  -5.981  1.00  0.00     0.016 A 
ATOM     34  C   UNL     1       7.719  11.899  -3.685  1.00  0.00     0.016 A 
ATOM     35  C   UNL     1       8.027  13.972  -5.546  1.00  0.00     0.010 A 
ATOM     36  C   UNL     1       7.788  13.228  -3.248  1.00  0.00     0.010 A 
ATOM     37  C   UNL     1       7.978  14.265  -4.176  1.00  0.00    -0.014 A 
BRANCH  37  38
ATOM     38  C   UNL     1       8.309  15.639  -3.731  1.00  0.00     0.031 A 
ATOM     39  C   UNL     1       9.747  15.972  -3.443  1.00  0.00     0.074 A 
ATOM     40  C   UNL     1       7.362  16.589  -3.643  1.00  0.00     0.049 A 
ATOM     41  N   UNL     1      10.292  17.128  -3.164  1.00  0.00    -0.248 NA
ATOM     42  C   UNL     1      10.695  14.847  -3.475  1.00  0.00     0.031 C 
ATOM     43  C   UNL     1       5.935  16.390  -3.892  1.00  0.00     0.029 A 
ATOM     44  N   UNL     1       7.468  17.919  -3.324  1.00  0.00    -0.354 N 
ATOM     45  C   UNL     1      11.652  16.877  -3.021  1.00  0.00     0.074 A 
ATOM     46  C   UNL     1      11.838  15.450  -3.189  1.00  0.00     0.031 C 
ATOM     47  C   UNL     1       5.295  17.560  -3.710  1.00  0.00     0.029 A 
ATOM     48  C   UNL     1       6.267  18.586  -3.336  1.00  0.00     0.049 A 
ATOM     49  H   UNL     1       8.323  18.354  -3.107  1.00  0.00     0.167 HD
ATOM     50  C   UNL     1      12.658  17.754  -2.788  1.00  0.00     0.034 A 
ATOM     51  C   UNL     1       5.989  19.879  -3.080  1.00  0.00     0.034 A 
ATOM     52  C   UNL     1      12.467  19.166  -2.584  1.00  0.00     0.049 A 
ATOM     53  C   UNL     1       7.115  20.831  -2.771  1.00  0.00     0.074 A 
ATOM     54  C   UNL     1      13.416  20.144  -2.345  1.00  0.00     0.029 A 
ATOM     55  N   UNL     1      11.232  19.799  -2.577  1.00  0.00    -0.354 N 
ATOM     56  N   UNL     1       8.402  20.587  -2.683  1.00  0.00    -0.248 NA
ATOM     57  C   UNL     1       6.750  22.236  -2.544  1.00  0.00     0.031 C 
ATOM     58  C   UNL     1      12.751  21.362  -2.150  1.00  0.00     0.029 A 
ATOM     59  C   UNL     1      11.391  21.149  -2.312  1.00  0.00     0.049 A 
ATOM     60  H   UNL     1      10.369  19.354  -2.738  1.00  0.00     0.167 HD
ATOM     61  C   UNL     1       9.001  21.813  -2.412  1.00  0.00     0.074 A 
ATOM     62  C   UNL     1       7.937  22.794  -2.351  1.00  0.00     0.031 C 
ATOM     63  C   UNL     1      10.315  22.106  -2.239  1.00  0.00     0.034 A 
BRANCH  50  64
ATOM     64  C   UNL     1      14.046  17.178  -2.707  1.00  0.00     0.023 A 
ATOM     65  C   UNL     1      14.681  16.651  -3.845  1.00  0.00     0.031 A 
ATOM     66  C   UNL     1      14.711  17.093  -1.473  1.00  0.00     0.131 A 
ATOM     67  C   UNL     1      15.916  15.999  -3.714  1.00  0.00     0.055 A 
ATOM     68  C   UNL     1      15.968  16.498  -1.360  1.00  0.00     0.041 A 
ATOM     69  F   UNL     1      14.134  17.559  -0.354  1.00  0.00    -0.206 F 
ATOM     70  C   UNL     1      16.572  15.935  -2.482  1.00  0.00     0.022 A 
BRANCH  67  71
ATOM     71  S   UNL     1      16.591  15.123  -5.152  1.00  0.00     0.124 S 
ATOM     72  O   UNL     1      15.535  14.153  -5.430  1.00  0.00    -0.237 OA
ATOM     73  O   UNL     1      16.751  16.194  -6.128  1.00  0.00    -0.237 OA
ATOM     74  O   UNL     1      17.837  14.548  -4.647  1.00  0.00    -0.744 OA
ENDBRANCH  67  71
ENDBRANCH  50  64
BRANCH  51  75
ATOM     75  C   UNL     1       4.581  20.355  -3.079  1.00  0.00     0.023 A 
ATOM     76  C   UNL     1       4.091  21.188  -4.097  1.00  0.00     0.031 A 
ATOM     77  C   UNL     1       3.720  20.010  -2.022  1.00  0.00     0.131 A 
ATOM     78  C   UNL     1       2.778  21.678  -4.020  1.00  0.00     0.055 A 
ATOM     79  C   UNL     1       2.407  20.479  -1.964  1.00  0.00     0.041 A 
ATOM     80  F   UNL     1       4.147  19.210  -1.032  1.00  0.00    -0.206 F 
ATOM     81  C   UNL     1       1.933  21.326  -2.963  1.00  0.00     0.022 A 
BRANCH  78  82
ATOM     82  S   UNL     1       2.201  22.829  -5.302  1.00  0.00     0.124 S 
ATOM     83  O   UNL     1       3.154  23.925  -5.173  1.00  0.00    -0.237 OA
ATOM     84  O   UNL     1       2.317  22.017  -6.510  1.00  0.00    -0.237 OA
ATOM     85  O   UNL     1       0.834  23.138  -4.891  1.00  0.00    -0.744 OA
ENDBRANCH  78  82
ENDBRANCH  51  75
BRANCH  63  86
ATOM     86  C   UNL     1      10.662  23.549  -2.000  1.00  0.00     0.023 A 
ATOM     87  C   UNL     1      10.410  24.168  -0.764  1.00  0.00     0.031 A 
ATOM     88  C   UNL     1      11.244  24.313  -3.027  1.00  0.00     0.131 A 
ATOM     89  C   UNL     1      10.707  25.528  -0.595  1.00  0.00     0.055 A 
ATOM     90  C   UNL     1      11.568  25.657  -2.843  1.00  0.00     0.041 A 
ATOM     91  F   UNL     1      11.502  23.763  -4.224  1.00  0.00    -0.206 F 
ATOM     92  C   UNL     1      11.292  26.274  -1.624  1.00  0.00     0.022 A 
BRANCH  89  93
ATOM     93  S   UNL     1      10.268  26.329   0.975  1.00  0.00     0.124 S 
ATOM     94  O   UNL     1       8.824  26.123   1.031  1.00  0.00    -0.237 OA
ATOM     95  O   UNL     1      11.057  25.573   1.943  1.00  0.00    -0.237 OA
ATOM     96  O   UNL     1      10.688  27.715   0.782  1.00  0.00    -0.744 OA
ENDBRANCH  89  93
ENDBRANCH  63  86
ENDBRANCH  37  38
ENDBRANCH  30  32
ENDBRANCH  29  30
ENDBRANCH  28  29
ENDBRANCH   1  28
TORSDOF 20
