REMARK SMILES Cn1c(=O)c(=O)n(C)c2cc(S(=O)(=O)N3CCC[C@H]3C(=O)OCCOCCOC(=O)c3ccc(-c4c5nc(c(-c6cc(S(=O)(=O)[O-])ccc6F)c6ccc([nH]6)c(-c6cc(S(=O)(=O)[O-])ccc6F)c6nc(c(-c7cc(S(=O)(=O)[O-])ccc7F)c7ccc4[nH]7)C=C6)C=C5)cc3)ccc21
REMARK SMILES IDX 26 1 25 2 24 3 23 4 22 5 20 6 21 7 19 8 15 9 16 10 17 11
REMARK SMILES IDX 18 12 12 13 13 14 14 15 11 16 1 17 2 18 3 19 96 20 4 21 5 22
REMARK SMILES IDX 9 23 95 24 6 25 7 26 10 27 94 28 8 29 27 30 28 31 29 32
REMARK SMILES IDX 30 33 31 34 32 35 93 36 33 37 92 38 34 39 35 40 36 41 86 42
REMARK SMILES IDX 37 43 91 44 85 45 87 46 38 47 90 48 84 49 83 50 39 52 71 53
REMARK SMILES IDX 51 54 70 55 52 56 55 57 69 58 88 59 53 60 54 61 68 63 89 64
REMARK SMILES IDX 56 65 40 66 41 67 49 68 42 69 48 70 50 71 47 72 43 73 44 74
REMARK SMILES IDX 45 75 46 76 72 77 73 78 81 79 74 80 80 81 82 82 79 83 75 84
REMARK SMILES IDX 76 85 77 86 78 87 57 88 58 89 66 90 59 91 65 92 67 93 64 94
REMARK SMILES IDX 60 95 61 96 62 97 63 98
REMARK H PARENT 87 51 55 62
REMARK Flexibility Score: inf
ROOT
ATOM      1  C   UNL     1      -6.412  -1.895   3.397  1.00  0.00     0.202 C 
ENDROOT
BRANCH   1   2
ATOM      2  O   UNL     1      -7.284  -0.958   4.041  1.00  0.00    -0.374 OA
BRANCH   2   3
ATOM      3  C   UNL     1      -8.545  -0.750   3.406  1.00  0.00     0.202 C 
BRANCH   3   4
ATOM      4  C   UNL     1      -8.570   0.289   2.281  1.00  0.00     0.261 C 
BRANCH   4   5
ATOM      5  O   UNL     1      -7.621   0.014   1.235  1.00  0.00    -0.462 OA
BRANCH   5   6
ATOM      6  C   UNL     1      -6.459   0.706   1.333  1.00  0.00     0.324 C 
ATOM      7  O   UNL     1      -6.208   1.536   2.205  1.00  0.00    -0.250 OA
BRANCH   6   8
ATOM      8  C   UNL     1      -5.469   0.422   0.227  1.00  0.00     0.183 C 
ATOM      9  N   UNL     1      -5.734  -0.619  -0.788  1.00  0.00    -0.184 NA
ATOM     10  C   UNL     1      -6.131  -0.014  -2.063  1.00  0.00     0.103 C 
ATOM     11  C   UNL     1      -5.512   1.368  -2.051  1.00  0.00     0.019 C 
ATOM     12  C   UNL     1      -5.317   1.724  -0.585  1.00  0.00     0.034 C 
BRANCH   9  13
ATOM     13  S   UNL     1      -5.017  -2.136  -0.737  1.00  0.00     0.243 S 
ATOM     14  O   UNL     1      -5.378  -2.862  -1.934  1.00  0.00    -0.207 OA
ATOM     15  O   UNL     1      -5.246  -2.688   0.579  1.00  0.00    -0.207 OA
BRANCH  13  16
ATOM     16  C   UNL     1      -3.243  -1.924  -0.811  1.00  0.00     0.084 A 
ATOM     17  C   UNL     1       1.460  -0.126  -0.014  1.00  0.00     0.154 C 
ATOM     18  N   UNL     1       0.902  -1.466  -0.114  1.00  0.00    -0.305 N 
ATOM     19  C   UNL     1       1.732  -2.543   0.184  1.00  0.00     0.316 A 
ATOM     20  C   UNL     1      -0.472  -1.648  -0.425  1.00  0.00     0.068 A 
ATOM     21  O   UNL     1       2.914  -2.422   0.497  1.00  0.00    -0.263 OA
ATOM     22  C   UNL     1       1.130  -3.952   0.112  1.00  0.00     0.316 A 
ATOM     23  C   UNL     1      -1.058  -2.924  -0.344  1.00  0.00     0.069 A 
ATOM     24  C   UNL     1      -1.271  -0.553  -0.792  1.00  0.00     0.030 A 
ATOM     25  O   UNL     1       1.881  -4.915   0.251  1.00  0.00    -0.263 OA
ATOM     26  N   UNL     1      -0.244  -4.064  -0.096  1.00  0.00    -0.305 N 
ATOM     27  C   UNL     1      -2.451  -3.043  -0.508  1.00  0.00     0.050 A 
ATOM     28  C   UNL     1      -2.640  -0.695  -1.012  1.00  0.00     0.024 A 
ATOM     29  C   UNL     1      -0.823  -5.399  -0.116  1.00  0.00     0.154 C 
ENDBRANCH  13  16
ENDBRANCH   9  13
ENDBRANCH   6   8
ENDBRANCH   5   6
ENDBRANCH   4   5
ENDBRANCH   3   4
ENDBRANCH   2   3
ENDBRANCH   1   2
BRANCH   1  30
ATOM     30  C   UNL     1      -6.762  -3.373   3.599  1.00  0.00     0.261 C 
BRANCH  30  31
ATOM     31  O   UNL     1      -7.843  -3.757   2.728  1.00  0.00    -0.460 OA
BRANCH  31  32
ATOM     32  C   UNL     1      -8.980  -4.163   3.343  1.00  0.00     0.338 C 
ATOM     33  O   UNL     1      -9.133  -4.368   4.535  1.00  0.00    -0.246 OA
BRANCH  32  34
ATOM     34  C   UNL     1     -10.100  -4.098   2.376  1.00  0.00     0.060 A 
ATOM     35  C   UNL     1      -9.991  -4.581   1.068  1.00  0.00     0.016 A 
ATOM     36  C   UNL     1     -11.299  -3.525   2.818  1.00  0.00     0.016 A 
ATOM     37  C   UNL     1     -11.105  -4.534   0.221  1.00  0.00     0.010 A 
ATOM     38  C   UNL     1     -12.403  -3.469   1.970  1.00  0.00     0.010 A 
ATOM     39  C   UNL     1     -12.324  -3.998   0.674  1.00  0.00    -0.014 A 
BRANCH  39  40
ATOM     40  C   UNL     1     -13.568  -4.153  -0.119  1.00  0.00     0.031 A 
ATOM     41  C   UNL     1     -14.164  -3.016  -0.892  1.00  0.00     0.074 A 
ATOM     42  C   UNL     1     -14.210  -5.335  -0.054  1.00  0.00     0.049 A 
ATOM     43  N   UNL     1     -15.238  -3.010  -1.638  1.00  0.00    -0.248 NA
ATOM     44  C   UNL     1     -13.478  -1.719  -0.811  1.00  0.00     0.031 C 
ATOM     45  C   UNL     1     -13.749  -6.488   0.722  1.00  0.00     0.029 A 
ATOM     46  N   UNL     1     -15.385  -5.760  -0.620  1.00  0.00    -0.354 N 
ATOM     47  C   UNL     1     -15.351  -1.719  -2.136  1.00  0.00     0.074 A 
ATOM     48  C   UNL     1     -14.260  -0.955  -1.567  1.00  0.00     0.031 C 
ATOM     49  C   UNL     1     -14.634  -7.486   0.588  1.00  0.00     0.029 A 
ATOM     50  C   UNL     1     -15.733  -7.042  -0.265  1.00  0.00     0.049 A 
ATOM     51  H   UNL     1     -15.927  -5.200  -1.222  1.00  0.00     0.167 HD
ATOM     52  C   UNL     1     -16.272  -1.230  -3.002  1.00  0.00     0.034 A 
ATOM     53  C   UNL     1     -16.815  -7.781  -0.586  1.00  0.00     0.034 A 
ATOM     54  C   UNL     1     -17.362  -2.006  -3.544  1.00  0.00     0.049 A 
ATOM     55  C   UNL     1     -17.834  -7.209  -1.535  1.00  0.00     0.074 A 
ATOM     56  C   UNL     1     -18.296  -1.619  -4.489  1.00  0.00     0.029 A 
ATOM     57  N   UNL     1     -17.678  -3.308  -3.182  1.00  0.00    -0.354 N 
ATOM     58  N   UNL     1     -17.847  -6.032  -2.116  1.00  0.00    -0.248 NA
ATOM     59  C   UNL     1     -18.974  -8.064  -1.892  1.00  0.00     0.031 C 
ATOM     60  C   UNL     1     -19.212  -2.660  -4.652  1.00  0.00     0.029 A 
ATOM     61  C   UNL     1     -18.814  -3.724  -3.859  1.00  0.00     0.049 A 
ATOM     62  H   UNL     1     -17.171  -3.855  -2.540  1.00  0.00     0.167 HD
ATOM     63  C   UNL     1     -18.979  -6.015  -2.925  1.00  0.00     0.074 A 
ATOM     64  C   UNL     1     -19.614  -7.308  -2.775  1.00  0.00     0.031 C 
ATOM     65  C   UNL     1     -19.444  -5.017  -3.717  1.00  0.00     0.034 A 
BRANCH  52  66
ATOM     66  C   UNL     1     -16.145   0.199  -3.468  1.00  0.00     0.023 A 
ATOM     67  C   UNL     1     -17.157   1.134  -3.182  1.00  0.00     0.031 A 
ATOM     68  C   UNL     1     -15.102   0.587  -4.328  1.00  0.00     0.131 A 
ATOM     69  C   UNL     1     -17.122   2.401  -3.780  1.00  0.00     0.055 A 
ATOM     70  C   UNL     1     -15.056   1.860  -4.897  1.00  0.00     0.041 A 
ATOM     71  F   UNL     1     -14.116  -0.272  -4.635  1.00  0.00    -0.206 F 
ATOM     72  C   UNL     1     -16.075   2.769  -4.633  1.00  0.00     0.022 A 
BRANCH  69  73
ATOM     73  S   UNL     1     -18.458   3.600  -3.527  1.00  0.00     0.124 S 
ATOM     74  O   UNL     1     -17.734   4.738  -2.964  1.00  0.00    -0.237 OA
ATOM     75  O   UNL     1     -18.960   3.790  -4.885  1.00  0.00    -0.237 OA
ATOM     76  O   UNL     1     -19.366   2.925  -2.606  1.00  0.00    -0.744 OA
ENDBRANCH  69  73
ENDBRANCH  52  66
BRANCH  53  77
ATOM     77  C   UNL     1     -16.921  -9.168  -0.051  1.00  0.00     0.023 A 
ATOM     78  C   UNL     1     -17.030  -9.405   1.332  1.00  0.00     0.031 A 
ATOM     79  C   UNL     1     -16.789 -10.275  -0.905  1.00  0.00     0.131 A 
ATOM     80  C   UNL     1     -16.941 -10.715   1.822  1.00  0.00     0.055 A 
ATOM     81  C   UNL     1     -16.765 -11.582  -0.417  1.00  0.00     0.041 A 
ATOM     82  F   UNL     1     -16.666 -10.095  -2.229  1.00  0.00    -0.206 F 
ATOM     83  C   UNL     1     -16.824 -11.806   0.955  1.00  0.00     0.022 A 
BRANCH  80  84
ATOM     84  S   UNL     1     -16.838 -11.037   3.605  1.00  0.00     0.124 S 
ATOM     85  O   UNL     1     -18.030 -11.848   3.836  1.00  0.00    -0.237 OA
ATOM     86  O   UNL     1     -15.564 -11.745   3.708  1.00  0.00    -0.237 OA
ATOM     87  O   UNL     1     -16.856  -9.704   4.198  1.00  0.00    -0.744 OA
ENDBRANCH  80  84
ENDBRANCH  53  77
BRANCH  65  88
ATOM     88  C   UNL     1     -20.713  -5.249  -4.502  1.00  0.00     0.023 A 
ATOM     89  C   UNL     1     -20.686  -5.229  -5.910  1.00  0.00     0.031 A 
ATOM     90  C   UNL     1     -21.962  -5.336  -3.862  1.00  0.00     0.131 A 
ATOM     91  C   UNL     1     -21.887  -5.250  -6.631  1.00  0.00     0.055 A 
ATOM     92  C   UNL     1     -23.153  -5.403  -4.587  1.00  0.00     0.041 A 
ATOM     93  F   UNL     1     -22.041  -5.351  -2.522  1.00  0.00    -0.206 F 
ATOM     94  C   UNL     1     -23.119  -5.344  -5.977  1.00  0.00     0.022 A 
BRANCH  91  95
ATOM     95  S   UNL     1     -21.899  -5.066  -8.437  1.00  0.00     0.124 S 
ATOM     96  O   UNL     1     -22.526  -6.316  -8.863  1.00  0.00    -0.237 OA
ATOM     97  O   UNL     1     -22.713  -3.867  -8.618  1.00  0.00    -0.237 OA
ATOM     98  O   UNL     1     -20.490  -4.927  -8.787  1.00  0.00    -0.744 OA
ENDBRANCH  91  95
ENDBRANCH  65  88
ENDBRANCH  39  40
ENDBRANCH  32  34
ENDBRANCH  31  32
ENDBRANCH  30  31
ENDBRANCH   1  30
TORSDOF 19
