REMARK SMILES CC(C)Cc1ccc([C@@H](C)C(=O)OCCOCCOC(=O)c2ccc(-c3c4nc(c(-c5cc(S(=O)(=O)[O-])ccc5F)c5ccc([nH]5)c(-c5cc(S(=O)(=O)[O-])ccc5F)c5nc(c(-c6cc(S(=O)(=O)[O-])ccc6F)c6ccc3[nH]6)C=C5)C=C4)cc2)cc1
REMARK SMILES IDX 16 1 15 2 14 3 13 4 11 5 12 6 9 7 10 8 8 9 5 10 6 11 86 12
REMARK SMILES IDX 7 13 85 14 4 15 2 16 1 17 3 18 17 19 18 20 19 21 20 22 21 23
REMARK SMILES IDX 22 24 23 25 84 26 24 27 83 28 25 29 26 30 27 31 77 32 28 33
REMARK SMILES IDX 82 34 76 35 78 36 29 37 81 38 75 39 74 40 30 42 62 43 42 44
REMARK SMILES IDX 61 45 43 46 46 47 60 48 79 49 44 50 45 51 59 53 80 54 47 55
REMARK SMILES IDX 31 56 32 57 40 58 33 59 39 60 41 61 38 62 34 63 35 64 36 65
REMARK SMILES IDX 37 66 63 67 64 68 72 69 65 70 71 71 73 72 70 73 66 74 67 75
REMARK SMILES IDX 68 76 69 77 48 78 49 79 57 80 50 81 56 82 58 83 55 84 51 85
REMARK SMILES IDX 52 86 53 87 54 88
REMARK H PARENT 78 41 46 52
REMARK Flexibility Score: inf
ROOT
ATOM      1  O   UNL     1      -6.313  -2.869   4.109  1.00  0.00    -0.374 OA
ENDROOT
BRANCH   1   2
ATOM      2  C   UNL     1      -6.222  -2.000   5.240  1.00  0.00     0.202 C 
BRANCH   2   3
ATOM      3  C   UNL     1      -5.119  -2.331   6.248  1.00  0.00     0.261 C 
BRANCH   3   4
ATOM      4  O   UNL     1      -3.815  -2.102   5.683  1.00  0.00    -0.463 OA
BRANCH   4   5
ATOM      5  C   UNL     1      -3.023  -3.196   5.549  1.00  0.00     0.313 C 
ATOM      6  O   UNL     1      -3.288  -4.309   5.997  1.00  0.00    -0.252 OA
BRANCH   5   7
ATOM      7  C   UNL     1      -1.723  -2.926   4.811  1.00  0.00     0.126 C 
ATOM      8  C   UNL     1      -0.602  -2.703   5.824  1.00  0.00     0.025 C 
BRANCH   7   9
ATOM      9  C   UNL     1      -1.729  -1.861   3.720  1.00  0.00    -0.034 A 
ATOM     10  C   UNL     1      -1.385   0.061   1.670  1.00  0.00    -0.048 A 
ATOM     11  C   UNL     1      -1.587   0.461   2.996  1.00  0.00     0.004 A 
ATOM     12  C   UNL     1      -1.443  -1.302   1.364  1.00  0.00     0.004 A 
ATOM     13  C   UNL     1      -1.766  -0.489   4.008  1.00  0.00     0.005 A 
ATOM     14  C   UNL     1      -1.605  -2.251   2.376  1.00  0.00     0.005 A 
BRANCH  10  15
ATOM     15  C   UNL     1      -1.020   1.070   0.605  1.00  0.00     0.038 C 
BRANCH  15  16
ATOM     16  C   UNL     1       0.505   1.307   0.500  1.00  0.00    -0.013 C 
ATOM     17  C   UNL     1       1.263   0.073  -0.004  1.00  0.00     0.008 C 
ATOM     18  C   UNL     1       0.795   2.487  -0.432  1.00  0.00     0.008 C 
ENDBRANCH  15  16
ENDBRANCH  10  15
ENDBRANCH   7   9
ENDBRANCH   5   7
ENDBRANCH   4   5
ENDBRANCH   3   4
ENDBRANCH   2   3
ENDBRANCH   1   2
BRANCH   1  19
ATOM     19  C   UNL     1      -5.358  -2.679   3.066  1.00  0.00     0.202 C 
BRANCH  19  20
ATOM     20  C   UNL     1      -5.604  -1.504   2.111  1.00  0.00     0.261 C 
BRANCH  20  21
ATOM     21  O   UNL     1      -5.497  -0.228   2.766  1.00  0.00    -0.460 OA
BRANCH  21  22
ATOM     22  C   UNL     1      -6.670   0.430   2.911  1.00  0.00     0.338 C 
ATOM     23  O   UNL     1      -7.764   0.077   2.487  1.00  0.00    -0.246 OA
BRANCH  22  24
ATOM     24  C   UNL     1      -6.513   1.579   3.824  1.00  0.00     0.060 A 
ATOM     25  C   UNL     1      -7.462   1.714   4.845  1.00  0.00     0.016 A 
ATOM     26  C   UNL     1      -5.521   2.547   3.648  1.00  0.00     0.016 A 
ATOM     27  C   UNL     1      -7.464   2.850   5.651  1.00  0.00     0.010 A 
ATOM     28  C   UNL     1      -5.529   3.692   4.457  1.00  0.00     0.010 A 
ATOM     29  C   UNL     1      -6.526   3.868   5.434  1.00  0.00    -0.014 A 
BRANCH  29  30
ATOM     30  C   UNL     1      -6.710   5.168   6.131  1.00  0.00     0.031 A 
ATOM     31  C   UNL     1      -7.360   6.308   5.391  1.00  0.00     0.074 A 
ATOM     32  C   UNL     1      -6.383   5.304   7.430  1.00  0.00     0.049 A 
ATOM     33  N   UNL     1      -7.658   7.511   5.811  1.00  0.00    -0.248 NA
ATOM     34  C   UNL     1      -7.725   6.055   3.988  1.00  0.00     0.031 C 
ATOM     35  C   UNL     1      -5.793   4.258   8.265  1.00  0.00     0.029 A 
ATOM     36  N   UNL     1      -6.514   6.375   8.278  1.00  0.00    -0.354 N 
ATOM     37  C   UNL     1      -8.255   8.155   4.732  1.00  0.00     0.074 A 
ATOM     38  C   UNL     1      -8.231   7.223   3.624  1.00  0.00     0.031 C 
ATOM     39  C   UNL     1      -5.615   4.740   9.507  1.00  0.00     0.029 A 
ATOM     40  C   UNL     1      -6.051   6.134   9.551  1.00  0.00     0.049 A 
ATOM     41  H   UNL     1      -6.903   7.237   8.002  1.00  0.00     0.167 HD
ATOM     42  C   UNL     1      -8.787   9.401   4.673  1.00  0.00     0.034 A 
ATOM     43  C   UNL     1      -5.978   6.949  10.624  1.00  0.00     0.034 A 
ATOM     44  C   UNL     1      -8.794  10.327   5.780  1.00  0.00     0.049 A 
ATOM     45  C   UNL     1      -6.509   8.359  10.509  1.00  0.00     0.074 A 
ATOM     46  C   UNL     1      -9.291  11.618   5.822  1.00  0.00     0.029 A 
ATOM     47  N   UNL     1      -8.276  10.062   7.041  1.00  0.00    -0.354 N 
ATOM     48  N   UNL     1      -7.070   8.953   9.479  1.00  0.00    -0.248 NA
ATOM     49  C   UNL     1      -6.413   9.202  11.708  1.00  0.00     0.031 C 
ATOM     50  C   UNL     1      -9.020  12.154   7.086  1.00  0.00     0.029 A 
ATOM     51  C   UNL     1      -8.422  11.173   7.859  1.00  0.00     0.049 A 
ATOM     52  H   UNL     1      -7.864   9.211   7.314  1.00  0.00     0.167 HD
ATOM     53  C   UNL     1      -7.428  10.224   9.924  1.00  0.00     0.074 A 
ATOM     54  C   UNL     1      -7.039  10.301  11.317  1.00  0.00     0.031 C 
ATOM     55  C   UNL     1      -8.027  11.237   9.247  1.00  0.00     0.034 A 
BRANCH  42  56
ATOM     56  C   UNL     1      -9.366   9.846   3.352  1.00  0.00     0.023 A 
ATOM     57  C   UNL     1     -10.507   9.236   2.801  1.00  0.00     0.031 A 
ATOM     58  C   UNL     1      -8.762  10.889   2.627  1.00  0.00     0.131 A 
ATOM     59  C   UNL     1     -10.975   9.636   1.540  1.00  0.00     0.055 A 
ATOM     60  C   UNL     1      -9.275  11.331   1.406  1.00  0.00     0.041 A 
ATOM     61  F   UNL     1      -7.657  11.493   3.092  1.00  0.00    -0.206 F 
ATOM     62  C   UNL     1     -10.382  10.697   0.850  1.00  0.00     0.022 A 
BRANCH  59  63
ATOM     63  S   UNL     1     -12.299   8.675   0.757  1.00  0.00     0.124 S 
ATOM     64  O   UNL     1     -11.681   7.356   0.648  1.00  0.00    -0.237 OA
ATOM     65  O   UNL     1     -13.388   8.794   1.720  1.00  0.00    -0.237 OA
ATOM     66  O   UNL     1     -12.514   9.361  -0.515  1.00  0.00    -0.744 OA
ENDBRANCH  59  63
ENDBRANCH  42  56
BRANCH  43  67
ATOM     67  C   UNL     1      -5.355   6.481  11.898  1.00  0.00     0.023 A 
ATOM     68  C   UNL     1      -6.090   6.434  13.094  1.00  0.00     0.031 A 
ATOM     69  C   UNL     1      -3.987   6.162  11.953  1.00  0.00     0.131 A 
ATOM     70  C   UNL     1      -5.440   6.140  14.303  1.00  0.00     0.055 A 
ATOM     71  C   UNL     1      -3.358   5.810  13.149  1.00  0.00     0.041 A 
ATOM     72  F   UNL     1      -3.236   6.193  10.841  1.00  0.00    -0.206 F 
ATOM     73  C   UNL     1      -4.082   5.816  14.337  1.00  0.00     0.022 A 
BRANCH  70  74
ATOM     74  S   UNL     1      -6.371   6.305  15.852  1.00  0.00     0.124 S 
ATOM     75  O   UNL     1      -6.843   7.682  15.769  1.00  0.00    -0.237 OA
ATOM     76  O   UNL     1      -7.387   5.268  15.704  1.00  0.00    -0.237 OA
ATOM     77  O   UNL     1      -5.366   6.048  16.881  1.00  0.00    -0.744 OA
ENDBRANCH  70  74
ENDBRANCH  43  67
BRANCH  55  78
ATOM     78  C   UNL     1      -8.347  12.490  10.029  1.00  0.00     0.023 A 
ATOM     79  C   UNL     1      -7.337  13.305  10.571  1.00  0.00     0.031 A 
ATOM     80  C   UNL     1      -9.685  12.852  10.267  1.00  0.00     0.131 A 
ATOM     81  C   UNL     1      -7.679  14.394  11.386  1.00  0.00     0.055 A 
ATOM     82  C   UNL     1     -10.020  13.976  11.024  1.00  0.00     0.041 A 
ATOM     83  F   UNL     1     -10.691  12.112   9.774  1.00  0.00    -0.206 F 
ATOM     84  C   UNL     1      -9.014  14.744  11.604  1.00  0.00     0.022 A 
BRANCH  81  85
ATOM     85  S   UNL     1      -6.356  15.277  12.259  1.00  0.00     0.124 S 
ATOM     86  O   UNL     1      -5.696  14.197  12.985  1.00  0.00    -0.237 OA
ATOM     87  O   UNL     1      -5.595  15.863  11.159  1.00  0.00    -0.237 OA
ATOM     88  O   UNL     1      -7.076  16.237  13.094  1.00  0.00    -0.744 OA
ENDBRANCH  81  85
ENDBRANCH  55  78
ENDBRANCH  29  30
ENDBRANCH  22  24
ENDBRANCH  21  22
ENDBRANCH  20  21
ENDBRANCH  19  20
ENDBRANCH   1  19
TORSDOF 20
