REMARK SMILES O=C(OCCOCCOC(=O)c1ccc(-c2c3nc(c(-c4cc(S(=O)(=O)[O-])ccc4F)c4ccc([nH]4)c(-c4cc(S(=O)(=O)[O-])ccc4F)c4nc(c(-c5cc(S(=O)(=O)[O-])ccc5F)c5ccc2[nH]5)C=C4)C=C3)cc1)C1=Cc2c(ccc(Cl)c2Oc2ccccc2)O[C@H]1C(F)(F)F
REMARK SMILES IDX 7 1 6 2 5 3 4 4 3 5 2 6 1 7 75 8 76 9 92 10 77 11 91 12
REMARK SMILES IDX 78 13 83 14 79 15 81 16 80 17 82 18 93 19 94 20 95 21 96 22
REMARK SMILES IDX 84 23 85 24 86 25 90 26 87 27 89 28 88 29 8 30 9 31 10 32
REMARK SMILES IDX 11 33 12 34 13 35 74 36 14 37 73 38 15 39 16 40 17 41 67 42
REMARK SMILES IDX 18 43 72 44 66 45 68 46 19 47 71 48 65 49 64 50 20 52 52 53
REMARK SMILES IDX 32 54 51 55 33 56 36 57 50 58 69 59 34 60 35 61 49 63 70 64
REMARK SMILES IDX 37 65 21 66 22 67 30 68 23 69 29 70 31 71 28 72 24 73 25 74
REMARK SMILES IDX 26 75 27 76 53 77 54 78 62 79 55 80 61 81 63 82 60 83 56 84
REMARK SMILES IDX 57 85 58 86 59 87 38 88 39 89 47 90 40 91 46 92 48 93 45 94
REMARK SMILES IDX 41 95 42 96 43 97 44 98
REMARK H PARENT 68 51 36 62
REMARK Flexibility Score: inf
ROOT
ATOM      1  C   UNL     1       3.633  -4.095   2.117  1.00  0.00     0.202 C 
ENDROOT
BRANCH   1   2
ATOM      2  O   UNL     1       3.650  -3.474   0.834  1.00  0.00    -0.374 OA
BRANCH   2   3
ATOM      3  C   UNL     1       2.696  -2.434   0.761  1.00  0.00     0.202 C 
BRANCH   3   4
ATOM      4  C   UNL     1       1.893  -2.312  -0.559  1.00  0.00     0.261 C 
BRANCH   4   5
ATOM      5  O   UNL     1       2.578  -2.646  -1.786  1.00  0.00    -0.460 OA
BRANCH   5   6
ATOM      6  C   UNL     1       2.814  -1.666  -2.698  1.00  0.00     0.338 C 
ATOM      7  O   UNL     1       2.395  -1.685  -3.854  1.00  0.00    -0.246 OA
BRANCH   6   8
ATOM      8  C   UNL     1       3.809  -0.662  -2.290  1.00  0.00     0.088 C 
ATOM      9  C   UNL     1       3.891  -0.409  -0.986  1.00  0.00     0.031 C 
ATOM     10  C   UNL     1       5.073  -0.503  -3.103  1.00  0.00     0.316 C 
ATOM     11  C   UNL     1       4.548   0.801  -0.588  1.00  0.00     0.062 A 
ATOM     12  O   UNL     1       6.110   0.282  -2.398  1.00  0.00    -0.475 OA
ATOM     13  C   UNL     1       5.729   1.049  -1.315  1.00  0.00     0.131 A 
ATOM     14  C   UNL     1       4.154   1.556   0.531  1.00  0.00     0.156 A 
ATOM     15  C   UNL     1       6.608   2.016  -0.854  1.00  0.00     0.049 A 
ATOM     16  C   UNL     1       5.024   2.582   0.911  1.00  0.00     0.084 A 
ATOM     17  C   UNL     1       6.250   2.786   0.258  1.00  0.00     0.028 A 
ATOM     18  Cl  UNL     1       4.607   3.609   2.229  1.00  0.00    -0.080 Cl
BRANCH  10  19
ATOM     19  C   UNL     1       5.641  -1.893  -3.523  1.00  0.00     0.430 C 
ATOM     20  F   UNL     1       5.202  -2.903  -2.735  1.00  0.00    -0.167 F 
ATOM     21  F   UNL     1       5.284  -2.201  -4.795  1.00  0.00    -0.167 F 
ATOM     22  F   UNL     1       6.993  -1.938  -3.479  1.00  0.00    -0.167 F 
ENDBRANCH  10  19
BRANCH  14  23
ATOM     23  O   UNL     1       3.188   1.253   1.479  1.00  0.00    -0.455 OA
BRANCH  23  24
ATOM     24  C   UNL     1       1.904   0.827   1.259  1.00  0.00     0.127 A 
ATOM     25  C   UNL     1       1.027   1.281   0.283  1.00  0.00     0.047 A 
ATOM     26  C   UNL     1       1.418  -0.088   2.211  1.00  0.00     0.047 A 
ATOM     27  C   UNL     1      -0.256   0.704   0.175  1.00  0.00     0.004 A 
ATOM     28  C   UNL     1       0.168  -0.703   2.075  1.00  0.00     0.004 A 
ATOM     29  C   UNL     1      -0.663  -0.326   1.032  1.00  0.00     0.000 A 
ENDBRANCH  23  24
ENDBRANCH  14  23
ENDBRANCH   6   8
ENDBRANCH   5   6
ENDBRANCH   4   5
ENDBRANCH   3   4
ENDBRANCH   2   3
ENDBRANCH   1   2
BRANCH   1  30
ATOM     30  C   UNL     1       3.924  -3.294   3.424  1.00  0.00     0.261 C 
BRANCH  30  31
ATOM     31  O   UNL     1       4.052  -1.853   3.429  1.00  0.00    -0.460 OA
BRANCH  31  32
ATOM     32  C   UNL     1       5.328  -1.401   3.604  1.00  0.00     0.338 C 
ATOM     33  O   UNL     1       6.321  -2.076   3.366  1.00  0.00    -0.246 OA
BRANCH  32  34
ATOM     34  C   UNL     1       5.453  -0.017   4.194  1.00  0.00     0.060 A 
ATOM     35  C   UNL     1       6.708   0.604   4.084  1.00  0.00     0.016 A 
ATOM     36  C   UNL     1       4.479   0.619   4.978  1.00  0.00     0.016 A 
ATOM     37  C   UNL     1       7.014   1.783   4.785  1.00  0.00     0.010 A 
ATOM     38  C   UNL     1       4.785   1.819   5.679  1.00  0.00     0.010 A 
ATOM     39  C   UNL     1       6.074   2.387   5.630  1.00  0.00    -0.014 A 
BRANCH  39  40
ATOM     40  C   UNL     1       6.560   3.445   6.586  1.00  0.00     0.031 A 
ATOM     41  C   UNL     1       6.929   3.031   7.993  1.00  0.00     0.074 A 
ATOM     42  C   UNL     1       6.821   4.713   6.202  1.00  0.00     0.049 A 
ATOM     43  N   UNL     1       7.571   3.699   8.921  1.00  0.00    -0.248 NA
ATOM     44  C   UNL     1       6.532   1.676   8.398  1.00  0.00     0.031 C 
ATOM     45  C   UNL     1       6.555   5.257   4.878  1.00  0.00     0.029 A 
ATOM     46  N   UNL     1       7.394   5.773   6.875  1.00  0.00    -0.354 N 
ATOM     47  C   UNL     1       7.683   2.833  10.006  1.00  0.00     0.074 A 
ATOM     48  C   UNL     1       6.985   1.619   9.641  1.00  0.00     0.031 C 
ATOM     49  C   UNL     1       6.968   6.534   4.820  1.00  0.00     0.029 A 
ATOM     50  C   UNL     1       7.535   6.914   6.111  1.00  0.00     0.049 A 
ATOM     51  H   UNL     1       7.676   5.720   7.817  1.00  0.00     0.167 HD
ATOM     52  C   UNL     1       8.325   3.016  11.189  1.00  0.00     0.034 A 
ATOM     53  C   UNL     1       8.072   8.120   6.400  1.00  0.00     0.034 A 
ATOM     54  C   UNL     1       8.985   4.243  11.570  1.00  0.00     0.049 A 
ATOM     55  C   UNL     1       8.705   8.333   7.756  1.00  0.00     0.074 A 
ATOM     56  C   UNL     1       9.652   4.536  12.748  1.00  0.00     0.029 A 
ATOM     57  N   UNL     1       9.042   5.391  10.790  1.00  0.00    -0.354 N 
ATOM     58  N   UNL     1       8.844   7.483   8.748  1.00  0.00    -0.248 NA
ATOM     59  C   UNL     1       9.279   9.660   8.020  1.00  0.00     0.031 C 
ATOM     60  C   UNL     1      10.041   5.880  12.712  1.00  0.00     0.029 A 
ATOM     61  C   UNL     1       9.700   6.403  11.476  1.00  0.00     0.049 A 
ATOM     62  H   UNL     1       8.669   5.476   9.883  1.00  0.00     0.167 HD
ATOM     63  C   UNL     1       9.563   8.160   9.731  1.00  0.00     0.074 A 
ATOM     64  C   UNL     1       9.837   9.482   9.208  1.00  0.00     0.031 C 
ATOM     65  C   UNL     1       9.969   7.723  10.952  1.00  0.00     0.034 A 
BRANCH  52  66
ATOM     66  C   UNL     1       8.286   1.869  12.174  1.00  0.00     0.023 A 
ATOM     67  C   UNL     1       8.872   0.623  11.883  1.00  0.00     0.031 A 
ATOM     68  C   UNL     1       7.606   2.003  13.397  1.00  0.00     0.131 A 
ATOM     69  C   UNL     1       8.690  -0.460  12.758  1.00  0.00     0.055 A 
ATOM     70  C   UNL     1       7.503   0.946  14.304  1.00  0.00     0.041 A 
ATOM     71  F   UNL     1       7.007   3.160  13.723  1.00  0.00    -0.206 F 
ATOM     72  C   UNL     1       8.031  -0.300  13.979  1.00  0.00     0.022 A 
BRANCH  69  73
ATOM     73  S   UNL     1       9.179  -2.117  12.204  1.00  0.00     0.124 S 
ATOM     74  O   UNL     1       8.381  -2.269  10.989  1.00  0.00    -0.237 OA
ATOM     75  O   UNL     1      10.617  -1.976  12.012  1.00  0.00    -0.237 OA
ATOM     76  O   UNL     1       8.778  -2.982  13.313  1.00  0.00    -0.744 OA
ENDBRANCH  69  73
ENDBRANCH  52  66
BRANCH  53  77
ATOM     77  C   UNL     1       8.045   9.237   5.401  1.00  0.00     0.023 A 
ATOM     78  C   UNL     1       9.228   9.809   4.898  1.00  0.00     0.031 A 
ATOM     79  C   UNL     1       6.823   9.803   4.995  1.00  0.00     0.131 A 
ATOM     80  C   UNL     1       9.164  10.938   4.062  1.00  0.00     0.055 A 
ATOM     81  C   UNL     1       6.763  10.892   4.121  1.00  0.00     0.041 A 
ATOM     82  F   UNL     1       5.661   9.306   5.448  1.00  0.00    -0.206 F 
ATOM     83  C   UNL     1       7.939  11.475   3.660  1.00  0.00     0.022 A 
BRANCH  80  84
ATOM     84  S   UNL     1      10.709  11.761   3.577  1.00  0.00     0.124 S 
ATOM     85  O   UNL     1      11.289  12.093   4.873  1.00  0.00    -0.237 OA
ATOM     86  O   UNL     1      11.385  10.713   2.820  1.00  0.00    -0.237 OA
ATOM     87  O   UNL     1      10.254  12.902   2.785  1.00  0.00    -0.744 OA
ENDBRANCH  80  84
ENDBRANCH  53  77
BRANCH  65  88
ATOM     88  C   UNL     1      10.810   8.667  11.781  1.00  0.00     0.023 A 
ATOM     89  C   UNL     1      10.310   9.891  12.259  1.00  0.00     0.031 A 
ATOM     90  C   UNL     1      12.148   8.344  12.075  1.00  0.00     0.131 A 
ATOM     91  C   UNL     1      11.159  10.777  12.941  1.00  0.00     0.055 A 
ATOM     92  C   UNL     1      12.968   9.198  12.815  1.00  0.00     0.041 A 
ATOM     93  F   UNL     1      12.684   7.191  11.643  1.00  0.00    -0.206 F 
ATOM     94  C   UNL     1      12.480  10.431  13.237  1.00  0.00     0.022 A 
BRANCH  91  95
ATOM     95  S   UNL     1      10.552  12.442  13.329  1.00  0.00     0.124 S 
ATOM     96  O   UNL     1      10.145  12.931  12.016  1.00  0.00    -0.237 OA
ATOM     97  O   UNL     1       9.470  12.167  14.270  1.00  0.00    -0.237 OA
ATOM     98  O   UNL     1      11.719  13.108  13.905  1.00  0.00    -0.744 OA
ENDBRANCH  91  95
ENDBRANCH  65  88
ENDBRANCH  39  40
ENDBRANCH  32  34
ENDBRANCH  31  32
ENDBRANCH  30  31
ENDBRANCH   1  30
TORSDOF 20
