REMARK SMILES O=C(/C=C/c1ccc(NC(=O)[C@@H]2COc3ccccc3C2)cc1)OCCOCCOC(=O)c1ccc(-c2c3nc(c(-c4cc(S(=O)(=O)[O-])ccc4F)c4ccc([nH]4)c(-c4cc(S(=O)(=O)[O-])ccc4F)c4nc(c(-c5cc(S(=O)(=O)[O-])ccc5F)c5ccc2[nH]5)C=C4)C=C3)cc1
REMARK SMILES IDX 27 1 26 2 25 3 24 4 2 5 1 6 3 7 4 8 5 9 6 10 23 11 7 12
REMARK SMILES IDX 22 13 8 14 9 15 10 16 11 18 12 19 13 20 21 21 14 22 20 23
REMARK SMILES IDX 15 24 19 25 16 26 18 27 17 28 28 29 29 30 30 31 31 32 32 33
REMARK SMILES IDX 33 34 34 35 95 36 35 37 94 38 36 39 37 40 38 41 88 42 39 43
REMARK SMILES IDX 93 44 87 45 89 46 40 47 92 48 86 49 85 50 41 52 73 53 53 54
REMARK SMILES IDX 72 55 54 56 57 57 71 58 90 59 55 60 56 61 70 63 91 64 58 65
REMARK SMILES IDX 42 66 43 67 51 68 44 69 50 70 52 71 49 72 45 73 46 74 47 75
REMARK SMILES IDX 48 76 74 77 75 78 83 79 76 80 82 81 84 82 81 83 77 84 78 85
REMARK SMILES IDX 79 86 80 87 59 88 60 89 68 90 61 91 67 92 69 93 66 94 62 95
REMARK SMILES IDX 63 96 64 97 65 98
REMARK H PARENT 9 17 89 51 57 62
REMARK Flexibility Score: inf
ROOT
ATOM      1  O   UNL     1       8.796  10.224  -0.007  1.00  0.00    -0.374 OA
ENDROOT
BRANCH   1   2
ATOM      2  C   UNL     1       8.998  10.152   1.402  1.00  0.00     0.202 C 
BRANCH   2   3
ATOM      3  C   UNL     1      10.427  10.353   1.902  1.00  0.00     0.261 C 
BRANCH   3   4
ATOM      4  O   UNL     1      11.082  11.554   1.442  1.00  0.00    -0.460 OA
BRANCH   4   5
ATOM      5  C   UNL     1      11.669  11.770   0.242  1.00  0.00     0.330 C 
ATOM      6  O   UNL     1      12.161  12.862  -0.031  1.00  0.00    -0.247 OA
BRANCH   5   7
ATOM      7  C   UNL     1      11.585  10.753  -0.814  1.00  0.00     0.094 C 
ATOM      8  C   UNL     1      11.892   9.464  -0.647  1.00  0.00     0.015 C 
BRANCH   8   9
ATOM      9  C   UNL     1      11.612   8.444  -1.649  1.00  0.00    -0.025 A 
ATOM     10  C   UNL     1      10.671   7.457  -1.334  1.00  0.00     0.010 A 
ATOM     11  C   UNL     1      12.325   8.372  -2.844  1.00  0.00     0.010 A 
ATOM     12  C   UNL     1      10.498   6.362  -2.173  1.00  0.00     0.027 A 
ATOM     13  C   UNL     1      12.153   7.271  -3.684  1.00  0.00     0.027 A 
ATOM     14  C   UNL     1      11.246   6.262  -3.344  1.00  0.00     0.041 A 
BRANCH  14  15
ATOM     15  N   UNL     1      11.213   5.105  -4.128  1.00  0.00    -0.326 N 
ATOM     16  C   UNL     1      10.234   4.140  -4.154  1.00  0.00     0.231 C 
ATOM     17  H   UNL     1      11.979   4.965  -4.730  1.00  0.00     0.169 HD
ATOM     18  O   UNL     1      10.558   2.953  -4.104  1.00  0.00    -0.274 OA
BRANCH  16  19
ATOM     19  C   UNL     1       8.893   4.589  -4.714  1.00  0.00     0.121 C 
ATOM     20  C   UNL     1       7.989   5.619  -4.045  1.00  0.00     0.243 C 
ATOM     21  C   UNL     1       7.960   3.425  -5.067  1.00  0.00     0.056 C 
ATOM     22  O   UNL     1       6.976   6.119  -4.954  1.00  0.00    -0.492 OA
ATOM     23  C   UNL     1       7.119   4.009  -6.169  1.00  0.00    -0.005 A 
ATOM     24  C   UNL     1       6.754   5.362  -6.078  1.00  0.00     0.122 A 
ATOM     25  C   UNL     1       6.933   3.310  -7.363  1.00  0.00     0.007 A 
ATOM     26  C   UNL     1       6.298   6.036  -7.204  1.00  0.00     0.047 A 
ATOM     27  C   UNL     1       6.501   3.997  -8.495  1.00  0.00     0.001 A 
ATOM     28  C   UNL     1       6.212   5.362  -8.422  1.00  0.00     0.004 A 
ENDBRANCH  16  19
ENDBRANCH  14  15
ENDBRANCH   8   9
ENDBRANCH   5   7
ENDBRANCH   4   5
ENDBRANCH   3   4
ENDBRANCH   2   3
ENDBRANCH   1   2
BRANCH   1  29
ATOM     29  C   UNL     1       8.394  11.514  -0.484  1.00  0.00     0.202 C 
BRANCH  29  30
ATOM     30  C   UNL     1       6.889  11.808  -0.405  1.00  0.00     0.261 C 
BRANCH  30  31
ATOM     31  O   UNL     1       6.407  11.764   0.947  1.00  0.00    -0.460 OA
BRANCH  31  32
ATOM     32  C   UNL     1       5.833  10.587   1.300  1.00  0.00     0.338 C 
ATOM     33  O   UNL     1       5.555   9.658   0.556  1.00  0.00    -0.246 OA
BRANCH  32  34
ATOM     34  C   UNL     1       5.802  10.478   2.775  1.00  0.00     0.060 A 
ATOM     35  C   UNL     1       6.154   9.242   3.332  1.00  0.00     0.016 A 
ATOM     36  C   UNL     1       5.463  11.554   3.601  1.00  0.00     0.016 A 
ATOM     37  C   UNL     1       6.120   9.062   4.711  1.00  0.00     0.010 A 
ATOM     38  C   UNL     1       5.423  11.370   4.987  1.00  0.00     0.010 A 
ATOM     39  C   UNL     1       5.716  10.113   5.545  1.00  0.00    -0.014 A 
BRANCH  39  40
ATOM     40  C   UNL     1       5.444   9.829   6.975  1.00  0.00     0.031 A 
ATOM     41  C   UNL     1       4.016   9.641   7.410  1.00  0.00     0.074 A 
ATOM     42  C   UNL     1       6.454   9.672   7.850  1.00  0.00     0.049 A 
ATOM     43  N   UNL     1       3.537   9.382   8.599  1.00  0.00    -0.248 NA
ATOM     44  C   UNL     1       2.990   9.763   6.362  1.00  0.00     0.031 C 
ATOM     45  C   UNL     1       7.876   9.788   7.525  1.00  0.00     0.029 A 
ATOM     46  N   UNL     1       6.439   9.375   9.189  1.00  0.00    -0.354 N 
ATOM     47  C   UNL     1       2.157   9.300   8.441  1.00  0.00     0.074 A 
ATOM     48  C   UNL     1       1.873   9.589   7.052  1.00  0.00     0.031 C 
ATOM     49  C   UNL     1       8.597   9.568   8.638  1.00  0.00     0.029 A 
ATOM     50  C   UNL     1       7.690   9.334   9.760  1.00  0.00     0.049 A 
ATOM     51  H   UNL     1       5.611   9.207   9.694  1.00  0.00     0.167 HD
ATOM     52  C   UNL     1       1.216   8.994   9.367  1.00  0.00     0.034 A 
ATOM     53  C   UNL     1       8.056   9.152  11.046  1.00  0.00     0.034 A 
ATOM     54  C   UNL     1       1.516   8.724  10.751  1.00  0.00     0.049 A 
ATOM     55  C   UNL     1       6.977   8.903  12.076  1.00  0.00     0.074 A 
ATOM     56  C   UNL     1       0.642   8.414  11.778  1.00  0.00     0.029 A 
ATOM     57  N   UNL     1       2.789   8.740  11.306  1.00  0.00    -0.354 N 
ATOM     58  N   UNL     1       5.676   8.822  11.911  1.00  0.00    -0.248 NA
ATOM     59  C   UNL     1       7.420   8.705  13.461  1.00  0.00     0.031 C 
ATOM     60  C   UNL     1       1.376   8.316  12.964  1.00  0.00     0.029 A 
ATOM     61  C   UNL     1       2.720   8.475  12.666  1.00  0.00     0.049 A 
ATOM     62  H   UNL     1       3.620   8.913  10.807  1.00  0.00     0.167 HD
ATOM     63  C   UNL     1       5.151   8.534  13.169  1.00  0.00     0.074 A 
ATOM     64  C   UNL     1       6.279   8.421  14.070  1.00  0.00     0.031 C 
ATOM     65  C   UNL     1       3.856   8.381  13.552  1.00  0.00     0.034 A 
BRANCH  52  66
ATOM     66  C   UNL     1      -0.225   8.977   8.918  1.00  0.00     0.023 A 
ATOM     67  C   UNL     1      -0.696   8.043   7.978  1.00  0.00     0.031 A 
ATOM     68  C   UNL     1      -1.142   9.910   9.434  1.00  0.00     0.131 A 
ATOM     69  C   UNL     1      -2.030   8.095   7.546  1.00  0.00     0.055 A 
ATOM     70  C   UNL     1      -2.486   9.909   9.056  1.00  0.00     0.041 A 
ATOM     71  F   UNL     1      -0.744  10.845  10.312  1.00  0.00    -0.206 F 
ATOM     72  C   UNL     1      -2.935   9.004   8.099  1.00  0.00     0.022 A 
BRANCH  69  73
ATOM     73  S   UNL     1      -2.537   7.038   6.162  1.00  0.00     0.124 S 
ATOM     74  O   UNL     1      -1.647   7.499   5.098  1.00  0.00    -0.237 OA
ATOM     75  O   UNL     1      -2.279   5.699   6.676  1.00  0.00    -0.237 OA
ATOM     76  O   UNL     1      -3.947   7.374   5.974  1.00  0.00    -0.744 OA
ENDBRANCH  69  73
ENDBRANCH  52  66
BRANCH  53  77
ATOM     77  C   UNL     1       9.489   9.245  11.455  1.00  0.00     0.023 A 
ATOM     78  C   UNL     1      10.144   8.170  12.077  1.00  0.00     0.031 A 
ATOM     79  C   UNL     1      10.201  10.450  11.312  1.00  0.00     0.131 A 
ATOM     80  C   UNL     1      11.440   8.341  12.592  1.00  0.00     0.055 A 
ATOM     81  C   UNL     1      11.515  10.593  11.763  1.00  0.00     0.041 A 
ATOM     82  F   UNL     1       9.626  11.515  10.730  1.00  0.00    -0.206 F 
ATOM     83  C   UNL     1      12.135   9.540  12.425  1.00  0.00     0.022 A 
BRANCH  80  84
ATOM     84  S   UNL     1      12.155   7.011  13.599  1.00  0.00     0.124 S 
ATOM     85  O   UNL     1      11.139   6.843  14.632  1.00  0.00    -0.237 OA
ATOM     86  O   UNL     1      12.271   5.928  12.629  1.00  0.00    -0.237 OA
ATOM     87  O   UNL     1      13.424   7.576  14.055  1.00  0.00    -0.744 OA
ENDBRANCH  80  84
ENDBRANCH  53  77
BRANCH  65  88
ATOM     88  C   UNL     1       3.610   8.037  15.003  1.00  0.00     0.023 A 
ATOM     89  C   UNL     1       3.965   8.917  16.040  1.00  0.00     0.031 A 
ATOM     90  C   UNL     1       3.052   6.795  15.356  1.00  0.00     0.131 A 
ATOM     91  C   UNL     1       3.845   8.509  17.376  1.00  0.00     0.055 A 
ATOM     92  C   UNL     1       2.858   6.427  16.688  1.00  0.00     0.041 A 
ATOM     93  F   UNL     1       2.694   5.911  14.410  1.00  0.00    -0.206 F 
ATOM     94  C   UNL     1       3.275   7.277  17.708  1.00  0.00     0.022 A 
BRANCH  91  95
ATOM     95  S   UNL     1       4.576   9.550  18.669  1.00  0.00     0.124 S 
ATOM     96  O   UNL     1       5.963   9.649  18.227  1.00  0.00    -0.237 OA
ATOM     97  O   UNL     1       3.786  10.773  18.568  1.00  0.00    -0.237 OA
ATOM     98  O   UNL     1       4.367   8.776  19.891  1.00  0.00    -0.744 OA
ENDBRANCH  91  95
ENDBRANCH  65  88
ENDBRANCH  39  40
ENDBRANCH  32  34
ENDBRANCH  31  32
ENDBRANCH  30  31
ENDBRANCH  29  30
ENDBRANCH   1  29
TORSDOF 20
