REMARK SMILES CC[C@]1(C(=O)OCCOCCOC(=O)c2ccc(-c3c4nc(c(-c5cc(S(=O)(=O)[O-])ccc5F)c5ccc([nH]5)c(-c5cc(S(=O)(=O)[O-])ccc5F)c5nc(c(-c6cc(S(=O)(=O)[O-])ccc6F)c6ccc3[nH]6)C=C5)C=C4)cc2)CCN(C(=O)[C@]2(C)CCCO2)C1
REMARK SMILES IDX 10 1 9 2 8 3 7 4 6 5 4 6 5 7 3 8 78 9 89 10 79 11 80 12 2 13
REMARK SMILES IDX 1 14 81 15 82 16 83 17 85 18 88 19 84 20 86 21 87 22 11 23
REMARK SMILES IDX 12 24 13 25 14 26 15 27 16 28 77 29 17 30 76 31 18 32 19 33
REMARK SMILES IDX 20 34 70 35 21 36 75 37 69 38 71 39 22 40 74 41 68 42 67 43
REMARK SMILES IDX 23 45 55 46 35 47 54 48 36 49 39 50 53 51 72 52 37 53 38 54
REMARK SMILES IDX 52 56 73 57 40 58 24 59 25 60 33 61 26 62 32 63 34 64 31 65
REMARK SMILES IDX 27 66 28 67 29 68 30 69 56 70 57 71 65 72 58 73 64 74 66 75
REMARK SMILES IDX 63 76 59 77 60 78 61 79 62 80 41 81 42 82 50 83 43 84 49 85
REMARK SMILES IDX 51 86 48 87 44 88 45 89 46 90 47 91
REMARK H PARENT 71 44 39 55
REMARK Flexibility Score: inf
ROOT
ATOM      1  C   UNL     1      -0.531  12.634   6.816  1.00  0.00     0.202 C 
ENDROOT
BRANCH   1   2
ATOM      2  O   UNL     1      -1.734  13.391   6.718  1.00  0.00    -0.374 OA
BRANCH   2   3
ATOM      3  C   UNL     1      -2.875  12.772   6.127  1.00  0.00     0.202 C 
BRANCH   3   4
ATOM      4  C   UNL     1      -2.872  12.547   4.613  1.00  0.00     0.261 C 
BRANCH   4   5
ATOM      5  O   UNL     1      -1.709  11.827   4.180  1.00  0.00    -0.463 OA
BRANCH   5   6
ATOM      6  C   UNL     1      -0.871  12.520   3.368  1.00  0.00     0.314 C 
ATOM      7  O   UNL     1      -1.112  13.627   2.899  1.00  0.00    -0.252 OA
BRANCH   6   8
ATOM      8  C   UNL     1       0.420  11.769   3.066  1.00  0.00     0.087 C 
ATOM      9  C   UNL     1       0.852  10.649   4.041  1.00  0.00     0.042 C 
ATOM     10  C   UNL     1       0.136  10.975   1.766  1.00  0.00     0.138 C 
ATOM     11  C   UNL     1       1.577   9.682   3.122  1.00  0.00     0.121 C 
ATOM     12  N   UNL     1       0.687   9.641   1.994  1.00  0.00    -0.339 N 
BRANCH   8  13
ATOM     13  C   UNL     1       1.569  12.805   2.911  1.00  0.00     0.017 C 
ATOM     14  C   UNL     1       1.872  13.600   4.186  1.00  0.00     0.005 C 
ENDBRANCH   8  13
BRANCH  12  15
ATOM     15  C   UNL     1       0.219   8.542   1.299  1.00  0.00     0.254 C 
ATOM     16  O   UNL     1      -0.651   8.698   0.434  1.00  0.00    -0.272 OA
BRANCH  15  17
ATOM     17  C   UNL     1       0.748   7.106   1.644  1.00  0.00     0.144 C 
ATOM     18  C   UNL     1       0.084   6.511   2.898  1.00  0.00     0.048 C 
ATOM     19  O   UNL     1       2.169   7.070   1.863  1.00  0.00    -0.365 OA
ATOM     20  C   UNL     1       0.448   6.195   0.440  1.00  0.00     0.053 C 
ATOM     21  C   UNL     1       1.208   6.284   3.882  1.00  0.00     0.032 C 
ATOM     22  C   UNL     1       2.445   6.264   3.013  1.00  0.00     0.162 C 
ENDBRANCH  15  17
ENDBRANCH  12  15
ENDBRANCH   6   8
ENDBRANCH   5   6
ENDBRANCH   4   5
ENDBRANCH   3   4
ENDBRANCH   2   3
ENDBRANCH   1   2
BRANCH   1  23
ATOM     23  C   UNL     1      -0.459  11.463   7.807  1.00  0.00     0.261 C 
BRANCH  23  24
ATOM     24  O   UNL     1      -1.416  10.427   7.547  1.00  0.00    -0.460 OA
BRANCH  24  25
ATOM     25  C   UNL     1      -2.455  10.395   8.418  1.00  0.00     0.338 C 
ATOM     26  O   UNL     1      -2.627  11.127   9.385  1.00  0.00    -0.246 OA
BRANCH  25  27
ATOM     27  C   UNL     1      -3.484   9.466   7.925  1.00  0.00     0.060 A 
ATOM     28  C   UNL     1      -4.779   9.963   7.719  1.00  0.00     0.016 A 
ATOM     29  C   UNL     1      -3.197   8.115   7.733  1.00  0.00     0.016 A 
ATOM     30  C   UNL     1      -5.808   9.098   7.354  1.00  0.00     0.010 A 
ATOM     31  C   UNL     1      -4.234   7.247   7.385  1.00  0.00     0.010 A 
ATOM     32  C   UNL     1      -5.547   7.730   7.228  1.00  0.00    -0.014 A 
BRANCH  32  33
ATOM     33  C   UNL     1      -6.664   6.761   7.135  1.00  0.00     0.031 A 
ATOM     34  C   UNL     1      -7.069   6.030   8.383  1.00  0.00     0.074 A 
ATOM     35  C   UNL     1      -7.282   6.522   5.966  1.00  0.00     0.049 A 
ATOM     36  N   UNL     1      -7.877   5.014   8.528  1.00  0.00    -0.248 NA
ATOM     37  C   UNL     1      -6.462   6.505   9.637  1.00  0.00     0.031 C 
ATOM     38  C   UNL     1      -7.019   7.225   4.712  1.00  0.00     0.029 A 
ATOM     39  N   UNL     1      -8.245   5.600   5.642  1.00  0.00    -0.354 N 
ATOM     40  C   UNL     1      -7.860   4.711   9.885  1.00  0.00     0.074 A 
ATOM     41  C   UNL     1      -6.938   5.633  10.513  1.00  0.00     0.031 C 
ATOM     42  C   UNL     1      -7.785   6.689   3.745  1.00  0.00     0.029 A 
ATOM     43  C   UNL     1      -8.547   5.572   4.300  1.00  0.00     0.049 A 
ATOM     44  H   UNL     1      -8.677   5.015   6.305  1.00  0.00     0.167 HD
ATOM     45  C   UNL     1      -8.551   3.748  10.542  1.00  0.00     0.034 A 
ATOM     46  C   UNL     1      -9.313   4.711   3.599  1.00  0.00     0.034 A 
ATOM     47  C   UNL     1      -9.456   2.836   9.888  1.00  0.00     0.049 A 
ATOM     48  C   UNL     1      -9.999   3.582   4.334  1.00  0.00     0.074 A 
ATOM     49  C   UNL     1     -10.212   1.821  10.447  1.00  0.00     0.029 A 
ATOM     50  N   UNL     1      -9.719   2.821   8.523  1.00  0.00    -0.354 N 
ATOM     51  N   UNL     1      -9.960   3.283   5.613  1.00  0.00    -0.248 NA
ATOM     52  C   UNL     1     -10.834   2.676   3.534  1.00  0.00     0.031 C 
ATOM     53  C   UNL     1     -10.868   1.145   9.414  1.00  0.00     0.029 A 
ATOM     54  C   UNL     1     -10.601   1.797   8.220  1.00  0.00     0.049 A 
ATOM     55  H   UNL     1      -9.335   3.447   7.868  1.00  0.00     0.167 HD
ATOM     56  C   UNL     1     -10.804   2.186   5.775  1.00  0.00     0.074 A 
ATOM     57  C   UNL     1     -11.332   1.873   4.463  1.00  0.00     0.031 C 
ATOM     58  C   UNL     1     -11.126   1.508   6.906  1.00  0.00     0.034 A 
BRANCH  45  59
ATOM     59  C   UNL     1      -8.300   3.598  12.023  1.00  0.00     0.023 A 
ATOM     60  C   UNL     1      -8.600   4.623  12.937  1.00  0.00     0.031 A 
ATOM     61  C   UNL     1      -7.716   2.421  12.525  1.00  0.00     0.131 A 
ATOM     62  C   UNL     1      -8.247   4.482  14.288  1.00  0.00     0.055 A 
ATOM     63  C   UNL     1      -7.449   2.252  13.885  1.00  0.00     0.041 A 
ATOM     64  F   UNL     1      -7.380   1.417  11.699  1.00  0.00    -0.206 F 
ATOM     65  C   UNL     1      -7.700   3.292  14.773  1.00  0.00     0.022 A 
BRANCH  62  66
ATOM     66  S   UNL     1      -8.370   5.932  15.371  1.00  0.00     0.124 S 
ATOM     67  O   UNL     1      -7.500   6.886  14.686  1.00  0.00    -0.237 OA
ATOM     68  O   UNL     1      -9.797   6.231  15.338  1.00  0.00    -0.237 OA
ATOM     69  O   UNL     1      -7.863   5.447  16.652  1.00  0.00    -0.744 OA
ENDBRANCH  62  66
ENDBRANCH  45  59
BRANCH  46  70
ATOM     70  C   UNL     1      -9.439   4.844   2.119  1.00  0.00     0.023 A 
ATOM     71  C   UNL     1     -10.682   5.095   1.518  1.00  0.00     0.031 A 
ATOM     72  C   UNL     1      -8.325   4.669   1.277  1.00  0.00     0.131 A 
ATOM     73  C   UNL     1     -10.792   5.114   0.119  1.00  0.00     0.055 A 
ATOM     74  C   UNL     1      -8.429   4.750  -0.112  1.00  0.00     0.041 A 
ATOM     75  F   UNL     1      -7.112   4.421   1.798  1.00  0.00    -0.206 F 
ATOM     76  C   UNL     1      -9.672   4.960  -0.700  1.00  0.00     0.022 A 
BRANCH  73  77
ATOM     77  S   UNL     1     -12.445   5.242  -0.618  1.00  0.00     0.124 S 
ATOM     78  O   UNL     1     -13.115   4.082  -0.042  1.00  0.00    -0.237 OA
ATOM     79  O   UNL     1     -12.890   6.545  -0.136  1.00  0.00    -0.237 OA
ATOM     80  O   UNL     1     -12.184   5.166  -2.053  1.00  0.00    -0.744 OA
ENDBRANCH  73  77
ENDBRANCH  46  70
BRANCH  58  81
ATOM     81  C   UNL     1     -12.164   0.417   6.796  1.00  0.00     0.023 A 
ATOM     82  C   UNL     1     -11.924  -0.784   6.108  1.00  0.00     0.031 A 
ATOM     83  C   UNL     1     -13.412   0.581   7.427  1.00  0.00     0.131 A 
ATOM     84  C   UNL     1     -12.931  -1.760   6.037  1.00  0.00     0.055 A 
ATOM     85  C   UNL     1     -14.386  -0.416   7.404  1.00  0.00     0.041 A 
ATOM     86  F   UNL     1     -13.695   1.710   8.096  1.00  0.00    -0.206 F 
ATOM     87  C   UNL     1     -14.152  -1.592   6.697  1.00  0.00     0.022 A 
BRANCH  84  88
ATOM     88  S   UNL     1     -12.656  -3.229   5.009  1.00  0.00     0.124 S 
ATOM     89  O   UNL     1     -12.436  -2.641   3.692  1.00  0.00    -0.237 OA
ATOM     90  O   UNL     1     -11.488  -3.837   5.639  1.00  0.00    -0.237 OA
ATOM     91  O   UNL     1     -13.899  -3.985   5.151  1.00  0.00    -0.744 OA
ENDBRANCH  84  88
ENDBRANCH  58  81
ENDBRANCH  32  33
ENDBRANCH  25  27
ENDBRANCH  24  25
ENDBRANCH  23  24
ENDBRANCH   1  23
TORSDOF 20
