REMARK SMILES CCc1cccc2c3c([nH]c12)[C@](CC)(CC(=O)OCCOCCOC(=O)c1ccc(-c2c4nc(c(-c5cc(S(=O)(=O)[O-])ccc5F)c5ccc([nH]5)c(-c5cc(S(=O)(=O)[O-])ccc5F)c5nc(c(-c6cc(S(=O)(=O)[O-])ccc6F)c6ccc2[nH]6)C=C5)C=C4)cc1)OCC3
REMARK SMILES IDX 22 1 21 2 20 3 19 4 18 5 16 6 17 7 15 8 12 9 3 10 4 11 11 12
REMARK SMILES IDX 5 13 7 14 10 15 6 16 8 17 9 18 92 20 91 21 90 22 2 23 1 24
REMARK SMILES IDX 13 25 14 26 23 27 24 28 25 29 26 30 27 31 28 32 89 33 29 34
REMARK SMILES IDX 88 35 30 36 31 37 32 38 82 39 33 40 87 41 81 42 83 43 34 44
REMARK SMILES IDX 86 45 80 46 79 47 35 49 67 50 47 51 66 52 48 53 51 54 65 55
REMARK SMILES IDX 84 56 49 57 50 58 64 60 85 61 52 62 36 63 37 64 45 65 38 66
REMARK SMILES IDX 44 67 46 68 43 69 39 70 40 71 41 72 42 73 68 74 69 75 77 76
REMARK SMILES IDX 70 77 76 78 78 79 75 80 71 81 72 82 73 83 74 84 53 85 54 86
REMARK SMILES IDX 62 87 55 88 61 89 63 90 60 91 56 92 57 93 58 94 59 95
REMARK H PARENT 10 19 83 48 51 59
REMARK Flexibility Score: inf
ROOT
ATOM      1  C   UNL     1       3.162  -5.086  -0.010  1.00  0.00     0.202 C 
ENDROOT
BRANCH   1   2
ATOM      2  O   UNL     1       3.880  -5.995   0.823  1.00  0.00    -0.374 OA
BRANCH   2   3
ATOM      3  C   UNL     1       3.427  -7.343   0.868  1.00  0.00     0.202 C 
BRANCH   3   4
ATOM      4  C   UNL     1       2.101  -7.644   1.583  1.00  0.00     0.261 C 
BRANCH   4   5
ATOM      5  O   UNL     1       0.951  -6.878   1.152  1.00  0.00    -0.463 OA
BRANCH   5   6
ATOM      6  C   UNL     1       0.600  -5.871   1.982  1.00  0.00     0.309 C 
ATOM      7  O   UNL     1       1.288  -5.508   2.938  1.00  0.00    -0.252 OA
BRANCH   6   8
ATOM      8  C   UNL     1      -0.786  -5.291   1.814  1.00  0.00     0.164 C 
BRANCH   8   9
ATOM      9  C   UNL     1      -1.571  -4.972   0.527  1.00  0.00     0.118 C 
ATOM     10  C   UNL     1       0.786  -1.286  -2.020  1.00  0.00    -0.024 A 
ATOM     11  C   UNL     1       1.507  -1.288  -3.232  1.00  0.00     0.006 A 
ATOM     12  C   UNL     1       0.198  -2.513  -1.648  1.00  0.00     0.049 A 
ATOM     13  C   UNL     1       1.546  -2.404  -4.065  1.00  0.00     0.001 A 
ATOM     14  C   UNL     1       0.161  -3.622  -2.499  1.00  0.00     0.003 A 
ATOM     15  N   UNL     1      -0.438  -2.888  -0.477  1.00  0.00    -0.356 N 
ATOM     16  C   UNL     1       0.826  -3.555  -3.739  1.00  0.00     0.010 A 
ATOM     17  C   UNL     1      -0.606  -4.617  -1.838  1.00  0.00    -0.014 A 
ATOM     18  C   UNL     1      -0.843  -4.196  -0.545  1.00  0.00     0.052 A 
ATOM     19  H   UNL     1      -0.580  -2.297   0.297  1.00  0.00     0.166 HD
ATOM     20  C   UNL     1      -1.128  -5.922  -2.308  1.00  0.00     0.066 C 
ATOM     21  C   UNL     1      -1.398  -6.809  -1.087  1.00  0.00     0.166 C 
ATOM     22  O   UNL     1      -2.161  -6.151  -0.072  1.00  0.00    -0.368 OA
BRANCH  10  23
ATOM     23  C   UNL     1       0.619   0.001  -1.252  1.00  0.00     0.034 C 
ATOM     24  C   UNL     1       1.341   0.031   0.082  1.00  0.00     0.009 C 
ENDBRANCH  10  23
BRANCH   9  25
ATOM     25  C   UNL     1      -2.825  -4.127   0.950  1.00  0.00     0.039 C 
ATOM     26  C   UNL     1      -3.756  -4.815   1.947  1.00  0.00     0.007 C 
ENDBRANCH   9  25
ENDBRANCH   8   9
ENDBRANCH   6   8
ENDBRANCH   5   6
ENDBRANCH   4   5
ENDBRANCH   3   4
ENDBRANCH   2   3
ENDBRANCH   1   2
BRANCH   1  27
ATOM     27  C   UNL     1       2.991  -5.474  -1.484  1.00  0.00     0.261 C 
BRANCH  27  28
ATOM     28  O   UNL     1       2.095  -6.585  -1.624  1.00  0.00    -0.460 OA
BRANCH  28  29
ATOM     29  C   UNL     1       2.239  -7.284  -2.788  1.00  0.00     0.338 C 
ATOM     30  O   UNL     1       2.595  -6.871  -3.858  1.00  0.00    -0.246 OA
BRANCH  29  31
ATOM     31  C   UNL     1       2.240  -8.697  -2.351  1.00  0.00     0.060 A 
ATOM     32  C   UNL     1       1.123  -9.253  -1.730  1.00  0.00     0.016 A 
ATOM     33  C   UNL     1       3.495  -9.310  -2.272  1.00  0.00     0.016 A 
ATOM     34  C   UNL     1       1.296 -10.338  -0.886  1.00  0.00     0.010 A 
ATOM     35  C   UNL     1       3.666 -10.400  -1.429  1.00  0.00     0.010 A 
ATOM     36  C   UNL     1       2.579 -10.868  -0.686  1.00  0.00    -0.014 A 
BRANCH  36  37
ATOM     37  C   UNL     1       2.695 -12.021   0.205  1.00  0.00     0.031 A 
ATOM     38  C   UNL     1       2.021 -13.237  -0.317  1.00  0.00     0.074 A 
ATOM     39  C   UNL     1       3.446 -12.075   1.322  1.00  0.00     0.049 A 
ATOM     40  N   UNL     1       1.039 -13.905   0.194  1.00  0.00    -0.248 NA
ATOM     41  C   UNL     1       2.413 -13.664  -1.668  1.00  0.00     0.031 C 
ATOM     42  C   UNL     1       4.434 -11.097   1.775  1.00  0.00     0.029 A 
ATOM     43  N   UNL     1       3.575 -13.091   2.227  1.00  0.00    -0.354 N 
ATOM     44  C   UNL     1       0.816 -14.961  -0.690  1.00  0.00     0.074 A 
ATOM     45  C   UNL     1       1.542 -14.642  -1.892  1.00  0.00     0.031 C 
ATOM     46  C   UNL     1       5.211 -11.658   2.727  1.00  0.00     0.029 A 
ATOM     47  C   UNL     1       4.706 -12.988   3.025  1.00  0.00     0.049 A 
ATOM     48  H   UNL     1       2.925 -13.826   2.307  1.00  0.00     0.167 HD
ATOM     49  C   UNL     1       0.248 -16.135  -0.295  1.00  0.00     0.034 A 
ATOM     50  C   UNL     1       5.261 -13.963   3.787  1.00  0.00     0.034 A 
ATOM     51  C   UNL     1      -0.450 -15.995   0.953  1.00  0.00     0.049 A 
ATOM     52  C   UNL     1       4.267 -15.041   3.991  1.00  0.00     0.074 A 
ATOM     53  C   UNL     1      -1.522 -15.247   1.395  1.00  0.00     0.029 A 
ATOM     54  N   UNL     1       0.161 -16.483   2.080  1.00  0.00    -0.354 N 
ATOM     55  N   UNL     1       3.213 -14.949   4.748  1.00  0.00    -0.248 NA
ATOM     56  C   UNL     1       4.258 -16.145   3.043  1.00  0.00     0.031 C 
ATOM     57  C   UNL     1      -1.250 -14.970   2.764  1.00  0.00     0.029 A 
ATOM     58  C   UNL     1      -0.041 -15.585   3.095  1.00  0.00     0.049 A 
ATOM     59  H   UNL     1       0.658 -17.330   2.148  1.00  0.00     0.167 HD
ATOM     60  C   UNL     1       2.240 -15.668   4.074  1.00  0.00     0.074 A 
ATOM     61  C   UNL     1       2.974 -16.497   3.124  1.00  0.00     0.031 C 
ATOM     62  C   UNL     1       0.923 -15.312   4.144  1.00  0.00     0.034 A 
BRANCH  49  63
ATOM     63  C   UNL     1       0.641 -17.477  -0.877  1.00  0.00     0.023 A 
ATOM     64  C   UNL     1       1.761 -17.647  -1.714  1.00  0.00     0.031 A 
ATOM     65  C   UNL     1       0.038 -18.666  -0.425  1.00  0.00     0.131 A 
ATOM     66  C   UNL     1       2.224 -18.911  -2.095  1.00  0.00     0.055 A 
ATOM     67  C   UNL     1       0.545 -19.935  -0.742  1.00  0.00     0.041 A 
ATOM     68  F   UNL     1      -1.026 -18.635   0.393  1.00  0.00    -0.206 F 
ATOM     69  C   UNL     1       1.643 -20.064  -1.584  1.00  0.00     0.022 A 
BRANCH  66  70
ATOM     70  S   UNL     1       3.607 -19.056  -3.260  1.00  0.00     0.124 S 
ATOM     71  O   UNL     1       4.609 -19.740  -2.451  1.00  0.00    -0.237 OA
ATOM     72  O   UNL     1       3.008 -19.847  -4.333  1.00  0.00    -0.237 OA
ATOM     73  O   UNL     1       3.906 -17.671  -3.611  1.00  0.00    -0.744 OA
ENDBRANCH  66  70
ENDBRANCH  49  63
BRANCH  50  74
ATOM     74  C   UNL     1       6.709 -14.208   3.987  1.00  0.00     0.023 A 
ATOM     75  C   UNL     1       7.623 -13.845   2.981  1.00  0.00     0.031 A 
ATOM     76  C   UNL     1       7.173 -15.058   5.005  1.00  0.00     0.131 A 
ATOM     77  C   UNL     1       8.925 -14.357   2.981  1.00  0.00     0.055 A 
ATOM     78  C   UNL     1       8.479 -15.562   5.010  1.00  0.00     0.041 A 
ATOM     79  F   UNL     1       6.346 -15.470   5.978  1.00  0.00    -0.206 F 
ATOM     80  C   UNL     1       9.359 -15.222   3.986  1.00  0.00     0.022 A 
BRANCH  77  81
ATOM     81  S   UNL     1      10.058 -13.958   1.622  1.00  0.00     0.124 S 
ATOM     82  O   UNL     1      11.299 -13.654   2.330  1.00  0.00    -0.237 OA
ATOM     83  O   UNL     1      10.056 -15.201   0.860  1.00  0.00    -0.237 OA
ATOM     84  O   UNL     1       9.423 -12.813   0.975  1.00  0.00    -0.744 OA
ENDBRANCH  77  81
ENDBRANCH  50  74
BRANCH  62  85
ATOM     85  C   UNL     1       0.483 -14.349   5.226  1.00  0.00     0.023 A 
ATOM     86  C   UNL     1      -0.666 -14.690   5.965  1.00  0.00     0.031 A 
ATOM     87  C   UNL     1       1.018 -13.061   5.418  1.00  0.00     0.131 A 
ATOM     88  C   UNL     1      -1.254 -13.762   6.832  1.00  0.00     0.055 A 
ATOM     89  C   UNL     1       0.471 -12.164   6.342  1.00  0.00     0.041 A 
ATOM     90  F   UNL     1       2.025 -12.598   4.666  1.00  0.00    -0.206 F 
ATOM     91  C   UNL     1      -0.680 -12.507   7.043  1.00  0.00     0.022 A 
BRANCH  88  92
ATOM     92  S   UNL     1      -2.868 -14.104   7.582  1.00  0.00     0.124 S 
ATOM     93  O   UNL     1      -2.531 -14.232   8.996  1.00  0.00    -0.237 OA
ATOM     94  O   UNL     1      -3.637 -12.912   7.227  1.00  0.00    -0.237 OA
ATOM     95  O   UNL     1      -3.307 -15.334   6.929  1.00  0.00    -0.744 OA
ENDBRANCH  88  92
ENDBRANCH  62  85
ENDBRANCH  36  37
ENDBRANCH  29  31
ENDBRANCH  28  29
ENDBRANCH  27  28
ENDBRANCH   1  27
TORSDOF 20
