REMARK SMILES O=C(OCCOCCOC(=O)c1ccc(-c2c3nc(c(-c4cc(S(=O)(=O)[O-])ccc4F)c4ccc([nH]4)c(-c4cc(S(=O)(=O)[O-])ccc4F)c4nc(c(-c5cc(S(=O)(=O)[O-])ccc5F)c5ccc2[nH]5)C=C4)C=C3)cc1)C1=Cc2cc(Cl)ccc2O[C@@H]1C(F)(F)F
REMARK SMILES IDX 7 1 6 2 5 3 4 4 3 5 2 6 1 7 75 8 76 9 85 10 77 11 84 12
REMARK SMILES IDX 78 13 83 14 79 15 82 16 80 17 81 18 86 19 87 20 88 21 89 22
REMARK SMILES IDX 8 23 9 24 10 25 11 26 12 27 13 28 74 29 14 30 73 31 15 32
REMARK SMILES IDX 16 33 17 34 67 35 18 36 72 37 66 38 68 39 19 40 71 41 65 42
REMARK SMILES IDX 64 43 20 45 52 46 32 47 51 48 33 49 36 50 50 51 69 52 34 53
REMARK SMILES IDX 35 54 49 56 70 57 37 58 21 59 22 60 30 61 23 62 29 63 31 64
REMARK SMILES IDX 28 65 24 66 25 67 26 68 27 69 53 70 54 71 62 72 55 73 61 74
REMARK SMILES IDX 63 75 60 76 56 77 57 78 58 79 59 80 38 81 39 82 47 83 40 84
REMARK SMILES IDX 46 85 48 86 45 87 41 88 42 89 43 90 44 91
REMARK H PARENT 68 44 36 55
REMARK Flexibility Score: inf
ROOT
ATOM      1  C   UNL     1       2.775  -1.768   2.547  1.00  0.00     0.202 C 
ENDROOT
BRANCH   1   2
ATOM      2  O   UNL     1       4.001  -1.633   1.804  1.00  0.00    -0.374 OA
BRANCH   2   3
ATOM      3  C   UNL     1       4.277  -1.218   0.270  1.00  0.00     0.202 C 
BRANCH   3   4
ATOM      4  C   UNL     1       3.441   0.408  -0.920  1.00  0.00     0.261 C 
BRANCH   4   5
ATOM      5  O   UNL     1       2.485   0.252  -2.127  1.00  0.00    -0.460 OA
BRANCH   5   6
ATOM      6  C   UNL     1       2.627  -0.916  -2.759  1.00  0.00     0.338 C 
ATOM      7  O   UNL     1       2.007  -1.388  -3.676  1.00  0.00    -0.246 OA
BRANCH   6   8
ATOM      8  C   UNL     1       3.490  -1.504  -1.766  1.00  0.00     0.087 C 
ATOM      9  C   UNL     1       4.885  -1.002  -1.910  1.00  0.00     0.027 C 
ATOM     10  C   UNL     1       2.345  -1.163  -0.235  1.00  0.00     0.316 C 
ATOM     11  C   UNL     1       5.647   0.185  -0.763  1.00  0.00     0.019 A 
ATOM     12  O   UNL     1       3.114   0.139   0.958  1.00  0.00    -0.475 OA
ATOM     13  C   UNL     1       6.872   0.723  -1.049  1.00  0.00     0.032 A 
ATOM     14  C   UNL     1       4.778   0.798   0.607  1.00  0.00     0.128 A 
ATOM     15  C   UNL     1       7.273   1.768  -0.197  1.00  0.00     0.041 A 
ATOM     16  C   UNL     1       5.198   1.888   1.304  1.00  0.00     0.048 A 
ATOM     17  Cl  UNL     1       8.839   2.454  -0.491  1.00  0.00    -0.084 Cl
ATOM     18  C   UNL     1       6.478   2.335   0.885  1.00  0.00     0.024 A 
BRANCH  10  19
ATOM     19  C   UNL     1       1.829  -2.630   0.056  1.00  0.00     0.430 C 
ATOM     20  F   UNL     1       0.904  -2.732   1.029  1.00  0.00    -0.167 F 
ATOM     21  F   UNL     1       1.198  -3.067  -1.075  1.00  0.00    -0.167 F 
ATOM     22  F   UNL     1       2.796  -3.544   0.284  1.00  0.00    -0.167 F 
ENDBRANCH  10  19
ENDBRANCH   6   8
ENDBRANCH   5   6
ENDBRANCH   4   5
ENDBRANCH   3   4
ENDBRANCH   2   3
ENDBRANCH   1   2
BRANCH   1  23
ATOM     23  C   UNL     1       2.852  -1.306   4.002  1.00  0.00     0.261 C 
BRANCH  23  24
ATOM     24  O   UNL     1       3.334   0.027   4.111  1.00  0.00    -0.460 OA
BRANCH  24  25
ATOM     25  C   UNL     1       4.671   0.096   4.305  1.00  0.00     0.338 C 
ATOM     26  O   UNL     1       5.468  -0.826   4.288  1.00  0.00    -0.246 OA
BRANCH  25  27
ATOM     27  C   UNL     1       5.047   1.499   4.547  1.00  0.00     0.060 A 
ATOM     28  C   UNL     1       6.372   1.860   4.282  1.00  0.00     0.016 A 
ATOM     29  C   UNL     1       4.121   2.447   5.010  1.00  0.00     0.016 A 
ATOM     30  C   UNL     1       6.779   3.169   4.484  1.00  0.00     0.010 A 
ATOM     31  C   UNL     1       4.534   3.756   5.234  1.00  0.00     0.010 A 
ATOM     32  C   UNL     1       5.872   4.102   5.002  1.00  0.00    -0.014 A 
BRANCH  32  33
ATOM     33  C   UNL     1       6.422   5.343   5.569  1.00  0.00     0.031 A 
ATOM     34  C   UNL     1       6.851   5.295   7.005  1.00  0.00     0.074 A 
ATOM     35  C   UNL     1       6.606   6.428   4.802  1.00  0.00     0.049 A 
ATOM     36  N   UNL     1       7.460   6.200   7.719  1.00  0.00    -0.248 NA
ATOM     37  C   UNL     1       6.560   4.045   7.728  1.00  0.00     0.031 C 
ATOM     38  C   UNL     1       6.263   6.529   3.385  1.00  0.00     0.029 A 
ATOM     39  N   UNL     1       7.150   7.644   5.109  1.00  0.00    -0.354 N 
ATOM     40  C   UNL     1       7.641   5.623   8.971  1.00  0.00     0.074 A 
ATOM     41  C   UNL     1       7.033   4.312   8.931  1.00  0.00     0.031 C 
ATOM     42  C   UNL     1       6.624   7.745   2.939  1.00  0.00     0.029 A 
ATOM     43  C   UNL     1       7.192   8.512   4.046  1.00  0.00     0.049 A 
ATOM     44  H   UNL     1       7.481   7.876   6.007  1.00  0.00     0.167 HD
ATOM     45  C   UNL     1       8.268   6.144  10.051  1.00  0.00     0.034 A 
ATOM     46  C   UNL     1       7.638   9.782   3.992  1.00  0.00     0.034 A 
ATOM     47  C   UNL     1       8.814   7.476  10.068  1.00  0.00     0.049 A 
ATOM     48  C   UNL     1       8.227  10.384   5.246  1.00  0.00     0.074 A 
ATOM     49  C   UNL     1       9.449   8.136  11.102  1.00  0.00     0.029 A 
ATOM     50  N   UNL     1       8.760   8.366   8.999  1.00  0.00    -0.354 N 
ATOM     51  N   UNL     1       8.408   9.833   6.427  1.00  0.00    -0.248 NA
ATOM     52  C   UNL     1       8.687  11.774   5.155  1.00  0.00     0.031 C 
ATOM     53  C   UNL     1       9.689   9.451  10.693  1.00  0.00     0.029 A 
ATOM     54  C   UNL     1       9.312   9.582   9.364  1.00  0.00     0.049 A 
ATOM     55  H   UNL     1       8.384   8.161   8.113  1.00  0.00     0.167 HD
ATOM     56  C   UNL     1       9.050  10.796   7.204  1.00  0.00     0.074 A 
ATOM     57  C   UNL     1       9.225  11.956   6.351  1.00  0.00     0.031 C 
ATOM     58  C   UNL     1       9.469  10.727   8.495  1.00  0.00     0.034 A 
BRANCH  45  59
ATOM     59  C   UNL     1       8.294   5.298  11.300  1.00  0.00     0.023 A 
ATOM     60  C   UNL     1       8.919   4.037  11.334  1.00  0.00     0.031 A 
ATOM     61  C   UNL     1       7.604   5.720  12.449  1.00  0.00     0.131 A 
ATOM     62  C   UNL     1       8.759   3.208  12.455  1.00  0.00     0.055 A 
ATOM     63  C   UNL     1       7.532   4.930  13.598  1.00  0.00     0.041 A 
ATOM     64  F   UNL     1       6.954   6.894  12.464  1.00  0.00    -0.206 F 
ATOM     65  C   UNL     1       8.095   3.658  13.598  1.00  0.00     0.022 A 
BRANCH  62  66
ATOM     66  S   UNL     1       9.258   1.468  12.324  1.00  0.00     0.124 S 
ATOM     67  O   UNL     1       8.463   1.019  11.184  1.00  0.00    -0.237 OA
ATOM     68  O   UNL     1      10.696   1.567  12.102  1.00  0.00    -0.237 OA
ATOM     69  O   UNL     1       8.862   0.900  13.612  1.00  0.00    -0.744 OA
ENDBRANCH  62  66
ENDBRANCH  45  59
BRANCH  46  70
ATOM     70  C   UNL     1       7.540  10.571   2.730  1.00  0.00     0.023 A 
ATOM     71  C   UNL     1       8.686  11.068   2.090  1.00  0.00     0.031 A 
ATOM     72  C   UNL     1       6.287  10.889   2.174  1.00  0.00     0.131 A 
ATOM     73  C   UNL     1       8.557  11.897   0.965  1.00  0.00     0.055 A 
ATOM     74  C   UNL     1       6.166  11.666   1.021  1.00  0.00     0.041 A 
ATOM     75  F   UNL     1       5.157  10.444   2.746  1.00  0.00    -0.206 F 
ATOM     76  C   UNL     1       7.305  12.187   0.417  1.00  0.00     0.022 A 
BRANCH  73  77
ATOM     77  S   UNL     1      10.046  12.676   0.283  1.00  0.00     0.124 S 
ATOM     78  O   UNL     1      10.540  13.427   1.431  1.00  0.00    -0.237 OA
ATOM     79  O   UNL     1      10.838  11.517  -0.117  1.00  0.00    -0.237 OA
ATOM     80  O   UNL     1       9.531  13.486  -0.819  1.00  0.00    -0.744 OA
ENDBRANCH  73  77
ENDBRANCH  46  70
BRANCH  58  81
ATOM     81  C   UNL     1      10.225  11.918   9.037  1.00  0.00     0.023 A 
ATOM     82  C   UNL     1       9.635  13.187   9.163  1.00  0.00     0.031 A 
ATOM     83  C   UNL     1      11.572  11.776   9.420  1.00  0.00     0.131 A 
ATOM     84  C   UNL     1      10.411  14.278   9.583  1.00  0.00     0.055 A 
ATOM     85  C   UNL     1      12.313  12.847   9.920  1.00  0.00     0.041 A 
ATOM     86  F   UNL     1      12.192  10.589   9.318  1.00  0.00    -0.206 F 
ATOM     87  C   UNL     1      11.738  14.111   9.985  1.00  0.00     0.022 A 
BRANCH  84  88
ATOM     88  S   UNL     1       9.702  15.943   9.463  1.00  0.00     0.124 S 
ATOM     89  O   UNL     1       9.320  16.008   8.056  1.00  0.00    -0.237 OA
ATOM     90  O   UNL     1       8.602  15.883  10.420  1.00  0.00    -0.237 OA
ATOM     91  O   UNL     1      10.811  16.815   9.846  1.00  0.00    -0.744 OA
ENDBRANCH  84  88
ENDBRANCH  58  81
ENDBRANCH  32  33
ENDBRANCH  25  27
ENDBRANCH  24  25
ENDBRANCH  23  24
ENDBRANCH   1  23
TORSDOF 18
