REMARK SMILES Cc1ccc(C(=O)N[C@@H]2C=C[C@H](C(=O)OCCOCCOC(=O)c3ccc(-c4c5nc(c(-c6cc(S(=O)(=O)[O-])ccc6F)c6ccc([nH]6)c(-c6cc(S(=O)(=O)[O-])ccc6F)c6nc(c(-c7cc(S(=O)(=O)[O-])ccc7F)c7ccc4[nH]7)C=C6)C=C5)cc3)C2)c(F)c1
REMARK SMILES IDX 19 1 18 2 17 3 16 4 15 5 13 6 14 7 12 8 9 9 10 10 87 11
REMARK SMILES IDX 11 12 8 13 6 14 7 15 5 17 1 18 2 19 3 20 90 21 4 22 88 23
REMARK SMILES IDX 89 24 20 25 21 26 22 27 23 28 24 29 25 30 86 31 26 32 85 33
REMARK SMILES IDX 27 34 28 35 29 36 79 37 30 38 84 39 78 40 80 41 31 42 83 43
REMARK SMILES IDX 77 44 76 45 32 47 64 48 44 49 63 50 45 51 48 52 62 53 81 54
REMARK SMILES IDX 46 55 47 56 61 58 82 59 49 60 33 61 34 62 42 63 35 64 41 65
REMARK SMILES IDX 43 66 40 67 36 68 37 69 38 70 39 71 65 72 66 73 74 74 67 75
REMARK SMILES IDX 73 76 75 77 72 78 68 79 69 80 70 81 71 82 50 83 51 84 59 85
REMARK SMILES IDX 52 86 58 87 60 88 57 89 53 90 54 91 55 92 56 93
REMARK H PARENT 8 16 80 46 48 57
REMARK Flexibility Score: inf
ROOT
ATOM      1  C   UNL     1       2.349  -7.291  -1.172  1.00  0.00     0.202 C 
ENDROOT
BRANCH   1   2
ATOM      2  O   UNL     1       3.769  -7.254  -1.135  1.00  0.00    -0.374 OA
BRANCH   2   3
ATOM      3  C   UNL     1       4.406  -7.616   0.086  1.00  0.00     0.202 C 
BRANCH   3   4
ATOM      4  C   UNL     1       4.168  -6.747   1.329  1.00  0.00     0.261 C 
BRANCH   4   5
ATOM      5  O   UNL     1       2.792  -6.462   1.645  1.00  0.00    -0.463 OA
BRANCH   5   6
ATOM      6  C   UNL     1       2.436  -5.145   1.532  1.00  0.00     0.312 C 
ATOM      7  O   UNL     1       3.166  -4.262   1.098  1.00  0.00    -0.252 OA
BRANCH   6   8
ATOM      8  C   UNL     1       1.039  -4.897   2.105  1.00  0.00     0.124 C 
ATOM      9  C   UNL     1      -0.918  -4.543   0.617  1.00  0.00     0.106 C 
ATOM     10  C   UNL     1      -0.353  -3.259   1.123  1.00  0.00    -0.006 C 
ATOM     11  C   UNL     1      -0.109  -5.611   1.374  1.00  0.00     0.048 C 
ATOM     12  C   UNL     1       0.674  -3.447   1.956  1.00  0.00    -0.014 C 
BRANCH   9  13
ATOM     13  N   UNL     1      -0.817  -4.562  -0.828  1.00  0.00    -0.346 N 
ATOM     14  C   UNL     1      -1.330  -5.426  -1.773  1.00  0.00     0.254 C 
ATOM     15  O   UNL     1      -1.298  -5.082  -2.952  1.00  0.00    -0.269 OA
ATOM     16  H   UNL     1      -0.284  -3.824  -1.204  1.00  0.00     0.164 HD
BRANCH  14  17
ATOM     17  C   UNL     1      -1.823  -6.777  -1.411  1.00  0.00     0.075 A 
ATOM     18  C   UNL     1      -2.168 -10.802   0.055  1.00  0.00     0.044 C 
ATOM     19  C   UNL     1      -2.183  -9.416  -0.521  1.00  0.00    -0.048 A 
ATOM     20  C   UNL     1      -2.729  -8.347   0.196  1.00  0.00     0.004 A 
ATOM     21  C   UNL     1      -1.618  -9.170  -1.776  1.00  0.00     0.043 A 
ATOM     22  C   UNL     1      -2.575  -7.035  -0.263  1.00  0.00     0.017 A 
ATOM     23  C   UNL     1      -1.428  -7.856  -2.207  1.00  0.00     0.136 A 
ATOM     24  F   UNL     1      -0.729  -7.669  -3.336  1.00  0.00    -0.206 F 
ENDBRANCH  14  17
ENDBRANCH   9  13
ENDBRANCH   6   8
ENDBRANCH   5   6
ENDBRANCH   4   5
ENDBRANCH   3   4
ENDBRANCH   2   3
ENDBRANCH   1   2
BRANCH   1  25
ATOM     25  C   UNL     1       1.659  -8.636  -0.928  1.00  0.00     0.261 C 
BRANCH  25  26
ATOM     26  O   UNL     1       2.184  -9.392   0.164  1.00  0.00    -0.460 OA
BRANCH  26  27
ATOM     27  C   UNL     1       2.159 -10.732  -0.029  1.00  0.00     0.338 C 
ATOM     28  O   UNL     1       1.639 -11.345  -0.943  1.00  0.00    -0.246 OA
BRANCH  27  29
ATOM     29  C   UNL     1       2.877 -11.375   1.077  1.00  0.00     0.060 A 
ATOM     30  C   UNL     1       4.270 -11.494   1.022  1.00  0.00     0.016 A 
ATOM     31  C   UNL     1       2.146 -11.939   2.123  1.00  0.00     0.016 A 
ATOM     32  C   UNL     1       4.935 -12.212   2.015  1.00  0.00     0.010 A 
ATOM     33  C   UNL     1       2.816 -12.645   3.122  1.00  0.00     0.010 A 
ATOM     34  C   UNL     1       4.210 -12.810   3.058  1.00  0.00    -0.014 A 
BRANCH  34  35
ATOM     35  C   UNL     1       4.902 -13.694   4.026  1.00  0.00     0.031 A 
ATOM     36  C   UNL     1       4.802 -15.186   3.860  1.00  0.00     0.074 A 
ATOM     37  C   UNL     1       5.613 -13.159   5.035  1.00  0.00     0.049 A 
ATOM     38  N   UNL     1       5.326 -16.137   4.588  1.00  0.00    -0.248 NA
ATOM     39  C   UNL     1       3.997 -15.668   2.727  1.00  0.00     0.031 C 
ATOM     40  C   UNL     1       5.773 -11.726   5.283  1.00  0.00     0.029 A 
ATOM     41  N   UNL     1       6.326 -13.756   6.043  1.00  0.00    -0.354 N 
ATOM     42  C   UNL     1       4.914 -17.331   4.006  1.00  0.00     0.074 A 
ATOM     43  C   UNL     1       4.067 -16.982   2.885  1.00  0.00     0.031 C 
ATOM     44  C   UNL     1       6.530 -11.555   6.380  1.00  0.00     0.029 A 
ATOM     45  C   UNL     1       6.885 -12.862   6.926  1.00  0.00     0.049 A 
ATOM     46  H   UNL     1       6.428 -14.731   6.127  1.00  0.00     0.167 HD
ATOM     47  C   UNL     1       5.223 -18.600   4.371  1.00  0.00     0.034 A 
ATOM     48  C   UNL     1       7.588 -13.078   8.056  1.00  0.00     0.034 A 
ATOM     49  C   UNL     1       6.065 -18.924   5.497  1.00  0.00     0.049 A 
ATOM     50  C   UNL     1       7.893 -14.500   8.458  1.00  0.00     0.074 A 
ATOM     51  C   UNL     1       6.480 -20.170   5.934  1.00  0.00     0.029 A 
ATOM     52  N   UNL     1       6.609 -17.995   6.375  1.00  0.00    -0.354 N 
ATOM     53  N   UNL     1       7.541 -15.619   7.866  1.00  0.00    -0.248 NA
ATOM     54  C   UNL     1       8.703 -14.687   9.668  1.00  0.00     0.031 C 
ATOM     55  C   UNL     1       7.215 -19.999   7.112  1.00  0.00     0.029 A 
ATOM     56  C   UNL     1       7.324 -18.642   7.371  1.00  0.00     0.049 A 
ATOM     57  H   UNL     1       6.503 -17.020   6.301  1.00  0.00     0.167 HD
ATOM     58  C   UNL     1       8.108 -16.642   8.621  1.00  0.00     0.074 A 
ATOM     59  C   UNL     1       8.842 -16.005   9.696  1.00  0.00     0.031 C 
ATOM     60  C   UNL     1       8.034 -17.986   8.444  1.00  0.00     0.034 A 
BRANCH  47  61
ATOM     61  C   UNL     1       4.606 -19.725   3.576  1.00  0.00     0.023 A 
ATOM     62  C   UNL     1       4.924 -19.942   2.223  1.00  0.00     0.031 A 
ATOM     63  C   UNL     1       3.670 -20.585   4.178  1.00  0.00     0.131 A 
ATOM     64  C   UNL     1       4.270 -20.955   1.504  1.00  0.00     0.055 A 
ATOM     65  C   UNL     1       3.075 -21.635   3.476  1.00  0.00     0.041 A 
ATOM     66  F   UNL     1       3.311 -20.412   5.460  1.00  0.00    -0.206 F 
ATOM     67  C   UNL     1       3.365 -21.817   2.128  1.00  0.00     0.022 A 
BRANCH  64  68
ATOM     68  S   UNL     1       4.529 -21.057  -0.288  1.00  0.00     0.124 S 
ATOM     69  O   UNL     1       4.057 -19.747  -0.730  1.00  0.00    -0.237 OA
ATOM     70  O   UNL     1       5.966 -21.285  -0.387  1.00  0.00    -0.237 OA
ATOM     71  O   UNL     1       3.690 -22.183  -0.693  1.00  0.00    -0.744 OA
ENDBRANCH  64  68
ENDBRANCH  47  61
BRANCH  48  72
ATOM     72  C   UNL     1       8.024 -11.931   8.905  1.00  0.00     0.023 A 
ATOM     73  C   UNL     1       9.382 -11.647   9.112  1.00  0.00     0.031 A 
ATOM     74  C   UNL     1       7.075 -11.129   9.565  1.00  0.00     0.131 A 
ATOM     75  C   UNL     1       9.756 -10.618   9.992  1.00  0.00     0.055 A 
ATOM     76  C   UNL     1       7.450 -10.074  10.399  1.00  0.00     0.041 A 
ATOM     77  F   UNL     1       5.761 -11.354   9.399  1.00  0.00    -0.206 F 
ATOM     78  C   UNL     1       8.799  -9.823  10.627  1.00  0.00     0.022 A 
BRANCH  75  79
ATOM     79  S   UNL     1      11.516 -10.389  10.365  1.00  0.00     0.124 S 
ATOM     80  O   UNL     1      11.894 -11.713  10.847  1.00  0.00    -0.237 OA
ATOM     81  O   UNL     1      12.051 -10.003   9.063  1.00  0.00    -0.237 OA
ATOM     82  O   UNL     1      11.515  -9.333  11.375  1.00  0.00    -0.744 OA
ENDBRANCH  75  79
ENDBRANCH  48  72
BRANCH  60  83
ATOM     83  C   UNL     1       8.796 -18.844   9.424  1.00  0.00     0.023 A 
ATOM     84  C   UNL     1       8.425 -18.923  10.778  1.00  0.00     0.031 A 
ATOM     85  C   UNL     1       9.920 -19.575   9.001  1.00  0.00     0.131 A 
ATOM     86  C   UNL     1       9.206 -19.667  11.674  1.00  0.00     0.055 A 
ATOM     87  C   UNL     1      10.658 -20.363   9.885  1.00  0.00     0.041 A 
ATOM     88  F   UNL     1      10.319 -19.535   7.720  1.00  0.00    -0.206 F 
ATOM     89  C   UNL     1      10.312 -20.400  11.233  1.00  0.00     0.022 A 
BRANCH  86  90
ATOM     90  S   UNL     1       8.816 -19.587  13.443  1.00  0.00     0.124 S 
ATOM     91  O   UNL     1       8.923 -18.156  13.712  1.00  0.00    -0.237 OA
ATOM     92  O   UNL     1       7.468 -20.145  13.491  1.00  0.00    -0.237 OA
ATOM     93  O   UNL     1       9.851 -20.413  14.061  1.00  0.00    -0.744 OA
ENDBRANCH  86  90
ENDBRANCH  60  83
ENDBRANCH  34  35
ENDBRANCH  27  29
ENDBRANCH  26  27
ENDBRANCH  25  26
ENDBRANCH   1  25
TORSDOF 19
