REMARK SMILES C[C@@H]1CN(C(=O)Nc2ccc(O)c(C(=O)OCCOCCOC(=O)c3ccc(-c4c5nc(c(-c6cc(S(=O)(=O)[O-])ccc6F)c6ccc([nH]6)c(-c6cc(S(=O)(=O)[O-])ccc6F)c6nc(c(-c7cc(S(=O)(=O)[O-])ccc7F)c7ccc4[nH]7)C=C6)C=C5)cc3)c2)C[C@@H]1C
REMARK SMILES IDX 20 1 19 2 18 3 17 4 16 5 14 6 15 7 13 8 8 9 9 10 88 11 10 12
REMARK SMILES IDX 11 13 7 14 5 15 6 16 4 18 1 19 2 20 3 21 90 22 89 23 91 24
REMARK SMILES IDX 12 25 21 27 22 28 23 29 24 30 25 31 26 32 87 33 27 34 86 35
REMARK SMILES IDX 28 36 29 37 30 38 80 39 31 40 85 41 79 42 81 43 32 44 84 45
REMARK SMILES IDX 78 46 77 47 33 49 65 50 45 51 64 52 46 53 49 54 63 55 82 56
REMARK SMILES IDX 47 57 48 58 62 60 83 61 50 62 34 63 35 64 43 65 36 66 42 67
REMARK SMILES IDX 44 68 41 69 37 70 38 71 39 72 40 73 66 74 67 75 75 76 68 77
REMARK SMILES IDX 74 78 76 79 73 80 69 81 70 82 71 83 72 84 51 85 52 86 60 87
REMARK SMILES IDX 53 88 59 89 61 90 58 91 54 92 55 93 56 94 57 95
REMARK H PARENT 7 17 12 26 81 48 49 59
REMARK Flexibility Score: inf
ROOT
ATOM      1  C   UNL     1       3.929   4.299  -7.314  1.00  0.00     0.202 C 
ENDROOT
BRANCH   1   2
ATOM      2  O   UNL     1       5.261   3.909  -7.648  1.00  0.00    -0.374 OA
BRANCH   2   3
ATOM      3  C   UNL     1       5.502   2.515  -7.861  1.00  0.00     0.202 C 
BRANCH   3   4
ATOM      4  C   UNL     1       5.626   1.663  -6.596  1.00  0.00     0.261 C 
BRANCH   4   5
ATOM      5  O   UNL     1       4.350   1.591  -5.946  1.00  0.00    -0.460 OA
BRANCH   5   6
ATOM      6  C   UNL     1       4.308   1.998  -4.660  1.00  0.00     0.342 C 
ATOM      7  O   UNL     1       5.264   2.252  -3.940  1.00  0.00    -0.246 OA
BRANCH   6   8
ATOM      8  C   UNL     1       2.917   2.348  -4.287  1.00  0.00     0.103 A 
ATOM      9  C   UNL     1       1.505   3.833  -3.007  1.00  0.00     0.044 A 
ATOM     10  C   UNL     1       0.371   3.187  -3.499  1.00  0.00     0.030 A 
ATOM     11  C   UNL     1       2.769   3.473  -3.463  1.00  0.00     0.045 A 
ATOM     12  C   UNL     1       0.509   2.083  -4.345  1.00  0.00     0.049 A 
ATOM     13  C   UNL     1       1.784   1.641  -4.707  1.00  0.00     0.130 A 
BRANCH   9  14
ATOM     14  N   UNL     1       1.415   4.817  -2.023  1.00  0.00    -0.308 N 
ATOM     15  C   UNL     1       0.949   4.752  -0.743  1.00  0.00     0.321 C 
ATOM     16  O   UNL     1       0.870   5.818  -0.123  1.00  0.00    -0.248 OA
ATOM     17  H   UNL     1       1.740   5.705  -2.298  1.00  0.00     0.171 HD
BRANCH  15  18
ATOM     18  N   UNL     1       0.715   3.550  -0.125  1.00  0.00    -0.324 N 
ATOM     19  C   UNL     1       1.117  -0.115   0.358  1.00  0.00     0.010 C 
ATOM     20  C   UNL     1       0.529   1.275   0.530  1.00  0.00     0.010 C 
ATOM     21  C   UNL     1       0.859   2.194  -0.638  1.00  0.00     0.125 C 
ATOM     22  C   UNL     1       0.963   2.104   1.746  1.00  0.00     0.010 C 
ATOM     23  C   UNL     1       0.494   3.507   1.319  1.00  0.00     0.125 C 
ATOM     24  C   UNL     1       2.466   2.096   2.044  1.00  0.00     0.010 C 
ENDBRANCH  15  18
ENDBRANCH   9  14
BRANCH  13  25
ATOM     25  O   UNL     1       1.910   0.496  -5.438  1.00  0.00    -0.507 OA
ATOM     26  H   UNL     1       1.146   0.030  -5.714  1.00  0.00     0.293 HD
ENDBRANCH  13  25
ENDBRANCH   6   8
ENDBRANCH   5   6
ENDBRANCH   4   5
ENDBRANCH   3   4
ENDBRANCH   2   3
ENDBRANCH   1   2
BRANCH   1  27
ATOM     27  C   UNL     1       2.921   4.392  -8.466  1.00  0.00     0.261 C 
BRANCH  27  28
ATOM     28  O   UNL     1       2.612   3.111  -9.040  1.00  0.00    -0.460 OA
BRANCH  28  29
ATOM     29  C   UNL     1       3.185   2.877 -10.245  1.00  0.00     0.338 C 
ATOM     30  O   UNL     1       3.886   3.650 -10.887  1.00  0.00    -0.246 OA
BRANCH  29  31
ATOM     31  C   UNL     1       2.994   1.467 -10.628  1.00  0.00     0.060 A 
ATOM     32  C   UNL     1       4.126   0.727 -10.998  1.00  0.00     0.016 A 
ATOM     33  C   UNL     1       1.722   0.897 -10.696  1.00  0.00     0.016 A 
ATOM     34  C   UNL     1       3.986  -0.575 -11.478  1.00  0.00     0.010 A 
ATOM     35  C   UNL     1       1.583  -0.404 -11.188  1.00  0.00     0.010 A 
ATOM     36  C   UNL     1       2.709  -1.135 -11.611  1.00  0.00    -0.014 A 
BRANCH  36  37
ATOM     37  C   UNL     1       2.518  -2.412 -12.342  1.00  0.00     0.031 A 
ATOM     38  C   UNL     1       2.030  -2.356 -13.764  1.00  0.00     0.074 A 
ATOM     39  C   UNL     1       2.760  -3.598 -11.753  1.00  0.00     0.049 A 
ATOM     40  N   UNL     1       1.621  -3.323 -14.542  1.00  0.00    -0.248 NA
ATOM     41  C   UNL     1       1.994  -1.023 -14.388  1.00  0.00     0.031 C 
ATOM     42  C   UNL     1       3.308  -3.777 -10.409  1.00  0.00     0.029 A 
ATOM     43  N   UNL     1       2.556  -4.878 -12.206  1.00  0.00    -0.354 N 
ATOM     44  C   UNL     1       1.272  -2.719 -15.745  1.00  0.00     0.074 A 
ATOM     45  C   UNL     1       1.488  -1.297 -15.581  1.00  0.00     0.031 C 
ATOM     46  C   UNL     1       3.369  -5.093 -10.137  1.00  0.00     0.029 A 
ATOM     47  C   UNL     1       2.815  -5.845 -11.262  1.00  0.00     0.049 A 
ATOM     48  H   UNL     1       2.253  -5.085 -13.120  1.00  0.00     0.167 HD
ATOM     49  C   UNL     1       0.820  -3.300 -16.883  1.00  0.00     0.034 A 
ATOM     50  C   UNL     1       2.586  -7.175 -11.288  1.00  0.00     0.034 A 
ATOM     51  C   UNL     1       0.601  -4.717 -17.024  1.00  0.00     0.049 A 
ATOM     52  C   UNL     1       1.972  -7.788 -12.529  1.00  0.00     0.074 A 
ATOM     53  C   UNL     1       0.115  -5.409 -18.120  1.00  0.00     0.029 A 
ATOM     54  N   UNL     1       0.854  -5.661 -16.039  1.00  0.00    -0.354 N 
ATOM     55  N   UNL     1       1.607  -7.202 -13.646  1.00  0.00    -0.248 NA
ATOM     56  C   UNL     1       1.741  -9.240 -12.515  1.00  0.00     0.031 C 
ATOM     57  C   UNL     1       0.017  -6.761 -17.777  1.00  0.00     0.029 A 
ATOM     58  C   UNL     1       0.520  -6.925 -16.497  1.00  0.00     0.049 A 
ATOM     59  H   UNL     1       1.218  -5.462 -15.146  1.00  0.00     0.167 HD
ATOM     60  C   UNL     1       1.160  -8.223 -14.483  1.00  0.00     0.074 A 
ATOM     61  C   UNL     1       1.294  -9.458 -13.743  1.00  0.00     0.031 C 
ATOM     62  C   UNL     1       0.691  -8.149 -15.754  1.00  0.00     0.034 A 
BRANCH  49  63
ATOM     63  C   UNL     1       0.491  -2.398 -18.045  1.00  0.00     0.023 A 
ATOM     64  C   UNL     1       1.488  -1.672 -18.719  1.00  0.00     0.031 A 
ATOM     65  C   UNL     1      -0.837  -2.268 -18.489  1.00  0.00     0.131 A 
ATOM     66  C   UNL     1       1.135  -0.811 -19.768  1.00  0.00     0.055 A 
ATOM     67  C   UNL     1      -1.171  -1.466 -19.581  1.00  0.00     0.041 A 
ATOM     68  F   UNL     1      -1.832  -2.919 -17.867  1.00  0.00    -0.206 F 
ATOM     69  C   UNL     1      -0.183  -0.724 -20.222  1.00  0.00     0.022 A 
BRANCH  66  70
ATOM     70  S   UNL     1       2.408   0.277 -20.463  1.00  0.00     0.124 S 
ATOM     71  O   UNL     1       2.783   1.073 -19.297  1.00  0.00    -0.237 OA
ATOM     72  O   UNL     1       3.410  -0.671 -20.938  1.00  0.00    -0.237 OA
ATOM     73  O   UNL     1       1.698   1.010 -21.509  1.00  0.00    -0.744 OA
ENDBRANCH  66  70
ENDBRANCH  49  63
BRANCH  50  74
ATOM     74  C   UNL     1       2.873  -8.025 -10.094  1.00  0.00     0.023 A 
ATOM     75  C   UNL     1       3.768  -9.104 -10.171  1.00  0.00     0.031 A 
ATOM     76  C   UNL     1       2.179  -7.835  -8.884  1.00  0.00     0.131 A 
ATOM     77  C   UNL     1       3.889  -9.993  -9.091  1.00  0.00     0.055 A 
ATOM     78  C   UNL     1       2.357  -8.680  -7.788  1.00  0.00     0.041 A 
ATOM     79  F   UNL     1       1.304  -6.824  -8.753  1.00  0.00    -0.206 F 
ATOM     80  C   UNL     1       3.201  -9.780  -7.895  1.00  0.00     0.022 A 
BRANCH  77  81
ATOM     81  S   UNL     1       4.846 -11.516  -9.328  1.00  0.00     0.124 S 
ATOM     82  O   UNL     1       4.201 -12.088 -10.504  1.00  0.00    -0.237 OA
ATOM     83  O   UNL     1       6.195 -10.996  -9.523  1.00  0.00    -0.237 OA
ATOM     84  O   UNL     1       4.634 -12.247  -8.081  1.00  0.00    -0.744 OA
ENDBRANCH  77  81
ENDBRANCH  50  74
BRANCH  62  85
ATOM     85  C   UNL     1       0.385  -9.444 -16.465  1.00  0.00     0.023 A 
ATOM     86  C   UNL     1      -0.702 -10.259 -16.108  1.00  0.00     0.031 A 
ATOM     87  C   UNL     1       1.186  -9.843 -17.552  1.00  0.00     0.131 A 
ATOM     88  C   UNL     1      -0.938 -11.452 -16.811  1.00  0.00     0.055 A 
ATOM     89  C   UNL     1       0.915 -11.002 -18.279  1.00  0.00     0.041 A 
ATOM     90  F   UNL     1       2.236  -9.099 -17.935  1.00  0.00    -0.206 F 
ATOM     91  C   UNL     1      -0.148 -11.818 -17.904  1.00  0.00     0.022 A 
BRANCH  88  92
ATOM     92  S   UNL     1      -2.266 -12.551 -16.247  1.00  0.00     0.124 S 
ATOM     93  O   UNL     1      -1.832 -12.884 -14.894  1.00  0.00    -0.237 OA
ATOM     94  O   UNL     1      -3.444 -11.696 -16.345  1.00  0.00    -0.237 OA
ATOM     95  O   UNL     1      -2.225 -13.658 -17.202  1.00  0.00    -0.744 OA
ENDBRANCH  88  92
ENDBRANCH  62  85
ENDBRANCH  36  37
ENDBRANCH  29  31
ENDBRANCH  28  29
ENDBRANCH  27  28
ENDBRANCH   1  27
TORSDOF 20
