REMARK SMILES Cc1ccc(S(=O)(=O)N2CCN(C(=O)[C@H]3CCCC[C@@H]3C(=O)OCCOCCOC(=O)c3ccc(-c4c5nc(c(-c6cc(S(=O)(=O)[O-])ccc6F)c6ccc([nH]6)c(-c6cc(S(=O)(=O)[O-])ccc6F)c6nc(c(-c7cc(S(=O)(=O)[O-])ccc7F)c7ccc4[nH]7)C=C6)C=C5)cc3)CC2)cc1C
REMARK SMILES IDX 26 1 25 2 24 3 23 4 21 5 22 6 20 7 15 8 16 9 17 10 19 11
REMARK SMILES IDX 18 12 13 13 9 14 10 15 96 16 11 17 95 18 12 19 14 20 6 21
REMARK SMILES IDX 7 22 8 23 5 24 1 25 2 26 3 27 98 28 4 29 97 30 99 31 27 32
REMARK SMILES IDX 28 33 29 34 30 35 31 36 32 37 33 38 94 39 34 40 93 41 35 42
REMARK SMILES IDX 36 43 37 44 87 45 38 46 92 47 86 48 88 49 39 50 91 51 85 52
REMARK SMILES IDX 84 53 40 55 72 56 52 57 71 58 53 59 56 60 70 61 89 62 54 63
REMARK SMILES IDX 55 64 69 66 90 67 57 68 41 69 42 70 50 71 43 72 49 73 51 74
REMARK SMILES IDX 48 75 44 76 45 77 46 78 47 79 73 80 74 81 82 82 75 83 81 84
REMARK SMILES IDX 83 85 80 86 76 87 77 88 78 89 79 90 58 91 59 92 67 93 60 94
REMARK SMILES IDX 66 95 68 96 65 97 61 98 62 99 63 100 64 101
REMARK H PARENT 88 54 56 65
REMARK Flexibility Score: inf
ROOT
ATOM      1  O   UNL     1      -2.406   1.777  -1.238  1.00  0.00    -0.374 OA
ENDROOT
BRANCH   1   2
ATOM      2  C   UNL     1      -2.488   2.052  -2.633  1.00  0.00     0.202 C 
BRANCH   2   3
ATOM      3  C   UNL     1      -3.767   2.671  -3.205  1.00  0.00     0.261 C 
BRANCH   3   4
ATOM      4  O   UNL     1      -4.170   3.857  -2.518  1.00  0.00    -0.463 OA
BRANCH   4   5
ATOM      5  C   UNL     1      -5.092   3.627  -1.548  1.00  0.00     0.309 C 
ATOM      6  O   UNL     1      -5.550   2.525  -1.272  1.00  0.00    -0.252 OA
BRANCH   5   7
ATOM      7  C   UNL     1      -5.396   4.893  -0.765  1.00  0.00     0.111 C 
ATOM      8  C   UNL     1      -6.403   4.532   0.348  1.00  0.00     0.093 C 
ATOM      9  C   UNL     1      -7.800   4.266  -0.255  1.00  0.00     0.014 C 
ATOM     10  C   UNL     1      -8.282   5.377  -1.175  1.00  0.00     0.001 C 
ATOM     11  C   UNL     1      -5.899   6.027  -1.665  1.00  0.00     0.016 C 
ATOM     12  C   UNL     1      -7.268   5.722  -2.255  1.00  0.00     0.001 C 
BRANCH   8  13
ATOM     13  C   UNL     1      -6.422   5.608   1.429  1.00  0.00     0.226 C 
ATOM     14  N   UNL     1      -9.428   5.396   4.395  1.00  0.00    -0.194 NA
ATOM     15  C   UNL     1      -9.017   6.672   3.778  1.00  0.00     0.124 C 
ATOM     16  C   UNL     1      -9.206   4.193   3.562  1.00  0.00     0.124 C 
ATOM     17  C   UNL     1      -7.558   6.605   3.333  1.00  0.00     0.136 C 
ATOM     18  C   UNL     1      -7.792   4.139   2.960  1.00  0.00     0.136 C 
ATOM     19  N   UNL     1      -7.309   5.443   2.475  1.00  0.00    -0.340 N 
ATOM     20  O   UNL     1      -5.684   6.593   1.375  1.00  0.00    -0.275 OA
BRANCH  14  21
ATOM     21  S   UNL     1      -9.855   5.311   6.012  1.00  0.00     0.243 S 
ATOM     22  O   UNL     1     -10.459   4.016   6.254  1.00  0.00    -0.207 OA
ATOM     23  O   UNL     1     -10.553   6.537   6.333  1.00  0.00    -0.207 OA
BRANCH  21  24
ATOM     24  C   UNL     1      -8.338   5.337   6.943  1.00  0.00     0.082 A 
ATOM     25  C   UNL     1      -4.658   5.394   9.200  1.00  0.00     0.044 C 
ATOM     26  C   UNL     1      -5.960   5.401   8.450  1.00  0.00    -0.048 A 
ATOM     27  C   UNL     1      -5.957   4.960   7.125  1.00  0.00     0.005 A 
ATOM     28  C   UNL     1      -7.178   5.808   9.032  1.00  0.00    -0.047 A 
ATOM     29  C   UNL     1      -7.138   4.915   6.394  1.00  0.00     0.022 A 
ATOM     30  C   UNL     1      -8.360   5.792   8.262  1.00  0.00     0.025 A 
ATOM     31  C   UNL     1      -7.285   6.254  10.463  1.00  0.00     0.044 C 
ENDBRANCH  21  24
ENDBRANCH  14  21
ENDBRANCH   8  13
ENDBRANCH   5   7
ENDBRANCH   4   5
ENDBRANCH   3   4
ENDBRANCH   2   3
ENDBRANCH   1   2
BRANCH   1  32
ATOM     32  C   UNL     1      -2.216   2.855  -0.324  1.00  0.00     0.202 C 
BRANCH  32  33
ATOM     33  C   UNL     1      -0.904   3.651  -0.335  1.00  0.00     0.261 C 
BRANCH  33  34
ATOM     34  O   UNL     1      -0.626   4.286  -1.592  1.00  0.00    -0.460 OA
BRANCH  34  35
ATOM     35  C   UNL     1       0.396   3.713  -2.278  1.00  0.00     0.338 C 
ATOM     36  O   UNL     1       1.091   2.781  -1.909  1.00  0.00    -0.246 OA
BRANCH  35  37
ATOM     37  C   UNL     1       0.430   4.221  -3.661  1.00  0.00     0.060 A 
ATOM     38  C   UNL     1       0.345   3.273  -4.687  1.00  0.00     0.016 A 
ATOM     39  C   UNL     1       0.629   5.572  -3.951  1.00  0.00     0.016 A 
ATOM     40  C   UNL     1       0.524   3.662  -6.008  1.00  0.00     0.010 A 
ATOM     41  C   UNL     1       0.817   5.960  -5.283  1.00  0.00     0.010 A 
ATOM     42  C   UNL     1       0.808   5.000  -6.311  1.00  0.00    -0.014 A 
BRANCH  42  43
ATOM     43  C   UNL     1       1.239   5.328  -7.692  1.00  0.00     0.031 A 
ATOM     44  C   UNL     1       2.705   5.518  -7.976  1.00  0.00     0.074 A 
ATOM     45  C   UNL     1       0.341   5.345  -8.693  1.00  0.00     0.049 A 
ATOM     46  N   UNL     1       3.309   5.719  -9.119  1.00  0.00    -0.248 NA
ATOM     47  C   UNL     1       3.609   5.474  -6.817  1.00  0.00     0.031 C 
ATOM     48  C   UNL     1      -1.098   5.132  -8.534  1.00  0.00     0.029 A 
ATOM     49  N   UNL     1       0.507   5.530 -10.041  1.00  0.00    -0.354 N 
ATOM     50  C   UNL     1       4.663   5.822  -8.819  1.00  0.00     0.074 A 
ATOM     51  C   UNL     1       4.784   5.710  -7.381  1.00  0.00     0.031 C 
ATOM     52  C   UNL     1      -1.681   5.182  -9.742  1.00  0.00     0.029 A 
ATOM     53  C   UNL     1      -0.667   5.466 -10.755  1.00  0.00     0.049 A 
ATOM     54  H   UNL     1       1.383   5.693 -10.459  1.00  0.00     0.167 HD
ATOM     55  C   UNL     1       5.709   5.981  -9.668  1.00  0.00     0.034 A 
ATOM     56  C   UNL     1      -0.896   5.627 -12.073  1.00  0.00     0.034 A 
ATOM     57  C   UNL     1       5.566   6.103 -11.100  1.00  0.00     0.049 A 
ATOM     58  C   UNL     1       0.278   5.872 -12.990  1.00  0.00     0.074 A 
ATOM     59  C   UNL     1       6.554   6.261 -12.056  1.00  0.00     0.029 A 
ATOM     60  N   UNL     1       4.355   6.094 -11.784  1.00  0.00    -0.354 N 
ATOM     61  N   UNL     1       1.556   5.954 -12.696  1.00  0.00    -0.248 NA
ATOM     62  C   UNL     1      -0.022   6.024 -14.418  1.00  0.00     0.031 C 
ATOM     63  C   UNL     1       5.940   6.431 -13.301  1.00  0.00     0.029 A 
ATOM     64  C   UNL     1       4.572   6.278 -13.143  1.00  0.00     0.049 A 
ATOM     65  H   UNL     1       3.472   5.974 -11.366  1.00  0.00     0.167 HD
ATOM     66  C   UNL     1       2.214   6.131 -13.911  1.00  0.00     0.074 A 
ATOM     67  C   UNL     1       1.192   6.121 -14.937  1.00  0.00     0.031 C 
ATOM     68  C   UNL     1       3.542   6.282 -14.158  1.00  0.00     0.034 A 
BRANCH  55  69
ATOM     69  C   UNL     1       7.090   6.089  -9.061  1.00  0.00     0.023 A 
ATOM     70  C   UNL     1       7.670   5.033  -8.335  1.00  0.00     0.031 A 
ATOM     71  C   UNL     1       7.829   7.278  -9.191  1.00  0.00     0.131 A 
ATOM     72  C   UNL     1       8.916   5.212  -7.711  1.00  0.00     0.055 A 
ATOM     73  C   UNL     1       9.104   7.420  -8.639  1.00  0.00     0.041 A 
ATOM     74  F   UNL     1       7.319   8.332  -9.848  1.00  0.00    -0.206 F 
ATOM     75  C   UNL     1       9.649   6.388  -7.882  1.00  0.00     0.022 A 
BRANCH  72  76
ATOM     76  S   UNL     1       9.498   3.943  -6.552  1.00  0.00     0.124 S 
ATOM     77  O   UNL     1       8.405   3.905  -5.583  1.00  0.00    -0.237 OA
ATOM     78  O   UNL     1       9.634   2.771  -7.409  1.00  0.00    -0.237 OA
ATOM     79  O   UNL     1      10.753   4.494  -6.043  1.00  0.00    -0.744 OA
ENDBRANCH  72  76
ENDBRANCH  55  69
BRANCH  56  80
ATOM     80  C   UNL     1      -2.288   5.587 -12.607  1.00  0.00     0.023 A 
ATOM     81  C   UNL     1      -2.688   4.619 -13.542  1.00  0.00     0.031 A 
ATOM     82  C   UNL     1      -3.231   6.560 -12.225  1.00  0.00     0.131 A 
ATOM     83  C   UNL     1      -3.975   4.674 -14.100  1.00  0.00     0.055 A 
ATOM     84  C   UNL     1      -4.529   6.574 -12.736  1.00  0.00     0.041 A 
ATOM     85  F   UNL     1      -2.902   7.511 -11.335  1.00  0.00    -0.206 F 
ATOM     86  C   UNL     1      -4.903   5.635 -13.691  1.00  0.00     0.022 A 
BRANCH  83  87
ATOM     87  S   UNL     1      -4.391   3.527 -15.442  1.00  0.00     0.124 S 
ATOM     88  O   UNL     1      -3.363   3.839 -16.428  1.00  0.00    -0.237 OA
ATOM     89  O   UNL     1      -4.275   2.232 -14.780  1.00  0.00    -0.237 OA
ATOM     90  O   UNL     1      -5.751   3.916 -15.811  1.00  0.00    -0.744 OA
ENDBRANCH  83  87
ENDBRANCH  56  80
BRANCH  68  91
ATOM     91  C   UNL     1       3.961   6.395 -15.607  1.00  0.00     0.023 A 
ATOM     92  C   UNL     1       3.541   7.461 -16.423  1.00  0.00     0.031 A 
ATOM     93  C   UNL     1       4.759   5.394 -16.192  1.00  0.00     0.131 A 
ATOM     94  C   UNL     1       3.845   7.455 -17.793  1.00  0.00     0.055 A 
ATOM     95  C   UNL     1       5.126   5.437 -17.538  1.00  0.00     0.041 A 
ATOM     96  F   UNL     1       5.189   4.350 -15.466  1.00  0.00    -0.206 F 
ATOM     97  C   UNL     1       4.651   6.461 -18.352  1.00  0.00     0.022 A 
BRANCH  94  98
ATOM     98  S   UNL     1       3.050   8.686 -18.864  1.00  0.00     0.124 S 
ATOM     99  O   UNL     1       1.636   8.470 -18.574  1.00  0.00    -0.237 OA
ATOM    100  O   UNL     1       3.618   9.938 -18.373  1.00  0.00    -0.237 OA
ATOM    101  O   UNL     1       3.474   8.296 -20.207  1.00  0.00    -0.744 OA
ENDBRANCH  94  98
ENDBRANCH  68  91
ENDBRANCH  42  43
ENDBRANCH  35  37
ENDBRANCH  34  35
ENDBRANCH  33  34
ENDBRANCH  32  33
ENDBRANCH   1  32
TORSDOF 20
