REMARK SMILES C[C@@H]1CCc2nc(NC(=O)[C@H]3CC=CC[C@@H]3C(=O)OCCOCCOC(=O)c3ccc(-c4c5nc(c(-c6cc(S(=O)(=O)[O-])ccc6F)c6ccc([nH]6)c(-c6cc(S(=O)(=O)[O-])ccc6F)c6nc(c(-c7cc(S(=O)(=O)[O-])ccc7F)c7ccc4[nH]7)C=C6)C=C5)cc3)sc2C1
REMARK SMILES IDX 23 1 22 2 21 3 20 4 19 5 17 6 18 7 16 8 11 9 12 10 13 11
REMARK SMILES IDX 15 12 14 13 9 14 8 15 10 17 7 18 1 19 2 20 3 21 93 22 4 23
REMARK SMILES IDX 92 24 5 25 91 26 6 27 24 28 25 29 26 30 27 31 28 32 29 33
REMARK SMILES IDX 90 34 30 35 89 36 31 37 32 38 33 39 83 40 34 41 88 42 82 43
REMARK SMILES IDX 84 44 35 45 87 46 81 47 80 48 36 50 68 51 48 52 67 53 49 54
REMARK SMILES IDX 52 55 66 56 85 57 50 58 51 59 65 61 86 62 53 63 37 64 38 65
REMARK SMILES IDX 46 66 39 67 45 68 47 69 44 70 40 71 41 72 42 73 43 74 69 75
REMARK SMILES IDX 70 76 78 77 71 78 77 79 79 80 76 81 72 82 73 83 74 84 75 85
REMARK SMILES IDX 54 86 55 87 63 88 56 89 62 90 64 91 61 92 57 93 58 94 59 95
REMARK SMILES IDX 60 96
REMARK H PARENT 8 16 84 49 52 60
REMARK Flexibility Score: inf
ROOT
ATOM      1  C   UNL     1      -1.149  -1.184  -8.537  1.00  0.00     0.202 C 
ENDROOT
BRANCH   1   2
ATOM      2  O   UNL     1      -1.722   0.027  -9.028  1.00  0.00    -0.374 OA
BRANCH   2   3
ATOM      3  C   UNL     1      -2.052   1.031  -8.068  1.00  0.00     0.202 C 
BRANCH   3   4
ATOM      4  C   UNL     1      -3.382   0.825  -7.348  1.00  0.00     0.261 C 
BRANCH   4   5
ATOM      5  O   UNL     1      -3.312  -0.285  -6.429  1.00  0.00    -0.463 OA
BRANCH   5   6
ATOM      6  C   UNL     1      -4.048  -1.380  -6.749  1.00  0.00     0.310 C 
ATOM      7  O   UNL     1      -4.786  -1.456  -7.726  1.00  0.00    -0.252 OA
BRANCH   6   8
ATOM      8  C   UNL     1      -3.857  -2.546  -5.786  1.00  0.00     0.116 C 
ATOM      9  C   UNL     1      -3.163  -2.186  -4.449  1.00  0.00     0.097 C 
ATOM     10  C   UNL     1      -1.631  -2.230  -4.559  1.00  0.00     0.041 C 
ATOM     11  C   UNL     1      -1.081  -3.383  -5.328  1.00  0.00    -0.030 C 
ATOM     12  C   UNL     1      -3.240  -3.751  -6.529  1.00  0.00     0.043 C 
ATOM     13  C   UNL     1      -1.812  -4.073  -6.207  1.00  0.00    -0.030 C 
BRANCH   9  14
ATOM     14  C   UNL     1      -3.653  -3.076  -3.307  1.00  0.00     0.230 C 
ATOM     15  N   UNL     1      -3.388  -2.834  -1.996  1.00  0.00    -0.302 N 
ATOM     16  H   UNL     1      -3.705  -3.555  -1.406  1.00  0.00     0.172 HD
ATOM     17  O   UNL     1      -4.319  -4.091  -3.552  1.00  0.00    -0.274 OA
BRANCH  15  18
ATOM     18  C   UNL     1      -2.780  -1.819  -1.309  1.00  0.00     0.189 A 
ATOM     19  C   UNL     1       1.519  -0.002   0.314  1.00  0.00     0.008 C 
ATOM     20  C   UNL     1       0.410   0.997   0.695  1.00  0.00    -0.009 C 
ATOM     21  C   UNL     1      -0.359   0.511   1.947  1.00  0.00     0.010 C 
ATOM     22  C   UNL     1      -0.592   1.244  -0.466  1.00  0.00     0.052 C 
ATOM     23  C   UNL     1      -1.072  -0.838   1.720  1.00  0.00     0.058 C 
ATOM     24  C   UNL     1      -1.502   0.072  -0.594  1.00  0.00     0.030 A 
ATOM     25  C   UNL     1      -1.717  -0.885   0.374  1.00  0.00     0.057 A 
ATOM     26  S   UNL     1      -2.401  -0.296  -1.979  1.00  0.00    -0.101 S 
ATOM     27  N   UNL     1      -2.478  -1.961  -0.036  1.00  0.00    -0.225 NA
ENDBRANCH  15  18
ENDBRANCH   9  14
ENDBRANCH   6   8
ENDBRANCH   5   6
ENDBRANCH   4   5
ENDBRANCH   3   4
ENDBRANCH   2   3
ENDBRANCH   1   2
BRANCH   1  28
ATOM     28  C   UNL     1       0.338  -1.126  -8.221  1.00  0.00     0.261 C 
BRANCH  28  29
ATOM     29  O   UNL     1       0.554  -0.402  -7.016  1.00  0.00    -0.460 OA
BRANCH  29  30
ATOM     30  C   UNL     1       1.013   0.861  -7.131  1.00  0.00     0.338 C 
ATOM     31  O   UNL     1       1.101   1.541  -8.145  1.00  0.00    -0.246 OA
BRANCH  30  32
ATOM     32  C   UNL     1       1.536   1.224  -5.812  1.00  0.00     0.060 A 
ATOM     33  C   UNL     1       2.587   2.134  -5.793  1.00  0.00     0.016 A 
ATOM     34  C   UNL     1       1.209   0.440  -4.694  1.00  0.00     0.016 A 
ATOM     35  C   UNL     1       3.465   2.067  -4.737  1.00  0.00     0.010 A 
ATOM     36  C   UNL     1       2.099   0.349  -3.658  1.00  0.00     0.010 A 
ATOM     37  C   UNL     1       3.258   1.107  -3.735  1.00  0.00    -0.014 A 
BRANCH  37  38
ATOM     38  C   UNL     1       4.221   1.040  -2.661  1.00  0.00     0.031 A 
ATOM     39  C   UNL     1       4.200   2.261  -1.827  1.00  0.00     0.074 A 
ATOM     40  C   UNL     1       4.970  -0.051  -2.407  1.00  0.00     0.049 A 
ATOM     41  N   UNL     1       5.163   3.084  -1.609  1.00  0.00    -0.248 NA
ATOM     42  C   UNL     1       2.905   2.723  -1.303  1.00  0.00     0.031 C 
ATOM     43  C   UNL     1       4.881  -1.379  -3.019  1.00  0.00     0.029 A 
ATOM     44  N   UNL     1       5.929  -0.216  -1.458  1.00  0.00    -0.354 N 
ATOM     45  C   UNL     1       4.663   4.033  -0.727  1.00  0.00     0.074 A 
ATOM     46  C   UNL     1       3.244   3.838  -0.664  1.00  0.00     0.031 C 
ATOM     47  C   UNL     1       5.602  -2.259  -2.284  1.00  0.00     0.029 A 
ATOM     48  C   UNL     1       6.300  -1.538  -1.230  1.00  0.00     0.049 A 
ATOM     49  H   UNL     1       6.330   0.540  -0.970  1.00  0.00     0.167 HD
ATOM     50  C   UNL     1       5.512   4.752   0.046  1.00  0.00     0.034 A 
ATOM     51  C   UNL     1       7.076  -2.004  -0.214  1.00  0.00     0.034 A 
ATOM     52  C   UNL     1       6.820   4.817  -0.569  1.00  0.00     0.049 A 
ATOM     53  C   UNL     1       7.878  -0.852   0.275  1.00  0.00     0.074 A 
ATOM     54  C   UNL     1       7.255   5.255  -1.808  1.00  0.00     0.029 A 
ATOM     55  N   UNL     1       7.824   4.002  -0.090  1.00  0.00    -0.354 N 
ATOM     56  N   UNL     1       8.791  -0.261  -0.447  1.00  0.00    -0.248 NA
ATOM     57  C   UNL     1       7.332  -0.045   1.357  1.00  0.00     0.031 C 
ATOM     58  C   UNL     1       8.212   4.284  -2.220  1.00  0.00     0.029 A 
ATOM     59  C   UNL     1       8.386   3.373  -1.175  1.00  0.00     0.049 A 
ATOM     60  H   UNL     1       8.088   3.891   0.852  1.00  0.00     0.167 HD
ATOM     61  C   UNL     1       8.622   1.095  -0.204  1.00  0.00     0.074 A 
ATOM     62  C   UNL     1       7.775   1.161   0.986  1.00  0.00     0.031 C 
ATOM     63  C   UNL     1       8.945   2.033  -1.143  1.00  0.00     0.034 A 
BRANCH  50  64
ATOM     64  C   UNL     1       5.274   4.984   1.516  1.00  0.00     0.023 A 
ATOM     65  C   UNL     1       6.320   5.613   2.207  1.00  0.00     0.031 A 
ATOM     66  C   UNL     1       4.301   4.338   2.314  1.00  0.00     0.131 A 
ATOM     67  C   UNL     1       6.478   5.426   3.586  1.00  0.00     0.055 A 
ATOM     68  C   UNL     1       4.420   4.227   3.702  1.00  0.00     0.041 A 
ATOM     69  F   UNL     1       3.238   3.707   1.801  1.00  0.00    -0.206 F 
ATOM     70  C   UNL     1       5.540   4.730   4.342  1.00  0.00     0.022 A 
BRANCH  67  71
ATOM     71  S   UNL     1       8.066   5.903   4.306  1.00  0.00     0.124 S 
ATOM     72  O   UNL     1       8.993   5.163   3.456  1.00  0.00    -0.237 OA
ATOM     73  O   UNL     1       8.046   7.352   4.131  1.00  0.00    -0.237 OA
ATOM     74  O   UNL     1       7.964   5.436   5.685  1.00  0.00    -0.744 OA
ENDBRANCH  67  71
ENDBRANCH  50  64
BRANCH  51  75
ATOM     75  C   UNL     1       6.921  -3.284   0.537  1.00  0.00     0.023 A 
ATOM     76  C   UNL     1       7.943  -3.837   1.341  1.00  0.00     0.031 A 
ATOM     77  C   UNL     1       5.639  -3.869   0.660  1.00  0.00     0.131 A 
ATOM     78  C   UNL     1       7.661  -4.919   2.213  1.00  0.00     0.055 A 
ATOM     79  C   UNL     1       5.369  -4.939   1.516  1.00  0.00     0.041 A 
ATOM     80  F   UNL     1       4.578  -3.362   0.013  1.00  0.00    -0.206 F 
ATOM     81  C   UNL     1       6.378  -5.463   2.305  1.00  0.00     0.022 A 
BRANCH  78  82
ATOM     82  S   UNL     1       8.948  -5.583   3.323  1.00  0.00     0.124 S 
ATOM     83  O   UNL     1       9.861  -6.231   2.388  1.00  0.00    -0.237 OA
ATOM     84  O   UNL     1       9.440  -4.383   3.988  1.00  0.00    -0.237 OA
ATOM     85  O   UNL     1       8.209  -6.501   4.192  1.00  0.00    -0.744 OA
ENDBRANCH  78  82
ENDBRANCH  51  75
BRANCH  63  86
ATOM     86  C   UNL     1       9.769   1.613  -2.345  1.00  0.00     0.023 A 
ATOM     87  C   UNL     1       9.421   0.590  -3.256  1.00  0.00     0.031 A 
ATOM     88  C   UNL     1      10.902   2.393  -2.644  1.00  0.00     0.131 A 
ATOM     89  C   UNL     1      10.205   0.376  -4.409  1.00  0.00     0.055 A 
ATOM     90  C   UNL     1      11.659   2.195  -3.796  1.00  0.00     0.041 A 
ATOM     91  F   UNL     1      11.270   3.399  -1.833  1.00  0.00    -0.206 F 
ATOM     92  C   UNL     1      11.317   1.181  -4.681  1.00  0.00     0.022 A 
BRANCH  89  93
ATOM     93  S   UNL     1       9.805  -0.965  -5.576  1.00  0.00     0.124 S 
ATOM     94  O   UNL     1       9.584  -2.118  -4.711  1.00  0.00    -0.237 OA
ATOM     95  O   UNL     1       8.626  -0.445  -6.263  1.00  0.00    -0.237 OA
ATOM     96  O   UNL     1      11.003  -1.054  -6.414  1.00  0.00    -0.744 OA
ENDBRANCH  89  93
ENDBRANCH  63  86
ENDBRANCH  37  38
ENDBRANCH  30  32
ENDBRANCH  29  30
ENDBRANCH  28  29
ENDBRANCH   1  28
TORSDOF 19
