REMARK SMILES Cc1ccc(NS(=O)(=O)c2cc(C(=O)Nc3ccccc3C(=O)OCCOCCOC(=O)c3ccc(-c4c5nc(c(-c6cc(S(=O)(=O)[O-])ccc6F)c6ccc([nH]6)c(-c6cc(S(=O)(=O)[O-])ccc6F)c6nc(c(-c7cc(S(=O)(=O)[O-])ccc7F)c7ccc4[nH]7)C=C6)C=C5)cc3)ccc2Br)cc1
REMARK SMILES IDX 26 1 25 2 24 3 22 4 23 5 21 6 16 7 17 8 18 9 20 10 19 11
REMARK SMILES IDX 15 12 13 13 14 14 12 16 10 17 11 18 98 19 97 20 99 21 96 22
REMARK SMILES IDX 7 23 8 24 9 25 6 26 5 28 1 29 2 30 3 31 101 32 4 33 100 34
REMARK SMILES IDX 27 35 28 36 29 37 30 38 31 39 32 40 33 41 34 42 95 43 35 44
REMARK SMILES IDX 94 45 36 46 37 47 38 48 88 49 39 50 93 51 87 52 89 53 40 54
REMARK SMILES IDX 92 55 86 56 85 57 41 59 73 60 53 61 72 62 54 63 57 64 71 65
REMARK SMILES IDX 90 66 55 67 56 68 70 70 91 71 58 72 42 73 43 74 51 75 44 76
REMARK SMILES IDX 50 77 52 78 49 79 45 80 46 81 47 82 48 83 74 84 75 85 83 86
REMARK SMILES IDX 76 87 82 88 84 89 81 90 77 91 78 92 79 93 80 94 59 95 60 96
REMARK SMILES IDX 68 97 61 98 67 99 69 100 66 101 62 102 63 103 64 104 65 105
REMARK H PARENT 15 15 6 27 89 58 57 69
REMARK Flexibility Score: inf
ROOT
ATOM      1  C   UNL     1      -3.560  -3.639   2.294  1.00  0.00     0.202 C 
ENDROOT
BRANCH   1   2
ATOM      2  C   UNL     1      -3.155  -2.386   2.938  1.00  0.00     0.261 C 
BRANCH   2   3
ATOM      3  O   UNL     1      -2.541  -1.423   2.113  1.00  0.00    -0.460 OA
BRANCH   3   4
ATOM      4  C   UNL     1      -1.217  -1.346   1.984  1.00  0.00     0.340 C 
ATOM      5  O   UNL     1      -0.298  -1.976   2.459  1.00  0.00    -0.246 OA
BRANCH   4   6
ATOM      6  C   UNL     1      -1.139  -0.337   0.955  1.00  0.00     0.083 A 
ATOM      7  C   UNL     1       0.140  -0.381  -0.321  1.00  0.00     0.056 A 
ATOM      8  C   UNL     1       0.182   1.189  -1.588  1.00  0.00     0.027 A 
ATOM      9  C   UNL     1      -1.099   2.457  -1.474  1.00  0.00     0.002 A 
ATOM     10  C   UNL     1      -2.324   0.978   0.962  1.00  0.00     0.018 A 
ATOM     11  C   UNL     1      -2.304   2.310  -0.208  1.00  0.00     0.001 A 
BRANCH   7  12
ATOM     12  N   UNL     1       0.928  -1.693  -0.161  1.00  0.00    -0.321 N 
ATOM     13  C   UNL     1       0.752  -3.022  -0.636  1.00  0.00     0.255 C 
ATOM     14  O   UNL     1       1.587  -3.889  -0.373  1.00  0.00    -0.269 OA
ATOM     15  H   UNL     1       1.735  -1.589   0.394  1.00  0.00     0.170 HD
BRANCH  13  16
ATOM     16  C   UNL     1      -0.458  -3.481  -1.393  1.00  0.00     0.041 A 
ATOM     17  C   UNL     1      -2.800  -2.818  -1.808  1.00  0.00     0.102 A 
ATOM     18  C   UNL     1      -1.560  -2.686  -1.248  1.00  0.00     0.037 A 
ATOM     19  C   UNL     1      -3.094  -4.060  -2.326  1.00  0.00     0.038 A 
ATOM     20  C   UNL     1      -2.050  -5.027  -2.381  1.00  0.00     0.018 A 
ATOM     21  Br  UNL     1      -4.861  -4.647  -2.665  1.00  0.00    -0.049 Br
ATOM     22  C   UNL     1      -0.724  -4.729  -1.948  1.00  0.00     0.015 A 
BRANCH  17  23
ATOM     23  S   UNL     1      -3.847  -1.459  -1.403  1.00  0.00     0.263 S 
ATOM     24  O   UNL     1      -4.171  -1.689  -0.022  1.00  0.00    -0.201 OA
ATOM     25  O   UNL     1      -4.864  -1.358  -2.425  1.00  0.00    -0.201 OA
BRANCH  23  26
ATOM     26  N   UNL     1      -2.974   0.083  -1.429  1.00  0.00    -0.280 N 
ATOM     27  H   UNL     1      -3.506   0.879  -1.658  1.00  0.00     0.180 HD
BRANCH  26  28
ATOM     28  C   UNL     1      -1.447   0.332  -1.128  1.00  0.00     0.049 A 
ATOM     29  C   UNL     1       3.622  -0.062  -0.854  1.00  0.00     0.044 C 
ATOM     30  C   UNL     1       2.184   0.306  -1.112  1.00  0.00    -0.051 A 
ATOM     31  C   UNL     1       1.251  -0.577  -2.349  1.00  0.00     0.005 A 
ATOM     32  C   UNL     1       1.454   1.303   0.123  1.00  0.00     0.005 A 
ATOM     33  C   UNL     1      -0.521  -0.564  -2.414  1.00  0.00     0.027 A 
ATOM     34  C   UNL     1      -0.333   1.391   0.181  1.00  0.00     0.027 A 
ENDBRANCH  26  28
ENDBRANCH  23  26
ENDBRANCH  17  23
ENDBRANCH  13  16
ENDBRANCH   7  12
ENDBRANCH   4   6
ENDBRANCH   3   4
ENDBRANCH   2   3
ENDBRANCH   1   2
BRANCH   1  35
ATOM     35  O   UNL     1      -2.326  -4.305   2.359  1.00  0.00    -0.374 OA
BRANCH  35  36
ATOM     36  C   UNL     1      -1.792  -4.830   1.217  1.00  0.00     0.202 C 
BRANCH  36  37
ATOM     37  C   UNL     1      -2.675  -5.937   0.722  1.00  0.00     0.261 C 
BRANCH  37  38
ATOM     38  O   UNL     1      -3.533  -6.727   1.625  1.00  0.00    -0.460 OA
BRANCH  38  39
ATOM     39  C   UNL     1      -3.806  -6.905   2.945  1.00  0.00     0.338 C 
ATOM     40  O   UNL     1      -4.861  -7.443   3.273  1.00  0.00    -0.246 OA
BRANCH  39  41
ATOM     41  C   UNL     1      -2.893  -6.444   4.024  1.00  0.00     0.060 A 
ATOM     42  C   UNL     1      -3.409  -5.863   5.202  1.00  0.00     0.016 A 
ATOM     43  C   UNL     1      -1.560  -6.314   3.751  1.00  0.00     0.016 A 
ATOM     44  C   UNL     1      -2.682  -4.865   5.891  1.00  0.00     0.010 A 
ATOM     45  C   UNL     1      -0.980  -5.169   4.274  1.00  0.00     0.010 A 
ATOM     46  C   UNL     1      -1.514  -4.392   5.317  1.00  0.00    -0.014 A 
BRANCH  46  47
ATOM     47  C   UNL     1      -0.684  -3.197   5.668  1.00  0.00     0.031 A 
ATOM     48  C   UNL     1       0.681  -3.640   6.113  1.00  0.00     0.074 A 
ATOM     49  C   UNL     1      -1.071  -1.882   5.530  1.00  0.00     0.049 A 
ATOM     50  N   UNL     1       1.210  -3.339   7.251  1.00  0.00    -0.248 NA
ATOM     51  C   UNL     1       1.483  -4.716   5.461  1.00  0.00     0.031 C 
ATOM     52  C   UNL     1      -0.356  -0.595   5.598  1.00  0.00     0.029 A 
ATOM     53  N   UNL     1      -2.344  -1.377   5.208  1.00  0.00    -0.354 N 
ATOM     54  C   UNL     1       2.531  -3.735   7.136  1.00  0.00     0.074 A 
ATOM     55  C   UNL     1       2.511  -4.868   6.287  1.00  0.00     0.031 C 
ATOM     56  C   UNL     1      -1.237   0.434   5.756  1.00  0.00     0.029 A 
ATOM     57  C   UNL     1      -2.587  -0.120   5.752  1.00  0.00     0.049 A 
ATOM     58  H   UNL     1      -2.996  -1.864   4.654  1.00  0.00     0.167 HD
ATOM     59  C   UNL     1       3.526  -2.823   7.316  1.00  0.00     0.034 A 
ATOM     60  C   UNL     1      -3.643   0.004   6.597  1.00  0.00     0.034 A 
ATOM     61  C   UNL     1       2.924  -1.514   7.601  1.00  0.00     0.049 A 
ATOM     62  C   UNL     1      -2.945  -0.007   7.939  1.00  0.00     0.074 A 
ATOM     63  C   UNL     1       2.844  -0.310   6.926  1.00  0.00     0.029 A 
ATOM     64  N   UNL     1       1.961  -1.455   8.597  1.00  0.00    -0.354 N 
ATOM     65  N   UNL     1      -1.782  -0.589   8.133  1.00  0.00    -0.248 NA
ATOM     66  C   UNL     1      -3.327   0.879   9.029  1.00  0.00     0.031 C 
ATOM     67  C   UNL     1       1.784   0.450   7.530  1.00  0.00     0.029 A 
ATOM     68  C   UNL     1       1.184  -0.324   8.515  1.00  0.00     0.049 A 
ATOM     69  H   UNL     1       1.846  -2.147   9.287  1.00  0.00     0.167 HD
ATOM     70  C   UNL     1      -1.165   0.009   9.189  1.00  0.00     0.074 A 
ATOM     71  C   UNL     1      -2.198   0.872   9.757  1.00  0.00     0.031 C 
ATOM     72  C   UNL     1       0.154  -0.133   9.526  1.00  0.00     0.034 A 
BRANCH  59  73
ATOM     73  C   UNL     1       5.000  -3.022   7.019  1.00  0.00     0.023 A 
ATOM     74  C   UNL     1       5.844  -1.927   7.273  1.00  0.00     0.031 A 
ATOM     75  C   UNL     1       5.669  -4.190   6.580  1.00  0.00     0.131 A 
ATOM     76  C   UNL     1       7.237  -2.005   7.109  1.00  0.00     0.055 A 
ATOM     77  C   UNL     1       7.059  -4.268   6.406  1.00  0.00     0.041 A 
ATOM     78  F   UNL     1       5.046  -5.341   6.317  1.00  0.00    -0.206 F 
ATOM     79  C   UNL     1       7.856  -3.173   6.680  1.00  0.00     0.022 A 
BRANCH  76  80
ATOM     80  S   UNL     1       8.224  -0.546   7.510  1.00  0.00     0.124 S 
ATOM     81  O   UNL     1       7.753   0.418   6.520  1.00  0.00    -0.237 OA
ATOM     82  O   UNL     1       7.846  -0.290   8.895  1.00  0.00    -0.237 OA
ATOM     83  O   UNL     1       9.599  -1.006   7.321  1.00  0.00    -0.744 OA
ENDBRANCH  76  80
ENDBRANCH  59  73
BRANCH  60  84
ATOM     84  C   UNL     1      -4.843  -0.783   6.077  1.00  0.00     0.023 A 
ATOM     85  C   UNL     1      -5.504  -0.322   4.891  1.00  0.00     0.031 A 
ATOM     86  C   UNL     1      -5.030  -2.136   6.398  1.00  0.00     0.131 A 
ATOM     87  C   UNL     1      -6.186  -1.217   4.024  1.00  0.00     0.055 A 
ATOM     88  C   UNL     1      -5.696  -3.024   5.527  1.00  0.00     0.041 A 
ATOM     89  F   UNL     1      -4.446  -2.658   7.485  1.00  0.00    -0.206 F 
ATOM     90  C   UNL     1      -6.247  -2.580   4.324  1.00  0.00     0.022 A 
BRANCH  87  91
ATOM     91  S   UNL     1      -6.650  -0.682   2.323  1.00  0.00     0.124 S 
ATOM     92  O   UNL     1      -7.946  -0.052   2.550  1.00  0.00    -0.237 OA
ATOM     93  O   UNL     1      -5.566   0.229   1.959  1.00  0.00    -0.237 OA
ATOM     94  O   UNL     1      -6.694  -1.939   1.578  1.00  0.00    -0.744 OA
ENDBRANCH  87  91
ENDBRANCH  60  84
BRANCH  72  95
ATOM     95  C   UNL     1       0.557  -0.154  10.974  1.00  0.00     0.023 A 
ATOM     96  C   UNL     1      -0.411  -0.162  11.974  1.00  0.00     0.031 A 
ATOM     97  C   UNL     1       1.894  -0.300  11.411  1.00  0.00     0.131 A 
ATOM     98  C   UNL     1      -0.060  -0.089  13.316  1.00  0.00     0.055 A 
ATOM     99  C   UNL     1       2.234  -0.412  12.757  1.00  0.00     0.041 A 
ATOM    100  F   UNL     1       2.932  -0.359  10.566  1.00  0.00    -0.206 F 
ATOM    101  C   UNL     1       1.257  -0.251  13.726  1.00  0.00     0.022 A 
BRANCH  98 102
ATOM    102  S   UNL     1      -1.372   0.398  14.448  1.00  0.00     0.124 S 
ATOM    103  O   UNL     1      -1.730   1.717  13.930  1.00  0.00    -0.237 OA
ATOM    104  O   UNL     1      -2.370  -0.647  14.247  1.00  0.00    -0.237 OA
ATOM    105  O   UNL     1      -0.712   0.397  15.750  1.00  0.00    -0.744 OA
ENDBRANCH  98 102
ENDBRANCH  72  95
ENDBRANCH  46  47
ENDBRANCH  39  41
ENDBRANCH  38  39
ENDBRANCH  37  38
ENDBRANCH  36  37
ENDBRANCH  35  36
ENDBRANCH   1  35
TORSDOF 22
