REMARK SMILES NS(=O)(=O)c1ccc(-n2nc(C(=O)OCCOCCOC(=O)c3ccc(-c4c5nc(c(-c6cc(S(=O)(=O)[O-])ccc6F)c6ccc([nH]6)c(-c6cc(S(=O)(=O)[O-])ccc6F)c6nc(c(-c7cc(S(=O)(=O)[O-])ccc7F)c7ccc4[nH]7)C=C6)C=C5)cc3)cc2-c2cc3ccccc3s2)cc1
REMARK SMILES IDX 17 1 16 2 15 3 14 4 12 5 13 6 11 7 9 8 10 9 87 10 86 11 8 12
REMARK SMILES IDX 5 13 6 14 98 15 7 16 97 17 2 18 3 19 4 20 1 21 88 24 89 25
REMARK SMILES IDX 96 26 90 27 95 28 91 29 94 30 92 31 93 32 18 33 19 34 20 35
REMARK SMILES IDX 21 36 22 37 23 38 24 39 85 40 25 41 84 42 26 43 27 44 28 45
REMARK SMILES IDX 78 46 29 47 83 48 77 49 79 50 30 51 82 52 76 53 75 54 31 56
REMARK SMILES IDX 63 57 43 58 62 59 44 60 47 61 61 62 80 63 45 64 46 65 60 67
REMARK SMILES IDX 81 68 48 69 32 70 33 71 41 72 34 73 40 74 42 75 39 76 35 77
REMARK SMILES IDX 36 78 37 79 38 80 64 81 65 82 73 83 66 84 72 85 74 86 71 87
REMARK SMILES IDX 67 88 68 89 69 90 70 91 49 92 50 93 58 94 51 95 57 96 59 97
REMARK SMILES IDX 56 98 52 99 53 100 54 101 55 102
REMARK H PARENT 1 22 1 23 79 55 47 66
REMARK Flexibility Score: inf
ROOT
ATOM      1  O   UNL     1       2.897  10.421  -4.154  1.00  0.00    -0.374 OA
ENDROOT
BRANCH   1   2
ATOM      2  C   UNL     1       3.237  10.689  -5.513  1.00  0.00     0.202 C 
BRANCH   2   3
ATOM      3  C   UNL     1       4.109   9.661  -6.235  1.00  0.00     0.261 C 
BRANCH   3   4
ATOM      4  O   UNL     1       3.432   8.406  -6.357  1.00  0.00    -0.458 OA
BRANCH   4   5
ATOM      5  C   UNL     1       3.847   7.420  -5.502  1.00  0.00     0.358 C 
ATOM      6  O   UNL     1       4.867   7.471  -4.825  1.00  0.00    -0.244 OA
BRANCH   5   7
ATOM      7  C   UNL     1       2.882   6.314  -5.465  1.00  0.00     0.171 A 
ATOM      8  N   UNL     1       2.086   4.385  -5.052  1.00  0.00    -0.231 N 
ATOM      9  N   UNL     1       2.863   5.359  -4.516  1.00  0.00    -0.160 NA
ATOM     10  C   UNL     1       1.686   4.703  -6.327  1.00  0.00     0.085 A 
ATOM     11  C   UNL     1       1.858   6.075  -6.409  1.00  0.00     0.068 A 
BRANCH   8  12
ATOM     12  C   UNL     1       1.710   3.278  -4.280  1.00  0.00     0.065 A 
ATOM     13  C   UNL     1       0.965   1.128  -2.713  1.00  0.00     0.082 A 
ATOM     14  C   UNL     1       1.863   0.937  -3.773  1.00  0.00     0.024 A 
ATOM     15  C   UNL     1       0.436   2.393  -2.432  1.00  0.00     0.024 A 
ATOM     16  C   UNL     1       2.228   2.018  -4.575  1.00  0.00     0.030 A 
ATOM     17  C   UNL     1       0.830   3.482  -3.207  1.00  0.00     0.030 A 
BRANCH  13  18
ATOM     18  S   UNL     1       0.484  -0.254  -1.722  1.00  0.00     0.238 S 
ATOM     19  O   UNL     1       1.182  -1.432  -2.163  1.00  0.00    -0.207 OA
ATOM     20  O   UNL     1      -0.953  -0.221  -1.540  1.00  0.00    -0.207 OA
BRANCH  18  21
ATOM     21  N   UNL     1       1.151   0.127  -0.228  1.00  0.00    -0.225 NA
ATOM     22  H   UNL     1       0.935  -0.613   0.439  1.00  0.00     0.137 HD
ATOM     23  H   UNL     1       0.761   1.009   0.104  1.00  0.00     0.137 HD
ENDBRANCH  18  21
ENDBRANCH  13  18
ENDBRANCH   8  12
BRANCH  10  24
ATOM     24  C   UNL     1       1.498   3.836  -7.465  1.00  0.00     0.054 A 
ATOM     25  C   UNL     1       0.449   3.878  -8.380  1.00  0.00     0.031 A 
ATOM     26  S   UNL     1       2.919   3.683  -8.497  1.00  0.00    -0.134 S 
ATOM     27  C   UNL     1       0.842   4.849  -9.395  1.00  0.00    -0.007 A 
ATOM     28  C   UNL     1       2.238   4.995  -9.421  1.00  0.00     0.035 A 
ATOM     29  C   UNL     1       0.067   5.736 -10.172  1.00  0.00     0.009 A 
ATOM     30  C   UNL     1       2.874   6.074 -10.053  1.00  0.00     0.019 A 
ATOM     31  C   UNL     1       0.687   6.838 -10.772  1.00  0.00     0.001 A 
ATOM     32  C   UNL     1       2.063   7.026 -10.675  1.00  0.00     0.001 A 
ENDBRANCH  10  24
ENDBRANCH   5   7
ENDBRANCH   4   5
ENDBRANCH   3   4
ENDBRANCH   2   3
ENDBRANCH   1   2
BRANCH   1  33
ATOM     33  C   UNL     1       1.936   9.417  -3.845  1.00  0.00     0.202 C 
BRANCH  33  34
ATOM     34  C   UNL     1       0.479   9.625  -4.228  1.00  0.00     0.261 C 
BRANCH  34  35
ATOM     35  O   UNL     1       0.278   9.867  -5.614  1.00  0.00    -0.460 OA
BRANCH  35  36
ATOM     36  C   UNL     1       0.035  11.174  -5.880  1.00  0.00     0.338 C 
ATOM     37  O   UNL     1       0.440  12.133  -5.245  1.00  0.00    -0.246 OA
BRANCH  36  38
ATOM     38  C   UNL     1      -0.958  11.269  -6.955  1.00  0.00     0.060 A 
ATOM     39  C   UNL     1      -1.359  12.554  -7.324  1.00  0.00     0.016 A 
ATOM     40  C   UNL     1      -1.644  10.126  -7.392  1.00  0.00     0.016 A 
ATOM     41  C   UNL     1      -2.555  12.701  -7.995  1.00  0.00     0.010 A 
ATOM     42  C   UNL     1      -2.846  10.277  -8.047  1.00  0.00     0.010 A 
ATOM     43  C   UNL     1      -3.322  11.564  -8.283  1.00  0.00    -0.014 A 
BRANCH  43  44
ATOM     44  C   UNL     1      -4.535  11.739  -9.062  1.00  0.00     0.031 A 
ATOM     45  C   UNL     1      -4.210  12.130 -10.451  1.00  0.00     0.074 A 
ATOM     46  C   UNL     1      -5.779  11.481  -8.610  1.00  0.00     0.049 A 
ATOM     47  N   UNL     1      -4.320  13.310 -10.963  1.00  0.00    -0.248 NA
ATOM     48  C   UNL     1      -3.433  11.193 -11.282  1.00  0.00     0.031 C 
ATOM     49  C   UNL     1      -6.163  10.899  -7.324  1.00  0.00     0.029 A 
ATOM     50  N   UNL     1      -6.977  11.615  -9.248  1.00  0.00    -0.354 N 
ATOM     51  C   UNL     1      -3.929  13.163 -12.285  1.00  0.00     0.074 A 
ATOM     52  C   UNL     1      -3.143  11.962 -12.332  1.00  0.00     0.031 C 
ATOM     53  C   UNL     1      -7.464  10.524  -7.372  1.00  0.00     0.029 A 
ATOM     54  C   UNL     1      -8.039  10.939  -8.644  1.00  0.00     0.049 A 
ATOM     55  H   UNL     1      -7.084  12.147 -10.070  1.00  0.00     0.167 HD
ATOM     56  C   UNL     1      -4.600  13.829 -13.262  1.00  0.00     0.034 A 
ATOM     57  C   UNL     1      -9.276  10.696  -9.171  1.00  0.00     0.034 A 
ATOM     58  C   UNL     1      -5.324  14.959 -12.710  1.00  0.00     0.049 A 
ATOM     59  C   UNL     1      -9.500  11.721 -10.222  1.00  0.00     0.074 A 
ATOM     60  C   UNL     1      -4.970  16.041 -11.923  1.00  0.00     0.029 A 
ATOM     61  N   UNL     1      -6.694  14.861 -12.600  1.00  0.00    -0.354 N 
ATOM     62  N   UNL     1      -9.624  12.992  -9.958  1.00  0.00    -0.248 NA
ATOM     63  C   UNL     1      -9.070  11.413 -11.578  1.00  0.00     0.031 C 
ATOM     64  C   UNL     1      -6.053  16.206 -11.009  1.00  0.00     0.029 A 
ATOM     65  C   UNL     1      -7.058  15.298 -11.350  1.00  0.00     0.049 A 
ATOM     66  H   UNL     1      -7.307  14.534 -13.298  1.00  0.00     0.167 HD
ATOM     67  C   UNL     1      -8.849  13.630 -10.913  1.00  0.00     0.074 A 
ATOM     68  C   UNL     1      -8.611  12.616 -11.941  1.00  0.00     0.031 C 
ATOM     69  C   UNL     1      -8.228  14.817 -10.636  1.00  0.00     0.034 A 
BRANCH  56  70
ATOM     70  C   UNL     1      -4.968  13.197 -14.590  1.00  0.00     0.023 A 
ATOM     71  C   UNL     1      -5.686  14.001 -15.492  1.00  0.00     0.031 A 
ATOM     72  C   UNL     1      -4.939  11.813 -14.894  1.00  0.00     0.131 A 
ATOM     73  C   UNL     1      -6.426  13.425 -16.538  1.00  0.00     0.055 A 
ATOM     74  C   UNL     1      -5.620  11.255 -15.978  1.00  0.00     0.041 A 
ATOM     75  F   UNL     1      -4.335  10.902 -14.126  1.00  0.00    -0.206 F 
ATOM     76  C   UNL     1      -6.400  12.057 -16.787  1.00  0.00     0.022 A 
BRANCH  73  77
ATOM     77  S   UNL     1      -7.573  14.485 -17.448  1.00  0.00     0.124 S 
ATOM     78  O   UNL     1      -8.413  14.988 -16.367  1.00  0.00    -0.237 OA
ATOM     79  O   UNL     1      -6.665  15.448 -18.062  1.00  0.00    -0.237 OA
ATOM     80  O   UNL     1      -8.223  13.561 -18.373  1.00  0.00    -0.744 OA
ENDBRANCH  73  77
ENDBRANCH  56  70
BRANCH  57  81
ATOM     81  C   UNL     1     -10.097   9.445  -9.069  1.00  0.00     0.023 A 
ATOM     82  C   UNL     1     -11.455   9.366  -9.474  1.00  0.00     0.031 A 
ATOM     83  C   UNL     1      -9.456   8.213  -8.807  1.00  0.00     0.131 A 
ATOM     84  C   UNL     1     -12.096   8.106  -9.608  1.00  0.00     0.055 A 
ATOM     85  C   UNL     1     -10.091   6.977  -8.944  1.00  0.00     0.041 A 
ATOM     86  F   UNL     1      -8.152   8.158  -8.496  1.00  0.00    -0.206 F 
ATOM     87  C   UNL     1     -11.410   6.916  -9.357  1.00  0.00     0.022 A 
BRANCH  84  88
ATOM     88  S   UNL     1     -13.820   7.971 -10.203  1.00  0.00     0.124 S 
ATOM     89  O   UNL     1     -14.581   8.498  -9.077  1.00  0.00    -0.237 OA
ATOM     90  O   UNL     1     -13.802   8.781 -11.415  1.00  0.00    -0.237 OA
ATOM     91  O   UNL     1     -13.989   6.535 -10.435  1.00  0.00    -0.744 OA
ENDBRANCH  84  88
ENDBRANCH  57  81
BRANCH  69  92
ATOM     92  C   UNL     1      -8.677  15.598  -9.411  1.00  0.00     0.023 A 
ATOM     93  C   UNL     1      -8.764  15.088  -8.093  1.00  0.00     0.031 A 
ATOM     94  C   UNL     1      -8.979  16.959  -9.594  1.00  0.00     0.131 A 
ATOM     95  C   UNL     1      -9.174  15.925  -7.034  1.00  0.00     0.055 A 
ATOM     96  C   UNL     1      -9.355  17.791  -8.541  1.00  0.00     0.041 A 
ATOM     97  F   UNL     1      -8.897  17.518 -10.814  1.00  0.00    -0.206 F 
ATOM     98  C   UNL     1      -9.467  17.273  -7.258  1.00  0.00     0.022 A 
BRANCH  95  99
ATOM     99  S   UNL     1      -9.391  15.266  -5.347  1.00  0.00     0.124 S 
ATOM    100  O   UNL     1     -10.068  13.992  -5.558  1.00  0.00    -0.237 OA
ATOM    101  O   UNL     1      -8.015  15.186  -4.863  1.00  0.00    -0.237 OA
ATOM    102  O   UNL     1     -10.207  16.288  -4.688  1.00  0.00    -0.744 OA
ENDBRANCH  95  99
ENDBRANCH  69  92
ENDBRANCH  43  44
ENDBRANCH  36  38
ENDBRANCH  35  36
ENDBRANCH  34  35
ENDBRANCH  33  34
ENDBRANCH   1  33
TORSDOF 21
