REMARK SMILES CC(C)(C)OC(=O)N1CCN(C(=O)c2ccc3c(c2)OCO3)[C@H](C(=O)OCCOCCOC(=O)c2ccc(-c3c4nc(c(-c5cc(S(=O)(=O)[O-])ccc5F)c5ccc([nH]5)c(-c5cc(S(=O)(=O)[O-])ccc5F)c5nc(c(-c6cc(S(=O)(=O)[O-])ccc6F)c6ccc3[nH]6)C=C5)C=C4)cc2)C1
REMARK SMILES IDX 29 1 28 2 27 3 26 4 24 5 25 6 23 7 8 8 9 9 98 10 10 11 11 12
REMARK SMILES IDX 6 13 7 14 5 15 2 16 1 17 3 18 4 19 12 20 13 21 14 22 15 23
REMARK SMILES IDX 19 24 16 25 18 26 17 27 20 28 22 29 21 30 30 31 31 32 32 33
REMARK SMILES IDX 33 34 34 35 35 36 36 37 97 38 37 39 96 40 38 41 39 42 40 43
REMARK SMILES IDX 90 44 41 45 95 46 89 47 91 48 42 49 94 50 88 51 87 52 43 54
REMARK SMILES IDX 75 55 55 56 74 57 56 58 59 59 73 60 92 61 57 62 58 63 72 65
REMARK SMILES IDX 93 66 60 67 44 68 45 69 53 70 46 71 52 72 54 73 51 74 47 75
REMARK SMILES IDX 48 76 49 77 50 78 76 79 77 80 85 81 78 82 84 83 86 84 83 85
REMARK SMILES IDX 79 86 80 87 81 88 82 89 61 90 62 91 70 92 63 93 69 94 71 95
REMARK SMILES IDX 68 96 64 97 65 98 66 99 67 100
REMARK H PARENT 91 53 59 64
REMARK Flexibility Score: inf
ROOT
ATOM      1  O   UNL     1       5.635  -6.328  -0.861  1.00  0.00    -0.374 OA
ENDROOT
BRANCH   1   2
ATOM      2  C   UNL     1       6.517  -6.130   0.231  1.00  0.00     0.202 C 
BRANCH   2   3
ATOM      3  C   UNL     1       6.223  -5.005   1.235  1.00  0.00     0.261 C 
BRANCH   3   4
ATOM      4  O   UNL     1       5.124  -5.302   2.115  1.00  0.00    -0.462 OA
BRANCH   4   5
ATOM      5  C   UNL     1       3.919  -4.906   1.707  1.00  0.00     0.330 C 
ATOM      6  O   UNL     1       3.772  -4.145   0.747  1.00  0.00    -0.250 OA
BRANCH   5   7
ATOM      7  C   UNL     1       2.695  -5.386   2.529  1.00  0.00     0.215 C 
ATOM      8  N   UNL     1       0.875  -3.816   3.318  1.00  0.00    -0.304 N 
ATOM      9  C   UNL     1       0.374  -4.769   4.289  1.00  0.00     0.144 C 
ATOM     10  C   UNL     1       2.289  -3.955   3.038  1.00  0.00     0.160 C 
ATOM     11  C   UNL     1       0.871  -6.202   4.017  1.00  0.00     0.142 C 
ATOM     12  N   UNL     1       2.317  -6.375   3.650  1.00  0.00    -0.321 N 
BRANCH   8  13
ATOM     13  C   UNL     1       0.159  -2.679   2.970  1.00  0.00     0.410 C 
ATOM     14  O   UNL     1      -0.899  -2.361   3.497  1.00  0.00    -0.224 OA
BRANCH  13  15
ATOM     15  O   UNL     1       0.770  -1.972   1.980  1.00  0.00    -0.444 OA
BRANCH  15  16
ATOM     16  C   UNL     1       0.362  -0.638   1.566  1.00  0.00     0.106 C 
ATOM     17  C   UNL     1       1.087  -0.384   0.232  1.00  0.00     0.056 C 
ATOM     18  C   UNL     1       0.865   0.377   2.596  1.00  0.00     0.056 C 
ATOM     19  C   UNL     1      -1.143  -0.491   1.321  1.00  0.00     0.056 C 
ENDBRANCH  15  16
ENDBRANCH  13  15
ENDBRANCH   8  13
BRANCH  12  20
ATOM     20  C   UNL     1       2.692  -7.752   3.836  1.00  0.00     0.254 C 
ATOM     21  O   UNL     1       1.862  -8.601   4.184  1.00  0.00    -0.269 OA
BRANCH  20  22
ATOM     22  C   UNL     1       4.055  -8.344   3.677  1.00  0.00     0.044 A 
ATOM     23  C   UNL     1       5.553  -7.317   3.654  1.00  0.00     0.018 A 
ATOM     24  C   UNL     1       4.185 -10.104   3.132  1.00  0.00     0.064 A 
ATOM     25  C   UNL     1       7.115  -7.967   2.982  1.00  0.00     0.051 A 
ATOM     26  C   UNL     1       5.792 -10.788   2.676  1.00  0.00     0.166 A 
ATOM     27  C   UNL     1       7.234  -9.739   2.561  1.00  0.00     0.165 A 
ATOM     28  O   UNL     1       6.159 -11.988   2.169  1.00  0.00    -0.454 OA
ATOM     29  O   UNL     1       8.239 -10.481   2.053  1.00  0.00    -0.454 OA
ATOM     30  C   UNL     1       7.522 -11.709   1.651  1.00  0.00     0.468 C 
ENDBRANCH  20  22
ENDBRANCH  12  20
ENDBRANCH   5   7
ENDBRANCH   4   5
ENDBRANCH   3   4
ENDBRANCH   2   3
ENDBRANCH   1   2
BRANCH   1  31
ATOM     31  C   UNL     1       4.318  -6.824  -0.674  1.00  0.00     0.202 C 
BRANCH  31  32
ATOM     32  C   UNL     1       3.966  -7.965   0.294  1.00  0.00     0.261 C 
BRANCH  32  33
ATOM     33  O   UNL     1       4.429  -7.821   1.666  1.00  0.00    -0.460 OA
BRANCH  33  34
ATOM     34  C   UNL     1       5.434  -8.806   2.189  1.00  0.00     0.338 C 
ATOM     35  O   UNL     1       5.872  -9.222   1.071  1.00  0.00    -0.246 OA
BRANCH  34  36
ATOM     36  C   UNL     1       5.923  -9.315   4.218  1.00  0.00     0.060 A 
ATOM     37  C   UNL     1       7.323  -9.368   4.892  1.00  0.00     0.016 A 
ATOM     38  C   UNL     1       5.101  -9.816   5.403  1.00  0.00     0.016 A 
ATOM     39  C   UNL     1       7.765  -9.789   6.157  1.00  0.00     0.010 A 
ATOM     40  C   UNL     1       5.537 -10.232   6.728  1.00  0.00     0.010 A 
ATOM     41  C   UNL     1       6.872 -10.215   7.102  1.00  0.00    -0.014 A 
BRANCH  41  42
ATOM     42  C   UNL     1       7.450 -10.518   8.432  1.00  0.00     0.031 A 
ATOM     43  C   UNL     1       7.902 -11.909   8.771  1.00  0.00     0.074 A 
ATOM     44  C   UNL     1       7.828  -9.471   9.195  1.00  0.00     0.049 A 
ATOM     45  N   UNL     1       8.540 -12.335   9.830  1.00  0.00    -0.248 NA
ATOM     46  C   UNL     1       7.636 -12.951   7.769  1.00  0.00     0.031 C 
ATOM     47  C   UNL     1       7.615  -8.063   8.835  1.00  0.00     0.029 A 
ATOM     48  N   UNL     1       8.519  -9.405  10.377  1.00  0.00    -0.354 N 
ATOM     49  C   UNL     1       8.730 -13.700   9.640  1.00  0.00     0.074 A 
ATOM     50  C   UNL     1       8.155 -14.025   8.350  1.00  0.00     0.031 C 
ATOM     51  C   UNL     1       8.179  -7.280   9.767  1.00  0.00     0.029 A 
ATOM     52  C   UNL     1       8.718  -8.120  10.829  1.00  0.00     0.049 A 
ATOM     53  H   UNL     1       8.841 -10.202  10.858  1.00  0.00     0.167 HD
ATOM     54  C   UNL     1       9.309 -14.592  10.483  1.00  0.00     0.034 A 
ATOM     55  C   UNL     1       9.234  -7.671  11.991  1.00  0.00     0.034 A 
ATOM     56  C   UNL     1       9.861 -14.225  11.768  1.00  0.00     0.049 A 
ATOM     57  C   UNL     1       9.742  -8.699  12.970  1.00  0.00     0.074 A 
ATOM     58  C   UNL     1      10.417 -15.042  12.737  1.00  0.00     0.029 A 
ATOM     59  N   UNL     1       9.916 -12.928  12.268  1.00  0.00    -0.354 N 
ATOM     60  N   UNL     1       9.840 -10.001  12.818  1.00  0.00    -0.248 NA
ATOM     61  C   UNL     1      10.200  -8.207  14.274  1.00  0.00     0.031 C 
ATOM     62  C   UNL     1      10.726 -14.253  13.851  1.00  0.00     0.029 A 
ATOM     63  C   UNL     1      10.451 -12.929  13.548  1.00  0.00     0.049 A 
ATOM     64  H   UNL     1       9.618 -12.124  11.783  1.00  0.00     0.167 HD
ATOM     65  C   UNL     1      10.389 -10.481  14.003  1.00  0.00     0.074 A 
ATOM     66  C   UNL     1      10.626  -9.324  14.844  1.00  0.00     0.031 C 
ATOM     67  C   UNL     1      10.667 -11.759  14.368  1.00  0.00     0.034 A 
BRANCH  54  68
ATOM     68  C   UNL     1       9.253 -16.054  10.103  1.00  0.00     0.023 A 
ATOM     69  C   UNL     1       9.956 -16.586   9.008  1.00  0.00     0.031 A 
ATOM     70  C   UNL     1       8.441 -16.929  10.850  1.00  0.00     0.131 A 
ATOM     71  C   UNL     1       9.789 -17.939   8.660  1.00  0.00     0.055 A 
ATOM     72  C   UNL     1       8.333 -18.286  10.540  1.00  0.00     0.041 A 
ATOM     73  F   UNL     1       7.725 -16.474  11.891  1.00  0.00    -0.206 F 
ATOM     74  C   UNL     1       8.999 -18.796   9.432  1.00  0.00     0.022 A 
BRANCH  71  75
ATOM     75  S   UNL     1      10.513 -18.541   7.109  1.00  0.00     0.124 S 
ATOM     76  O   UNL     1       9.871 -17.674   6.125  1.00  0.00    -0.237 OA
ATOM     77  O   UNL     1      11.939 -18.322   7.319  1.00  0.00    -0.237 OA
ATOM     78  O   UNL     1      10.099 -19.942   7.056  1.00  0.00    -0.744 OA
ENDBRANCH  71  75
ENDBRANCH  54  68
BRANCH  55  79
ATOM     79  C   UNL     1       9.193  -6.217  12.340  1.00  0.00     0.023 A 
ATOM     80  C   UNL     1      10.350  -5.503  12.689  1.00  0.00     0.031 A 
ATOM     81  C   UNL     1       7.962  -5.532  12.404  1.00  0.00     0.131 A 
ATOM     82  C   UNL     1      10.247  -4.173  13.132  1.00  0.00     0.055 A 
ATOM     83  C   UNL     1       7.873  -4.191  12.777  1.00  0.00     0.041 A 
ATOM     84  F   UNL     1       6.816  -6.162  12.099  1.00  0.00    -0.206 F 
ATOM     85  C   UNL     1       9.019  -3.508  13.162  1.00  0.00     0.022 A 
BRANCH  82  86
ATOM     86  S   UNL     1      11.727  -3.354  13.790  1.00  0.00     0.124 S 
ATOM     87  O   UNL     1      12.157  -4.296  14.816  1.00  0.00    -0.237 OA
ATOM     88  O   UNL     1      12.572  -3.263  12.605  1.00  0.00    -0.237 OA
ATOM     89  O   UNL     1      11.216  -2.078  14.289  1.00  0.00    -0.744 OA
ENDBRANCH  82  86
ENDBRANCH  55  79
BRANCH  67  90
ATOM     90  C   UNL     1      11.296 -11.950  15.725  1.00  0.00     0.023 A 
ATOM     91  C   UNL     1      10.596 -11.662  16.910  1.00  0.00     0.031 A 
ATOM     92  C   UNL     1      12.622 -12.405  15.832  1.00  0.00     0.131 A 
ATOM     93  C   UNL     1      11.246 -11.771  18.147  1.00  0.00     0.055 A 
ATOM     94  C   UNL     1      13.241 -12.578  17.070  1.00  0.00     0.041 A 
ATOM     95  F   UNL     1      13.338 -12.688  14.732  1.00  0.00    -0.206 F 
ATOM     96  C   UNL     1      12.557 -12.246  18.236  1.00  0.00     0.022 A 
BRANCH  93  97
ATOM     97  S   UNL     1      10.388 -11.183  19.633  1.00  0.00     0.124 S 
ATOM     98  O   UNL     1      10.138  -9.784  19.303  1.00  0.00    -0.237 OA
ATOM     99  O   UNL     1       9.213 -12.047  19.679  1.00  0.00    -0.237 OA
ATOM    100  O   UNL     1      11.362 -11.404  20.700  1.00  0.00    -0.744 OA
ENDBRANCH  93  97
ENDBRANCH  67  90
ENDBRANCH  41  42
ENDBRANCH  34  36
ENDBRANCH  33  34
ENDBRANCH  32  33
ENDBRANCH  31  32
ENDBRANCH   1  31
TORSDOF 22
