REMARK SMILES O=C(OCCOCCOC(=O)c1cc(Br)ccc1NC(=O)c1ccc(Br)s1)c1ccc(-c2c3nc(c(-c4cc(S(=O)(=O)[O-])ccc4F)c4ccc([nH]4)c(-c4cc(S(=O)(=O)[O-])ccc4F)c4nc(c(-c5cc(S(=O)(=O)[O-])ccc5F)c5ccc2[nH]5)C=C4)C=C3)cc1
REMARK SMILES IDX 5 1 4 2 3 3 2 4 1 5 28 6 29 7 90 8 30 9 89 10 31 11 32 12
REMARK SMILES IDX 33 13 83 14 34 15 88 16 82 17 84 18 35 19 87 20 81 21 80 22
REMARK SMILES IDX 36 24 68 25 48 26 67 27 49 28 52 29 66 30 85 31 50 32 51 33
REMARK SMILES IDX 65 35 86 36 53 37 37 38 38 39 46 40 39 41 45 42 47 43 44 44
REMARK SMILES IDX 40 45 41 46 42 47 43 48 69 49 70 50 78 51 71 52 77 53 79 54
REMARK SMILES IDX 76 55 72 56 73 57 74 58 75 59 54 60 55 61 63 62 56 63 62 64
REMARK SMILES IDX 64 65 61 66 57 67 58 68 59 69 60 70 6 71 7 72 8 73 9 74
REMARK SMILES IDX 10 75 11 76 12 77 13 78 18 79 14 80 17 81 15 82 16 83 19 84
REMARK SMILES IDX 20 85 21 87 22 88 23 89 27 90 24 91 25 92 26 93
REMARK H PARENT 84 23 52 34 19 86
REMARK Flexibility Score: inf
ROOT
ATOM      1  C   UNL     1       4.289  -1.244   0.647  1.00  0.00     0.202 C 
ENDROOT
BRANCH   1   2
ATOM      2  C   UNL     1       3.857   0.082   1.269  1.00  0.00     0.261 C 
BRANCH   2   3
ATOM      3  O   UNL     1       2.452   0.279   1.070  1.00  0.00    -0.460 OA
BRANCH   3   4
ATOM      4  C   UNL     1       1.873   1.124   0.187  1.00  0.00     0.338 C 
ATOM      5  O   UNL     1       0.646   1.208   0.168  1.00  0.00    -0.246 OA
BRANCH   4   6
ATOM      6  C   UNL     1       2.649   1.972  -0.765  1.00  0.00     0.060 A 
ATOM      7  C   UNL     1       3.830   1.577  -1.400  1.00  0.00     0.016 A 
ATOM      8  C   UNL     1       2.085   3.205  -1.120  1.00  0.00     0.016 A 
ATOM      9  C   UNL     1       4.461   2.383  -2.333  1.00  0.00     0.010 A 
ATOM     10  C   UNL     1       2.696   4.013  -2.081  1.00  0.00     0.010 A 
ATOM     11  C   UNL     1       3.888   3.597  -2.686  1.00  0.00    -0.014 A 
BRANCH  11  12
ATOM     12  C   UNL     1       4.616   4.468  -3.618  1.00  0.00     0.031 A 
ATOM     13  C   UNL     1       5.356   5.630  -3.049  1.00  0.00     0.074 A 
ATOM     14  C   UNL     1       4.652   4.161  -4.925  1.00  0.00     0.049 A 
ATOM     15  N   UNL     1       5.902   6.644  -3.656  1.00  0.00    -0.248 NA
ATOM     16  C   UNL     1       5.492   5.646  -1.584  1.00  0.00     0.031 C 
ATOM     17  C   UNL     1       4.075   2.953  -5.521  1.00  0.00     0.029 A 
ATOM     18  N   UNL     1       5.193   4.833  -5.985  1.00  0.00    -0.354 N 
ATOM     19  C   UNL     1       6.409   7.451  -2.644  1.00  0.00     0.074 A 
ATOM     20  C   UNL     1       6.102   6.802  -1.387  1.00  0.00     0.031 C 
ATOM     21  C   UNL     1       4.280   2.980  -6.847  1.00  0.00     0.029 A 
ATOM     22  C   UNL     1       4.919   4.243  -7.197  1.00  0.00     0.049 A 
ATOM     23  H   UNL     1       5.725   5.656  -5.891  1.00  0.00     0.167 HD
ATOM     24  C   UNL     1       7.048   8.639  -2.775  1.00  0.00     0.034 A 
ATOM     25  C   UNL     1       5.103   4.718  -8.444  1.00  0.00     0.034 A 
ATOM     26  C   UNL     1       7.291   9.237  -4.064  1.00  0.00     0.049 A 
ATOM     27  C   UNL     1       5.716   6.088  -8.576  1.00  0.00     0.074 A 
ATOM     28  C   UNL     1       7.847  10.464  -4.367  1.00  0.00     0.029 A 
ATOM     29  N   UNL     1       6.972   8.633  -5.281  1.00  0.00    -0.354 N 
ATOM     30  N   UNL     1       6.106   6.909  -7.624  1.00  0.00    -0.248 NA
ATOM     31  C   UNL     1       5.906   6.605  -9.934  1.00  0.00     0.031 C 
ATOM     32  C   UNL     1       7.802  10.629  -5.757  1.00  0.00     0.029 A 
ATOM     33  C   UNL     1       7.295   9.471  -6.332  1.00  0.00     0.049 A 
ATOM     34  H   UNL     1       6.573   7.738  -5.376  1.00  0.00     0.167 HD
ATOM     35  C   UNL     1       6.609   8.032  -8.267  1.00  0.00     0.074 A 
ATOM     36  C   UNL     1       6.473   7.780  -9.691  1.00  0.00     0.031 C 
ATOM     37  C   UNL     1       7.140   9.166  -7.739  1.00  0.00     0.034 A 
BRANCH  24  38
ATOM     38  C   UNL     1       7.373   9.376  -1.497  1.00  0.00     0.023 A 
ATOM     39  C   UNL     1       8.216   8.827  -0.512  1.00  0.00     0.031 A 
ATOM     40  C   UNL     1       6.705  10.575  -1.190  1.00  0.00     0.131 A 
ATOM     41  C   UNL     1       8.268   9.405   0.767  1.00  0.00     0.055 A 
ATOM     42  C   UNL     1       6.841  11.200   0.051  1.00  0.00     0.041 A 
ATOM     43  F   UNL     1       5.862  11.134  -2.073  1.00  0.00    -0.206 F 
ATOM     44  C   UNL     1       7.605  10.602   1.048  1.00  0.00     0.022 A 
BRANCH  41  45
ATOM     45  S   UNL     1       9.027   8.456   2.117  1.00  0.00     0.124 S 
ATOM     46  O   UNL     1       8.233   7.229   2.095  1.00  0.00    -0.237 OA
ATOM     47  O   UNL     1      10.411   8.331   1.676  1.00  0.00    -0.237 OA
ATOM     48  O   UNL     1       8.818   9.301   3.291  1.00  0.00    -0.744 OA
ENDBRANCH  41  45
ENDBRANCH  24  38
BRANCH  25  49
ATOM     49  C   UNL     1       4.614   3.940  -9.619  1.00  0.00     0.023 A 
ATOM     50  C   UNL     1       5.495   3.424 -10.581  1.00  0.00     0.031 A 
ATOM     51  C   UNL     1       3.239   3.679  -9.781  1.00  0.00     0.131 A 
ATOM     52  C   UNL     1       4.991   2.685 -11.666  1.00  0.00     0.055 A 
ATOM     53  C   UNL     1       2.748   2.906 -10.834  1.00  0.00     0.041 A 
ATOM     54  F   UNL     1       2.349   4.148  -8.891  1.00  0.00    -0.206 F 
ATOM     55  C   UNL     1       3.626   2.409 -11.789  1.00  0.00     0.022 A 
BRANCH  52  56
ATOM     56  S   UNL     1       6.141   2.117 -12.950  1.00  0.00     0.124 S 
ATOM     57  O   UNL     1       6.702   3.376 -13.425  1.00  0.00    -0.237 OA
ATOM     58  O   UNL     1       7.044   1.257 -12.191  1.00  0.00    -0.237 OA
ATOM     59  O   UNL     1       5.276   1.421 -13.900  1.00  0.00    -0.744 OA
ENDBRANCH  52  56
ENDBRANCH  25  49
BRANCH  37  60
ATOM     60  C   UNL     1       7.670  10.182  -8.714  1.00  0.00     0.023 A 
ATOM     61  C   UNL     1       6.817  10.969  -9.503  1.00  0.00     0.031 A 
ATOM     62  C   UNL     1       9.057  10.391  -8.810  1.00  0.00     0.131 A 
ATOM     63  C   UNL     1       7.364  11.916 -10.380  1.00  0.00     0.055 A 
ATOM     64  C   UNL     1       9.592  11.370  -9.645  1.00  0.00     0.041 A 
ATOM     65  F   UNL     1       9.910   9.661  -8.073  1.00  0.00    -0.206 F 
ATOM     66  C   UNL     1       8.744  12.135 -10.440  1.00  0.00     0.022 A 
BRANCH  63  67
ATOM     67  S   UNL     1       6.252  12.831 -11.479  1.00  0.00     0.124 S 
ATOM     68  O   UNL     1       5.676  11.760 -12.286  1.00  0.00    -0.237 OA
ATOM     69  O   UNL     1       5.344  13.481 -10.539  1.00  0.00    -0.237 OA
ATOM     70  O   UNL     1       7.148  13.736 -12.198  1.00  0.00    -0.744 OA
ENDBRANCH  63  67
ENDBRANCH  37  60
ENDBRANCH  11  12
ENDBRANCH   4   6
ENDBRANCH   3   4
ENDBRANCH   2   3
ENDBRANCH   1   2
BRANCH   1  71
ATOM     71  O   UNL     1       4.020  -1.385  -0.744  1.00  0.00    -0.374 OA
BRANCH  71  72
ATOM     72  C   UNL     1       2.737  -1.904  -1.100  1.00  0.00     0.202 C 
BRANCH  72  73
ATOM     73  C   UNL     1       2.946  -3.061  -2.081  1.00  0.00     0.261 C 
BRANCH  73  74
ATOM     74  O   UNL     1       3.575  -4.151  -1.381  1.00  0.00    -0.460 OA
BRANCH  74  75
ATOM     75  C   UNL     1       4.932  -4.107  -1.295  1.00  0.00     0.340 C 
ATOM     76  O   UNL     1       5.703  -3.424  -1.935  1.00  0.00    -0.246 OA
BRANCH  75  77
ATOM     77  C   UNL     1       5.318  -4.883  -0.090  1.00  0.00     0.084 A 
ATOM     78  C   UNL     1       4.627  -6.079   0.169  1.00  0.00     0.033 A 
ATOM     79  C   UNL     1       6.258  -4.366   0.831  1.00  0.00     0.056 A 
ATOM     80  C   UNL     1       4.816  -6.734   1.377  1.00  0.00     0.018 A 
ATOM     81  C   UNL     1       6.362  -5.011   2.069  1.00  0.00     0.028 A 
ATOM     82  Br  UNL     1       3.877  -8.332   1.738  1.00  0.00    -0.051 Br
ATOM     83  C   UNL     1       5.660  -6.192   2.337  1.00  0.00     0.018 A 
BRANCH  79  84
ATOM     84  N   UNL     1       6.973  -3.181   0.522  1.00  0.00    -0.320 N 
ATOM     85  C   UNL     1       7.937  -2.459   1.204  1.00  0.00     0.265 C 
ATOM     86  H   UNL     1       6.736  -2.794  -0.351  1.00  0.00     0.170 HD
ATOM     87  O   UNL     1       8.039  -1.260   0.944  1.00  0.00    -0.268 OA
BRANCH  85  88
ATOM     88  C   UNL     1       8.815  -3.131   2.138  1.00  0.00     0.093 A 
ATOM     89  C   UNL     1       9.511  -4.317   1.975  1.00  0.00     0.027 A 
ATOM     90  S   UNL     1       9.135  -2.421   3.666  1.00  0.00    -0.123 S 
ATOM     91  C   UNL     1      10.234  -4.684   3.148  1.00  0.00     0.028 A 
ATOM     92  C   UNL     1      10.092  -3.739   4.132  1.00  0.00     0.071 A 
ATOM     93  Br  UNL     1      10.878  -3.889   5.826  1.00  0.00    -0.039 Br
ENDBRANCH  85  88
ENDBRANCH  79  84
ENDBRANCH  75  77
ENDBRANCH  74  75
ENDBRANCH  73  74
ENDBRANCH  72  73
ENDBRANCH  71  72
ENDBRANCH   1  71
TORSDOF 19
