REMARK SMILES C[C@@H](CC(=O)OCCOCCOC(=O)c1ccc(-c2c3nc(c(-c4cc(S(=O)(=O)[O-])ccc4F)c4ccc([nH]4)c(-c4cc(S(=O)(=O)[O-])ccc4F)c4nc(c(-c5cc(S(=O)(=O)[O-])ccc5F)c5ccc2[nH]5)C=C4)C=C3)cc1)NC(=O)CN(C)c1ncccn1
REMARK SMILES IDX 8 1 7 2 6 3 4 4 5 5 3 6 2 7 1 8 78 9 79 10 80 12 81 13 82 14
REMARK SMILES IDX 83 15 84 16 85 17 89 18 86 19 88 20 87 21 9 22 10 23 11 24
REMARK SMILES IDX 12 25 13 26 14 27 15 28 16 29 77 30 17 31 76 32 18 33 19 34
REMARK SMILES IDX 20 35 70 36 21 37 75 38 69 39 71 40 22 41 74 42 68 43 67 44
REMARK SMILES IDX 23 46 55 47 35 48 54 49 36 50 39 51 53 52 72 53 37 54 38 55
REMARK SMILES IDX 52 57 73 58 40 59 24 60 25 61 33 62 26 63 32 64 34 65 31 66
REMARK SMILES IDX 27 67 28 68 29 69 30 70 56 71 57 72 65 73 58 74 64 75 66 76
REMARK SMILES IDX 63 77 59 78 60 79 61 80 62 81 41 82 42 83 50 84 43 85 49 86
REMARK SMILES IDX 51 87 48 88 44 89 45 90 46 91 47 92
REMARK H PARENT 78 11 71 45 39 56
REMARK Flexibility Score: inf
ROOT
ATOM      1  C   UNL     1      -0.613   1.814  -4.211  1.00  0.00     0.202 C 
ENDROOT
BRANCH   1   2
ATOM      2  C   UNL     1       0.819   1.985  -3.701  1.00  0.00     0.261 C 
BRANCH   2   3
ATOM      3  O   UNL     1       0.937   1.730  -2.287  1.00  0.00    -0.463 OA
BRANCH   3   4
ATOM      4  C   UNL     1       1.472   2.732  -1.549  1.00  0.00     0.307 C 
ATOM      5  O   UNL     1       1.834   3.816  -1.998  1.00  0.00    -0.252 OA
BRANCH   4   6
ATOM      6  C   UNL     1       1.637   2.417  -0.081  1.00  0.00     0.147 C 
BRANCH   6   7
ATOM      7  C   UNL     1       1.054   1.143   0.539  1.00  0.00     0.090 C 
ATOM      8  C   UNL     1       1.542  -0.165  -0.070  1.00  0.00     0.031 C 
BRANCH   7   9
ATOM      9  N   UNL     1      -0.399   1.168   0.603  1.00  0.00    -0.352 N 
ATOM     10  C   UNL     1      -1.218   1.457   1.660  1.00  0.00     0.239 C 
ATOM     11  H   UNL     1      -0.860   0.945  -0.238  1.00  0.00     0.163 HD
ATOM     12  O   UNL     1      -2.407   1.693   1.419  1.00  0.00    -0.273 OA
BRANCH  10  13
ATOM     13  C   UNL     1      -0.642   1.590   3.080  1.00  0.00     0.219 C 
BRANCH  13  14
ATOM     14  N   UNL     1       0.106   0.422   3.548  1.00  0.00    -0.335 N 
ATOM     15  C   UNL     1       1.384   0.576   4.205  1.00  0.00     0.147 C 
BRANCH  14  16
ATOM     16  C   UNL     1      -0.527  -0.799   3.644  1.00  0.00     0.225 A 
ATOM     17  N   UNL     1       0.047  -1.772   4.375  1.00  0.00    -0.221 NA
ATOM     18  N   UNL     1      -1.684  -0.984   2.994  1.00  0.00    -0.221 NA
ATOM     19  C   UNL     1      -0.575  -2.965   4.430  1.00  0.00     0.117 A 
ATOM     20  C   UNL     1      -2.258  -2.200   3.050  1.00  0.00     0.117 A 
ATOM     21  C   UNL     1      -1.742  -3.244   3.769  1.00  0.00     0.040 A 
ENDBRANCH  14  16
ENDBRANCH  13  14
ENDBRANCH  10  13
ENDBRANCH   7   9
ENDBRANCH   6   7
ENDBRANCH   4   6
ENDBRANCH   3   4
ENDBRANCH   2   3
ENDBRANCH   1   2
BRANCH   1  22
ATOM     22  O   UNL     1      -1.574   2.719  -3.669  1.00  0.00    -0.374 OA
BRANCH  22  23
ATOM     23  C   UNL     1      -2.033   2.465  -2.338  1.00  0.00     0.202 C 
BRANCH  23  24
ATOM     24  C   UNL     1      -2.877   1.195  -2.166  1.00  0.00     0.261 C 
BRANCH  24  25
ATOM     25  O   UNL     1      -2.073   0.004  -2.308  1.00  0.00    -0.460 OA
BRANCH  25  26
ATOM     26  C   UNL     1      -2.698  -1.004  -2.963  1.00  0.00     0.338 C 
ATOM     27  O   UNL     1      -3.884  -1.056  -3.273  1.00  0.00    -0.246 OA
BRANCH  26  28
ATOM     28  C   UNL     1      -1.719  -1.996  -3.438  1.00  0.00     0.060 A 
ATOM     29  C   UNL     1      -1.423  -2.025  -4.807  1.00  0.00     0.016 A 
ATOM     30  C   UNL     1      -1.196  -2.966  -2.582  1.00  0.00     0.016 A 
ATOM     31  C   UNL     1      -0.620  -3.042  -5.328  1.00  0.00     0.010 A 
ATOM     32  C   UNL     1      -0.396  -3.990  -3.110  1.00  0.00     0.010 A 
ATOM     33  C   UNL     1      -0.122  -4.049  -4.489  1.00  0.00    -0.014 A 
BRANCH  33  34
ATOM     34  C   UNL     1       0.602  -5.208  -5.077  1.00  0.00     0.031 A 
ATOM     35  C   UNL     1      -0.131  -6.501  -5.323  1.00  0.00     0.074 A 
ATOM     36  C   UNL     1       1.899  -5.101  -5.422  1.00  0.00     0.049 A 
ATOM     37  N   UNL     1       0.319  -7.631  -5.805  1.00  0.00    -0.248 NA
ATOM     38  C   UNL     1      -1.561  -6.517  -4.982  1.00  0.00     0.031 C 
ATOM     39  C   UNL     1       2.709  -3.892  -5.281  1.00  0.00     0.029 A 
ATOM     40  N   UNL     1       2.763  -6.024  -5.958  1.00  0.00    -0.354 N 
ATOM     41  C   UNL     1      -0.772  -8.495  -5.835  1.00  0.00     0.074 A 
ATOM     42  C   UNL     1      -1.896  -7.763  -5.286  1.00  0.00     0.031 C 
ATOM     43  C   UNL     1       3.955  -4.150  -5.711  1.00  0.00     0.029 A 
ATOM     44  C   UNL     1       4.044  -5.551  -6.120  1.00  0.00     0.049 A 
ATOM     45  H   UNL     1       2.491  -6.937  -6.203  1.00  0.00     0.167 HD
ATOM     46  C   UNL     1      -0.833  -9.773  -6.285  1.00  0.00     0.034 A 
ATOM     47  C   UNL     1       5.167  -6.181  -6.523  1.00  0.00     0.034 A 
ATOM     48  C   UNL     1       0.296 -10.501  -6.814  1.00  0.00     0.049 A 
ATOM     49  C   UNL     1       5.099  -7.638  -6.909  1.00  0.00     0.074 A 
ATOM     50  C   UNL     1       0.330 -11.789  -7.324  1.00  0.00     0.029 A 
ATOM     51  N   UNL     1       1.595 -10.016  -6.886  1.00  0.00    -0.354 N 
ATOM     52  N   UNL     1       4.058  -8.437  -6.943  1.00  0.00    -0.248 NA
ATOM     53  C   UNL     1       6.361  -8.277  -7.309  1.00  0.00     0.031 C 
ATOM     54  C   UNL     1       1.659 -12.107  -7.631  1.00  0.00     0.029 A 
ATOM     55  C   UNL     1       2.445 -10.994  -7.384  1.00  0.00     0.049 A 
ATOM     56  H   UNL     1       1.874  -9.110  -6.621  1.00  0.00     0.167 HD
ATOM     57  C   UNL     1       4.538  -9.667  -7.387  1.00  0.00     0.074 A 
ATOM     58  C   UNL     1       5.957  -9.499  -7.624  1.00  0.00     0.031 C 
ATOM     59  C   UNL     1       3.865 -10.829  -7.587  1.00  0.00     0.034 A 
BRANCH  46  60
ATOM     60  C   UNL     1      -2.160 -10.485  -6.174  1.00  0.00     0.023 A 
ATOM     61  C   UNL     1      -3.282 -10.079  -6.917  1.00  0.00     0.031 A 
ATOM     62  C   UNL     1      -2.306 -11.577  -5.301  1.00  0.00     0.131 A 
ATOM     63  C   UNL     1      -4.515 -10.723  -6.729  1.00  0.00     0.055 A 
ATOM     64  C   UNL     1      -3.518 -12.258  -5.170  1.00  0.00     0.041 A 
ATOM     65  F   UNL     1      -1.274 -11.996  -4.552  1.00  0.00    -0.206 F 
ATOM     66  C   UNL     1      -4.635 -11.824  -5.877  1.00  0.00     0.022 A 
BRANCH  63  67
ATOM     67  S   UNL     1      -5.991 -10.023  -7.517  1.00  0.00     0.124 S 
ATOM     68  O   UNL     1      -5.999  -8.665  -6.978  1.00  0.00    -0.237 OA
ATOM     69  O   UNL     1      -5.678 -10.146  -8.936  1.00  0.00    -0.237 OA
ATOM     70  O   UNL     1      -7.074 -10.880  -7.040  1.00  0.00    -0.744 OA
ENDBRANCH  63  67
ENDBRANCH  46  60
BRANCH  47  71
ATOM     71  C   UNL     1       6.473  -5.461  -6.527  1.00  0.00     0.023 A 
ATOM     72  C   UNL     1       7.178  -5.234  -7.719  1.00  0.00     0.031 A 
ATOM     73  C   UNL     1       7.062  -5.042  -5.320  1.00  0.00     0.131 A 
ATOM     74  C   UNL     1       8.450  -4.641  -7.675  1.00  0.00     0.055 A 
ATOM     75  C   UNL     1       8.304  -4.409  -5.286  1.00  0.00     0.041 A 
ATOM     76  F   UNL     1       6.431  -5.240  -4.152  1.00  0.00    -0.206 F 
ATOM     77  C   UNL     1       9.011  -4.215  -6.468  1.00  0.00     0.022 A 
BRANCH  74  78
ATOM     78  S   UNL     1       9.398  -4.501  -9.214  1.00  0.00     0.124 S 
ATOM     79  O   UNL     1       9.501  -5.896  -9.628  1.00  0.00    -0.237 OA
ATOM     80  O   UNL     1       8.533  -3.652 -10.027  1.00  0.00    -0.237 OA
ATOM     81  O   UNL     1      10.651  -3.881  -8.787  1.00  0.00    -0.744 OA
ENDBRANCH  74  78
ENDBRANCH  47  71
BRANCH  59  82
ATOM     82  C   UNL     1       4.662 -12.003  -8.106  1.00  0.00     0.023 A 
ATOM     83  C   UNL     1       5.643 -12.632  -7.320  1.00  0.00     0.031 A 
ATOM     84  C   UNL     1       4.449 -12.485  -9.409  1.00  0.00     0.131 A 
ATOM     85  C   UNL     1       6.411 -13.675  -7.862  1.00  0.00     0.055 A 
ATOM     86  C   UNL     1       5.178 -13.559  -9.924  1.00  0.00     0.041 A 
ATOM     87  F   UNL     1       3.527 -11.921 -10.205  1.00  0.00    -0.206 F 
ATOM     88  C   UNL     1       6.174 -14.152  -9.153  1.00  0.00     0.022 A 
BRANCH  85  89
ATOM     89  S   UNL     1       7.783 -14.348  -6.883  1.00  0.00     0.124 S 
ATOM     90  O   UNL     1       8.621 -13.170  -6.686  1.00  0.00    -0.237 OA
ATOM     91  O   UNL     1       7.103 -14.853  -5.695  1.00  0.00    -0.237 OA
ATOM     92  O   UNL     1       8.353 -15.376  -7.753  1.00  0.00    -0.744 OA
ENDBRANCH  85  89
ENDBRANCH  59  82
ENDBRANCH  33  34
ENDBRANCH  26  28
ENDBRANCH  25  26
ENDBRANCH  24  25
ENDBRANCH  23  24
ENDBRANCH  22  23
ENDBRANCH   1  22
TORSDOF 22
