REMARK SMILES O=C(C[C@@H](NS(=O)(=O)c1ccc2c(c1)OCCO2)c1ccccc1)OCCOCCOC(=O)c1ccc(-c2c3nc(c(-c4cc(S(=O)(=O)[O-])ccc4F)c4ccc([nH]4)c(-c4cc(S(=O)(=O)[O-])ccc4F)c4nc(c(-c5cc(S(=O)(=O)[O-])ccc5F)c5ccc2[nH]5)C=C4)C=C3)cc1
REMARK SMILES IDX 27 1 26 2 25 3 2 4 1 5 3 6 4 7 5 8 6 10 7 11 8 12 9 13 10 14
REMARK SMILES IDX 14 15 11 16 13 17 12 18 15 19 18 20 16 21 17 22 19 23 20 24
REMARK SMILES IDX 24 25 21 26 23 27 22 28 28 29 29 30 30 31 31 32 32 33 33 34
REMARK SMILES IDX 34 35 35 36 96 37 36 38 95 39 37 40 38 41 39 42 89 43 40 44
REMARK SMILES IDX 94 45 88 46 90 47 41 48 93 49 87 50 86 51 42 53 74 54 54 55
REMARK SMILES IDX 73 56 55 57 58 58 72 59 91 60 56 61 57 62 71 64 92 65 59 66
REMARK SMILES IDX 43 67 44 68 52 69 45 70 51 71 53 72 50 73 46 74 47 75 48 76
REMARK SMILES IDX 49 77 75 78 76 79 84 80 77 81 83 82 85 83 82 84 78 85 79 86
REMARK SMILES IDX 80 87 81 88 60 89 61 90 69 91 62 92 68 93 70 94 67 95 63 96
REMARK SMILES IDX 64 97 65 98 66 99
REMARK H PARENT 5 9 90 52 58 63
REMARK Flexibility Score: inf
ROOT
ATOM      1  C   UNL     1       4.568  -0.839   0.363  1.00  0.00     0.202 C 
ENDROOT
BRANCH   1   2
ATOM      2  C   UNL     1       3.852   0.195   1.237  1.00  0.00     0.261 C 
BRANCH   2   3
ATOM      3  O   UNL     1       2.782   1.058   0.734  1.00  0.00    -0.463 OA
BRANCH   3   4
ATOM      4  C   UNL     1       2.080   1.197  -0.403  1.00  0.00     0.307 C 
ATOM      5  O   UNL     1       0.961   1.708  -0.369  1.00  0.00    -0.252 OA
BRANCH   4   6
ATOM      6  C   UNL     1       2.672   0.791  -1.710  1.00  0.00     0.147 C 
BRANCH   6   7
ATOM      7  C   UNL     1       3.795   1.701  -2.229  1.00  0.00     0.111 C 
BRANCH   7   8
ATOM      8  N   UNL     1       4.838   1.875  -1.195  1.00  0.00    -0.203 NA
ATOM      9  H   UNL     1       5.346   0.992  -1.146  1.00  0.00     0.142 HD
BRANCH   8  10
ATOM     10  S   UNL     1       6.001   3.083  -1.314  1.00  0.00     0.241 S 
ATOM     11  O   UNL     1       5.325   4.248  -1.843  1.00  0.00    -0.207 OA
ATOM     12  O   UNL     1       6.650   3.102  -0.023  1.00  0.00    -0.207 OA
BRANCH  10  13
ATOM     13  C   UNL     1       7.192   2.525  -2.486  1.00  0.00     0.086 A 
ATOM     14  C   UNL     1       7.523   1.172  -2.604  1.00  0.00     0.026 A 
ATOM     15  C   UNL     1       7.690   3.468  -3.386  1.00  0.00     0.072 A 
ATOM     16  C   UNL     1       8.289   0.751  -3.695  1.00  0.00     0.052 A 
ATOM     17  C   UNL     1       8.435   3.039  -4.474  1.00  0.00     0.162 A 
ATOM     18  C   UNL     1       8.724   1.680  -4.642  1.00  0.00     0.161 A 
ATOM     19  O   UNL     1       8.812   4.008  -5.365  1.00  0.00    -0.486 OA
ATOM     20  O   UNL     1       9.381   1.186  -5.739  1.00  0.00    -0.486 OA
ATOM     21  C   UNL     1       9.073   3.437  -6.646  1.00  0.00     0.271 C 
ATOM     22  C   UNL     1       9.982   2.225  -6.519  1.00  0.00     0.271 C 
ENDBRANCH  10  13
ENDBRANCH   8  10
ENDBRANCH   7   8
BRANCH   7  23
ATOM     23  C   UNL     1       4.344   1.115  -3.529  1.00  0.00    -0.029 A 
ATOM     24  C   UNL     1       4.637  -0.258  -3.672  1.00  0.00     0.005 A 
ATOM     25  C   UNL     1       4.624   1.962  -4.611  1.00  0.00     0.005 A 
ATOM     26  C   UNL     1       5.176  -0.765  -4.856  1.00  0.00     0.000 A 
ATOM     27  C   UNL     1       5.187   1.456  -5.786  1.00  0.00     0.000 A 
ATOM     28  C   UNL     1       5.460   0.095  -5.910  1.00  0.00     0.000 A 
ENDBRANCH   7  23
ENDBRANCH   6   7
ENDBRANCH   4   6
ENDBRANCH   3   4
ENDBRANCH   2   3
ENDBRANCH   1   2
BRANCH   1  29
ATOM     29  O   UNL     1       3.803  -1.778  -0.380  1.00  0.00    -0.374 OA
BRANCH  29  30
ATOM     30  C   UNL     1       2.581  -2.266   0.158  1.00  0.00     0.202 C 
BRANCH  30  31
ATOM     31  C   UNL     1       2.733  -3.439   1.117  1.00  0.00     0.261 C 
BRANCH  31  32
ATOM     32  O   UNL     1       3.219  -2.983   2.384  1.00  0.00    -0.460 OA
BRANCH  32  33
ATOM     33  C   UNL     1       4.530  -3.223   2.619  1.00  0.00     0.338 C 
ATOM     34  O   UNL     1       5.313  -3.808   1.889  1.00  0.00    -0.246 OA
BRANCH  33  35
ATOM     35  C   UNL     1       4.930  -2.493   3.834  1.00  0.00     0.060 A 
ATOM     36  C   UNL     1       6.169  -1.840   3.830  1.00  0.00     0.016 A 
ATOM     37  C   UNL     1       4.117  -2.478   4.971  1.00  0.00     0.016 A 
ATOM     38  C   UNL     1       6.629  -1.226   4.989  1.00  0.00     0.010 A 
ATOM     39  C   UNL     1       4.580  -1.863   6.132  1.00  0.00     0.010 A 
ATOM     40  C   UNL     1       5.857  -1.278   6.156  1.00  0.00    -0.014 A 
BRANCH  40  41
ATOM     41  C   UNL     1       6.470  -0.907   7.450  1.00  0.00     0.031 A 
ATOM     42  C   UNL     1       6.973  -2.010   8.339  1.00  0.00     0.074 A 
ATOM     43  C   UNL     1       6.599   0.383   7.802  1.00  0.00     0.049 A 
ATOM     44  N   UNL     1       7.507  -1.943   9.529  1.00  0.00    -0.248 NA
ATOM     45  C   UNL     1       6.846  -3.379   7.811  1.00  0.00     0.031 C 
ATOM     46  C   UNL     1       6.187   1.525   6.987  1.00  0.00     0.029 A 
ATOM     47  N   UNL     1       7.113   0.947   8.940  1.00  0.00    -0.354 N 
ATOM     48  C   UNL     1       7.775  -3.257   9.896  1.00  0.00     0.074 A 
ATOM     49  C   UNL     1       7.300  -4.102   8.823  1.00  0.00     0.031 C 
ATOM     50  C   UNL     1       6.465   2.657   7.654  1.00  0.00     0.029 A 
ATOM     51  C   UNL     1       7.033   2.319   8.957  1.00  0.00     0.049 A 
ATOM     52  H   UNL     1       7.502   0.420   9.675  1.00  0.00     0.167 HD
ATOM     53  C   UNL     1       8.375  -3.713  11.024  1.00  0.00     0.034 A 
ATOM     54  C   UNL     1       7.364   3.193   9.928  1.00  0.00     0.034 A 
ATOM     55  C   UNL     1       8.826  -2.846  12.085  1.00  0.00     0.049 A 
ATOM     56  C   UNL     1       7.946   2.656  11.213  1.00  0.00     0.074 A 
ATOM     57  C   UNL     1       9.451  -3.186  13.271  1.00  0.00     0.029 A 
ATOM     58  N   UNL     1       8.685  -1.463  12.092  1.00  0.00    -0.354 N 
ATOM     59  N   UNL     1       8.203   1.412  11.552  1.00  0.00    -0.248 NA
ATOM     60  C   UNL     1       8.293   3.642  12.243  1.00  0.00     0.031 C 
ATOM     61  C   UNL     1       9.616  -2.021  14.027  1.00  0.00     0.029 A 
ATOM     62  C   UNL     1       9.179  -0.939  13.277  1.00  0.00     0.049 A 
ATOM     63  H   UNL     1       8.293  -0.932  11.362  1.00  0.00     0.167 HD
ATOM     64  C   UNL     1       8.779   1.473  12.819  1.00  0.00     0.074 A 
ATOM     65  C   UNL     1       8.841   2.876  13.174  1.00  0.00     0.031 C 
ATOM     66  C   UNL     1       9.222   0.465  13.615  1.00  0.00     0.034 A 
BRANCH  53  67
ATOM     67  C   UNL     1       8.515  -5.209  11.178  1.00  0.00     0.023 A 
ATOM     68  C   UNL     1       9.276  -5.982  10.282  1.00  0.00     0.031 A 
ATOM     69  C   UNL     1       7.836  -5.882  12.210  1.00  0.00     0.131 A 
ATOM     70  C   UNL     1       9.274  -7.382  10.386  1.00  0.00     0.055 A 
ATOM     71  C   UNL     1       7.910  -7.268  12.361  1.00  0.00     0.041 A 
ATOM     72  F   UNL     1       7.071  -5.204  13.080  1.00  0.00    -0.206 F 
ATOM     73  C   UNL     1       8.619  -8.028  11.436  1.00  0.00     0.022 A 
BRANCH  70  74
ATOM     74  S   UNL     1      10.003  -8.353   9.038  1.00  0.00     0.124 S 
ATOM     75  O   UNL     1       9.225  -7.894   7.889  1.00  0.00    -0.237 OA
ATOM     76  O   UNL     1      11.401  -7.939   9.070  1.00  0.00    -0.237 OA
ATOM     77  O   UNL     1       9.752  -9.737   9.437  1.00  0.00    -0.744 OA
ENDBRANCH  70  74
ENDBRANCH  53  67
BRANCH  54  78
ATOM     78  C   UNL     1       7.133   4.654   9.742  1.00  0.00     0.023 A 
ATOM     79  C   UNL     1       8.203   5.563   9.751  1.00  0.00     0.031 A 
ATOM     80  C   UNL     1       5.832   5.171   9.606  1.00  0.00     0.131 A 
ATOM     81  C   UNL     1       7.950   6.942   9.678  1.00  0.00     0.055 A 
ATOM     82  C   UNL     1       5.590   6.539   9.473  1.00  0.00     0.041 A 
ATOM     83  F   UNL     1       4.771   4.347   9.594  1.00  0.00    -0.206 F 
ATOM     84  C   UNL     1       6.653   7.435   9.523  1.00  0.00     0.022 A 
BRANCH  81  85
ATOM     85  S   UNL     1       9.339   8.090   9.887  1.00  0.00     0.124 S 
ATOM     86  O   UNL     1       9.846   7.705  11.199  1.00  0.00    -0.237 OA
ATOM     87  O   UNL     1      10.186   7.752   8.748  1.00  0.00    -0.237 OA
ATOM     88  O   UNL     1       8.706   9.405   9.822  1.00  0.00    -0.744 OA
ENDBRANCH  81  85
ENDBRANCH  54  78
BRANCH  66  89
ATOM     89  C   UNL     1       9.863   0.860  14.925  1.00  0.00     0.023 A 
ATOM     90  C   UNL     1       9.134   1.490  15.949  1.00  0.00     0.031 A 
ATOM     91  C   UNL     1      11.231   0.615  15.143  1.00  0.00     0.131 A 
ATOM     92  C   UNL     1       9.791   1.916  17.113  1.00  0.00     0.055 A 
ATOM     93  C   UNL     1      11.863   0.975  16.333  1.00  0.00     0.041 A 
ATOM     94  F   UNL     1      11.977   0.018  14.200  1.00  0.00    -0.206 F 
ATOM     95  C   UNL     1      11.146   1.645  17.320  1.00  0.00     0.022 A 
BRANCH  92  96
ATOM     96  S   UNL     1       8.877   2.931  18.306  1.00  0.00     0.124 S 
ATOM     97  O   UNL     1       8.447   4.055  17.481  1.00  0.00    -0.237 OA
ATOM     98  O   UNL     1       7.823   2.023  18.745  1.00  0.00    -0.237 OA
ATOM     99  O   UNL     1       9.879   3.254  19.321  1.00  0.00    -0.744 OA
ENDBRANCH  92  96
ENDBRANCH  66  89
ENDBRANCH  40  41
ENDBRANCH  33  35
ENDBRANCH  32  33
ENDBRANCH  31  32
ENDBRANCH  30  31
ENDBRANCH  29  30
ENDBRANCH   1  29
TORSDOF 22
