REMARK SMILES O=C(CN(CC(=O)OCCOCCOC(=O)c1ccc(-c2c3nc(c(-c4cc(S(=O)(=O)[O-])ccc4F)c4ccc([nH]4)c(-c4cc(S(=O)(=O)[O-])ccc4F)c4nc(c(-c5cc(S(=O)(=O)[O-])ccc5F)c5ccc2[nH]5)C=C4)C=C3)cc1)c1ccccc1)NCc1ccccc1
REMARK SMILES IDX 10 1 9 2 8 3 6 4 7 5 5 6 4 7 3 8 2 9 1 10 86 11 87 13 88 14
REMARK SMILES IDX 89 15 93 16 90 17 92 18 91 19 80 20 81 21 85 22 82 23 84 24
REMARK SMILES IDX 83 25 11 26 12 27 13 28 14 29 15 30 16 31 17 32 18 33 79 34
REMARK SMILES IDX 19 35 78 36 20 37 21 38 22 39 72 40 23 41 77 42 71 43 73 44
REMARK SMILES IDX 24 45 76 46 70 47 69 48 25 50 57 51 37 52 56 53 38 54 41 55
REMARK SMILES IDX 55 56 74 57 39 58 40 59 54 61 75 62 42 63 26 64 27 65 35 66
REMARK SMILES IDX 28 67 34 68 36 69 33 70 29 71 30 72 31 73 32 74 58 75 59 76
REMARK SMILES IDX 67 77 60 78 66 79 68 80 65 81 61 82 62 83 63 84 64 85 43 86
REMARK SMILES IDX 44 87 52 88 45 89 51 90 53 91 50 92 46 93 47 94 48 95 49 96
REMARK H PARENT 86 12 73 49 41 60
REMARK Flexibility Score: inf
ROOT
ATOM      1  C   UNL     1       5.974   5.753  -1.722  1.00  0.00     0.202 C 
ENDROOT
BRANCH   1   2
ATOM      2  C   UNL     1       6.225   4.296  -2.140  1.00  0.00     0.261 C 
BRANCH   2   3
ATOM      3  O   UNL     1       5.440   3.300  -1.448  1.00  0.00    -0.462 OA
BRANCH   3   4
ATOM      4  C   UNL     1       6.158   2.420  -0.695  1.00  0.00     0.325 C 
ATOM      5  O   UNL     1       7.375   2.484  -0.526  1.00  0.00    -0.250 OA
BRANCH   4   6
ATOM      6  C   UNL     1       5.359   1.246  -0.133  1.00  0.00     0.239 C 
BRANCH   6   7
ATOM      7  N   UNL     1       3.939   1.472   0.219  1.00  0.00    -0.351 N 
BRANCH   7   8
ATOM      8  C   UNL     1       2.942   0.909  -0.734  1.00  0.00     0.217 C 
BRANCH   8   9
ATOM      9  C   UNL     1       2.195  -0.315  -0.157  1.00  0.00     0.239 C 
ATOM     10  O   UNL     1       1.109  -0.686  -0.593  1.00  0.00    -0.273 OA
ATOM     11  N   UNL     1       2.842  -0.932   0.893  1.00  0.00    -0.350 N 
ATOM     12  H   UNL     1       3.783  -0.701   1.067  1.00  0.00     0.163 HD
BRANCH  11  13
ATOM     13  C   UNL     1       2.202  -1.901   1.748  1.00  0.00     0.151 C 
BRANCH  13  14
ATOM     14  C   UNL     1       2.596  -3.332   1.483  1.00  0.00    -0.029 A 
ATOM     15  C   UNL     1       1.659  -4.350   1.728  1.00  0.00     0.005 A 
ATOM     16  C   UNL     1       3.891  -3.696   1.089  1.00  0.00     0.005 A 
ATOM     17  C   UNL     1       2.000  -5.693   1.562  1.00  0.00     0.000 A 
ATOM     18  C   UNL     1       4.231  -5.041   0.919  1.00  0.00     0.000 A 
ATOM     19  C   UNL     1       3.286  -6.038   1.155  1.00  0.00     0.000 A 
ENDBRANCH  13  14
ENDBRANCH  11  13
ENDBRANCH   8   9
ENDBRANCH   7   8
BRANCH   7  20
ATOM     20  C   UNL     1       3.530   2.123   1.381  1.00  0.00     0.038 A 
ATOM     21  C   UNL     1       4.439   2.673   2.300  1.00  0.00     0.026 A 
ATOM     22  C   UNL     1       2.167   2.269   1.717  1.00  0.00     0.026 A 
ATOM     23  C   UNL     1       4.018   3.387   3.435  1.00  0.00     0.002 A 
ATOM     24  C   UNL     1       1.737   2.948   2.865  1.00  0.00     0.002 A 
ATOM     25  C   UNL     1       2.665   3.529   3.715  1.00  0.00     0.000 A 
ENDBRANCH   7  20
ENDBRANCH   6   7
ENDBRANCH   4   6
ENDBRANCH   3   4
ENDBRANCH   2   3
ENDBRANCH   1   2
BRANCH   1  26
ATOM     26  O   UNL     1       6.161   6.133  -0.361  1.00  0.00    -0.374 OA
BRANCH  26  27
ATOM     27  C   UNL     1       5.348   5.506   0.621  1.00  0.00     0.202 C 
BRANCH  27  28
ATOM     28  C   UNL     1       3.842   5.801   0.661  1.00  0.00     0.261 C 
BRANCH  28  29
ATOM     29  O   UNL     1       3.211   5.903  -0.610  1.00  0.00    -0.460 OA
BRANCH  29  30
ATOM     30  C   UNL     1       2.974   7.181  -0.997  1.00  0.00     0.338 C 
ATOM     31  O   UNL     1       3.229   8.203  -0.391  1.00  0.00    -0.246 OA
BRANCH  30  32
ATOM     32  C   UNL     1       2.486   7.141  -2.381  1.00  0.00     0.060 A 
ATOM     33  C   UNL     1       3.188   7.879  -3.338  1.00  0.00     0.016 A 
ATOM     34  C   UNL     1       1.355   6.395  -2.720  1.00  0.00     0.016 A 
ATOM     35  C   UNL     1       2.731   7.905  -4.648  1.00  0.00     0.010 A 
ATOM     36  C   UNL     1       0.896   6.425  -4.033  1.00  0.00     0.010 A 
ATOM     37  C   UNL     1       1.566   7.206  -4.990  1.00  0.00    -0.014 A 
BRANCH  37  38
ATOM     38  C   UNL     1       0.960   7.424  -6.319  1.00  0.00     0.031 A 
ATOM     39  C   UNL     1      -0.194   8.377  -6.427  1.00  0.00     0.074 A 
ATOM     40  C   UNL     1       1.467   6.806  -7.398  1.00  0.00     0.049 A 
ATOM     41  N   UNL     1      -0.888   8.723  -7.477  1.00  0.00    -0.248 NA
ATOM     42  C   UNL     1      -0.626   9.019  -5.176  1.00  0.00     0.031 C 
ATOM     43  C   UNL     1       2.614   5.898  -7.385  1.00  0.00     0.029 A 
ATOM     44  N   UNL     1       1.089   6.854  -8.712  1.00  0.00    -0.354 N 
ATOM     45  C   UNL     1      -1.837   9.630  -7.016  1.00  0.00     0.074 A 
ATOM     46  C   UNL     1      -1.664   9.732  -5.583  1.00  0.00     0.031 C 
ATOM     47  C   UNL     1       2.853   5.481  -8.639  1.00  0.00     0.029 A 
ATOM     48  C   UNL     1       1.853   6.060  -9.533  1.00  0.00     0.049 A 
ATOM     49  H   UNL     1       0.342   7.406  -9.038  1.00  0.00     0.167 HD
ATOM     50  C   UNL     1      -2.754  10.325  -7.732  1.00  0.00     0.034 A 
ATOM     51  C   UNL     1       1.738   5.821 -10.853  1.00  0.00     0.034 A 
ATOM     52  C   UNL     1      -2.916  10.176  -9.157  1.00  0.00     0.049 A 
ATOM     53  C   UNL     1       0.640   6.524 -11.613  1.00  0.00     0.074 A 
ATOM     54  C   UNL     1      -3.811  10.810  -9.999  1.00  0.00     0.029 A 
ATOM     55  N   UNL     1      -2.169   9.311  -9.952  1.00  0.00    -0.354 N 
ATOM     56  N   UNL     1      -0.249   7.386 -11.173  1.00  0.00    -0.248 NA
ATOM     57  C   UNL     1       0.534   6.227 -13.046  1.00  0.00     0.031 C 
ATOM     58  C   UNL     1      -3.656  10.275 -11.283  1.00  0.00     0.029 A 
ATOM     59  C   UNL     1      -2.607   9.369 -11.265  1.00  0.00     0.049 A 
ATOM     60  H   UNL     1      -1.435   8.740  -9.627  1.00  0.00     0.167 HD
ATOM     61  C   UNL     1      -1.000   7.759 -12.284  1.00  0.00     0.074 A 
ATOM     62  C   UNL     1      -0.449   7.036 -13.413  1.00  0.00     0.031 C 
ATOM     63  C   UNL     1      -2.046   8.623 -12.369  1.00  0.00     0.034 A 
BRANCH  50  64
ATOM     64  C   UNL     1      -3.671  11.250  -6.965  1.00  0.00     0.023 A 
ATOM     65  C   UNL     1      -3.172  12.338  -6.224  1.00  0.00     0.031 A 
ATOM     66  C   UNL     1      -5.054  11.004  -6.916  1.00  0.00     0.131 A 
ATOM     67  C   UNL     1      -4.032  13.078  -5.398  1.00  0.00     0.055 A 
ATOM     68  C   UNL     1      -5.919  11.802  -6.163  1.00  0.00     0.041 A 
ATOM     69  F   UNL     1      -5.589   9.966  -7.578  1.00  0.00    -0.206 F 
ATOM     70  C   UNL     1      -5.407  12.834  -5.383  1.00  0.00     0.022 A 
BRANCH  67  71
ATOM     71  S   UNL     1      -3.304  14.246  -4.215  1.00  0.00     0.124 S 
ATOM     72  O   UNL     1      -2.422  13.372  -3.444  1.00  0.00    -0.237 OA
ATOM     73  O   UNL     1      -2.645  15.210  -5.088  1.00  0.00    -0.237 OA
ATOM     74  O   UNL     1      -4.460  14.755  -3.481  1.00  0.00    -0.744 OA
ENDBRANCH  67  71
ENDBRANCH  50  64
BRANCH  51  75
ATOM     75  C   UNL     1       2.666   4.873 -11.533  1.00  0.00     0.023 A 
ATOM     76  C   UNL     1       3.533   5.311 -12.546  1.00  0.00     0.031 A 
ATOM     77  C   UNL     1       2.680   3.506 -11.201  1.00  0.00     0.131 A 
ATOM     78  C   UNL     1       4.349   4.387 -13.217  1.00  0.00     0.055 A 
ATOM     79  C   UNL     1       3.531   2.600 -11.835  1.00  0.00     0.041 A 
ATOM     80  F   UNL     1       1.871   3.032 -10.239  1.00  0.00    -0.206 F 
ATOM     81  C   UNL     1       4.365   3.037 -12.859  1.00  0.00     0.022 A 
BRANCH  78  82
ATOM     82  S   UNL     1       5.337   4.964 -14.624  1.00  0.00     0.124 S 
ATOM     83  O   UNL     1       4.310   5.502 -15.508  1.00  0.00    -0.237 OA
ATOM     84  O   UNL     1       6.219   5.941 -13.994  1.00  0.00    -0.237 OA
ATOM     85  O   UNL     1       5.995   3.748 -15.099  1.00  0.00    -0.744 OA
ENDBRANCH  78  82
ENDBRANCH  51  75
BRANCH  63  86
ATOM     86  C   UNL     1      -2.626   8.857 -13.742  1.00  0.00     0.023 A 
ATOM     87  C   UNL     1      -3.299   7.842 -14.443  1.00  0.00     0.031 A 
ATOM     88  C   UNL     1      -2.498  10.115 -14.357  1.00  0.00     0.131 A 
ATOM     89  C   UNL     1      -3.770   8.086 -15.742  1.00  0.00     0.055 A 
ATOM     90  C   UNL     1      -3.028  10.372 -15.621  1.00  0.00     0.041 A 
ATOM     91  F   UNL     1      -1.861  11.120 -13.733  1.00  0.00    -0.206 F 
ATOM     92  C   UNL     1      -3.657   9.351 -16.327  1.00  0.00     0.022 A 
BRANCH  89  93
ATOM     93  S   UNL     1      -4.448   6.701 -16.695  1.00  0.00     0.124 S 
ATOM     94  O   UNL     1      -3.320   5.775 -16.727  1.00  0.00    -0.237 OA
ATOM     95  O   UNL     1      -5.588   6.290 -15.883  1.00  0.00    -0.237 OA
ATOM     96  O   UNL     1      -4.790   7.305 -17.982  1.00  0.00    -0.744 OA
ENDBRANCH  89  93
ENDBRANCH  63  86
ENDBRANCH  37  38
ENDBRANCH  30  32
ENDBRANCH  29  30
ENDBRANCH  28  29
ENDBRANCH  27  28
ENDBRANCH  26  27
ENDBRANCH   1  26
TORSDOF 23
