REMARK SMILES O=C(OCCOCCOC(=O)[C@H]1c2[nH]cnc2CC[N@H+]1Cc1ccoc1)c1ccc(-c2c3nc(c(-c4cc(S(=O)(=O)[O-])ccc4F)c4ccc([nH]4)c(-c4cc(S(=O)(=O)[O-])ccc4F)c4nc(c(-c5cc(S(=O)(=O)[O-])ccc5F)c5ccc2[nH]5)C=C4)C=C3)cc1
REMARK SMILES IDX 5 1 4 2 3 3 2 4 1 5 27 6 28 7 89 8 29 9 88 10 30 11 31 12
REMARK SMILES IDX 32 13 82 14 33 15 87 16 81 17 83 18 34 19 86 20 80 21 79 22
REMARK SMILES IDX 35 24 67 25 47 26 66 27 48 28 51 29 65 30 84 31 49 32 50 33
REMARK SMILES IDX 64 35 85 36 52 37 36 38 37 39 45 40 38 41 44 42 46 43 43 44
REMARK SMILES IDX 39 45 40 46 41 47 42 48 68 49 69 50 77 51 70 52 76 53 78 54
REMARK SMILES IDX 75 55 71 56 72 57 73 58 74 59 53 60 54 61 62 62 55 63 61 64
REMARK SMILES IDX 63 65 60 66 56 67 57 68 58 69 59 70 6 71 7 72 8 73 9 74
REMARK SMILES IDX 10 75 11 76 12 77 13 78 20 79 14 80 17 81 19 82 15 84 16 86
REMARK SMILES IDX 18 87 21 88 22 89 23 90 26 91 24 92 25 93
REMARK H PARENT 83 23 51 34 20 83 14 85
REMARK Flexibility Score: inf
ROOT
ATOM      1  C   UNL     1       4.579  -0.532  -0.064  1.00  0.00     0.202 C 
ENDROOT
BRANCH   1   2
ATOM      2  C   UNL     1       4.298  -0.495   1.440  1.00  0.00     0.261 C 
BRANCH   2   3
ATOM      3  O   UNL     1       2.956  -0.821   1.789  1.00  0.00    -0.460 OA
BRANCH   3   4
ATOM      4  C   UNL     1       1.855  -0.075   1.564  1.00  0.00     0.338 C 
ATOM      5  O   UNL     1       0.771  -0.659   1.547  1.00  0.00    -0.246 OA
BRANCH   4   6
ATOM      6  C   UNL     1       1.872   1.405   1.317  1.00  0.00     0.060 A 
ATOM      7  C   UNL     1       2.994   2.239   1.291  1.00  0.00     0.016 A 
ATOM      8  C   UNL     1       0.605   1.988   1.121  1.00  0.00     0.016 A 
ATOM      9  C   UNL     1       2.851   3.612   1.312  1.00  0.00     0.010 A 
ATOM     10  C   UNL     1       0.453   3.363   1.100  1.00  0.00     0.010 A 
ATOM     11  C   UNL     1       1.575   4.154   1.304  1.00  0.00    -0.014 A 
BRANCH  11  12
ATOM     12  C   UNL     1       1.467   5.574   1.562  1.00  0.00     0.031 A 
ATOM     13  C   UNL     1       1.987   6.448   0.488  1.00  0.00     0.074 A 
ATOM     14  C   UNL     1       0.902   6.011   2.703  1.00  0.00     0.049 A 
ATOM     15  N   UNL     1       2.989   7.261   0.540  1.00  0.00    -0.248 NA
ATOM     16  C   UNL     1       1.419   6.283  -0.858  1.00  0.00     0.031 C 
ATOM     17  C   UNL     1       0.178   5.218   3.702  1.00  0.00     0.029 A 
ATOM     18  N   UNL     1       0.747   7.283   3.151  1.00  0.00    -0.354 N 
ATOM     19  C   UNL     1       3.027   7.891  -0.700  1.00  0.00     0.074 A 
ATOM     20  C   UNL     1       2.183   7.114  -1.567  1.00  0.00     0.031 C 
ATOM     21  C   UNL     1      -0.553   6.048   4.477  1.00  0.00     0.029 A 
ATOM     22  C   UNL     1      -0.247   7.421   4.112  1.00  0.00     0.049 A 
ATOM     23  H   UNL     1       1.289   8.037   2.826  1.00  0.00     0.167 HD
ATOM     24  C   UNL     1       3.548   9.140  -0.841  1.00  0.00     0.034 A 
ATOM     25  C   UNL     1      -0.851   8.576   4.495  1.00  0.00     0.034 A 
ATOM     26  C   UNL     1       4.410   9.474   0.270  1.00  0.00     0.049 A 
ATOM     27  C   UNL     1       0.067   9.685   4.127  1.00  0.00     0.074 A 
ATOM     28  C   UNL     1       5.559   8.918   0.799  1.00  0.00     0.029 A 
ATOM     29  N   UNL     1       3.925  10.318   1.245  1.00  0.00    -0.354 N 
ATOM     30  N   UNL     1       1.241   9.853   4.675  1.00  0.00    -0.248 NA
ATOM     31  C   UNL     1      -0.091  10.305   2.817  1.00  0.00     0.031 C 
ATOM     32  C   UNL     1       5.419   9.060   2.210  1.00  0.00     0.029 A 
ATOM     33  C   UNL     1       4.237   9.761   2.461  1.00  0.00     0.049 A 
ATOM     34  H   UNL     1       3.445  11.165   1.097  1.00  0.00     0.167 HD
ATOM     35  C   UNL     1       2.083  10.198   3.628  1.00  0.00     0.074 A 
ATOM     36  C   UNL     1       1.189  10.563   2.530  1.00  0.00     0.031 C 
ATOM     37  C   UNL     1       3.413   9.880   3.649  1.00  0.00     0.034 A 
BRANCH  24  38
ATOM     38  C   UNL     1       2.989  10.195  -1.772  1.00  0.00     0.023 A 
ATOM     39  C   UNL     1       3.631  11.447  -1.781  1.00  0.00     0.031 A 
ATOM     40  C   UNL     1       1.722  10.151  -2.400  1.00  0.00     0.131 A 
ATOM     41  C   UNL     1       2.978  12.590  -2.273  1.00  0.00     0.055 A 
ATOM     42  C   UNL     1       1.108  11.277  -2.954  1.00  0.00     0.041 A 
ATOM     43  F   UNL     1       0.961   9.052  -2.431  1.00  0.00    -0.206 F 
ATOM     44  C   UNL     1       1.718  12.514  -2.860  1.00  0.00     0.022 A 
BRANCH  41  45
ATOM     45  S   UNL     1       3.724  14.207  -1.947  1.00  0.00     0.124 S 
ATOM     46  O   UNL     1       3.893  14.162  -0.498  1.00  0.00    -0.237 OA
ATOM     47  O   UNL     1       4.945  14.138  -2.742  1.00  0.00    -0.237 OA
ATOM     48  O   UNL     1       2.716  15.147  -2.430  1.00  0.00    -0.744 OA
ENDBRANCH  41  45
ENDBRANCH  24  38
BRANCH  25  49
ATOM     49  C   UNL     1      -2.300   8.743   4.798  1.00  0.00     0.023 A 
ATOM     50  C   UNL     1      -2.808   9.840   5.521  1.00  0.00     0.031 A 
ATOM     51  C   UNL     1      -3.255   7.901   4.177  1.00  0.00     0.131 A 
ATOM     52  C   UNL     1      -4.205  10.049   5.610  1.00  0.00     0.055 A 
ATOM     53  C   UNL     1      -4.631   8.104   4.279  1.00  0.00     0.041 A 
ATOM     54  F   UNL     1      -2.879   6.893   3.374  1.00  0.00    -0.206 F 
ATOM     55  C   UNL     1      -5.114   9.187   4.992  1.00  0.00     0.022 A 
BRANCH  52  56
ATOM     56  S   UNL     1      -4.866  11.517   6.463  1.00  0.00     0.124 S 
ATOM     57  O   UNL     1      -4.556  11.230   7.858  1.00  0.00    -0.237 OA
ATOM     58  O   UNL     1      -4.118  12.604   5.841  1.00  0.00    -0.237 OA
ATOM     59  O   UNL     1      -6.292  11.491   6.132  1.00  0.00    -0.744 OA
ENDBRANCH  52  56
ENDBRANCH  25  49
BRANCH  37  60
ATOM     60  C   UNL     1       4.024   9.402   4.952  1.00  0.00     0.023 A 
ATOM     61  C   UNL     1       3.596   8.265   5.675  1.00  0.00     0.031 A 
ATOM     62  C   UNL     1       5.184  10.060   5.399  1.00  0.00     0.131 A 
ATOM     63  C   UNL     1       4.321   7.835   6.805  1.00  0.00     0.055 A 
ATOM     64  C   UNL     1       5.908   9.620   6.506  1.00  0.00     0.041 A 
ATOM     65  F   UNL     1       5.662  11.125   4.734  1.00  0.00    -0.206 F 
ATOM     66  C   UNL     1       5.475   8.508   7.218  1.00  0.00     0.022 A 
BRANCH  63  67
ATOM     67  S   UNL     1       3.771   6.389   7.769  1.00  0.00     0.124 S 
ATOM     68  O   UNL     1       2.342   6.617   7.947  1.00  0.00    -0.237 OA
ATOM     69  O   UNL     1       4.139   5.273   6.900  1.00  0.00    -0.237 OA
ATOM     70  O   UNL     1       4.560   6.482   8.999  1.00  0.00    -0.744 OA
ENDBRANCH  63  67
ENDBRANCH  37  60
ENDBRANCH  11  12
ENDBRANCH   4   6
ENDBRANCH   3   4
ENDBRANCH   2   3
ENDBRANCH   1   2
BRANCH   1  71
ATOM     71  O   UNL     1       3.770   0.184  -0.992  1.00  0.00    -0.374 OA
BRANCH  71  72
ATOM     72  C   UNL     1       2.507  -0.297  -1.469  1.00  0.00     0.202 C 
BRANCH  72  73
ATOM     73  C   UNL     1       2.318  -1.735  -1.961  1.00  0.00     0.261 C 
BRANCH  73  74
ATOM     74  O   UNL     1       2.936  -2.671  -1.083  1.00  0.00    -0.459 OA
BRANCH  74  75
ATOM     75  C   UNL     1       3.627  -3.665  -1.727  1.00  0.00     0.371 C 
ATOM     76  O   UNL     1       3.445  -3.995  -2.879  1.00  0.00    -0.245 OA
BRANCH  75  77
ATOM     77  C   UNL     1       4.638  -4.282  -0.731  1.00  0.00     0.345 C 
ATOM     78  C   UNL     1       4.002  -5.513  -0.216  1.00  0.00     0.108 A 
ATOM     79  N   UNL     1       5.945  -4.635  -1.341  1.00  0.00    -0.314 N 
ATOM     80  N   UNL     1       3.014  -5.626   0.717  1.00  0.00    -0.343 N 
ATOM     81  C   UNL     1       4.231  -6.778  -0.685  1.00  0.00     0.074 A 
ATOM     82  C   UNL     1       5.896  -5.765  -2.287  1.00  0.00     0.270 C 
ATOM     83  H   UNL     1       6.465  -5.021  -0.553  1.00  0.00     0.349 HD
ATOM     84  C   UNL     1       2.656  -6.950   0.737  1.00  0.00     0.197 A 
ATOM     85  H   UNL     1       2.633  -4.902   1.266  1.00  0.00     0.167 HD
ATOM     86  N   UNL     1       3.390  -7.675  -0.085  1.00  0.00    -0.241 NA
ATOM     87  C   UNL     1       5.257  -7.074  -1.716  1.00  0.00     0.120 C 
BRANCH  79  88
ATOM     88  C   UNL     1       6.826  -3.519  -1.697  1.00  0.00     0.303 C 
BRANCH  88  89
ATOM     89  C   UNL     1       6.534  -2.821  -2.988  1.00  0.00     0.044 A 
ATOM     90  C   UNL     1       5.683  -1.705  -3.220  1.00  0.00     0.051 A 
ATOM     91  C   UNL     1       7.142  -3.035  -4.212  1.00  0.00     0.204 A 
ATOM     92  C   UNL     1       5.768  -1.381  -4.551  1.00  0.00     0.195 A 
ATOM     93  O   UNL     1       6.673  -2.182  -5.160  1.00  0.00    -0.472 OA
ENDBRANCH  88  89
ENDBRANCH  79  88
ENDBRANCH  75  77
ENDBRANCH  74  75
ENDBRANCH  73  74
ENDBRANCH  72  73
ENDBRANCH  71  72
ENDBRANCH   1  71
TORSDOF 19
