REMARK SMILES Cn1cc(S[C@@H]2CCC[C@]([NH2+]C3CC3)(C(=O)OCCOCCOC(=O)c3ccc(-c4c5nc(c(-c6cc(S(=O)(=O)[O-])ccc6F)c6ccc([nH]6)c(-c6cc(S(=O)(=O)[O-])ccc6F)c6nc(c(-c7cc(S(=O)(=O)[O-])ccc7F)c7ccc4[nH]7)C=C6)C=C5)cc3)C2)cn1
REMARK SMILES IDX 21 1 20 2 19 3 18 4 17 5 15 6 16 7 10 8 6 9 7 10 89 11 8 12
REMARK SMILES IDX 9 13 5 14 4 15 1 16 2 17 3 18 91 19 90 20 11 21 12 24 13 25
REMARK SMILES IDX 14 26 22 27 23 28 24 29 25 30 26 31 27 32 88 33 28 34 87 35
REMARK SMILES IDX 29 36 30 37 31 38 81 39 32 40 86 41 80 42 82 43 33 44 85 45
REMARK SMILES IDX 79 46 78 47 34 49 66 50 46 51 65 52 47 53 50 54 64 55 83 56
REMARK SMILES IDX 48 57 49 58 63 60 84 61 51 62 35 63 36 64 44 65 37 66 43 67
REMARK SMILES IDX 45 68 42 69 38 70 39 71 40 72 41 73 67 74 68 75 76 76 69 77
REMARK SMILES IDX 75 78 77 79 74 80 70 81 71 82 72 83 73 84 52 85 53 86 61 87
REMARK SMILES IDX 54 88 60 89 62 90 59 91 55 92 56 93 57 94 58 95
REMARK H PARENT 11 22 11 23 82 48 50 59
REMARK Flexibility Score: inf
ROOT
ATOM      1  C   UNL     1      -0.986  -7.686   2.060  1.00  0.00     0.202 C 
ENDROOT
BRANCH   1   2
ATOM      2  O   UNL     1      -0.807  -7.914   3.454  1.00  0.00    -0.374 OA
BRANCH   2   3
ATOM      3  C   UNL     1      -0.646  -6.763   4.283  1.00  0.00     0.202 C 
BRANCH   3   4
ATOM      4  C   UNL     1       0.725  -6.075   4.279  1.00  0.00     0.261 C 
BRANCH   4   5
ATOM      5  O   UNL     1       1.045  -5.445   3.019  1.00  0.00    -0.459 OA
BRANCH   5   6
ATOM      6  C   UNL     1       1.978  -6.101   2.279  1.00  0.00     0.368 C 
ATOM      7  O   UNL     1       2.440  -7.200   2.587  1.00  0.00    -0.245 OA
BRANCH   6   8
ATOM      8  C   UNL     1       2.333  -5.399   0.912  1.00  0.00     0.195 C 
ATOM      9  C   UNL     1       2.578  -3.125  -0.259  1.00  0.00     0.058 C 
ATOM     10  C   UNL     1       1.526  -3.505  -1.310  1.00  0.00     0.015 C 
ATOM     11  C   UNL     1       2.441  -3.868   1.079  1.00  0.00     0.096 C 
ATOM     12  C   UNL     1       1.276  -5.009  -1.427  1.00  0.00     0.008 C 
ATOM     13  C   UNL     1       1.187  -5.710  -0.076  1.00  0.00     0.081 C 
BRANCH   9  14
ATOM     14  S   UNL     1       2.836  -1.337   0.008  1.00  0.00    -0.119 SA
BRANCH  14  15
ATOM     15  C   UNL     1       1.292  -0.550   0.043  1.00  0.00     0.046 A 
ATOM     16  C   UNL     1      -2.252   0.054   0.158  1.00  0.00     0.173 C 
ATOM     17  N   UNL     1      -0.809   0.058   0.121  1.00  0.00    -0.275 N 
ATOM     18  C   UNL     1       0.027  -1.008   0.316  1.00  0.00     0.123 A 
ATOM     19  N   UNL     1      -0.164   1.197  -0.184  1.00  0.00    -0.181 NA
ATOM     20  C   UNL     1       1.120   0.829  -0.203  1.00  0.00     0.150 A 
ENDBRANCH  14  15
ENDBRANCH   9  14
BRANCH   8  21
ATOM     21  N   UNL     1       3.604  -6.070   0.549  1.00  0.00    -0.330 N 
ATOM     22  H   UNL     1       3.361  -7.049   0.400  1.00  0.00     0.347 HD
ATOM     23  H   UNL     1       4.194  -5.771   1.325  1.00  0.00     0.347 HD
BRANCH  21  24
ATOM     24  C   UNL     1       4.447  -5.712  -0.566  1.00  0.00     0.183 C 
ATOM     25  C   UNL     1       5.730  -4.980  -0.294  1.00  0.00     0.071 C 
ATOM     26  C   UNL     1       5.768  -6.425  -0.685  1.00  0.00     0.071 C 
ENDBRANCH  21  24
ENDBRANCH   8  21
ENDBRANCH   6   8
ENDBRANCH   5   6
ENDBRANCH   4   5
ENDBRANCH   3   4
ENDBRANCH   2   3
ENDBRANCH   1   2
BRANCH   1  27
ATOM     27  C   UNL     1      -2.380  -7.255   1.589  1.00  0.00     0.261 C 
BRANCH  27  28
ATOM     28  O   UNL     1      -2.784  -5.995   2.154  1.00  0.00    -0.460 OA
BRANCH  28  29
ATOM     29  C   UNL     1      -3.738  -6.099   3.111  1.00  0.00     0.338 C 
ATOM     30  O   UNL     1      -4.332  -7.117   3.443  1.00  0.00    -0.246 OA
BRANCH  29  31
ATOM     31  C   UNL     1      -3.853  -4.836   3.864  1.00  0.00     0.060 A 
ATOM     32  C   UNL     1      -3.808  -4.920   5.262  1.00  0.00     0.016 A 
ATOM     33  C   UNL     1      -4.071  -3.608   3.234  1.00  0.00     0.016 A 
ATOM     34  C   UNL     1      -4.046  -3.789   6.039  1.00  0.00     0.010 A 
ATOM     35  C   UNL     1      -4.319  -2.474   4.018  1.00  0.00     0.010 A 
ATOM     36  C   UNL     1      -4.350  -2.570   5.422  1.00  0.00    -0.014 A 
BRANCH  36  37
ATOM     37  C   UNL     1      -4.885  -1.456   6.245  1.00  0.00     0.031 A 
ATOM     38  C   UNL     1      -6.375  -1.242   6.285  1.00  0.00     0.074 A 
ATOM     39  C   UNL     1      -4.068  -0.683   6.984  1.00  0.00     0.049 A 
ATOM     40  N   UNL     1      -7.067  -0.316   6.896  1.00  0.00    -0.248 NA
ATOM     41  C   UNL     1      -7.191  -2.203   5.527  1.00  0.00     0.031 C 
ATOM     42  C   UNL     1      -2.617  -0.835   7.074  1.00  0.00     0.029 A 
ATOM     43  N   UNL     1      -4.346   0.385   7.799  1.00  0.00    -0.354 N 
ATOM     44  C   UNL     1      -8.400  -0.578   6.594  1.00  0.00     0.074 A 
ATOM     45  C   UNL     1      -8.413  -1.728   5.714  1.00  0.00     0.031 C 
ATOM     46  C   UNL     1      -2.130   0.116   7.892  1.00  0.00     0.029 A 
ATOM     47  C   UNL     1      -3.228   0.965   8.351  1.00  0.00     0.049 A 
ATOM     48  H   UNL     1      -5.261   0.707   7.972  1.00  0.00     0.167 HD
ATOM     49  C   UNL     1      -9.510   0.074   7.019  1.00  0.00     0.034 A 
ATOM     50  C   UNL     1      -3.104   2.070   9.115  1.00  0.00     0.034 A 
ATOM     51  C   UNL     1      -9.480   1.222   7.892  1.00  0.00     0.049 A 
ATOM     52  C   UNL     1      -4.348   2.836   9.502  1.00  0.00     0.074 A 
ATOM     53  C   UNL     1     -10.543   1.955   8.389  1.00  0.00     0.029 A 
ATOM     54  N   UNL     1      -8.325   1.810   8.392  1.00  0.00    -0.354 N 
ATOM     55  N   UNL     1      -5.603   2.580   9.206  1.00  0.00    -0.248 NA
ATOM     56  C   UNL     1      -4.160   4.033  10.331  1.00  0.00     0.031 C 
ATOM     57  C   UNL     1     -10.030   3.026   9.129  1.00  0.00     0.029 A 
ATOM     58  C   UNL     1      -8.649   2.916   9.163  1.00  0.00     0.049 A 
ATOM     59  H   UNL     1      -7.410   1.489   8.223  1.00  0.00     0.167 HD
ATOM     60  C   UNL     1      -6.352   3.567   9.843  1.00  0.00     0.074 A 
ATOM     61  C   UNL     1      -5.410   4.413  10.546  1.00  0.00     0.031 C 
ATOM     62  C   UNL     1      -7.697   3.754   9.854  1.00  0.00     0.034 A 
BRANCH  49  63
ATOM     63  C   UNL     1     -10.841  -0.409   6.495  1.00  0.00     0.023 A 
ATOM     64  C   UNL     1     -11.343  -1.685   6.806  1.00  0.00     0.031 A 
ATOM     65  C   UNL     1     -11.606   0.411   5.646  1.00  0.00     0.131 A 
ATOM     66  C   UNL     1     -12.538  -2.128   6.218  1.00  0.00     0.055 A 
ATOM     67  C   UNL     1     -12.833  -0.006   5.128  1.00  0.00     0.041 A 
ATOM     68  F   UNL     1     -11.165   1.629   5.294  1.00  0.00    -0.206 F 
ATOM     69  C   UNL     1     -13.299  -1.288   5.402  1.00  0.00     0.022 A 
BRANCH  66  70
ATOM     70  S   UNL     1     -13.014  -3.866   6.423  1.00  0.00     0.124 S 
ATOM     71  O   UNL     1     -11.862  -4.556   5.847  1.00  0.00    -0.237 OA
ATOM     72  O   UNL     1     -13.172  -3.982   7.868  1.00  0.00    -0.237 OA
ATOM     73  O   UNL     1     -14.248  -3.978   5.648  1.00  0.00    -0.744 OA
ENDBRANCH  66  70
ENDBRANCH  49  63
BRANCH  50  74
ATOM     74  C   UNL     1      -1.757   2.557   9.530  1.00  0.00     0.023 A 
ATOM     75  C   UNL     1      -1.392   2.630  10.884  1.00  0.00     0.031 A 
ATOM     76  C   UNL     1      -0.835   3.021   8.575  1.00  0.00     0.131 A 
ATOM     77  C   UNL     1      -0.162   3.200  11.248  1.00  0.00     0.055 A 
ATOM     78  C   UNL     1       0.411   3.536   8.938  1.00  0.00     0.041 A 
ATOM     79  F   UNL     1      -1.133   2.978   7.266  1.00  0.00    -0.206 F 
ATOM     80  C   UNL     1       0.747   3.641  10.283  1.00  0.00     0.022 A 
BRANCH  77  81
ATOM     81  S   UNL     1       0.196   3.443  13.009  1.00  0.00     0.124 S 
ATOM     82  O   UNL     1      -0.925   4.276  13.428  1.00  0.00    -0.237 OA
ATOM     83  O   UNL     1       0.199   2.072  13.509  1.00  0.00    -0.237 OA
ATOM     84  O   UNL     1       1.499   4.106  13.004  1.00  0.00    -0.744 OA
ENDBRANCH  77  81
ENDBRANCH  50  74
BRANCH  62  85
ATOM     85  C   UNL     1      -8.229   4.887  10.699  1.00  0.00     0.023 A 
ATOM     86  C   UNL     1      -7.982   6.233  10.379  1.00  0.00     0.031 A 
ATOM     87  C   UNL     1      -8.995   4.609  11.846  1.00  0.00     0.131 A 
ATOM     88  C   UNL     1      -8.450   7.249  11.226  1.00  0.00     0.055 A 
ATOM     89  C   UNL     1      -9.508   5.626  12.652  1.00  0.00     0.041 A 
ATOM     90  F   UNL     1      -9.261   3.341  12.199  1.00  0.00    -0.206 F 
ATOM     91  C   UNL     1      -9.226   6.955  12.351  1.00  0.00     0.022 A 
BRANCH  88  92
ATOM     92  S   UNL     1      -7.960   8.963  10.887  1.00  0.00     0.124 S 
ATOM     93  O   UNL     1      -6.504   8.878  10.938  1.00  0.00    -0.237 OA
ATOM     94  O   UNL     1      -8.540   9.198   9.569  1.00  0.00    -0.237 OA
ATOM     95  O   UNL     1      -8.576   9.718  11.977  1.00  0.00    -0.744 OA
ENDBRANCH  88  92
ENDBRANCH  62  85
ENDBRANCH  36  37
ENDBRANCH  29  31
ENDBRANCH  28  29
ENDBRANCH  27  28
ENDBRANCH   1  27
TORSDOF 21
