REMARK SMILES O=C(OCCOCCOC(=O)C1([NH+]2CCOCC2)CCC1)c1ccc(-c2c3nc(c(-c4cc(S(=O)(=O)[O-])ccc4F)c4ccc([nH]4)c(-c4cc(S(=O)(=O)[O-])ccc4F)c4nc(c(-c5cc(S(=O)(=O)[O-])ccc5F)c5ccc2[nH]5)C=C4)C=C3)cc1
REMARK SMILES IDX 5 1 4 2 3 3 2 4 1 5 22 6 23 7 84 8 24 9 83 10 25 11 26 12
REMARK SMILES IDX 27 13 77 14 28 15 82 16 76 17 78 18 29 19 81 20 75 21 74 22
REMARK SMILES IDX 30 24 62 25 42 26 61 27 43 28 46 29 60 30 79 31 44 32 45 33
REMARK SMILES IDX 59 35 80 36 47 37 31 38 32 39 40 40 33 41 39 42 41 43 38 44
REMARK SMILES IDX 34 45 35 46 36 47 37 48 63 49 64 50 72 51 65 52 71 53 73 54
REMARK SMILES IDX 70 55 66 56 67 57 68 58 69 59 48 60 49 61 57 62 50 63 56 64
REMARK SMILES IDX 58 65 55 66 51 67 52 68 53 69 54 70 6 71 7 72 8 73 9 74
REMARK SMILES IDX 10 75 11 76 12 77 19 78 21 79 20 80 13 81 14 82 18 83 15 85
REMARK SMILES IDX 17 86 16 87
REMARK H PARENT 78 23 46 34 13 84
REMARK Flexibility Score: inf
ROOT
ATOM      1  C   UNL     1       4.786   0.132  -1.060  1.00  0.00     0.202 C 
ENDROOT
BRANCH   1   2
ATOM      2  C   UNL     1       4.337  -1.045  -0.160  1.00  0.00     0.261 C 
BRANCH   2   3
ATOM      3  O   UNL     1       2.925  -1.056   0.120  1.00  0.00    -0.460 OA
BRANCH   3   4
ATOM      4  C   UNL     1       2.280  -0.473   1.167  1.00  0.00     0.338 C 
ATOM      5  O   UNL     1       1.068  -0.646   1.283  1.00  0.00    -0.246 OA
BRANCH   4   6
ATOM      6  C   UNL     1       2.965   0.425   2.148  1.00  0.00     0.060 A 
ATOM      7  C   UNL     1       4.221   0.974   1.936  1.00  0.00     0.016 A 
ATOM      8  C   UNL     1       2.296   0.793   3.326  1.00  0.00     0.016 A 
ATOM      9  C   UNL     1       4.819   1.841   2.803  1.00  0.00     0.010 A 
ATOM     10  C   UNL     1       2.900   1.665   4.247  1.00  0.00     0.010 A 
ATOM     11  C   UNL     1       4.171   2.178   3.973  1.00  0.00    -0.014 A 
BRANCH  11  12
ATOM     12  C   UNL     1       5.060   2.848   4.923  1.00  0.00     0.031 A 
ATOM     13  C   UNL     1       5.761   1.967   5.909  1.00  0.00     0.074 A 
ATOM     14  C   UNL     1       5.487   4.089   4.624  1.00  0.00     0.049 A 
ATOM     15  N   UNL     1       6.655   2.273   6.802  1.00  0.00    -0.248 NA
ATOM     16  C   UNL     1       5.438   0.528   5.846  1.00  0.00     0.031 C 
ATOM     17  C   UNL     1       5.041   4.877   3.464  1.00  0.00     0.029 A 
ATOM     18  N   UNL     1       6.449   4.867   5.198  1.00  0.00    -0.354 N 
ATOM     19  C   UNL     1       6.959   1.079   7.446  1.00  0.00     0.074 A 
ATOM     20  C   UNL     1       6.175   0.038   6.826  1.00  0.00     0.031 C 
ATOM     21  C   UNL     1       5.751   6.013   3.405  1.00  0.00     0.029 A 
ATOM     22  C   UNL     1       6.620   6.079   4.571  1.00  0.00     0.049 A 
ATOM     23  H   UNL     1       6.970   4.587   5.985  1.00  0.00     0.167 HD
ATOM     24  C   UNL     1       7.804   0.900   8.486  1.00  0.00     0.034 A 
ATOM     25  C   UNL     1       7.364   7.134   4.950  1.00  0.00     0.034 A 
ATOM     26  C   UNL     1       8.546   1.995   9.053  1.00  0.00     0.049 A 
ATOM     27  C   UNL     1       8.161   6.963   6.218  1.00  0.00     0.074 A 
ATOM     28  C   UNL     1       9.335   2.021  10.185  1.00  0.00     0.029 A 
ATOM     29  N   UNL     1       8.575   3.280   8.512  1.00  0.00    -0.354 N 
ATOM     30  N   UNL     1       8.322   5.880   6.950  1.00  0.00    -0.248 NA
ATOM     31  C   UNL     1       8.860   8.145   6.722  1.00  0.00     0.031 C 
ATOM     32  C   UNL     1       9.774   3.338  10.370  1.00  0.00     0.029 A 
ATOM     33  C   UNL     1       9.341   4.115   9.303  1.00  0.00     0.049 A 
ATOM     34  H   UNL     1       8.115   3.553   7.685  1.00  0.00     0.167 HD
ATOM     35  C   UNL     1       9.166   6.245   7.991  1.00  0.00     0.074 A 
ATOM     36  C   UNL     1       9.493   7.644   7.773  1.00  0.00     0.031 C 
ATOM     37  C   UNL     1       9.631   5.506   9.033  1.00  0.00     0.034 A 
BRANCH  24  38
ATOM     38  C   UNL     1       7.798  -0.462   9.135  1.00  0.00     0.023 A 
ATOM     39  C   UNL     1       8.214  -1.625   8.461  1.00  0.00     0.031 A 
ATOM     40  C   UNL     1       7.220  -0.613  10.409  1.00  0.00     0.131 A 
ATOM     41  C   UNL     1       7.958  -2.887   9.024  1.00  0.00     0.055 A 
ATOM     42  C   UNL     1       7.052  -1.865  11.001  1.00  0.00     0.041 A 
ATOM     43  F   UNL     1       6.761   0.455  11.081  1.00  0.00    -0.206 F 
ATOM     44  C   UNL     1       7.404  -3.014  10.300  1.00  0.00     0.022 A 
BRANCH  41  45
ATOM     45  S   UNL     1       8.180  -4.363   7.989  1.00  0.00     0.124 S 
ATOM     46  O   UNL     1       7.245  -4.100   6.897  1.00  0.00    -0.237 OA
ATOM     47  O   UNL     1       9.596  -4.300   7.646  1.00  0.00    -0.237 OA
ATOM     48  O   UNL     1       7.801  -5.463   8.873  1.00  0.00    -0.744 OA
ENDBRANCH  41  45
ENDBRANCH  24  38
BRANCH  25  49
ATOM     49  C   UNL     1       7.302   8.433   4.217  1.00  0.00     0.023 A 
ATOM     50  C   UNL     1       8.459   9.054   3.723  1.00  0.00     0.031 A 
ATOM     51  C   UNL     1       6.079   9.117   4.060  1.00  0.00     0.131 A 
ATOM     52  C   UNL     1       8.377  10.334   3.146  1.00  0.00     0.055 A 
ATOM     53  C   UNL     1       5.994  10.359   3.428  1.00  0.00     0.041 A 
ATOM     54  F   UNL     1       4.935   8.586   4.523  1.00  0.00    -0.206 F 
ATOM     55  C   UNL     1       7.152  10.983   2.982  1.00  0.00     0.022 A 
BRANCH  52  56
ATOM     56  S   UNL     1       9.916  11.191   2.711  1.00  0.00     0.124 S 
ATOM     57  O   UNL     1      10.627  11.188   3.984  1.00  0.00    -0.237 OA
ATOM     58  O   UNL     1      10.460  10.327   1.669  1.00  0.00    -0.237 OA
ATOM     59  O   UNL     1       9.458  12.502   2.256  1.00  0.00    -0.744 OA
ENDBRANCH  52  56
ENDBRANCH  25  49
BRANCH  37  60
ATOM     60  C   UNL     1      10.589   6.199   9.962  1.00  0.00     0.023 A 
ATOM     61  C   UNL     1      10.186   7.275  10.770  1.00  0.00     0.031 A 
ATOM     62  C   UNL     1      11.928   5.778  10.025  1.00  0.00     0.131 A 
ATOM     63  C   UNL     1      11.135   7.942  11.554  1.00  0.00     0.055 A 
ATOM     64  C   UNL     1      12.848   6.395  10.869  1.00  0.00     0.041 A 
ATOM     65  F   UNL     1      12.360   4.755   9.270  1.00  0.00    -0.206 F 
ATOM     66  C   UNL     1      12.457   7.495  11.627  1.00  0.00     0.022 A 
BRANCH  63  67
ATOM     67  S   UNL     1      10.643   9.477  12.381  1.00  0.00     0.124 S 
ATOM     68  O   UNL     1      10.183  10.290  11.259  1.00  0.00    -0.237 OA
ATOM     69  O   UNL     1       9.607   9.018  13.301  1.00  0.00    -0.237 OA
ATOM     70  O   UNL     1      11.878   9.934  13.014  1.00  0.00    -0.744 OA
ENDBRANCH  63  67
ENDBRANCH  37  60
ENDBRANCH  11  12
ENDBRANCH   4   6
ENDBRANCH   3   4
ENDBRANCH   2   3
ENDBRANCH   1   2
BRANCH   1  71
ATOM     71  O   UNL     1       4.260   1.438  -0.811  1.00  0.00    -0.374 OA
BRANCH  71  72
ATOM     72  C   UNL     1       2.888   1.667  -1.135  1.00  0.00     0.202 C 
BRANCH  72  73
ATOM     73  C   UNL     1       2.746   2.457  -2.422  1.00  0.00     0.261 C 
BRANCH  73  74
ATOM     74  O   UNL     1       3.128   1.574  -3.486  1.00  0.00    -0.459 OA
BRANCH  74  75
ATOM     75  C   UNL     1       4.422   1.690  -3.911  1.00  0.00     0.368 C 
ATOM     76  O   UNL     1       5.156   2.624  -3.581  1.00  0.00    -0.245 OA
BRANCH  75  77
ATOM     77  C   UNL     1       4.833   0.462  -4.853  1.00  0.00     0.196 C 
ATOM     78  C   UNL     1       6.359   0.141  -4.691  1.00  0.00     0.081 C 
ATOM     79  C   UNL     1       4.547  -1.011  -4.421  1.00  0.00     0.081 C 
ATOM     80  C   UNL     1       6.041  -1.347  -4.513  1.00  0.00     0.014 C 
BRANCH  77  81
ATOM     81  N   UNL     1       4.469   0.727  -6.279  1.00  0.00    -0.317 N 
ATOM     82  C   UNL     1       3.028   1.008  -6.465  1.00  0.00     0.292 C 
ATOM     83  C   UNL     1       4.901  -0.212  -7.320  1.00  0.00     0.292 C 
ATOM     84  H   UNL     1       5.045   1.554  -6.436  1.00  0.00     0.349 HD
ATOM     85  C   UNL     1       2.162  -0.252  -6.557  1.00  0.00     0.221 C 
ATOM     86  C   UNL     1       3.974  -1.414  -7.590  1.00  0.00     0.221 C 
ATOM     87  O   UNL     1       2.583  -1.072  -7.653  1.00  0.00    -0.370 OA
ENDBRANCH  77  81
ENDBRANCH  75  77
ENDBRANCH  74  75
ENDBRANCH  73  74
ENDBRANCH  72  73
ENDBRANCH  71  72
ENDBRANCH   1  71
TORSDOF 18
