REMARK SMILES Cc1cc2c(c(C)c1Cl)C=C(C(=O)OCCOCCOC(=O)c1ccc(-c3c4nc(c(-c5cc(S(=O)(=O)[O-])ccc5F)c5ccc([nH]5)c(-c5cc(S(=O)(=O)[O-])ccc5F)c5nc(c(-c6cc(S(=O)(=O)[O-])ccc6F)c6ccc3[nH]6)C=C5)C=C4)cc1)[C@@H](C(F)(F)F)O2
REMARK SMILES IDX 18 1 17 2 16 3 15 4 14 5 12 6 13 7 11 8 1 9 2 10 3 11 8 12
REMARK SMILES IDX 4 13 6 14 9 15 5 16 91 17 7 18 10 19 86 20 87 21 88 22 89 23
REMARK SMILES IDX 90 24 19 25 20 26 21 27 22 28 23 29 24 30 85 31 25 32 84 33
REMARK SMILES IDX 26 34 27 35 28 36 78 37 29 38 83 39 77 40 79 41 30 42 82 43
REMARK SMILES IDX 76 44 75 45 31 47 63 48 43 49 62 50 44 51 47 52 61 53 80 54
REMARK SMILES IDX 45 55 46 56 60 58 81 59 48 60 32 61 33 62 41 63 34 64 40 65
REMARK SMILES IDX 42 66 39 67 35 68 36 69 37 70 38 71 64 72 65 73 73 74 66 75
REMARK SMILES IDX 72 76 74 77 71 78 67 79 68 80 69 81 70 82 49 83 50 84 58 85
REMARK SMILES IDX 51 86 57 87 59 88 56 89 52 90 53 91 54 92 55 93
REMARK H PARENT 79 46 47 57
REMARK Flexibility Score: inf
ROOT
ATOM      1  C   UNL     1      -2.760  -6.247  -5.541  1.00  0.00     0.202 C 
ENDROOT
BRANCH   1   2
ATOM      2  O   UNL     1      -2.381  -6.864  -6.772  1.00  0.00    -0.374 OA
BRANCH   2   3
ATOM      3  C   UNL     1      -1.481  -7.969  -6.716  1.00  0.00     0.202 C 
BRANCH   3   4
ATOM      4  C   UNL     1       0.002  -7.645  -6.507  1.00  0.00     0.261 C 
BRANCH   4   5
ATOM      5  O   UNL     1       0.216  -6.885  -5.307  1.00  0.00    -0.460 OA
BRANCH   5   6
ATOM      6  C   UNL     1       0.614  -5.610  -5.515  1.00  0.00     0.338 C 
ATOM      7  O   UNL     1       0.916  -5.097  -6.583  1.00  0.00    -0.246 OA
BRANCH   6   8
ATOM      8  C   UNL     1       0.507  -4.840  -4.262  1.00  0.00     0.087 C 
ATOM      9  C   UNL     1       0.804  -0.131   0.126  1.00  0.00     0.046 C 
ATOM     10  C   UNL     1       0.417  -0.997  -1.043  1.00  0.00    -0.028 A 
ATOM     11  C   UNL     1       0.711  -2.366  -0.950  1.00  0.00     0.052 A 
ATOM     12  C   UNL     1      -0.145  -0.502  -2.236  1.00  0.00     0.047 A 
ATOM     13  C   UNL     1       0.518  -3.216  -2.035  1.00  0.00     0.128 A 
ATOM     14  C   UNL     1      -0.392  -1.361  -3.333  1.00  0.00    -0.021 A 
ATOM     15  Cl  UNL     1      -0.500   1.195  -2.364  1.00  0.00    -0.084 Cl
ATOM     16  C   UNL     1       0.007  -2.718  -3.237  1.00  0.00     0.022 A 
ATOM     17  O   UNL     1       0.859  -4.523  -1.825  1.00  0.00    -0.475 OA
ATOM     18  C   UNL     1      -1.040  -0.867  -4.606  1.00  0.00     0.047 C 
ATOM     19  C   UNL     1      -0.010  -3.611  -4.389  1.00  0.00     0.027 C 
ATOM     20  C   UNL     1       0.996  -5.414  -2.966  1.00  0.00     0.316 C 
BRANCH  20  21
ATOM     21  C   UNL     1       2.455  -5.888  -3.037  1.00  0.00     0.430 C 
ATOM     22  F   UNL     1       2.877  -6.352  -1.835  1.00  0.00    -0.167 F 
ATOM     23  F   UNL     1       2.616  -6.895  -3.924  1.00  0.00    -0.167 F 
ATOM     24  F   UNL     1       3.290  -4.887  -3.400  1.00  0.00    -0.167 F 
ENDBRANCH  20  21
ENDBRANCH   6   8
ENDBRANCH   5   6
ENDBRANCH   4   5
ENDBRANCH   3   4
ENDBRANCH   2   3
ENDBRANCH   1   2
BRANCH   1  25
ATOM     25  C   UNL     1      -3.702  -7.021  -4.610  1.00  0.00     0.261 C 
BRANCH  25  26
ATOM     26  O   UNL     1      -3.087  -8.195  -4.050  1.00  0.00    -0.460 OA
BRANCH  26  27
ATOM     27  C   UNL     1      -3.623  -9.368  -4.465  1.00  0.00     0.338 C 
ATOM     28  O   UNL     1      -4.581  -9.514  -5.215  1.00  0.00    -0.246 OA
BRANCH  27  29
ATOM     29  C   UNL     1      -2.769 -10.489  -4.038  1.00  0.00     0.060 A 
ATOM     30  C   UNL     1      -2.244 -11.326  -5.030  1.00  0.00     0.016 A 
ATOM     31  C   UNL     1      -2.540 -10.757  -2.686  1.00  0.00     0.016 A 
ATOM     32  C   UNL     1      -1.510 -12.454  -4.672  1.00  0.00     0.010 A 
ATOM     33  C   UNL     1      -1.812 -11.898  -2.329  1.00  0.00     0.010 A 
ATOM     34  C   UNL     1      -1.315 -12.764  -3.319  1.00  0.00    -0.014 A 
BRANCH  34  35
ATOM     35  C   UNL     1      -0.688 -14.057  -2.952  1.00  0.00     0.031 A 
ATOM     36  C   UNL     1      -1.565 -15.211  -2.547  1.00  0.00     0.074 A 
ATOM     37  C   UNL     1       0.646 -14.215  -3.036  1.00  0.00     0.049 A 
ATOM     38  N   UNL     1      -1.225 -16.423  -2.195  1.00  0.00    -0.248 NA
ATOM     39  C   UNL     1      -3.016 -14.966  -2.543  1.00  0.00     0.031 C 
ATOM     40  C   UNL     1       1.589 -13.184  -3.469  1.00  0.00     0.029 A 
ATOM     41  N   UNL     1       1.437 -15.305  -2.775  1.00  0.00    -0.354 N 
ATOM     42  C   UNL     1      -2.417 -17.091  -1.938  1.00  0.00     0.074 A 
ATOM     43  C   UNL     1      -3.486 -16.136  -2.135  1.00  0.00     0.031 C 
ATOM     44  C   UNL     1       2.830 -13.697  -3.458  1.00  0.00     0.029 A 
ATOM     45  C   UNL     1       2.777 -15.079  -2.984  1.00  0.00     0.049 A 
ATOM     46  H   UNL     1       1.078 -16.169  -2.466  1.00  0.00     0.167 HD
ATOM     47  C   UNL     1      -2.601 -18.386  -1.587  1.00  0.00     0.034 A 
ATOM     48  C   UNL     1       3.839 -15.889  -2.804  1.00  0.00     0.034 A 
ATOM     49  C   UNL     1      -1.529 -19.327  -1.389  1.00  0.00     0.049 A 
ATOM     50  C   UNL     1       3.616 -17.297  -2.313  1.00  0.00     0.074 A 
ATOM     51  C   UNL     1      -1.611 -20.661  -1.028  1.00  0.00     0.029 A 
ATOM     52  N   UNL     1      -0.179 -19.036  -1.528  1.00  0.00    -0.354 N 
ATOM     53  N   UNL     1       2.484 -17.905  -2.046  1.00  0.00    -0.248 NA
ATOM     54  C   UNL     1       4.810 -18.127  -2.098  1.00  0.00     0.031 C 
ATOM     55  C   UNL     1      -0.313 -21.158  -0.889  1.00  0.00     0.029 A 
ATOM     56  C   UNL     1       0.580 -20.156  -1.233  1.00  0.00     0.049 A 
ATOM     57  H   UNL     1       0.185 -18.162  -1.798  1.00  0.00     0.167 HD
ATOM     58  C   UNL     1       2.829 -19.197  -1.658  1.00  0.00     0.074 A 
ATOM     59  C   UNL     1       4.273 -19.281  -1.723  1.00  0.00     0.031 C 
ATOM     60  C   UNL     1       2.020 -20.223  -1.291  1.00  0.00     0.034 A 
BRANCH  47  61
ATOM     61  C   UNL     1      -4.015 -18.856  -1.367  1.00  0.00     0.023 A 
ATOM     62  C   UNL     1      -4.922 -18.978  -2.432  1.00  0.00     0.031 A 
ATOM     63  C   UNL     1      -4.451 -19.212  -0.079  1.00  0.00     0.131 A 
ATOM     64  C   UNL     1      -6.234 -19.410  -2.185  1.00  0.00     0.055 A 
ATOM     65  C   UNL     1      -5.739 -19.700   0.151  1.00  0.00     0.041 A 
ATOM     66  F   UNL     1      -3.630 -19.096   0.977  1.00  0.00    -0.206 F 
ATOM     67  C   UNL     1      -6.641 -19.795  -0.905  1.00  0.00     0.022 A 
BRANCH  64  68
ATOM     68  S   UNL     1      -7.428 -19.390  -3.549  1.00  0.00     0.124 S 
ATOM     69  O   UNL     1      -7.503 -17.963  -3.853  1.00  0.00    -0.237 OA
ATOM     70  O   UNL     1      -6.777 -20.223  -4.553  1.00  0.00    -0.237 OA
ATOM     71  O   UNL     1      -8.636 -19.959  -2.955  1.00  0.00    -0.744 OA
ENDBRANCH  64  68
ENDBRANCH  47  61
BRANCH  48  72
ATOM     72  C   UNL     1       5.214 -15.385  -3.075  1.00  0.00     0.023 A 
ATOM     73  C   UNL     1       5.972 -15.890  -4.142  1.00  0.00     0.031 A 
ATOM     74  C   UNL     1       5.789 -14.389  -2.265  1.00  0.00     0.131 A 
ATOM     75  C   UNL     1       7.273 -15.410  -4.361  1.00  0.00     0.055 A 
ATOM     76  C   UNL     1       7.068 -13.888  -2.510  1.00  0.00     0.041 A 
ATOM     77  F   UNL     1       5.101 -13.872  -1.234  1.00  0.00    -0.206 F 
ATOM     78  C   UNL     1       7.821 -14.404  -3.561  1.00  0.00     0.022 A 
BRANCH  75  79
ATOM     79  S   UNL     1       8.259 -16.144  -5.695  1.00  0.00     0.124 S 
ATOM     80  O   UNL     1       8.397 -17.522  -5.237  1.00  0.00    -0.237 OA
ATOM     81  O   UNL     1       7.402 -15.935  -6.857  1.00  0.00    -0.237 OA
ATOM     82  O   UNL     1       9.489 -15.355  -5.682  1.00  0.00    -0.744 OA
ENDBRANCH  75  79
ENDBRANCH  48  72
BRANCH  60  83
ATOM     83  C   UNL     1       2.667 -21.542  -0.962  1.00  0.00     0.023 A 
ATOM     84  C   UNL     1       3.389 -21.732   0.228  1.00  0.00     0.031 A 
ATOM     85  C   UNL     1       2.498 -22.642  -1.823  1.00  0.00     0.131 A 
ATOM     86  C   UNL     1       3.933 -22.993   0.518  1.00  0.00     0.055 A 
ATOM     87  C   UNL     1       3.004 -23.904  -1.508  1.00  0.00     0.041 A 
ATOM     88  F   UNL     1       1.812 -22.512  -2.970  1.00  0.00    -0.206 F 
ATOM     89  C   UNL     1       3.728 -24.083  -0.333  1.00  0.00     0.022 A 
BRANCH  86  90
ATOM     90  S   UNL     1       4.930 -23.190   2.019  1.00  0.00     0.124 S 
ATOM     91  O   UNL     1       6.079 -22.336   1.732  1.00  0.00    -0.237 OA
ATOM     92  O   UNL     1       4.029 -22.715   3.063  1.00  0.00    -0.237 OA
ATOM     93  O   UNL     1       5.216 -24.623   2.056  1.00  0.00    -0.744 OA
ENDBRANCH  86  90
ENDBRANCH  60  83
ENDBRANCH  34  35
ENDBRANCH  27  29
ENDBRANCH  26  27
ENDBRANCH  25  26
ENDBRANCH   1  25
TORSDOF 18
