REMARK SMILES O=C(C[NH+]1CCN(c2ncc(C(F)(F)F)cc2Cl)CC1)OCCOCCOC(=O)c1ccc(-c2c3nc(c(-c4cc(S(=O)(=O)[O-])ccc4F)c4ccc([nH]4)c(-c4cc(S(=O)(=O)[O-])ccc4F)c4nc(c(-c5cc(S(=O)(=O)[O-])ccc5F)c5ccc2[nH]5)C=C4)C=C3)cc1
REMARK SMILES IDX 24 1 23 2 22 3 21 4 2 5 1 6 3 7 4 8 5 9 20 10 6 12 19 13
REMARK SMILES IDX 7 14 8 15 9 16 17 17 10 18 16 19 18 20 11 21 12 22 13 23
REMARK SMILES IDX 14 24 15 25 25 26 26 27 27 28 28 29 29 30 30 31 31 32 92 33
REMARK SMILES IDX 32 34 91 35 33 36 34 37 35 38 85 39 36 40 90 41 84 42 86 43
REMARK SMILES IDX 37 44 89 45 83 46 82 47 38 49 70 50 50 51 69 52 51 53 54 54
REMARK SMILES IDX 68 55 87 56 52 57 53 58 67 60 88 61 55 62 39 63 40 64 48 65
REMARK SMILES IDX 41 66 47 67 49 68 46 69 42 70 43 71 44 72 45 73 71 74 72 75
REMARK SMILES IDX 80 76 73 77 79 78 81 79 78 80 74 81 75 82 76 83 77 84 56 85
REMARK SMILES IDX 57 86 65 87 58 88 64 89 66 90 63 91 59 92 60 93 61 94 62 95
REMARK H PARENT 4 11 86 48 54 59
REMARK Flexibility Score: inf
ROOT
ATOM      1  O   UNL     1       3.836   0.968   0.999  1.00  0.00    -0.374 OA
ENDROOT
BRANCH   1   2
ATOM      2  C   UNL     1       4.027   1.530  -0.302  1.00  0.00     0.202 C 
BRANCH   2   3
ATOM      3  C   UNL     1       3.632   0.604  -1.451  1.00  0.00     0.261 C 
BRANCH   3   4
ATOM      4  O   UNL     1       2.301   0.097  -1.310  1.00  0.00    -0.459 OA
BRANCH   4   5
ATOM      5  C   UNL     1       1.991  -1.105  -0.776  1.00  0.00     0.361 C 
ATOM      6  O   UNL     1       0.877  -1.582  -1.017  1.00  0.00    -0.245 OA
BRANCH   5   7
ATOM      7  C   UNL     1       2.897  -1.787   0.252  1.00  0.00     0.386 C 
BRANCH   7   8
ATOM      8  N   UNL     1       4.081  -2.491  -0.291  1.00  0.00    -0.323 N 
ATOM      9  C   UNL     1       5.370  -1.848   0.112  1.00  0.00     0.284 C 
ATOM     10  C   UNL     1       4.120  -3.888   0.241  1.00  0.00     0.284 C 
ATOM     11  H   UNL     1       3.991  -2.463  -1.306  1.00  0.00     0.348 HD
ATOM     12  C   UNL     1       5.726  -1.882   1.615  1.00  0.00     0.179 C 
ATOM     13  C   UNL     1       4.487  -4.021   1.748  1.00  0.00     0.179 C 
ATOM     14  N   UNL     1       5.699  -3.272   2.053  1.00  0.00    -0.344 N 
BRANCH  14  15
ATOM     15  C   UNL     1       6.843  -3.772   2.616  1.00  0.00     0.147 A 
ATOM     16  N   UNL     1       7.373  -3.026   3.620  1.00  0.00    -0.237 NA
ATOM     17  C   UNL     1       7.513  -4.920   2.169  1.00  0.00     0.084 A 
ATOM     18  C   UNL     1       8.541  -3.404   4.188  1.00  0.00     0.126 A 
ATOM     19  C   UNL     1       8.724  -5.285   2.763  1.00  0.00     0.039 A 
ATOM     20  Cl  UNL     1       6.999  -5.879   0.826  1.00  0.00    -0.080 Cl
ATOM     21  C   UNL     1       9.257  -4.519   3.798  1.00  0.00     0.075 A 
BRANCH  21  22
ATOM     22  C   UNL     1      10.544  -4.860   4.474  1.00  0.00     0.417 C 
ATOM     23  F   UNL     1      11.454  -3.851   4.422  1.00  0.00    -0.166 F 
ATOM     24  F   UNL     1      10.376  -5.147   5.794  1.00  0.00    -0.166 F 
ATOM     25  F   UNL     1      11.163  -5.949   3.936  1.00  0.00    -0.166 F 
ENDBRANCH  21  22
ENDBRANCH  14  15
ENDBRANCH   7   8
ENDBRANCH   5   7
ENDBRANCH   4   5
ENDBRANCH   3   4
ENDBRANCH   2   3
ENDBRANCH   1   2
BRANCH   1  26
ATOM     26  C   UNL     1       2.628   1.388   1.652  1.00  0.00     0.202 C 
BRANCH  26  27
ATOM     27  C   UNL     1       2.852   2.551   2.620  1.00  0.00     0.261 C 
BRANCH  27  28
ATOM     28  O   UNL     1       3.272   3.711   1.896  1.00  0.00    -0.460 OA
BRANCH  28  29
ATOM     29  C   UNL     1       4.615   3.872   1.795  1.00  0.00     0.338 C 
ATOM     30  O   UNL     1       5.476   3.278   2.423  1.00  0.00    -0.246 OA
BRANCH  29  31
ATOM     31  C   UNL     1       4.883   4.724   0.617  1.00  0.00     0.060 A 
ATOM     32  C   UNL     1       6.038   4.468  -0.136  1.00  0.00     0.016 A 
ATOM     33  C   UNL     1       3.977   5.709   0.213  1.00  0.00     0.016 A 
ATOM     34  C   UNL     1       6.306   5.215  -1.282  1.00  0.00     0.010 A 
ATOM     35  C   UNL     1       4.245   6.457  -0.928  1.00  0.00     0.010 A 
ATOM     36  C   UNL     1       5.425   6.235  -1.658  1.00  0.00    -0.014 A 
BRANCH  36  37
ATOM     37  C   UNL     1       5.819   7.247  -2.659  1.00  0.00     0.031 A 
ATOM     38  C   UNL     1       6.344   8.554  -2.140  1.00  0.00     0.074 A 
ATOM     39  C   UNL     1       5.630   7.043  -3.971  1.00  0.00     0.049 A 
ATOM     40  N   UNL     1       6.545   9.680  -2.765  1.00  0.00    -0.248 NA
ATOM     41  C   UNL     1       6.645   8.594  -0.700  1.00  0.00     0.031 C 
ATOM     42  C   UNL     1       5.154   5.800  -4.574  1.00  0.00     0.029 A 
ATOM     43  N   UNL     1       5.777   7.901  -5.030  1.00  0.00    -0.354 N 
ATOM     44  C   UNL     1       6.970  10.576  -1.790  1.00  0.00     0.074 A 
ATOM     45  C   UNL     1       6.957   9.866  -0.529  1.00  0.00     0.031 C 
ATOM     46  C   UNL     1       5.010   5.988  -5.897  1.00  0.00     0.029 A 
ATOM     47  C   UNL     1       5.336   7.376  -6.221  1.00  0.00     0.049 A 
ATOM     48  H   UNL     1       6.161   8.804  -4.946  1.00  0.00     0.167 HD
ATOM     49  C   UNL     1       7.335  11.872  -1.939  1.00  0.00     0.034 A 
ATOM     50  C   UNL     1       5.168   7.969  -7.420  1.00  0.00     0.034 A 
ATOM     51  C   UNL     1       7.312  12.552  -3.209  1.00  0.00     0.049 A 
ATOM     52  C   UNL     1       5.518   9.431  -7.562  1.00  0.00     0.074 A 
ATOM     53  C   UNL     1       7.679  13.853  -3.501  1.00  0.00     0.029 A 
ATOM     54  N   UNL     1       6.877  11.984  -4.402  1.00  0.00    -0.354 N 
ATOM     55  N   UNL     1       5.934  10.274  -6.644  1.00  0.00    -0.248 NA
ATOM     56  C   UNL     1       5.382  10.018  -8.901  1.00  0.00     0.031 C 
ATOM     57  C   UNL     1       7.394  14.093  -4.850  1.00  0.00     0.029 A 
ATOM     58  C   UNL     1       6.934  12.917  -5.424  1.00  0.00     0.049 A 
ATOM     59  H   UNL     1       6.572  11.053  -4.505  1.00  0.00     0.167 HD
ATOM     60  C   UNL     1       6.141  11.484  -7.301  1.00  0.00     0.074 A 
ATOM     61  C   UNL     1       5.802  11.259  -8.693  1.00  0.00     0.031 C 
ATOM     62  C   UNL     1       6.585  12.669  -6.806  1.00  0.00     0.034 A 
BRANCH  49  63
ATOM     63  C   UNL     1       7.709  12.627  -0.684  1.00  0.00     0.023 A 
ATOM     64  C   UNL     1       8.777  12.217   0.136  1.00  0.00     0.031 A 
ATOM     65  C   UNL     1       6.930  13.713  -0.250  1.00  0.00     0.131 A 
ATOM     66  C   UNL     1       8.963  12.812   1.393  1.00  0.00     0.055 A 
ATOM     67  C   UNL     1       7.185  14.367   0.957  1.00  0.00     0.041 A 
ATOM     68  F   UNL     1       5.881  14.135  -0.973  1.00  0.00    -0.206 F 
ATOM     69  C   UNL     1       8.191  13.902   1.798  1.00  0.00     0.022 A 
BRANCH  66  70
ATOM     70  S   UNL     1      10.088  12.008   2.569  1.00  0.00     0.124 S 
ATOM     71  O   UNL     1       9.526  10.661   2.641  1.00  0.00    -0.237 OA
ATOM     72  O   UNL     1      11.379  12.127   1.902  1.00  0.00    -0.237 OA
ATOM     73  O   UNL     1       9.936  12.803   3.786  1.00  0.00    -0.744 OA
ENDBRANCH  66  70
ENDBRANCH  49  63
BRANCH  50  74
ATOM     74  C   UNL     1       4.598   7.194  -8.557  1.00  0.00     0.023 A 
ATOM     75  C   UNL     1       5.373   6.873  -9.681  1.00  0.00     0.031 A 
ATOM     76  C   UNL     1       3.261   6.755  -8.528  1.00  0.00     0.131 A 
ATOM     77  C   UNL     1       4.800   6.152 -10.741  1.00  0.00     0.055 A 
ATOM     78  C   UNL     1       2.708   6.003  -9.565  1.00  0.00     0.041 A 
ATOM     79  F   UNL     1       2.479   7.032  -7.472  1.00  0.00    -0.206 F 
ATOM     80  C   UNL     1       3.478   5.703 -10.685  1.00  0.00     0.022 A 
BRANCH  77  81
ATOM     81  S   UNL     1       5.800   5.839 -12.221  1.00  0.00     0.124 S 
ATOM     82  O   UNL     1       6.077   7.194 -12.684  1.00  0.00    -0.237 OA
ATOM     83  O   UNL     1       6.935   5.104 -11.671  1.00  0.00    -0.237 OA
ATOM     84  O   UNL     1       4.910   5.056 -13.075  1.00  0.00    -0.744 OA
ENDBRANCH  77  81
ENDBRANCH  50  74
BRANCH  62  85
ATOM     85  C   UNL     1       6.794  13.796  -7.787  1.00  0.00     0.023 A 
ATOM     86  C   UNL     1       5.722  14.441  -8.426  1.00  0.00     0.031 A 
ATOM     87  C   UNL     1       8.098  14.249  -8.058  1.00  0.00     0.131 A 
ATOM     88  C   UNL     1       5.976  15.482  -9.332  1.00  0.00     0.055 A 
ATOM     89  C   UNL     1       8.341  15.321  -8.916  1.00  0.00     0.041 A 
ATOM     90  F   UNL     1       9.158  13.666  -7.475  1.00  0.00    -0.206 F 
ATOM     91  C   UNL     1       7.277  15.938  -9.566  1.00  0.00     0.022 A 
BRANCH  88  92
ATOM     92  S   UNL     1       4.589  16.194 -10.259  1.00  0.00     0.124 S 
ATOM     93  O   UNL     1       4.075  15.031 -10.975  1.00  0.00    -0.237 OA
ATOM     94  O   UNL     1       3.737  16.717  -9.195  1.00  0.00    -0.237 OA
ATOM     95  O   UNL     1       5.223  17.209 -11.099  1.00  0.00    -0.744 OA
ENDBRANCH  88  92
ENDBRANCH  62  85
ENDBRANCH  36  37
ENDBRANCH  29  31
ENDBRANCH  28  29
ENDBRANCH  27  28
ENDBRANCH  26  27
ENDBRANCH   1  26
TORSDOF 20
