REMARK SMILES C[N@@H+]1CC2(CC[NH+](C(=O)c3cc(-c4ccncc4)n[nH]3)CC2)C[C@H]1C(=O)OCCOCCOC(=O)c1ccc(-c2c3nc(c(-c4cc(S(=O)(=O)[O-])ccc4F)c4ccc([nH]4)c(-c4cc(S(=O)(=O)[O-])ccc4F)c4nc(c(-c5cc(S(=O)(=O)[O-])ccc5F)c5ccc2[nH]5)C=C4)C=C3)cc1
REMARK SMILES IDX 30 1 29 2 28 3 27 4 25 5 26 6 24 7 1 8 2 9 3 10 4 12 23 13
REMARK SMILES IDX 5 14 22 15 6 16 21 17 7 18 8 20 9 21 10 22 11 23 20 24 12 25
REMARK SMILES IDX 19 26 13 28 14 29 18 30 15 31 17 32 16 33 31 34 32 35 33 36
REMARK SMILES IDX 34 37 35 38 36 39 37 40 98 41 38 42 97 43 39 44 40 45 41 46
REMARK SMILES IDX 91 47 42 48 96 49 90 50 92 51 43 52 95 53 89 54 88 55 44 57
REMARK SMILES IDX 76 58 56 59 75 60 57 61 60 62 74 63 93 64 58 65 59 66 73 68
REMARK SMILES IDX 94 69 61 70 45 71 46 72 54 73 47 74 53 75 55 76 52 77 48 78
REMARK SMILES IDX 49 79 50 80 51 81 77 82 78 83 86 84 79 85 85 86 87 87 84 88
REMARK SMILES IDX 80 89 81 90 82 91 83 92 62 93 63 94 71 95 64 96 70 97 72 98
REMARK SMILES IDX 69 99 65 100 66 101 67 102 68 103
REMARK H PARENT 2 11 7 19 20 27 92 56 60 67
REMARK Flexibility Score: inf
ROOT
ATOM      1  O   UNL     1       2.479  -5.228  -2.283  1.00  0.00    -0.374 OA
ENDROOT
BRANCH   1   2
ATOM      2  C   UNL     1       1.180  -5.537  -2.789  1.00  0.00     0.202 C 
BRANCH   2   3
ATOM      3  C   UNL     1       0.038  -5.515  -1.770  1.00  0.00     0.261 C 
BRANCH   3   4
ATOM      4  O   UNL     1      -0.156  -4.192  -1.244  1.00  0.00    -0.459 OA
BRANCH   4   5
ATOM      5  C   UNL     1       0.031  -4.051   0.095  1.00  0.00     0.365 C 
ATOM      6  O   UNL     1       0.155  -4.984   0.884  1.00  0.00    -0.245 OA
BRANCH   5   7
ATOM      7  C   UNL     1       0.037  -2.593   0.573  1.00  0.00     0.295 C 
ATOM      8  C   UNL     1       1.114  -0.458   0.108  1.00  0.00     0.333 C 
ATOM      9  N   UNL     1       0.385  -1.588  -0.464  1.00  0.00    -0.325 N 
ATOM     10  C   UNL     1      -0.882  -1.163  -1.073  1.00  0.00     0.270 C 
ATOM     11  H   UNL     1       1.007  -1.990  -1.165  1.00  0.00     0.348 HD
ATOM     12  C   UNL     1      -2.003  -1.390  -0.037  1.00  0.00     0.036 C 
ATOM     13  C   UNL     1      -1.339  -2.208   1.088  1.00  0.00     0.091 C 
ATOM     14  C   UNL     1      -3.171  -2.180  -0.679  1.00  0.00     0.075 C 
ATOM     15  C   UNL     1      -2.542  -0.063   0.555  1.00  0.00     0.075 C 
ATOM     16  C   UNL     1      -3.951  -1.313  -1.665  1.00  0.00     0.271 C 
ATOM     17  C   UNL     1      -3.413   0.732  -0.418  1.00  0.00     0.271 C 
ATOM     18  N   UNL     1      -4.450  -0.124  -0.977  1.00  0.00    -0.266 N 
ATOM     19  H   UNL     1      -3.542   0.161  -1.229  1.00  0.00     0.357 HD
BRANCH  18  20
ATOM     20  C   UNL     1      -5.782   0.281  -0.912  1.00  0.00     0.362 C 
ATOM     21  O   UNL     1      -6.092   1.418  -0.559  1.00  0.00    -0.224 OA
BRANCH  20  22
ATOM     22  C   UNL     1      -6.798  -0.667  -1.281  1.00  0.00     0.163 A 
ATOM     23  C   UNL     1      -6.997  -1.997  -0.965  1.00  0.00     0.068 A 
ATOM     24  N   UNL     1      -7.882  -0.323  -2.039  1.00  0.00    -0.269 N 
ATOM     25  C   UNL     1      -8.158  -2.390  -1.676  1.00  0.00     0.093 A 
ATOM     26  N   UNL     1      -8.690  -1.354  -2.334  1.00  0.00    -0.175 NA
ATOM     27  H   UNL     1      -8.055   0.598  -2.342  1.00  0.00     0.190 HD
BRANCH  25  28
ATOM     28  C   UNL     1      -8.741  -3.719  -1.734  1.00  0.00     0.005 A 
ATOM     29  C   UNL     1      -9.265  -4.305  -0.583  1.00  0.00     0.030 A 
ATOM     30  C   UNL     1      -8.762  -4.425  -2.936  1.00  0.00     0.030 A 
ATOM     31  C   UNL     1      -9.787  -5.581  -0.685  1.00  0.00     0.111 A 
ATOM     32  C   UNL     1      -9.301  -5.700  -2.934  1.00  0.00     0.111 A 
ATOM     33  N   UNL     1      -9.803  -6.295  -1.828  1.00  0.00    -0.265 NA
ENDBRANCH  25  28
ENDBRANCH  20  22
ENDBRANCH  18  20
ENDBRANCH   5   7
ENDBRANCH   4   5
ENDBRANCH   3   4
ENDBRANCH   2   3
ENDBRANCH   1   2
BRANCH   1  34
ATOM     34  C   UNL     1       2.772  -3.852  -2.039  1.00  0.00     0.202 C 
BRANCH  34  35
ATOM     35  C   UNL     1       3.083  -2.977  -3.260  1.00  0.00     0.261 C 
BRANCH  35  36
ATOM     36  O   UNL     1       1.964  -2.838  -4.154  1.00  0.00    -0.460 OA
BRANCH  36  37
ATOM     37  C   UNL     1       2.100  -3.490  -5.334  1.00  0.00     0.338 C 
ATOM     38  O   UNL     1       3.079  -4.117  -5.717  1.00  0.00    -0.246 OA
BRANCH  37  39
ATOM     39  C   UNL     1       0.818  -3.501  -6.065  1.00  0.00     0.060 A 
ATOM     40  C   UNL     1       0.350  -4.737  -6.529  1.00  0.00     0.016 A 
ATOM     41  C   UNL     1       0.128  -2.324  -6.367  1.00  0.00     0.016 A 
ATOM     42  C   UNL     1      -0.782  -4.797  -7.339  1.00  0.00     0.010 A 
ATOM     43  C   UNL     1      -1.004  -2.387  -7.191  1.00  0.00     0.010 A 
ATOM     44  C   UNL     1      -1.442  -3.619  -7.710  1.00  0.00    -0.014 A 
BRANCH  44  45
ATOM     45  C   UNL     1      -2.483  -3.670  -8.768  1.00  0.00     0.031 A 
ATOM     46  C   UNL     1      -2.099  -3.320 -10.182  1.00  0.00     0.074 A 
ATOM     47  C   UNL     1      -3.741  -4.055  -8.484  1.00  0.00     0.049 A 
ATOM     48  N   UNL     1      -2.842  -3.268 -11.258  1.00  0.00    -0.248 NA
ATOM     49  C   UNL     1      -0.686  -2.977 -10.409  1.00  0.00     0.031 C 
ATOM     50  C   UNL     1      -4.230  -4.449  -7.162  1.00  0.00     0.029 A 
ATOM     51  N   UNL     1      -4.840  -4.172  -9.296  1.00  0.00    -0.354 N 
ATOM     52  C   UNL     1      -1.991  -2.882 -12.289  1.00  0.00     0.074 A 
ATOM     53  C   UNL     1      -0.683  -2.682 -11.700  1.00  0.00     0.031 C 
ATOM     54  C   UNL     1      -5.538  -4.747  -7.252  1.00  0.00     0.029 A 
ATOM     55  C   UNL     1      -5.983  -4.544  -8.629  1.00  0.00     0.049 A 
ATOM     56  H   UNL     1      -4.813  -4.005 -10.266  1.00  0.00     0.167 HD
ATOM     57  C   UNL     1      -2.271  -2.716 -13.606  1.00  0.00     0.034 A 
ATOM     58  C   UNL     1      -7.246  -4.682  -9.077  1.00  0.00     0.034 A 
ATOM     59  C   UNL     1      -3.579  -2.912 -14.182  1.00  0.00     0.049 A 
ATOM     60  C   UNL     1      -7.546  -4.432 -10.536  1.00  0.00     0.074 A 
ATOM     61  C   UNL     1      -3.965  -2.792 -15.507  1.00  0.00     0.029 A 
ATOM     62  N   UNL     1      -4.718  -3.256 -13.468  1.00  0.00    -0.354 N 
ATOM     63  N   UNL     1      -6.730  -4.073 -11.499  1.00  0.00    -0.248 NA
ATOM     64  C   UNL     1      -8.940  -4.614 -10.963  1.00  0.00     0.031 C 
ATOM     65  C   UNL     1      -5.348  -2.998 -15.582  1.00  0.00     0.029 A 
ATOM     66  C   UNL     1      -5.812  -3.320 -14.318  1.00  0.00     0.049 A 
ATOM     67  H   UNL     1      -4.746  -3.430 -12.499  1.00  0.00     0.167 HD
ATOM     68  C   UNL     1      -7.512  -4.005 -12.650  1.00  0.00     0.074 A 
ATOM     69  C   UNL     1      -8.857  -4.378 -12.263  1.00  0.00     0.031 C 
ATOM     70  C   UNL     1      -7.152  -3.670 -13.914  1.00  0.00     0.034 A 
BRANCH  57  71
ATOM     71  C   UNL     1      -1.149  -2.251 -14.502  1.00  0.00     0.023 A 
ATOM     72  C   UNL     1      -0.019  -3.049 -14.752  1.00  0.00     0.031 A 
ATOM     73  C   UNL     1      -1.205  -0.981 -15.102  1.00  0.00     0.131 A 
ATOM     74  C   UNL     1       1.035  -2.545 -15.528  1.00  0.00     0.055 A 
ATOM     75  C   UNL     1      -0.185  -0.513 -15.933  1.00  0.00     0.041 A 
ATOM     76  F   UNL     1      -2.249  -0.166 -14.881  1.00  0.00    -0.206 F 
ATOM     77  C   UNL     1       0.949  -1.292 -16.140  1.00  0.00     0.022 A 
BRANCH  74  78
ATOM     78  S   UNL     1       2.576  -3.497 -15.624  1.00  0.00     0.124 S 
ATOM     79  O   UNL     1       2.965  -3.571 -14.218  1.00  0.00    -0.237 OA
ATOM     80  O   UNL     1       2.138  -4.746 -16.234  1.00  0.00    -0.237 OA
ATOM     81  O   UNL     1       3.441  -2.665 -16.459  1.00  0.00    -0.744 OA
ENDBRANCH  74  78
ENDBRANCH  57  71
BRANCH  58  82
ATOM     82  C   UNL     1      -8.358  -5.010  -8.144  1.00  0.00     0.023 A 
ATOM     83  C   UNL     1      -9.049  -6.227  -8.240  1.00  0.00     0.031 A 
ATOM     84  C   UNL     1      -8.819  -4.053  -7.224  1.00  0.00     0.131 A 
ATOM     85  C   UNL     1     -10.207  -6.431  -7.473  1.00  0.00     0.055 A 
ATOM     86  C   UNL     1      -9.949  -4.277  -6.436  1.00  0.00     0.041 A 
ATOM     87  F   UNL     1      -8.179  -2.881  -7.087  1.00  0.00    -0.206 F 
ATOM     88  C   UNL     1     -10.658  -5.467  -6.568  1.00  0.00     0.022 A 
BRANCH  85  89
ATOM     89  S   UNL     1     -11.166  -7.947  -7.743  1.00  0.00     0.124 S 
ATOM     90  O   UNL     1     -11.592  -7.783  -9.128  1.00  0.00    -0.237 OA
ATOM     91  O   UNL     1     -10.167  -8.982  -7.498  1.00  0.00    -0.237 OA
ATOM     92  O   UNL     1     -12.228  -7.858  -6.744  1.00  0.00    -0.744 OA
ENDBRANCH  85  89
ENDBRANCH  58  82
BRANCH  70  93
ATOM     93  C   UNL     1      -8.229  -3.729 -14.970  1.00  0.00     0.023 A 
ATOM     94  C   UNL     1      -9.310  -2.831 -14.974  1.00  0.00     0.031 A 
ATOM     95  C   UNL     1      -8.180  -4.713 -15.973  1.00  0.00     0.131 A 
ATOM     96  C   UNL     1     -10.329  -2.969 -15.930  1.00  0.00     0.055 A 
ATOM     97  C   UNL     1      -9.167  -4.810 -16.955  1.00  0.00     0.041 A 
ATOM     98  F   UNL     1      -7.171  -5.597 -16.014  1.00  0.00    -0.206 F 
ATOM     99  C   UNL     1     -10.256  -3.943 -16.929  1.00  0.00     0.022 A 
BRANCH  96 100
ATOM    100  S   UNL     1     -11.797  -1.911 -15.798  1.00  0.00     0.124 S 
ATOM    101  O   UNL     1     -12.296  -2.249 -14.470  1.00  0.00    -0.237 OA
ATOM    102  O   UNL     1     -11.233  -0.574 -15.946  1.00  0.00    -0.237 OA
ATOM    103  O   UNL     1     -12.639  -2.354 -16.909  1.00  0.00    -0.744 OA
ENDBRANCH  96 100
ENDBRANCH  70  93
ENDBRANCH  44  45
ENDBRANCH  37  39
ENDBRANCH  36  37
ENDBRANCH  35  36
ENDBRANCH  34  35
ENDBRANCH   1  34
TORSDOF 20
