REMARK SMILES Cc1ccc(NC(=O)c2ccccc2NC(=O)[C@H]2CCCC[C@H]2C(=O)OCCOCCOC(=O)c2ccc(-c3c4nc(c(-c5cc(S(=O)(=O)[O-])ccc5F)c5ccc([nH]5)c(-c5cc(S(=O)(=O)[O-])ccc5F)c5nc(c(-c6cc(S(=O)(=O)[O-])ccc6F)c6ccc3[nH]6)C=C5)C=C4)cc2)cc1
REMARK SMILES IDX 28 1 27 2 26 3 24 4 25 5 23 6 18 7 19 8 20 9 22 10 21 11
REMARK SMILES IDX 16 12 15 13 17 15 14 16 9 17 10 18 11 19 13 20 12 21 7 22
REMARK SMILES IDX 6 23 8 25 5 26 1 27 2 28 3 29 99 30 4 31 98 32 29 33 30 34
REMARK SMILES IDX 31 35 32 36 33 37 34 38 35 39 36 40 97 41 37 42 96 43 38 44
REMARK SMILES IDX 39 45 40 46 90 47 41 48 95 49 89 50 91 51 42 52 94 53 88 54
REMARK SMILES IDX 87 55 43 57 75 58 55 59 74 60 56 61 59 62 73 63 92 64 57 65
REMARK SMILES IDX 58 66 72 68 93 69 60 70 44 71 45 72 53 73 46 74 52 75 54 76
REMARK SMILES IDX 51 77 47 78 48 79 49 80 50 81 76 82 77 83 85 84 78 85 84 86
REMARK SMILES IDX 86 87 83 88 79 89 80 90 81 91 82 92 61 93 62 94 70 95 63 96
REMARK SMILES IDX 69 97 71 98 68 99 64 100 65 101 66 102 67 103
REMARK H PARENT 15 14 6 24 91 56 59 67
REMARK Flexibility Score: inf
ROOT
ATOM      1  C   UNL     1      -0.105   1.113   4.645  1.00  0.00     0.202 C 
ENDROOT
BRANCH   1   2
ATOM      2  C   UNL     1      -0.036   0.270   5.871  1.00  0.00     0.261 C 
BRANCH   2   3
ATOM      3  O   UNL     1      -0.295  -1.106   5.649  1.00  0.00    -0.463 OA
BRANCH   3   4
ATOM      4  C   UNL     1      -1.574  -1.469   5.396  1.00  0.00     0.309 C 
ATOM      5  O   UNL     1      -2.584  -0.886   5.722  1.00  0.00    -0.252 OA
BRANCH   4   6
ATOM      6  C   UNL     1      -1.547  -2.708   4.534  1.00  0.00     0.111 C 
ATOM      7  C   UNL     1      -0.555  -2.550   3.340  1.00  0.00     0.093 C 
ATOM      8  C   UNL     1      -0.550  -3.845   2.518  1.00  0.00     0.014 C 
ATOM      9  C   UNL     1      -0.334  -5.093   3.386  1.00  0.00     0.001 C 
ATOM     10  C   UNL     1      -1.381  -3.962   5.384  1.00  0.00     0.016 C 
ATOM     11  C   UNL     1      -1.355  -5.211   4.511  1.00  0.00     0.001 C 
BRANCH   7  12
ATOM     12  C   UNL     1       0.914  -2.222   3.687  1.00  0.00     0.228 C 
ATOM     13  N   UNL     1       1.657  -1.220   3.105  1.00  0.00    -0.325 N 
ATOM     14  H   UNL     1       2.516  -1.092   3.568  1.00  0.00     0.169 HD
ATOM     15  O   UNL     1       1.469  -2.922   4.542  1.00  0.00    -0.274 OA
BRANCH  13  16
ATOM     16  C   UNL     1       1.514  -0.315   2.006  1.00  0.00     0.054 A 
ATOM     17  C   UNL     1       2.421   0.764   1.789  1.00  0.00     0.063 A 
ATOM     18  C   UNL     1       2.064   1.788   0.871  1.00  0.00     0.016 A 
ATOM     19  C   UNL     1       0.901   1.733   0.116  1.00  0.00     0.001 A 
ATOM     20  C   UNL     1       0.423  -0.407   1.125  1.00  0.00     0.027 A 
ATOM     21  C   UNL     1       0.102   0.611   0.214  1.00  0.00     0.002 A 
BRANCH  17  22
ATOM     22  C   UNL     1       3.742   1.049   2.444  1.00  0.00     0.257 C 
ATOM     23  N   UNL     1       4.643   0.100   2.857  1.00  0.00    -0.322 N 
ATOM     24  H   UNL     1       5.376   0.468   3.403  1.00  0.00     0.170 HD
ATOM     25  O   UNL     1       4.074   2.235   2.569  1.00  0.00    -0.269 OA
BRANCH  23  26
ATOM     26  C   UNL     1       4.736  -1.282   2.663  1.00  0.00     0.041 A 
ATOM     27  C   UNL     1       3.822  -5.407   3.200  1.00  0.00     0.044 C 
ATOM     28  C   UNL     1       4.305  -4.022   2.906  1.00  0.00    -0.051 A 
ATOM     29  C   UNL     1       3.863  -3.339   1.767  1.00  0.00     0.005 A 
ATOM     30  C   UNL     1       5.138  -3.363   3.811  1.00  0.00     0.005 A 
ATOM     31  C   UNL     1       4.106  -1.970   1.630  1.00  0.00     0.026 A 
ATOM     32  C   UNL     1       5.382  -2.001   3.668  1.00  0.00     0.026 A 
ENDBRANCH  23  26
ENDBRANCH  17  22
ENDBRANCH  13  16
ENDBRANCH   7  12
ENDBRANCH   4   6
ENDBRANCH   3   4
ENDBRANCH   2   3
ENDBRANCH   1   2
BRANCH   1  33
ATOM     33  O   UNL     1      -1.464   1.413   4.359  1.00  0.00    -0.374 OA
BRANCH  33  34
ATOM     34  C   UNL     1      -1.654   2.122   3.148  1.00  0.00     0.202 C 
BRANCH  34  35
ATOM     35  C   UNL     1      -0.738   3.345   2.967  1.00  0.00     0.261 C 
BRANCH  35  36
ATOM     36  O   UNL     1      -1.066   4.371   3.932  1.00  0.00    -0.460 OA
BRANCH  36  37
ATOM     37  C   UNL     1      -0.146   4.582   4.919  1.00  0.00     0.338 C 
ATOM     38  O   UNL     1       0.960   5.068   4.739  1.00  0.00    -0.246 OA
BRANCH  37  39
ATOM     39  C   UNL     1      -0.653   4.058   6.223  1.00  0.00     0.060 A 
ATOM     40  C   UNL     1       0.215   3.843   7.311  1.00  0.00     0.016 A 
ATOM     41  C   UNL     1      -1.931   3.513   6.246  1.00  0.00     0.016 A 
ATOM     42  C   UNL     1      -0.148   2.958   8.343  1.00  0.00     0.010 A 
ATOM     43  C   UNL     1      -2.212   2.538   7.175  1.00  0.00     0.010 A 
ATOM     44  C   UNL     1      -1.327   2.234   8.227  1.00  0.00    -0.014 A 
BRANCH  44  45
ATOM     45  C   UNL     1      -1.758   1.077   9.032  1.00  0.00     0.031 A 
ATOM     46  C   UNL     1      -3.087   1.200   9.680  1.00  0.00     0.074 A 
ATOM     47  C   UNL     1      -1.157  -0.142   8.949  1.00  0.00     0.049 A 
ATOM     48  N   UNL     1      -3.587   0.319  10.466  1.00  0.00    -0.248 NA
ATOM     49  C   UNL     1      -3.963   2.368   9.533  1.00  0.00     0.031 C 
ATOM     50  C   UNL     1      -1.740  -1.467   9.200  1.00  0.00     0.029 A 
ATOM     51  N   UNL     1       0.176  -0.455   8.654  1.00  0.00    -0.354 N 
ATOM     52  C   UNL     1      -4.911   0.625  10.661  1.00  0.00     0.074 A 
ATOM     53  C   UNL     1      -5.069   1.958  10.155  1.00  0.00     0.031 C 
ATOM     54  C   UNL     1      -0.752  -2.373   9.342  1.00  0.00     0.029 A 
ATOM     55  C   UNL     1       0.500  -1.636   9.341  1.00  0.00     0.049 A 
ATOM     56  H   UNL     1       0.778   0.061   8.070  1.00  0.00     0.167 HD
ATOM     57  C   UNL     1      -5.722  -0.355  11.136  1.00  0.00     0.034 A 
ATOM     58  C   UNL     1       1.491  -1.640  10.271  1.00  0.00     0.034 A 
ATOM     59  C   UNL     1      -4.915  -1.494  11.592  1.00  0.00     0.049 A 
ATOM     60  C   UNL     1       0.886  -1.993  11.598  1.00  0.00     0.074 A 
ATOM     61  C   UNL     1      -4.660  -2.754  11.084  1.00  0.00     0.029 A 
ATOM     62  N   UNL     1      -3.958  -1.270  12.580  1.00  0.00    -0.354 N 
ATOM     63  N   UNL     1      -0.395  -1.896  11.830  1.00  0.00    -0.248 NA
ATOM     64  C   UNL     1       1.626  -2.530  12.728  1.00  0.00     0.031 C 
ATOM     65  C   UNL     1      -3.470  -3.236  11.711  1.00  0.00     0.029 A 
ATOM     66  C   UNL     1      -3.040  -2.298  12.639  1.00  0.00     0.049 A 
ATOM     67  H   UNL     1      -3.940  -0.477  13.164  1.00  0.00     0.167 HD
ATOM     68  C   UNL     1      -0.671  -2.328  13.085  1.00  0.00     0.074 A 
ATOM     69  C   UNL     1       0.627  -2.731  13.607  1.00  0.00     0.031 C 
ATOM     70  C   UNL     1      -1.935  -2.248  13.595  1.00  0.00     0.034 A 
BRANCH  57  71
ATOM     71  C   UNL     1      -7.232  -0.376  11.080  1.00  0.00     0.023 A 
ATOM     72  C   UNL     1      -7.891  -1.508  11.601  1.00  0.00     0.031 A 
ATOM     73  C   UNL     1      -8.077   0.580  10.472  1.00  0.00     0.131 A 
ATOM     74  C   UNL     1      -9.287  -1.658  11.511  1.00  0.00     0.055 A 
ATOM     75  C   UNL     1      -9.473   0.453  10.424  1.00  0.00     0.041 A 
ATOM     76  F   UNL     1      -7.616   1.665   9.844  1.00  0.00    -0.206 F 
ATOM     77  C   UNL     1     -10.087  -0.673  10.940  1.00  0.00     0.022 A 
BRANCH  74  78
ATOM     78  S   UNL     1     -10.041  -3.188  12.116  1.00  0.00     0.124 S 
ATOM     79  O   UNL     1      -9.460  -4.189  11.227  1.00  0.00    -0.237 OA
ATOM     80  O   UNL     1      -9.602  -3.222  13.507  1.00  0.00    -0.237 OA
ATOM     81  O   UNL     1     -11.473  -2.956  11.929  1.00  0.00    -0.744 OA
ENDBRANCH  74  78
ENDBRANCH  57  71
BRANCH  58  82
ATOM     82  C   UNL     1       2.540  -0.608   9.965  1.00  0.00     0.023 A 
ATOM     83  C   UNL     1       3.220  -0.754   8.729  1.00  0.00     0.031 A 
ATOM     84  C   UNL     1       2.480   0.678  10.520  1.00  0.00     0.131 A 
ATOM     85  C   UNL     1       3.601   0.382   7.992  1.00  0.00     0.055 A 
ATOM     86  C   UNL     1       2.945   1.800   9.815  1.00  0.00     0.041 A 
ATOM     87  F   UNL     1       1.831   0.893  11.673  1.00  0.00    -0.206 F 
ATOM     88  C   UNL     1       3.447   1.662   8.520  1.00  0.00     0.022 A 
BRANCH  85  89
ATOM     89  S   UNL     1       3.972   0.226   6.225  1.00  0.00     0.124 S 
ATOM     90  O   UNL     1       5.389   0.561   6.137  1.00  0.00    -0.237 OA
ATOM     91  O   UNL     1       3.649  -1.164   5.939  1.00  0.00    -0.237 OA
ATOM     92  O   UNL     1       3.065   1.182   5.598  1.00  0.00    -0.744 OA
ENDBRANCH  85  89
ENDBRANCH  58  82
BRANCH  70  93
ATOM     93  C   UNL     1      -2.190  -2.134  15.073  1.00  0.00     0.023 A 
ATOM     94  C   UNL     1      -1.150  -1.890  15.976  1.00  0.00     0.031 A 
ATOM     95  C   UNL     1      -3.487  -2.160  15.627  1.00  0.00     0.131 A 
ATOM     96  C   UNL     1      -1.369  -1.857  17.354  1.00  0.00     0.055 A 
ATOM     97  C   UNL     1      -3.723  -1.989  16.994  1.00  0.00     0.041 A 
ATOM     98  F   UNL     1      -4.580  -2.330  14.871  1.00  0.00    -0.206 F 
ATOM     99  C   UNL     1      -2.656  -1.875  17.875  1.00  0.00     0.022 A 
BRANCH  96 100
ATOM    100  S   UNL     1       0.091  -1.943  18.414  1.00  0.00     0.124 S 
ATOM    101  O   UNL     1       0.696  -3.203  17.985  1.00  0.00    -0.237 OA
ATOM    102  O   UNL     1       0.823  -0.736  18.045  1.00  0.00    -0.237 OA
ATOM    103  O   UNL     1      -0.467  -1.950  19.764  1.00  0.00    -0.744 OA
ENDBRANCH  96 100
ENDBRANCH  70  93
ENDBRANCH  44  45
ENDBRANCH  37  39
ENDBRANCH  36  37
ENDBRANCH  35  36
ENDBRANCH  34  35
ENDBRANCH  33  34
ENDBRANCH   1  33
TORSDOF 21
