REMARK SMILES CC1(CNS(=O)(=O)Cc2ccc(C(=O)OCCOCCOC(=O)c3ccc(-c4c5nc(c(-c6cc(S(=O)(=O)[O-])ccc6F)c6ccc([nH]6)c(-c6cc(S(=O)(=O)[O-])ccc6F)c6nc(c(-c7cc(S(=O)(=O)[O-])ccc7F)c7ccc4[nH]7)C=C6)C=C5)cc3)cc2)COC1
REMARK SMILES IDX 17 1 16 2 15 3 13 4 14 5 12 6 9 7 10 8 88 9 11 10 87 11 8 12
REMARK SMILES IDX 5 13 6 14 7 15 4 16 3 18 2 19 1 20 89 21 91 22 90 23 18 24
REMARK SMILES IDX 19 25 20 26 21 27 22 28 23 29 24 30 25 31 86 32 26 33 85 34
REMARK SMILES IDX 27 35 28 36 29 37 79 38 30 39 84 40 78 41 80 42 31 43 83 44
REMARK SMILES IDX 77 45 76 46 32 48 64 49 44 50 63 51 45 52 48 53 62 54 81 55
REMARK SMILES IDX 46 56 47 57 61 59 82 60 49 61 33 62 34 63 42 64 35 65 41 66
REMARK SMILES IDX 43 67 40 68 36 69 37 70 38 71 39 72 65 73 66 74 74 75 67 76
REMARK SMILES IDX 73 77 75 78 72 79 68 80 69 81 70 82 71 83 50 84 51 85 59 86
REMARK SMILES IDX 52 87 58 88 60 89 57 90 53 91 54 92 55 93 56 94
REMARK H PARENT 4 17 80 47 48 58
REMARK Flexibility Score: inf
ROOT
ATOM      1  C   UNL     1       2.831   7.434   2.422  1.00  0.00     0.202 C 
ENDROOT
BRANCH   1   2
ATOM      2  C   UNL     1       4.021   7.332   1.462  1.00  0.00     0.261 C 
BRANCH   2   3
ATOM      3  O   UNL     1       3.688   6.614   0.264  1.00  0.00    -0.460 OA
BRANCH   3   4
ATOM      4  C   UNL     1       4.233   5.377   0.182  1.00  0.00     0.338 C 
ATOM      5  O   UNL     1       5.048   4.883   0.946  1.00  0.00    -0.246 OA
BRANCH   4   6
ATOM      6  C   UNL     1       3.591   4.589  -0.898  1.00  0.00     0.060 A 
ATOM      7  C   UNL     1       2.518   2.932  -2.902  1.00  0.00    -0.032 A 
ATOM      8  C   UNL     1       3.008   2.385  -1.710  1.00  0.00     0.006 A 
ATOM      9  C   UNL     1       2.525   4.329  -3.056  1.00  0.00     0.006 A 
ATOM     10  C   UNL     1       3.533   3.204  -0.715  1.00  0.00     0.016 A 
ATOM     11  C   UNL     1       3.060   5.157  -2.060  1.00  0.00     0.016 A 
BRANCH   7  12
ATOM     12  C   UNL     1       2.092   2.025  -4.026  1.00  0.00     0.189 C 
BRANCH  12  13
ATOM     13  S   UNL     1       0.362   1.556  -3.947  1.00  0.00     0.215 S 
ATOM     14  O   UNL     1       0.133   0.504  -4.911  1.00  0.00    -0.212 OA
ATOM     15  O   UNL     1      -0.465   2.747  -3.950  1.00  0.00    -0.212 OA
BRANCH  13  16
ATOM     16  N   UNL     1       0.152   0.866  -2.424  1.00  0.00    -0.214 NA
ATOM     17  H   UNL     1       0.616   1.476  -1.750  1.00  0.00     0.141 HD
BRANCH  16  18
ATOM     18  C   UNL     1       0.661  -0.500  -2.198  1.00  0.00     0.110 C 
BRANCH  18  19
ATOM     19  C   UNL     1       0.419  -0.968  -0.757  1.00  0.00     0.028 C 
ATOM     20  C   UNL     1       0.914  -0.007   0.316  1.00  0.00     0.018 C 
ATOM     21  C   UNL     1       0.882  -2.421  -0.529  1.00  0.00     0.170 C 
ATOM     22  C   UNL     1      -0.986  -1.559  -0.526  1.00  0.00     0.170 C 
ATOM     23  O   UNL     1      -0.473  -2.908  -0.686  1.00  0.00    -0.380 OA
ENDBRANCH  18  19
ENDBRANCH  16  18
ENDBRANCH  13  16
ENDBRANCH  12  13
ENDBRANCH   7  12
ENDBRANCH   4   6
ENDBRANCH   3   4
ENDBRANCH   2   3
ENDBRANCH   1   2
BRANCH   1  24
ATOM     24  O   UNL     1       2.236   6.216   2.865  1.00  0.00    -0.374 OA
BRANCH  24  25
ATOM     25  C   UNL     1       1.357   5.540   1.967  1.00  0.00     0.202 C 
BRANCH  25  26
ATOM     26  C   UNL     1      -0.034   6.142   1.719  1.00  0.00     0.261 C 
BRANCH  26  27
ATOM     27  O   UNL     1       0.013   7.425   1.073  1.00  0.00    -0.460 OA
BRANCH  27  28
ATOM     28  C   UNL     1      -0.315   8.470   1.874  1.00  0.00     0.338 C 
ATOM     29  O   UNL     1      -0.674   8.416   3.039  1.00  0.00    -0.246 OA
BRANCH  28  30
ATOM     30  C   UNL     1       0.013   9.739   1.198  1.00  0.00     0.060 A 
ATOM     31  C   UNL     1       0.863  10.631   1.866  1.00  0.00     0.016 A 
ATOM     32  C   UNL     1      -0.550  10.082  -0.032  1.00  0.00     0.016 A 
ATOM     33  C   UNL     1       1.120  11.889   1.326  1.00  0.00     0.010 A 
ATOM     34  C   UNL     1      -0.298  11.349  -0.568  1.00  0.00     0.010 A 
ATOM     35  C   UNL     1       0.512  12.270   0.123  1.00  0.00    -0.014 A 
BRANCH  35  36
ATOM     36  C   UNL     1       0.615  13.677  -0.340  1.00  0.00     0.031 A 
ATOM     37  C   UNL     1      -0.559  14.597  -0.144  1.00  0.00     0.074 A 
ATOM     38  C   UNL     1       1.748  14.134  -0.903  1.00  0.00     0.049 A 
ATOM     39  N   UNL     1      -0.713  15.840  -0.520  1.00  0.00    -0.248 NA
ATOM     40  C   UNL     1      -1.717  14.034   0.567  1.00  0.00     0.031 C 
ATOM     41  C   UNL     1       2.967  13.350  -1.099  1.00  0.00     0.029 A 
ATOM     42  N   UNL     1       2.056  15.368  -1.419  1.00  0.00    -0.354 N 
ATOM     43  C   UNL     1      -1.987  16.209  -0.100  1.00  0.00     0.074 A 
ATOM     44  C   UNL     1      -2.576  15.041   0.524  1.00  0.00     0.031 C 
ATOM     45  C   UNL     1       3.889  14.121  -1.699  1.00  0.00     0.029 A 
ATOM     46  C   UNL     1       3.313  15.436  -1.973  1.00  0.00     0.049 A 
ATOM     47  H   UNL     1       1.435  16.132  -1.396  1.00  0.00     0.167 HD
ATOM     48  C   UNL     1      -2.603  17.411  -0.215  1.00  0.00     0.034 A 
ATOM     49  C   UNL     1       3.917  16.434  -2.650  1.00  0.00     0.034 A 
ATOM     50  C   UNL     1      -2.003  18.561  -0.850  1.00  0.00     0.049 A 
ATOM     51  C   UNL     1       3.175  17.734  -2.852  1.00  0.00     0.074 A 
ATOM     52  C   UNL     1      -2.531  19.830  -1.008  1.00  0.00     0.029 A 
ATOM     53  N   UNL     1      -0.748  18.578  -1.446  1.00  0.00    -0.354 N 
ATOM     54  N   UNL     1       1.972  18.073  -2.446  1.00  0.00    -0.248 NA
ATOM     55  C   UNL     1       3.874  18.788  -3.599  1.00  0.00     0.031 C 
ATOM     56  C   UNL     1      -1.634  20.587  -1.770  1.00  0.00     0.029 A 
ATOM     57  C   UNL     1      -0.502  19.823  -2.006  1.00  0.00     0.049 A 
ATOM     58  H   UNL     1      -0.123  17.817  -1.466  1.00  0.00     0.167 HD
ATOM     59  C   UNL     1       1.789  19.392  -2.857  1.00  0.00     0.074 A 
ATOM     60  C   UNL     1       3.009  19.788  -3.530  1.00  0.00     0.031 C 
ATOM     61  C   UNL     1       0.714  20.205  -2.686  1.00  0.00     0.034 A 
BRANCH  48  62
ATOM     62  C   UNL     1      -4.017  17.523   0.306  1.00  0.00     0.023 A 
ATOM     63  C   UNL     1      -4.323  17.350   1.667  1.00  0.00     0.031 A 
ATOM     64  C   UNL     1      -5.080  17.783  -0.578  1.00  0.00     0.131 A 
ATOM     65  C   UNL     1      -5.661  17.367   2.092  1.00  0.00     0.055 A 
ATOM     66  C   UNL     1      -6.400  17.884  -0.135  1.00  0.00     0.041 A 
ATOM     67  F   UNL     1      -4.854  17.932  -1.893  1.00  0.00    -0.206 F 
ATOM     68  C   UNL     1      -6.699  17.660   1.205  1.00  0.00     0.022 A 
BRANCH  65  69
ATOM     69  S   UNL     1      -6.038  16.852   3.790  1.00  0.00     0.124 S 
ATOM     70  O   UNL     1      -5.471  15.506   3.823  1.00  0.00    -0.237 OA
ATOM     71  O   UNL     1      -5.343  17.857   4.586  1.00  0.00    -0.237 OA
ATOM     72  O   UNL     1      -7.497  16.907   3.849  1.00  0.00    -0.744 OA
ENDBRANCH  65  69
ENDBRANCH  48  62
BRANCH  49  73
ATOM     73  C   UNL     1       5.279  16.240  -3.226  1.00  0.00     0.023 A 
ATOM     74  C   UNL     1       6.363  17.032  -2.814  1.00  0.00     0.031 A 
ATOM     75  C   UNL     1       5.505  15.295  -4.244  1.00  0.00     0.131 A 
ATOM     76  C   UNL     1       7.608  16.899  -3.450  1.00  0.00     0.055 A 
ATOM     77  C   UNL     1       6.760  15.125  -4.830  1.00  0.00     0.041 A 
ATOM     78  F   UNL     1       4.503  14.514  -4.680  1.00  0.00    -0.206 F 
ATOM     79  C   UNL     1       7.818  15.940  -4.443  1.00  0.00     0.022 A 
BRANCH  76  80
ATOM     80  S   UNL     1       8.928  18.069  -3.025  1.00  0.00     0.124 S 
ATOM     81  O   UNL     1       8.304  19.347  -3.345  1.00  0.00    -0.237 OA
ATOM     82  O   UNL     1       9.134  17.790  -1.608  1.00  0.00    -0.237 OA
ATOM     83  O   UNL     1      10.027  17.673  -3.903  1.00  0.00    -0.744 OA
ENDBRANCH  76  80
ENDBRANCH  49  73
BRANCH  61  84
ATOM     84  C   UNL     1       0.833  21.625  -3.191  1.00  0.00     0.023 A 
ATOM     85  C   UNL     1       0.959  21.922  -4.560  1.00  0.00     0.031 A 
ATOM     86  C   UNL     1       0.828  22.699  -2.282  1.00  0.00     0.131 A 
ATOM     87  C   UNL     1       1.133  23.251  -4.974  1.00  0.00     0.055 A 
ATOM     88  C   UNL     1       0.931  24.025  -2.707  1.00  0.00     0.041 A 
ATOM     89  F   UNL     1       0.716  22.478  -0.963  1.00  0.00    -0.206 F 
ATOM     90  C   UNL     1       1.099  24.306  -4.059  1.00  0.00     0.022 A 
BRANCH  87  91
ATOM     91  S   UNL     1       1.508  23.579  -6.719  1.00  0.00     0.124 S 
ATOM     92  O   UNL     1       2.723  22.796  -6.920  1.00  0.00    -0.237 OA
ATOM     93  O   UNL     1       0.312  23.085  -7.394  1.00  0.00    -0.237 OA
ATOM     94  O   UNL     1       1.690  25.029  -6.765  1.00  0.00    -0.744 OA
ENDBRANCH  87  91
ENDBRANCH  61  84
ENDBRANCH  35  36
ENDBRANCH  28  30
ENDBRANCH  27  28
ENDBRANCH  26  27
ENDBRANCH  25  26
ENDBRANCH  24  25
ENDBRANCH   1  24
TORSDOF 22
