REMARK SMILES COc1ccccc1OC1CCN(c2cccc(C(=O)OCCOCCOC(=O)c3ccc(-c4c5nc(c(-c6cc(S(=O)(=O)[O-])ccc6F)c6ccc([nH]6)c(-c6cc(S(=O)(=O)[O-])ccc6F)c6nc(c(-c7cc(S(=O)(=O)[O-])ccc7F)c7ccc4[nH]7)C=C6)C=C5)cc3)n2)CC1
REMARK SMILES IDX 23 1 22 2 21 3 19 4 20 5 18 6 14 7 15 8 93 9 16 10 17 11
REMARK SMILES IDX 13 12 10 13 11 14 95 15 12 16 94 17 9 18 8 19 3 20 4 21 5 22
REMARK SMILES IDX 7 23 6 24 2 25 1 26 24 27 25 28 26 29 27 30 28 31 29 32
REMARK SMILES IDX 30 33 31 34 92 35 32 36 91 37 33 38 34 39 35 40 85 41 36 42
REMARK SMILES IDX 90 43 84 44 86 45 37 46 89 47 83 48 82 49 38 51 70 52 50 53
REMARK SMILES IDX 69 54 51 55 54 56 68 57 87 58 52 59 53 60 67 62 88 63 55 64
REMARK SMILES IDX 39 65 40 66 48 67 41 68 47 69 49 70 46 71 42 72 43 73 44 74
REMARK SMILES IDX 45 75 71 76 72 77 80 78 73 79 79 80 81 81 78 82 74 83 75 84
REMARK SMILES IDX 76 85 77 86 56 87 57 88 65 89 58 90 64 91 66 92 63 93 59 94
REMARK SMILES IDX 60 95 61 96 62 97
REMARK H PARENT 86 50 54 61
REMARK Flexibility Score: inf
ROOT
ATOM      1  C   UNL     1       2.336   7.403  -4.349  1.00  0.00     0.202 C 
ENDROOT
BRANCH   1   2
ATOM      2  C   UNL     1       2.459   6.318  -5.423  1.00  0.00     0.261 C 
BRANCH   2   3
ATOM      3  O   UNL     1       1.464   5.297  -5.258  1.00  0.00    -0.459 OA
BRANCH   3   4
ATOM      4  C   UNL     1       1.957   4.089  -4.875  1.00  0.00     0.357 C 
ATOM      5  O   UNL     1       3.135   3.767  -4.849  1.00  0.00    -0.244 OA
BRANCH   4   6
ATOM      6  C   UNL     1       0.861   3.242  -4.323  1.00  0.00     0.150 A 
ATOM      7  C   UNL     1       0.338   1.682  -2.688  1.00  0.00     0.129 A 
ATOM      8  C   UNL     1      -0.982   1.639  -3.127  1.00  0.00     0.047 A 
ATOM      9  N   UNL     1       1.250   2.463  -3.283  1.00  0.00    -0.224 NA
ATOM     10  C   UNL     1      -1.378   2.455  -4.189  1.00  0.00     0.006 A 
ATOM     11  C   UNL     1      -0.442   3.286  -4.799  1.00  0.00     0.036 A 
BRANCH   7  12
ATOM     12  N   UNL     1       0.753   0.927  -1.598  1.00  0.00    -0.356 N 
ATOM     13  C   UNL     1       2.949  -0.229  -0.036  1.00  0.00     0.177 C 
ATOM     14  C   UNL     1       2.372   1.126   0.359  1.00  0.00     0.066 C 
ATOM     15  C   UNL     1       2.661  -0.638  -1.475  1.00  0.00     0.066 C 
ATOM     16  C   UNL     1       1.258   1.724  -0.488  1.00  0.00     0.122 C 
ATOM     17  C   UNL     1       1.230  -0.409  -1.915  1.00  0.00     0.122 C 
BRANCH  13  18
ATOM     18  O   UNL     1       2.748  -1.128   1.070  1.00  0.00    -0.486 OA
BRANCH  18  19
ATOM     19  C   UNL     1       2.013  -2.262   0.938  1.00  0.00     0.161 A 
ATOM     20  C   UNL     1       0.731  -2.334   1.495  1.00  0.00     0.160 A 
ATOM     21  C   UNL     1       0.061  -3.557   1.574  1.00  0.00     0.050 A 
ATOM     22  C   UNL     1       0.685  -4.721   1.121  1.00  0.00     0.004 A 
ATOM     23  C   UNL     1       2.642  -3.432   0.510  1.00  0.00     0.050 A 
ATOM     24  C   UNL     1       1.978  -4.659   0.599  1.00  0.00     0.004 A 
BRANCH  20  25
ATOM     25  O   UNL     1       0.194  -1.244   2.131  1.00  0.00    -0.493 OA
ATOM     26  C   UNL     1      -0.760  -0.591   1.303  1.00  0.00     0.278 C 
ENDBRANCH  20  25
ENDBRANCH  18  19
ENDBRANCH  13  18
ENDBRANCH   7  12
ENDBRANCH   4   6
ENDBRANCH   3   4
ENDBRANCH   2   3
ENDBRANCH   1   2
BRANCH   1  27
ATOM     27  O   UNL     1       2.425   6.990  -2.987  1.00  0.00    -0.374 OA
BRANCH  27  28
ATOM     28  C   UNL     1       1.258   6.419  -2.393  1.00  0.00     0.202 C 
BRANCH  28  29
ATOM     29  C   UNL     1       0.101   7.368  -2.046  1.00  0.00     0.261 C 
BRANCH  29  30
ATOM     30  O   UNL     1      -0.533   7.925  -3.212  1.00  0.00    -0.460 OA
BRANCH  30  31
ATOM     31  C   UNL     1      -0.317   9.250  -3.410  1.00  0.00     0.338 C 
ATOM     32  O   UNL     1       0.297  10.013  -2.678  1.00  0.00    -0.246 OA
BRANCH  31  33
ATOM     33  C   UNL     1      -0.756   9.614  -4.770  1.00  0.00     0.060 A 
ATOM     34  C   UNL     1       0.197  10.132  -5.658  1.00  0.00     0.016 A 
ATOM     35  C   UNL     1      -2.087   9.472  -5.161  1.00  0.00     0.016 A 
ATOM     36  C   UNL     1      -0.180  10.512  -6.945  1.00  0.00     0.010 A 
ATOM     37  C   UNL     1      -2.466   9.869  -6.447  1.00  0.00     0.010 A 
ATOM     38  C   UNL     1      -1.519  10.402  -7.341  1.00  0.00    -0.014 A 
BRANCH  38  39
ATOM     39  C   UNL     1      -1.962  10.929  -8.655  1.00  0.00     0.031 A 
ATOM     40  C   UNL     1      -2.683  12.245  -8.712  1.00  0.00     0.074 A 
ATOM     41  C   UNL     1      -1.738  10.231  -9.783  1.00  0.00     0.049 A 
ATOM     42  N   UNL     1      -3.255  12.837  -9.727  1.00  0.00    -0.248 NA
ATOM     43  C   UNL     1      -2.776  12.983  -7.445  1.00  0.00     0.031 C 
ATOM     44  C   UNL     1      -0.993   8.976  -9.863  1.00  0.00     0.029 A 
ATOM     45  N   UNL     1      -2.124  10.478 -11.076  1.00  0.00    -0.354 N 
ATOM     46  C   UNL     1      -3.785  14.020  -9.223  1.00  0.00     0.074 A 
ATOM     47  C   UNL     1      -3.502  14.031  -7.802  1.00  0.00     0.031 C 
ATOM     48  C   UNL     1      -0.980   8.560 -11.141  1.00  0.00     0.029 A 
ATOM     49  C   UNL     1      -1.760   9.488 -11.957  1.00  0.00     0.049 A 
ATOM     50  H   UNL     1      -2.616  11.287 -11.347  1.00  0.00     0.167 HD
ATOM     51  C   UNL     1      -4.438  15.007  -9.888  1.00  0.00     0.034 A 
ATOM     52  C   UNL     1      -2.051   9.334 -13.265  1.00  0.00     0.034 A 
ATOM     53  C   UNL     1      -4.732  14.963 -11.301  1.00  0.00     0.049 A 
ATOM     54  C   UNL     1      -2.906  10.371 -13.954  1.00  0.00     0.074 A 
ATOM     55  C   UNL     1      -5.377  15.909 -12.079  1.00  0.00     0.029 A 
ATOM     56  N   UNL     1      -4.422  13.903 -12.146  1.00  0.00    -0.354 N 
ATOM     57  N   UNL     1      -3.404  11.487 -13.472  1.00  0.00    -0.248 NA
ATOM     58  C   UNL     1      -3.242  10.122 -15.362  1.00  0.00     0.031 C 
ATOM     59  C   UNL     1      -5.536  15.385 -13.367  1.00  0.00     0.029 A 
ATOM     60  C   UNL     1      -4.909  14.150 -13.422  1.00  0.00     0.049 A 
ATOM     61  H   UNL     1      -3.929  13.095 -11.878  1.00  0.00     0.167 HD
ATOM     62  C   UNL     1      -4.082  12.089 -14.530  1.00  0.00     0.074 A 
ATOM     63  C   UNL     1      -3.923  11.215 -15.674  1.00  0.00     0.031 C 
ATOM     64  C   UNL     1      -4.764  13.263 -14.554  1.00  0.00     0.034 A 
BRANCH  51  65
ATOM     65  C   UNL     1      -4.929  16.179  -9.069  1.00  0.00     0.023 A 
ATOM     66  C   UNL     1      -4.043  17.001  -8.351  1.00  0.00     0.031 A 
ATOM     67  C   UNL     1      -6.306  16.440  -8.950  1.00  0.00     0.131 A 
ATOM     68  C   UNL     1      -4.545  17.970  -7.469  1.00  0.00     0.055 A 
ATOM     69  C   UNL     1      -6.795  17.473  -8.148  1.00  0.00     0.041 A 
ATOM     70  F   UNL     1      -7.205  15.677  -9.592  1.00  0.00    -0.206 F 
ATOM     71  C   UNL     1      -5.914  18.230  -7.382  1.00  0.00     0.022 A 
BRANCH  68  72
ATOM     72  S   UNL     1      -3.397  18.740  -6.293  1.00  0.00     0.124 S 
ATOM     73  O   UNL     1      -2.826  17.570  -5.630  1.00  0.00    -0.237 OA
ATOM     74  O   UNL     1      -2.498  19.481  -7.170  1.00  0.00    -0.237 OA
ATOM     75  O   UNL     1      -4.268  19.559  -5.452  1.00  0.00    -0.744 OA
ENDBRANCH  68  72
ENDBRANCH  51  65
BRANCH  52  76
ATOM     76  C   UNL     1      -1.559   8.141 -14.010  1.00  0.00     0.023 A 
ATOM     77  C   UNL     1      -0.668   8.287 -15.084  1.00  0.00     0.031 A 
ATOM     78  C   UNL     1      -1.999   6.845 -13.688  1.00  0.00     0.131 A 
ATOM     79  C   UNL     1      -0.272   7.160 -15.821  1.00  0.00     0.055 A 
ATOM     80  C   UNL     1      -1.559   5.721 -14.390  1.00  0.00     0.041 A 
ATOM     81  F   UNL     1      -2.855   6.650 -12.672  1.00  0.00    -0.206 F 
ATOM     82  C   UNL     1      -0.698   5.877 -15.471  1.00  0.00     0.022 A 
BRANCH  79  83
ATOM     83  S   UNL     1       0.751   7.409 -17.297  1.00  0.00     0.124 S 
ATOM     84  O   UNL     1      -0.110   8.254 -18.115  1.00  0.00    -0.237 OA
ATOM     85  O   UNL     1       1.938   8.049 -16.739  1.00  0.00    -0.237 OA
ATOM     86  O   UNL     1       0.956   6.052 -17.800  1.00  0.00    -0.744 OA
ENDBRANCH  79  83
ENDBRANCH  52  76
BRANCH  64  87
ATOM     87  C   UNL     1      -5.358  13.692 -15.876  1.00  0.00     0.023 A 
ATOM     88  C   UNL     1      -6.412  12.984 -16.482  1.00  0.00     0.031 A 
ATOM     89  C   UNL     1      -4.866  14.833 -16.535  1.00  0.00     0.131 A 
ATOM     90  C   UNL     1      -6.907  13.398 -17.728  1.00  0.00     0.055 A 
ATOM     91  C   UNL     1      -5.405  15.276 -17.744  1.00  0.00     0.041 A 
ATOM     92  F   UNL     1      -3.857  15.545 -16.008  1.00  0.00    -0.206 F 
ATOM     93  C   UNL     1      -6.425  14.552 -18.353  1.00  0.00     0.022 A 
BRANCH  90  94
ATOM     94  S   UNL     1      -8.137  12.362 -18.567  1.00  0.00     0.124 S 
ATOM     95  O   UNL     1      -7.419  11.100 -18.717  1.00  0.00    -0.237 OA
ATOM     96  O   UNL     1      -9.243  12.356 -17.615  1.00  0.00    -0.237 OA
ATOM     97  O   UNL     1      -8.398  13.079 -19.814  1.00  0.00    -0.744 OA
ENDBRANCH  90  94
ENDBRANCH  64  87
ENDBRANCH  38  39
ENDBRANCH  31  33
ENDBRANCH  30  31
ENDBRANCH  29  30
ENDBRANCH  28  29
ENDBRANCH  27  28
ENDBRANCH   1  27
TORSDOF 21
