REMARK SMILES CC(=O)Nc1cc(NC(C)=O)cc(C(=O)Nc2ccc(Br)cc2C(=O)OCCOCCOC(=O)c2ccc(-c3c4nc(c(-c5cc(S(=O)(=O)[O-])ccc5F)c5ccc([nH]5)c(-c5cc(S(=O)(=O)[O-])ccc5F)c5nc(c(-c6cc(S(=O)(=O)[O-])ccc6F)c6ccc3[nH]6)C=C5)C=C4)cc2)c1
REMARK SMILES IDX 29 1 28 2 27 3 26 4 24 5 25 6 23 7 17 8 18 9 19 10 22 11
REMARK SMILES IDX 20 12 21 13 16 14 14 15 15 16 13 18 5 19 6 20 98 21 7 22
REMARK SMILES IDX 12 23 4 24 1 25 2 26 3 27 8 29 9 30 10 32 11 33 30 34 31 35
REMARK SMILES IDX 32 36 33 37 34 38 35 39 36 40 97 41 37 42 96 43 38 44 39 45
REMARK SMILES IDX 40 46 90 47 41 48 95 49 89 50 91 51 42 52 94 53 88 54 87 55
REMARK SMILES IDX 43 57 75 58 55 59 74 60 56 61 59 62 73 63 92 64 57 65 58 66
REMARK SMILES IDX 72 68 93 69 60 70 44 71 45 72 53 73 46 74 52 75 54 76 51 77
REMARK SMILES IDX 47 78 48 79 49 80 50 81 76 82 77 83 85 84 78 85 84 86 86 87
REMARK SMILES IDX 83 88 79 89 80 90 81 91 82 92 61 93 62 94 70 95 63 96 69 97
REMARK SMILES IDX 71 98 68 99 64 100 65 101 66 102 67 103
REMARK H PARENT 16 17 4 28 8 31 91 56 59 67
REMARK Flexibility Score: inf
ROOT
ATOM      1  O   UNL     1       5.322   1.436  -5.545  1.00  0.00    -0.374 OA
ENDROOT
BRANCH   1   2
ATOM      2  C   UNL     1       5.498   2.646  -4.819  1.00  0.00     0.202 C 
BRANCH   2   3
ATOM      3  C   UNL     1       4.589   2.914  -3.617  1.00  0.00     0.261 C 
BRANCH   3   4
ATOM      4  O   UNL     1       4.670   1.924  -2.575  1.00  0.00    -0.460 OA
BRANCH   4   5
ATOM      5  C   UNL     1       3.567   1.146  -2.465  1.00  0.00     0.340 C 
ATOM      6  O   UNL     1       2.596   1.166  -3.209  1.00  0.00    -0.246 OA
BRANCH   5   7
ATOM      7  C   UNL     1       3.706   0.109  -1.414  1.00  0.00     0.084 A 
ATOM      8  C   UNL     1       4.312   0.253  -0.152  1.00  0.00     0.056 A 
ATOM      9  C   UNL     1       4.458  -0.902   0.645  1.00  0.00     0.028 A 
ATOM     10  C   UNL     1       3.917  -2.133   0.262  1.00  0.00     0.018 A 
ATOM     11  C   UNL     1       3.160  -1.139  -1.790  1.00  0.00     0.033 A 
ATOM     12  C   UNL     1       3.251  -2.241  -0.949  1.00  0.00     0.018 A 
ATOM     13  Br  UNL     1       2.456  -3.878  -1.450  1.00  0.00    -0.051 Br
BRANCH   8  14
ATOM     14  N   UNL     1       4.753   1.435   0.485  1.00  0.00    -0.321 N 
ATOM     15  C   UNL     1       4.333   2.747   0.462  1.00  0.00     0.255 C 
ATOM     16  O   UNL     1       5.013   3.602   1.027  1.00  0.00    -0.269 OA
ATOM     17  H   UNL     1       5.529   1.289   1.074  1.00  0.00     0.170 HD
BRANCH  15  18
ATOM     18  C   UNL     1       3.056   3.162  -0.158  1.00  0.00     0.044 A 
ATOM     19  C   UNL     1       0.887   2.583  -1.024  1.00  0.00     0.044 A 
ATOM     20  C   UNL     1       0.909   3.770  -1.781  1.00  0.00     0.052 A 
ATOM     21  C   UNL     1       1.930   2.335  -0.140  1.00  0.00     0.040 A 
ATOM     22  C   UNL     1       1.964   4.685  -1.682  1.00  0.00     0.044 A 
ATOM     23  C   UNL     1       3.043   4.372  -0.858  1.00  0.00     0.040 A 
BRANCH  19  24
ATOM     24  N   UNL     1      -0.097   1.635  -1.372  1.00  0.00    -0.326 N 
ATOM     25  C   UNL     1       0.008  -0.061   0.461  1.00  0.00     0.114 C 
ATOM     26  C   UNL     1      -0.428   0.400  -0.899  1.00  0.00     0.221 C 
ATOM     27  O   UNL     1      -1.133  -0.334  -1.598  1.00  0.00    -0.275 OA
ATOM     28  H   UNL     1      -0.670   1.929  -2.117  1.00  0.00     0.169 HD
ENDBRANCH  19  24
BRANCH  22  29
ATOM     29  N   UNL     1       2.057   5.879  -2.428  1.00  0.00    -0.326 N 
ATOM     30  C   UNL     1       1.180   6.338  -3.392  1.00  0.00     0.221 C 
ATOM     31  H   UNL     1       2.835   6.452  -2.239  1.00  0.00     0.169 HD
ATOM     32  C   UNL     1       1.605   7.651  -4.004  1.00  0.00     0.114 C 
ATOM     33  O   UNL     1       0.149   5.787  -3.766  1.00  0.00    -0.275 OA
ENDBRANCH  22  29
ENDBRANCH  15  18
ENDBRANCH   8  14
ENDBRANCH   5   7
ENDBRANCH   4   5
ENDBRANCH   3   4
ENDBRANCH   2   3
ENDBRANCH   1   2
BRANCH   1  34
ATOM     34  C   UNL     1       5.605   0.201  -4.900  1.00  0.00     0.202 C 
BRANCH  34  35
ATOM     35  C   UNL     1       7.039  -0.091  -4.438  1.00  0.00     0.261 C 
BRANCH  35  36
ATOM     36  O   UNL     1       7.570   0.856  -3.494  1.00  0.00    -0.460 OA
BRANCH  36  37
ATOM     37  C   UNL     1       8.575   1.621  -3.992  1.00  0.00     0.338 C 
ATOM     38  O   UNL     1       9.021   1.589  -5.131  1.00  0.00    -0.246 OA
BRANCH  37  39
ATOM     39  C   UNL     1       9.008   2.643  -3.024  1.00  0.00     0.060 A 
ATOM     40  C   UNL     1       8.957   3.983  -3.428  1.00  0.00     0.016 A 
ATOM     41  C   UNL     1       9.639   2.282  -1.832  1.00  0.00     0.016 A 
ATOM     42  C   UNL     1       9.605   4.962  -2.678  1.00  0.00     0.010 A 
ATOM     43  C   UNL     1      10.298   3.266  -1.085  1.00  0.00     0.010 A 
ATOM     44  C   UNL     1      10.330   4.599  -1.535  1.00  0.00    -0.014 A 
BRANCH  44  45
ATOM     45  C   UNL     1      11.291   5.570  -0.952  1.00  0.00     0.031 A 
ATOM     46  C   UNL     1      12.741   5.476  -1.354  1.00  0.00     0.074 A 
ATOM     47  C   UNL     1      10.877   6.550  -0.130  1.00  0.00     0.049 A 
ATOM     48  N   UNL     1      13.764   6.190  -0.958  1.00  0.00    -0.248 NA
ATOM     49  C   UNL     1      13.080   4.434  -2.337  1.00  0.00     0.031 C 
ATOM     50  C   UNL     1       9.493   6.777   0.282  1.00  0.00     0.029 A 
ATOM     51  N   UNL     1      11.585   7.540   0.504  1.00  0.00    -0.354 N 
ATOM     52  C   UNL     1      14.866   5.685  -1.641  1.00  0.00     0.074 A 
ATOM     53  C   UNL     1      14.391   4.579  -2.446  1.00  0.00     0.031 C 
ATOM     54  C   UNL     1       9.454   7.838   1.108  1.00  0.00     0.029 A 
ATOM     55  C   UNL     1      10.812   8.342   1.310  1.00  0.00     0.049 A 
ATOM     56  H   UNL     1      12.555   7.664   0.393  1.00  0.00     0.167 HD
ATOM     57  C   UNL     1      16.154   6.108  -1.607  1.00  0.00     0.034 A 
ATOM     58  C   UNL     1      11.165   9.350   2.132  1.00  0.00     0.034 A 
ATOM     59  C   UNL     1      16.618   7.202  -0.790  1.00  0.00     0.049 A 
ATOM     60  C   UNL     1      12.620   9.749   2.220  1.00  0.00     0.074 A 
ATOM     61  C   UNL     1      17.902   7.702  -0.661  1.00  0.00     0.029 A 
ATOM     62  N   UNL     1      15.811   7.965   0.045  1.00  0.00    -0.354 N 
ATOM     63  N   UNL     1      13.656   9.250   1.584  1.00  0.00    -0.248 NA
ATOM     64  C   UNL     1      12.950  10.854   3.130  1.00  0.00     0.031 C 
ATOM     65  C   UNL     1      17.882   8.727   0.292  1.00  0.00     0.029 A 
ATOM     66  C   UNL     1      16.573   8.916   0.705  1.00  0.00     0.049 A 
ATOM     67  H   UNL     1      14.840   7.848   0.151  1.00  0.00     0.167 HD
ATOM     68  C   UNL     1      14.752  10.008   1.990  1.00  0.00     0.074 A 
ATOM     69  C   UNL     1      14.250  11.000   2.918  1.00  0.00     0.031 C 
ATOM     70  C   UNL     1      16.055   9.900   1.626  1.00  0.00     0.034 A 
BRANCH  57  71
ATOM     71  C   UNL     1      17.154   5.346  -2.443  1.00  0.00     0.023 A 
ATOM     72  C   UNL     1      17.090   5.339  -3.848  1.00  0.00     0.031 A 
ATOM     73  C   UNL     1      18.165   4.590  -1.826  1.00  0.00     0.131 A 
ATOM     74  C   UNL     1      17.977   4.539  -4.585  1.00  0.00     0.055 A 
ATOM     75  C   UNL     1      19.092   3.855  -2.568  1.00  0.00     0.041 A 
ATOM     76  F   UNL     1      18.261   4.540  -0.488  1.00  0.00    -0.206 F 
ATOM     77  C   UNL     1      18.993   3.816  -3.956  1.00  0.00     0.022 A 
BRANCH  74  78
ATOM     78  S   UNL     1      17.703   4.353  -6.368  1.00  0.00     0.124 S 
ATOM     79  O   UNL     1      16.362   3.774  -6.401  1.00  0.00    -0.237 OA
ATOM     80  O   UNL     1      17.819   5.724  -6.851  1.00  0.00    -0.237 OA
ATOM     81  O   UNL     1      18.774   3.451  -6.787  1.00  0.00    -0.744 OA
ENDBRANCH  74  78
ENDBRANCH  57  71
BRANCH  58  82
ATOM     82  C   UNL     1      10.143  10.038   2.973  1.00  0.00     0.023 A 
ATOM     83  C   UNL     1       9.867  11.404   2.808  1.00  0.00     0.031 A 
ATOM     84  C   UNL     1       9.478   9.350   4.003  1.00  0.00     0.131 A 
ATOM     85  C   UNL     1       8.989  12.051   3.692  1.00  0.00     0.055 A 
ATOM     86  C   UNL     1       8.566   9.986   4.846  1.00  0.00     0.041 A 
ATOM     87  F   UNL     1       9.708   8.043   4.206  1.00  0.00    -0.206 F 
ATOM     88  C   UNL     1       8.328  11.349   4.702  1.00  0.00     0.022 A 
BRANCH  85  89
ATOM     89  S   UNL     1       8.795  13.850   3.560  1.00  0.00     0.124 S 
ATOM     90  O   UNL     1      10.170  14.310   3.717  1.00  0.00    -0.237 OA
ATOM     91  O   UNL     1       8.217  13.994   2.228  1.00  0.00    -0.237 OA
ATOM     92  O   UNL     1       7.896  14.177   4.666  1.00  0.00    -0.744 OA
ENDBRANCH  85  89
ENDBRANCH  58  82
BRANCH  70  93
ATOM     93  C   UNL     1      17.012  10.924   2.186  1.00  0.00     0.023 A 
ATOM     94  C   UNL     1      17.341  10.965   3.552  1.00  0.00     0.031 A 
ATOM     95  C   UNL     1      17.593  11.881   1.335  1.00  0.00     0.131 A 
ATOM     96  C   UNL     1      18.182  11.979   4.037  1.00  0.00     0.055 A 
ATOM     97  C   UNL     1      18.474  12.852   1.814  1.00  0.00     0.041 A 
ATOM     98  F   UNL     1      17.314  11.886   0.022  1.00  0.00    -0.206 F 
ATOM     99  C   UNL     1      18.762  12.913   3.174  1.00  0.00     0.022 A 
BRANCH  96 100
ATOM    100  S   UNL     1      18.441  12.115   5.827  1.00  0.00     0.124 S 
ATOM    101  O   UNL     1      17.076  12.275   6.321  1.00  0.00    -0.237 OA
ATOM    102  O   UNL     1      19.088  10.847   6.146  1.00  0.00    -0.237 OA
ATOM    103  O   UNL     1      19.292  13.296   5.963  1.00  0.00    -0.744 OA
ENDBRANCH  96 100
ENDBRANCH  70  93
ENDBRANCH  44  45
ENDBRANCH  37  39
ENDBRANCH  36  37
ENDBRANCH  35  36
ENDBRANCH  34  35
ENDBRANCH   1  34
TORSDOF 21
