REMARK SMILES CC(=O)C1=C(C(=O)OCCOCCOC(=O)c2ccc(-c3c4nc(c(-c5cc(S(=O)(=O)[O-])ccc5F)c5ccc([nH]5)c(-c5cc(S(=O)(=O)[O-])ccc5F)c5nc(c(-c6cc(S(=O)(=O)[O-])ccc6F)c6ccc3[nH]6)C=C5)C=C4)cc2)S[C@H]2CCCCC2=N1
REMARK SMILES IDX 12 1 11 2 10 3 9 4 8 5 6 6 7 7 5 8 4 9 87 10 80 11 86 12
REMARK SMILES IDX 81 13 85 14 82 15 84 16 83 17 2 18 1 19 3 20 13 21 14 22
REMARK SMILES IDX 15 23 16 24 17 25 18 26 79 27 19 28 78 29 20 30 21 31 22 32
REMARK SMILES IDX 72 33 23 34 77 35 71 36 73 37 24 38 76 39 70 40 69 41 25 43
REMARK SMILES IDX 57 44 37 45 56 46 38 47 41 48 55 49 74 50 39 51 40 52 54 54
REMARK SMILES IDX 75 55 42 56 26 57 27 58 35 59 28 60 34 61 36 62 33 63 29 64
REMARK SMILES IDX 30 65 31 66 32 67 58 68 59 69 67 70 60 71 66 72 68 73 65 74
REMARK SMILES IDX 61 75 62 76 63 77 64 78 43 79 44 80 52 81 45 82 51 83 53 84
REMARK SMILES IDX 50 85 46 86 47 87 48 88 49 89
REMARK H PARENT 73 42 41 53
REMARK Flexibility Score: inf
ROOT
ATOM      1  C   UNL     1       3.109   0.993  -0.660  1.00  0.00     0.202 C 
ENDROOT
BRANCH   1   2
ATOM      2  O   UNL     1       4.169   0.856   0.279  1.00  0.00    -0.374 OA
BRANCH   2   3
ATOM      3  C   UNL     1       5.307   0.081  -0.106  1.00  0.00     0.202 C 
BRANCH   3   4
ATOM      4  C   UNL     1       5.142  -1.440  -0.084  1.00  0.00     0.261 C 
BRANCH   4   5
ATOM      5  O   UNL     1       4.218  -1.853  -1.103  1.00  0.00    -0.459 OA
BRANCH   5   6
ATOM      6  C   UNL     1       3.086  -2.475  -0.682  1.00  0.00     0.347 C 
ATOM      7  O   UNL     1       2.847  -2.797   0.471  1.00  0.00    -0.245 OA
BRANCH   6   8
ATOM      8  C   UNL     1       2.104  -2.578  -1.806  1.00  0.00     0.123 C 
ATOM      9  C   UNL     1       0.775  -2.492  -1.597  1.00  0.00     0.127 C 
ATOM     10  N   UNL     1      -0.216  -2.668  -2.544  1.00  0.00    -0.251 NA
ATOM     11  S   UNL     1       2.754  -2.836  -3.400  1.00  0.00    -0.107 SA
ATOM     12  C   UNL     1       0.050  -2.596  -3.813  1.00  0.00     0.032 C 
ATOM     13  C   UNL     1       1.389  -2.186  -4.413  1.00  0.00     0.097 C 
ATOM     14  C   UNL     1      -1.141  -2.748  -4.741  1.00  0.00     0.053 C 
ATOM     15  C   UNL     1       1.615  -2.672  -5.851  1.00  0.00     0.021 C 
ATOM     16  C   UNL     1      -0.757  -3.413  -6.048  1.00  0.00     0.006 C 
ATOM     17  C   UNL     1       0.361  -2.630  -6.718  1.00  0.00     0.002 C 
BRANCH   9  18
ATOM     18  C   UNL     1       0.249  -2.231  -0.204  1.00  0.00     0.179 C 
ATOM     19  C   UNL     1       0.363  -0.823   0.326  1.00  0.00     0.095 C 
ATOM     20  O   UNL     1      -0.330  -3.113   0.428  1.00  0.00    -0.293 OA
ENDBRANCH   9  18
ENDBRANCH   6   8
ENDBRANCH   5   6
ENDBRANCH   4   5
ENDBRANCH   3   4
ENDBRANCH   2   3
ENDBRANCH   1   2
BRANCH   1  21
ATOM     21  C   UNL     1       3.250   1.999  -1.808  1.00  0.00     0.261 C 
BRANCH  21  22
ATOM     22  O   UNL     1       4.465   1.862  -2.541  1.00  0.00    -0.460 OA
BRANCH  22  23
ATOM     23  C   UNL     1       5.449   2.689  -2.103  1.00  0.00     0.338 C 
ATOM     24  O   UNL     1       5.371   3.527  -1.226  1.00  0.00    -0.246 OA
BRANCH  23  25
ATOM     25  C   UNL     1       6.714   2.296  -2.744  1.00  0.00     0.060 A 
ATOM     26  C   UNL     1       7.817   2.065  -1.914  1.00  0.00     0.016 A 
ATOM     27  C   UNL     1       6.818   2.188  -4.132  1.00  0.00     0.016 A 
ATOM     28  C   UNL     1       9.052   1.769  -2.478  1.00  0.00     0.010 A 
ATOM     29  C   UNL     1       8.059   1.895  -4.696  1.00  0.00     0.010 A 
ATOM     30  C   UNL     1       9.185   1.721  -3.871  1.00  0.00    -0.014 A 
BRANCH  30  31
ATOM     31  C   UNL     1      10.534   1.653  -4.473  1.00  0.00     0.031 A 
ATOM     32  C   UNL     1      11.137   2.915  -5.022  1.00  0.00     0.074 A 
ATOM     33  C   UNL     1      11.206   0.490  -4.506  1.00  0.00     0.049 A 
ATOM     34  N   UNL     1      12.268   3.089  -5.652  1.00  0.00    -0.248 NA
ATOM     35  C   UNL     1      10.349   4.145  -4.843  1.00  0.00     0.031 C 
ATOM     36  C   UNL     1      10.721  -0.778  -3.961  1.00  0.00     0.029 A 
ATOM     37  N   UNL     1      12.435   0.185  -5.028  1.00  0.00    -0.354 N 
ATOM     38  C   UNL     1      12.327   4.446  -5.951  1.00  0.00     0.074 A 
ATOM     39  C   UNL     1      11.095   5.037  -5.475  1.00  0.00     0.031 C 
ATOM     40  C   UNL     1      11.644  -1.728  -4.185  1.00  0.00     0.029 A 
ATOM     41  C   UNL     1      12.759  -1.147  -4.929  1.00  0.00     0.049 A 
ATOM     42  H   UNL     1      13.030   0.856  -5.435  1.00  0.00     0.167 HD
ATOM     43  C   UNL     1      13.326   5.132  -6.556  1.00  0.00     0.034 A 
ATOM     44  C   UNL     1      13.821  -1.820  -5.415  1.00  0.00     0.034 A 
ATOM     45  C   UNL     1      14.538   4.511  -7.032  1.00  0.00     0.049 A 
ATOM     46  C   UNL     1      14.881  -1.050  -6.165  1.00  0.00     0.074 A 
ATOM     47  C   UNL     1      15.623   5.101  -7.654  1.00  0.00     0.029 A 
ATOM     48  N   UNL     1      14.819   3.152  -6.950  1.00  0.00    -0.354 N 
ATOM     49  N   UNL     1      14.933   0.235  -6.438  1.00  0.00    -0.248 NA
ATOM     50  C   UNL     1      16.028  -1.817  -6.664  1.00  0.00     0.031 C 
ATOM     51  C   UNL     1      16.520   4.092  -8.019  1.00  0.00     0.029 A 
ATOM     52  C   UNL     1      16.042   2.881  -7.542  1.00  0.00     0.049 A 
ATOM     53  H   UNL     1      14.233   2.480  -6.531  1.00  0.00     0.167 HD
ATOM     54  C   UNL     1      16.137   0.433  -7.110  1.00  0.00     0.074 A 
ATOM     55  C   UNL     1      16.783  -0.861  -7.186  1.00  0.00     0.031 C 
ATOM     56  C   UNL     1      16.665   1.579  -7.614  1.00  0.00     0.034 A 
BRANCH  43  57
ATOM     57  C   UNL     1      13.119   6.612  -6.778  1.00  0.00     0.023 A 
ATOM     58  C   UNL     1      12.958   7.508  -5.706  1.00  0.00     0.031 A 
ATOM     59  C   UNL     1      13.047   7.131  -8.083  1.00  0.00     0.131 A 
ATOM     60  C   UNL     1      12.660   8.856  -5.958  1.00  0.00     0.055 A 
ATOM     61  C   UNL     1      12.837   8.489  -8.326  1.00  0.00     0.041 A 
ATOM     62  F   UNL     1      13.164   6.322  -9.148  1.00  0.00    -0.206 F 
ATOM     63  C   UNL     1      12.626   9.358  -7.260  1.00  0.00     0.022 A 
BRANCH  60  64
ATOM     64  S   UNL     1      12.164   9.908  -4.566  1.00  0.00     0.124 S 
ATOM     65  O   UNL     1      11.000   9.188  -4.053  1.00  0.00    -0.237 OA
ATOM     66  O   UNL     1      13.350   9.891  -3.719  1.00  0.00    -0.237 OA
ATOM     67  O   UNL     1      11.864  11.192  -5.197  1.00  0.00    -0.744 OA
ENDBRANCH  60  64
ENDBRANCH  43  57
BRANCH  44  68
ATOM     68  C   UNL     1      13.921  -3.299  -5.246  1.00  0.00     0.023 A 
ATOM     69  C   UNL     1      14.981  -3.879  -4.534  1.00  0.00     0.031 A 
ATOM     70  C   UNL     1      12.981  -4.159  -5.843  1.00  0.00     0.131 A 
ATOM     71  C   UNL     1      15.106  -5.277  -4.480  1.00  0.00     0.055 A 
ATOM     72  C   UNL     1      13.074  -5.547  -5.734  1.00  0.00     0.041 A 
ATOM     73  F   UNL     1      11.947  -3.659  -6.540  1.00  0.00    -0.206 F 
ATOM     74  C   UNL     1      14.151  -6.114  -5.061  1.00  0.00     0.022 A 
BRANCH  71  75
ATOM     75  S   UNL     1      16.596  -5.985  -3.727  1.00  0.00     0.124 S 
ATOM     76  O   UNL     1      17.651  -5.367  -4.521  1.00  0.00    -0.237 OA
ATOM     77  O   UNL     1      16.481  -5.529  -2.345  1.00  0.00    -0.237 OA
ATOM     78  O   UNL     1      16.425  -7.423  -3.923  1.00  0.00    -0.744 OA
ENDBRANCH  71  75
ENDBRANCH  44  68
BRANCH  56  79
ATOM     79  C   UNL     1      18.034   1.484  -8.245  1.00  0.00     0.023 A 
ATOM     80  C   UNL     1      18.262   0.747  -9.420  1.00  0.00     0.031 A 
ATOM     81  C   UNL     1      19.129   2.140  -7.654  1.00  0.00     0.131 A 
ATOM     82  C   UNL     1      19.563   0.632  -9.931  1.00  0.00     0.055 A 
ATOM     83  C   UNL     1      20.408   2.082  -8.207  1.00  0.00     0.041 A 
ATOM     84  F   UNL     1      18.971   2.856  -6.529  1.00  0.00    -0.206 F 
ATOM     85  C   UNL     1      20.634   1.312  -9.344  1.00  0.00     0.022 A 
BRANCH  82  86
ATOM     86  S   UNL     1      19.858  -0.505 -11.312  1.00  0.00     0.124 S 
ATOM     87  O   UNL     1      19.387  -1.773 -10.765  1.00  0.00    -0.237 OA
ATOM     88  O   UNL     1      19.040   0.074 -12.373  1.00  0.00    -0.237 OA
ATOM     89  O   UNL     1      21.301  -0.419 -11.525  1.00  0.00    -0.744 OA
ENDBRANCH  82  86
ENDBRANCH  56  79
ENDBRANCH  30  31
ENDBRANCH  23  25
ENDBRANCH  22  23
ENDBRANCH  21  22
ENDBRANCH   1  21
TORSDOF 18
