REMARK SMILES Cc1ccc(-c2cc(Cl)cc3c2O[C@@H](C(F)(F)F)C(C(=O)OCCOCCOC(=O)c2ccc(-c4c5nc(c(-c6cc(S(=O)(=O)[O-])ccc6F)c6ccc([nH]6)c(-c6cc(S(=O)(=O)[O-])ccc6F)c6nc(c(-c7cc(S(=O)(=O)[O-])ccc7F)c7ccc4[nH]7)C=C6)C=C5)cc2)=C3)cc1
REMARK SMILES IDX 26 1 25 2 24 3 23 4 22 5 20 6 21 7 19 8 6 9 7 10 12 11 8 12
REMARK SMILES IDX 11 13 13 14 9 15 10 16 94 17 14 18 5 19 1 20 2 21 3 22 96 23
REMARK SMILES IDX 4 24 95 25 15 26 16 27 17 28 18 29 27 30 28 31 29 32 30 33
REMARK SMILES IDX 31 34 32 35 93 36 33 37 92 38 34 39 35 40 36 41 86 42 37 43
REMARK SMILES IDX 91 44 85 45 87 46 38 47 90 48 84 49 83 50 39 52 71 53 51 54
REMARK SMILES IDX 70 55 52 56 55 57 69 58 88 59 53 60 54 61 68 63 89 64 56 65
REMARK SMILES IDX 40 66 41 67 49 68 42 69 48 70 50 71 47 72 43 73 44 74 45 75
REMARK SMILES IDX 46 76 72 77 73 78 81 79 74 80 80 81 82 82 79 83 75 84 76 85
REMARK SMILES IDX 77 86 78 87 57 88 58 89 66 90 59 91 65 92 67 93 64 94 60 95
REMARK SMILES IDX 61 96 62 97 63 98
REMARK H PARENT 87 51 55 62
REMARK Flexibility Score: inf
ROOT
ATOM      1  C   UNL     1      -3.090  -4.920   0.834  1.00  0.00     0.202 C 
ENDROOT
BRANCH   1   2
ATOM      2  O   UNL     1      -2.900  -3.556   1.205  1.00  0.00    -0.374 OA
BRANCH   2   3
ATOM      3  C   UNL     1      -3.513  -3.212   2.451  1.00  0.00     0.202 C 
BRANCH   3   4
ATOM      4  C   UNL     1      -3.433  -1.692   2.634  1.00  0.00     0.261 C 
BRANCH   4   5
ATOM      5  O   UNL     1      -4.587  -1.148   3.286  1.00  0.00    -0.460 OA
BRANCH   5   6
ATOM      6  C   UNL     1      -5.076   0.029   2.810  1.00  0.00     0.338 C 
ATOM      7  O   UNL     1      -4.442   0.998   2.457  1.00  0.00    -0.246 OA
BRANCH   6   8
ATOM      8  C   UNL     1      -6.547  -0.198   2.475  1.00  0.00     0.087 C 
ATOM      9  C   UNL     1      -4.548  -0.586  -0.918  1.00  0.00     0.026 A 
ATOM     10  C   UNL     1      -4.878   0.218  -2.032  1.00  0.00     0.033 A 
ATOM     11  C   UNL     1      -5.549  -0.717   0.072  1.00  0.00     0.135 A 
ATOM     12  C   UNL     1      -5.997   1.048  -2.026  1.00  0.00     0.042 A 
ATOM     13  C   UNL     1      -6.494   0.338   0.201  1.00  0.00     0.019 A 
ATOM     14  O   UNL     1      -5.648  -1.822   0.952  1.00  0.00    -0.475 OA
ATOM     15  Cl  UNL     1      -6.314   2.051  -3.386  1.00  0.00    -0.084 Cl
ATOM     16  C   UNL     1      -6.761   1.177  -0.875  1.00  0.00     0.032 A 
ATOM     17  C   UNL     1      -7.093   0.618   1.545  1.00  0.00     0.027 C 
ATOM     18  C   UNL     1      -6.703  -1.633   1.997  1.00  0.00     0.316 C 
BRANCH   9  19
ATOM     19  C   UNL     1      -3.064  -0.619  -0.686  1.00  0.00    -0.015 A 
ATOM     20  C   UNL     1       1.281  -0.097  -0.635  1.00  0.00     0.044 C 
ATOM     21  C   UNL     1      -0.213  -0.262  -0.689  1.00  0.00    -0.051 A 
ATOM     22  C   UNL     1      -0.805  -1.452  -1.136  1.00  0.00     0.004 A 
ATOM     23  C   UNL     1      -1.050   0.740  -0.201  1.00  0.00     0.004 A 
ATOM     24  C   UNL     1      -2.209  -1.624  -1.146  1.00  0.00     0.009 A 
ATOM     25  C   UNL     1      -2.441   0.557  -0.190  1.00  0.00     0.009 A 
ENDBRANCH   9  19
BRANCH  18  26
ATOM     26  C   UNL     1      -6.929  -2.626   3.182  1.00  0.00     0.430 C 
ATOM     27  F   UNL     1      -7.887  -2.104   4.007  1.00  0.00    -0.167 F 
ATOM     28  F   UNL     1      -7.441  -3.791   2.711  1.00  0.00    -0.167 F 
ATOM     29  F   UNL     1      -5.881  -2.918   3.956  1.00  0.00    -0.167 F 
ENDBRANCH  18  26
ENDBRANCH   6   8
ENDBRANCH   5   6
ENDBRANCH   4   5
ENDBRANCH   3   4
ENDBRANCH   2   3
ENDBRANCH   1   2
BRANCH   1  30
ATOM     30  C   UNL     1      -2.126  -5.863   1.559  1.00  0.00     0.261 C 
BRANCH  30  31
ATOM     31  O   UNL     1      -0.777  -5.389   1.372  1.00  0.00    -0.460 OA
BRANCH  31  32
ATOM     32  C   UNL     1      -0.047  -5.388   2.518  1.00  0.00     0.338 C 
ATOM     33  O   UNL     1       0.288  -6.388   3.131  1.00  0.00    -0.246 OA
BRANCH  32  34
ATOM     34  C   UNL     1       0.208  -3.993   2.974  1.00  0.00     0.060 A 
ATOM     35  C   UNL     1       0.452  -3.741   4.332  1.00  0.00     0.016 A 
ATOM     36  C   UNL     1       0.028  -2.924   2.103  1.00  0.00     0.016 A 
ATOM     37  C   UNL     1       0.359  -2.433   4.837  1.00  0.00     0.010 A 
ATOM     38  C   UNL     1      -0.089  -1.637   2.613  1.00  0.00     0.010 A 
ATOM     39  C   UNL     1      -0.004  -1.382   3.988  1.00  0.00    -0.014 A 
BRANCH  39  40
ATOM     40  C   UNL     1      -0.650  -0.132   4.455  1.00  0.00     0.031 A 
ATOM     41  C   UNL     1      -0.262   1.227   3.990  1.00  0.00     0.074 A 
ATOM     42  C   UNL     1      -1.881  -0.250   5.020  1.00  0.00     0.049 A 
ATOM     43  N   UNL     1      -0.729   2.315   4.509  1.00  0.00    -0.248 NA
ATOM     44  C   UNL     1       0.694   1.510   2.924  1.00  0.00     0.031 C 
ATOM     45  C   UNL     1      -2.943   0.757   5.077  1.00  0.00     0.029 A 
ATOM     46  N   UNL     1      -2.490  -1.354   5.606  1.00  0.00    -0.354 N 
ATOM     47  C   UNL     1      -0.529   3.334   3.607  1.00  0.00     0.074 A 
ATOM     48  C   UNL     1       0.520   2.830   2.756  1.00  0.00     0.031 C 
ATOM     49  C   UNL     1      -3.952   0.315   5.843  1.00  0.00     0.029 A 
ATOM     50  C   UNL     1      -3.517  -0.924   6.446  1.00  0.00     0.049 A 
ATOM     51  H   UNL     1      -2.236  -2.292   5.453  1.00  0.00     0.167 HD
ATOM     52  C   UNL     1      -1.374   4.413   3.613  1.00  0.00     0.034 A 
ATOM     53  C   UNL     1      -3.498  -1.183   7.783  1.00  0.00     0.034 A 
ATOM     54  C   UNL     1      -2.288   4.387   4.776  1.00  0.00     0.049 A 
ATOM     55  C   UNL     1      -3.187   0.108   8.539  1.00  0.00     0.074 A 
ATOM     56  C   UNL     1      -3.663   4.402   4.940  1.00  0.00     0.029 A 
ATOM     57  N   UNL     1      -1.764   4.123   6.046  1.00  0.00    -0.354 N 
ATOM     58  N   UNL     1      -2.950   1.241   7.926  1.00  0.00    -0.248 NA
ATOM     59  C   UNL     1      -3.147   0.286   9.985  1.00  0.00     0.031 C 
ATOM     60  C   UNL     1      -3.951   4.025   6.291  1.00  0.00     0.029 A 
ATOM     61  C   UNL     1      -2.755   3.832   6.965  1.00  0.00     0.049 A 
ATOM     62  H   UNL     1      -0.804   4.143   6.261  1.00  0.00     0.167 HD
ATOM     63  C   UNL     1      -2.715   2.253   8.799  1.00  0.00     0.074 A 
ATOM     64  C   UNL     1      -2.855   1.601  10.093  1.00  0.00     0.031 C 
ATOM     65  C   UNL     1      -2.412   3.517   8.359  1.00  0.00     0.034 A 
BRANCH  52  66
ATOM     66  C   UNL     1      -1.487   5.460   2.500  1.00  0.00     0.023 A 
ATOM     67  C   UNL     1      -2.281   6.620   2.692  1.00  0.00     0.031 A 
ATOM     68  C   UNL     1      -0.907   5.356   1.214  1.00  0.00     0.131 A 
ATOM     69  C   UNL     1      -2.429   7.598   1.678  1.00  0.00     0.055 A 
ATOM     70  C   UNL     1      -0.996   6.360   0.237  1.00  0.00     0.041 A 
ATOM     71  F   UNL     1      -0.277   4.251   0.799  1.00  0.00    -0.206 F 
ATOM     72  C   UNL     1      -1.755   7.491   0.466  1.00  0.00     0.022 A 
BRANCH  69  73
ATOM     73  S   UNL     1      -3.547   9.012   1.925  1.00  0.00     0.124 S 
ATOM     74  O   UNL     1      -4.857   8.369   1.942  1.00  0.00    -0.237 OA
ATOM     75  O   UNL     1      -3.081   9.570   3.189  1.00  0.00    -0.237 OA
ATOM     76  O   UNL     1      -3.295   9.855   0.755  1.00  0.00    -0.744 OA
ENDBRANCH  69  73
ENDBRANCH  52  66
BRANCH  53  77
ATOM     77  C   UNL     1      -3.114  -2.610   8.029  1.00  0.00     0.023 A 
ATOM     78  C   UNL     1      -4.038  -3.574   7.535  1.00  0.00     0.031 A 
ATOM     79  C   UNL     1      -1.774  -3.009   8.155  1.00  0.00     0.131 A 
ATOM     80  C   UNL     1      -3.590  -4.805   7.026  1.00  0.00     0.055 A 
ATOM     81  C   UNL     1      -1.337  -4.254   7.669  1.00  0.00     0.041 A 
ATOM     82  F   UNL     1      -0.838  -2.133   8.547  1.00  0.00    -0.206 F 
ATOM     83  C   UNL     1      -2.235  -5.135   7.061  1.00  0.00     0.022 A 
BRANCH  80  84
ATOM     84  S   UNL     1      -4.724  -5.897   6.103  1.00  0.00     0.124 S 
ATOM     85  O   UNL     1      -4.942  -6.977   7.060  1.00  0.00    -0.237 OA
ATOM     86  O   UNL     1      -5.885  -5.056   5.837  1.00  0.00    -0.237 OA
ATOM     87  O   UNL     1      -3.939  -6.251   4.920  1.00  0.00    -0.744 OA
ENDBRANCH  80  84
ENDBRANCH  53  77
BRANCH  65  88
ATOM     88  C   UNL     1      -1.800   4.602   9.219  1.00  0.00     0.023 A 
ATOM     89  C   UNL     1      -1.211   4.342  10.463  1.00  0.00     0.031 A 
ATOM     90  C   UNL     1      -1.690   5.939   8.758  1.00  0.00     0.131 A 
ATOM     91  C   UNL     1      -0.634   5.370  11.227  1.00  0.00     0.055 A 
ATOM     92  C   UNL     1      -1.034   6.941   9.478  1.00  0.00     0.041 A 
ATOM     93  F   UNL     1      -2.201   6.329   7.582  1.00  0.00    -0.206 F 
ATOM     94  C   UNL     1      -0.516   6.665  10.732  1.00  0.00     0.022 A 
BRANCH  91  95
ATOM     95  S   UNL     1      -0.114   4.980  12.915  1.00  0.00     0.124 S 
ATOM     96  O   UNL     1      -1.376   4.575  13.530  1.00  0.00    -0.237 OA
ATOM     97  O   UNL     1       0.859   3.913  12.707  1.00  0.00    -0.237 OA
ATOM     98  O   UNL     1       0.439   6.240  13.407  1.00  0.00    -0.744 OA
ENDBRANCH  91  95
ENDBRANCH  65  88
ENDBRANCH  39  40
ENDBRANCH  32  34
ENDBRANCH  31  32
ENDBRANCH  30  31
ENDBRANCH   1  30
TORSDOF 19
