REMARK SMILES C/C(=N\NC(N)=S)c1nnn(-c2ccc(C(=O)OCCOCCOC(=O)c3ccc(-c4c5nc(c(-c6cc(S(=O)(=O)[O-])ccc6F)c6ccc([nH]6)c(-c6cc(S(=O)(=O)[O-])ccc6F)c6nc(c(-c7cc(S(=O)(=O)[O-])ccc7F)c7ccc4[nH]7)C=C6)C=C5)cc3)cc2)c1C
REMARK SMILES IDX 20 1 19 2 18 3 16 4 17 5 15 6 12 7 13 8 91 9 14 10 90 11
REMARK SMILES IDX 11 12 8 13 9 14 92 15 10 16 93 17 2 18 1 19 3 20 4 21 5 23
REMARK SMILES IDX 7 24 6 25 21 28 22 29 23 30 24 31 25 32 26 33 27 34 28 35
REMARK SMILES IDX 89 36 29 37 88 38 30 39 31 40 32 41 82 42 33 43 87 44 81 45
REMARK SMILES IDX 83 46 34 47 86 48 80 49 79 50 35 52 67 53 47 54 66 55 48 56
REMARK SMILES IDX 51 57 65 58 84 59 49 60 50 61 64 63 85 64 52 65 36 66 37 67
REMARK SMILES IDX 45 68 38 69 44 70 46 71 43 72 39 73 40 74 41 75 42 76 68 77
REMARK SMILES IDX 69 78 77 79 70 80 76 81 78 82 75 83 71 84 72 85 73 86 74 87
REMARK SMILES IDX 53 88 54 89 62 90 55 91 61 92 63 93 60 94 56 95 57 96 58 97
REMARK SMILES IDX 59 98
REMARK H PARENT 4 22 6 26 6 27 83 51 51 62
REMARK Flexibility Score: inf
ROOT
ATOM      1  C   UNL     1       9.235   5.703  -6.715  1.00  0.00     0.202 C 
ENDROOT
BRANCH   1   2
ATOM      2  C   UNL     1       9.085   5.025  -5.354  1.00  0.00     0.261 C 
BRANCH   2   3
ATOM      3  O   UNL     1       7.894   4.232  -5.266  1.00  0.00    -0.460 OA
BRANCH   3   4
ATOM      4  C   UNL     1       6.920   4.760  -4.488  1.00  0.00     0.338 C 
ATOM      5  O   UNL     1       6.976   5.783  -3.827  1.00  0.00    -0.246 OA
BRANCH   4   6
ATOM      6  C   UNL     1       5.679   3.970  -4.623  1.00  0.00     0.060 A 
ATOM      7  C   UNL     1       3.330   2.542  -4.361  1.00  0.00     0.067 A 
ATOM      8  C   UNL     1       3.258   3.935  -4.443  1.00  0.00     0.029 A 
ATOM      9  C   UNL     1       4.536   1.861  -4.576  1.00  0.00     0.029 A 
ATOM     10  C   UNL     1       4.451   4.649  -4.547  1.00  0.00     0.018 A 
ATOM     11  C   UNL     1       5.718   2.578  -4.717  1.00  0.00     0.018 A 
BRANCH   7  12
ATOM     12  N   UNL     1       2.257   1.836  -3.782  1.00  0.00    -0.217 N 
ATOM     13  C   UNL     1       1.021   0.709  -2.390  1.00  0.00     0.132 A 
ATOM     14  N   UNL     1       0.217   1.251  -3.361  1.00  0.00    -0.128 NA
ATOM     15  C   UNL     1       2.321   1.121  -2.595  1.00  0.00     0.071 A 
ATOM     16  N   UNL     1       0.969   2.021  -4.140  1.00  0.00    -0.061 NA
ATOM     17  C   UNL     1       3.526   1.027  -1.735  1.00  0.00     0.069 C 
BRANCH  13  18
ATOM     18  C   UNL     1       0.492   0.011  -1.231  1.00  0.00     0.087 C 
ATOM     19  C   UNL     1       0.461   0.790   0.057  1.00  0.00     0.071 C 
ATOM     20  N   UNL     1       0.078  -1.200  -1.452  1.00  0.00    -0.176 NA
BRANCH  20  21
ATOM     21  N   UNL     1      -0.507  -1.978  -0.497  1.00  0.00    -0.254 N 
ATOM     22  H   UNL     1      -1.435  -2.247  -0.686  1.00  0.00     0.193 HD
BRANCH  21  23
ATOM     23  C   UNL     1       0.010  -2.443   0.695  1.00  0.00     0.184 C 
ATOM     24  S   UNL     1       1.462  -2.123   1.437  1.00  0.00    -0.040 S 
BRANCH  23  25
ATOM     25  N   UNL     1      -0.853  -3.303   1.324  1.00  0.00    -0.375 N 
ATOM     26  H   UNL     1      -1.722  -3.515   0.913  1.00  0.00     0.159 HD
ATOM     27  H   UNL     1      -0.604  -3.707   2.186  1.00  0.00     0.159 HD
ENDBRANCH  23  25
ENDBRANCH  21  23
ENDBRANCH  20  21
ENDBRANCH  13  18
ENDBRANCH   7  12
ENDBRANCH   4   6
ENDBRANCH   3   4
ENDBRANCH   2   3
ENDBRANCH   1   2
BRANCH   1  28
ATOM     28  O   UNL     1       8.256   6.663  -7.108  1.00  0.00    -0.374 OA
BRANCH  28  29
ATOM     29  C   UNL     1       6.926   6.256  -7.414  1.00  0.00     0.202 C 
BRANCH  29  30
ATOM     30  C   UNL     1       6.674   5.407  -8.652  1.00  0.00     0.261 C 
BRANCH  30  31
ATOM     31  O   UNL     1       7.364   4.171  -8.596  1.00  0.00    -0.460 OA
BRANCH  31  32
ATOM     32  C   UNL     1       8.479   4.133  -9.365  1.00  0.00     0.338 C 
ATOM     33  O   UNL     1       9.064   5.077  -9.858  1.00  0.00    -0.246 OA
BRANCH  32  34
ATOM     34  C   UNL     1       8.818   2.727  -9.608  1.00  0.00     0.060 A 
ATOM     35  C   UNL     1       9.801   2.505 -10.572  1.00  0.00     0.016 A 
ATOM     36  C   UNL     1       7.958   1.711  -9.163  1.00  0.00     0.016 A 
ATOM     37  C   UNL     1       9.718   1.349 -11.308  1.00  0.00     0.010 A 
ATOM     38  C   UNL     1       7.881   0.555  -9.896  1.00  0.00     0.010 A 
ATOM     39  C   UNL     1       8.678   0.453 -11.030  1.00  0.00    -0.014 A 
BRANCH  39  40
ATOM     40  C   UNL     1       8.473  -0.647 -11.941  1.00  0.00     0.031 A 
ATOM     41  C   UNL     1       9.555  -1.644 -11.849  1.00  0.00     0.074 A 
ATOM     42  C   UNL     1       7.384  -0.753 -12.726  1.00  0.00     0.049 A 
ATOM     43  N   UNL     1      10.510  -1.830 -12.694  1.00  0.00    -0.248 NA
ATOM     44  C   UNL     1       9.739  -2.339 -10.566  1.00  0.00     0.031 C 
ATOM     45  C   UNL     1       6.166   0.061 -12.737  1.00  0.00     0.029 A 
ATOM     46  N   UNL     1       7.116  -1.699 -13.661  1.00  0.00    -0.354 N 
ATOM     47  C   UNL     1      11.277  -2.854 -12.159  1.00  0.00     0.074 A 
ATOM     48  C   UNL     1      10.903  -2.953 -10.774  1.00  0.00     0.031 C 
ATOM     49  C   UNL     1       5.210  -0.572 -13.460  1.00  0.00     0.029 A 
ATOM     50  C   UNL     1       5.790  -1.756 -14.076  1.00  0.00     0.049 A 
ATOM     51  H   UNL     1       7.809  -2.300 -14.019  1.00  0.00     0.167 HD
ATOM     52  C   UNL     1      11.951  -3.710 -12.970  1.00  0.00     0.034 A 
ATOM     53  C   UNL     1       5.216  -2.748 -14.815  1.00  0.00     0.034 A 
ATOM     54  C   UNL     1      12.092  -3.163 -14.302  1.00  0.00     0.049 A 
ATOM     55  C   UNL     1       6.329  -3.424 -15.537  1.00  0.00     0.074 A 
ATOM     56  C   UNL     1      12.691  -2.028 -14.815  1.00  0.00     0.029 A 
ATOM     57  N   UNL     1      11.207  -3.583 -15.271  1.00  0.00    -0.354 N 
ATOM     58  N   UNL     1       7.044  -2.822 -16.451  1.00  0.00    -0.248 NA
ATOM     59  C   UNL     1       6.993  -4.546 -14.883  1.00  0.00     0.031 C 
ATOM     60  C   UNL     1      11.785  -1.552 -15.809  1.00  0.00     0.029 A 
ATOM     61  C   UNL     1      10.732  -2.464 -15.916  1.00  0.00     0.049 A 
ATOM     62  H   UNL     1      10.959  -4.516 -15.466  1.00  0.00     0.167 HD
ATOM     63  C   UNL     1       8.358  -3.183 -16.184  1.00  0.00     0.074 A 
ATOM     64  C   UNL     1       8.256  -4.313 -15.259  1.00  0.00     0.031 C 
ATOM     65  C   UNL     1       9.402  -2.355 -16.493  1.00  0.00     0.034 A 
BRANCH  52  66
ATOM     66  C   UNL     1      12.137  -5.175 -12.666  1.00  0.00     0.023 A 
ATOM     67  C   UNL     1      12.914  -5.926 -13.563  1.00  0.00     0.031 A 
ATOM     68  C   UNL     1      11.380  -5.919 -11.729  1.00  0.00     0.131 A 
ATOM     69  C   UNL     1      12.851  -7.330 -13.565  1.00  0.00     0.055 A 
ATOM     70  C   UNL     1      11.375  -7.313 -11.691  1.00  0.00     0.041 A 
ATOM     71  F   UNL     1      10.525  -5.354 -10.869  1.00  0.00    -0.206 F 
ATOM     72  C   UNL     1      12.088  -8.029 -12.633  1.00  0.00     0.022 A 
BRANCH  69  73
ATOM     73  S   UNL     1      13.643  -8.222 -14.925  1.00  0.00     0.124 S 
ATOM     74  O   UNL     1      13.071  -7.556 -16.091  1.00  0.00    -0.237 OA
ATOM     75  O   UNL     1      15.056  -7.968 -14.666  1.00  0.00    -0.237 OA
ATOM     76  O   UNL     1      13.209  -9.602 -14.721  1.00  0.00    -0.744 OA
ENDBRANCH  69  73
ENDBRANCH  52  66
BRANCH  53  77
ATOM     77  C   UNL     1       3.891  -3.386 -14.538  1.00  0.00     0.023 A 
ATOM     78  C   UNL     1       3.153  -4.123 -15.493  1.00  0.00     0.031 A 
ATOM     79  C   UNL     1       3.435  -3.460 -13.200  1.00  0.00     0.131 A 
ATOM     80  C   UNL     1       2.015  -4.874 -15.094  1.00  0.00     0.055 A 
ATOM     81  C   UNL     1       2.316  -4.202 -12.814  1.00  0.00     0.041 A 
ATOM     82  F   UNL     1       4.116  -2.875 -12.202  1.00  0.00    -0.206 F 
ATOM     83  C   UNL     1       1.604  -4.918 -13.760  1.00  0.00     0.022 A 
BRANCH  80  84
ATOM     84  S   UNL     1       1.069  -5.867 -16.302  1.00  0.00     0.124 S 
ATOM     85  O   UNL     1       0.562  -4.850 -17.216  1.00  0.00    -0.237 OA
ATOM     86  O   UNL     1       2.085  -6.768 -16.831  1.00  0.00    -0.237 OA
ATOM     87  O   UNL     1       0.043  -6.517 -15.483  1.00  0.00    -0.744 OA
ENDBRANCH  80  84
ENDBRANCH  53  77
BRANCH  65  88
ATOM     88  C   UNL     1       9.118  -1.128 -17.346  1.00  0.00     0.023 A 
ATOM     89  C   UNL     1       8.209  -0.094 -17.011  1.00  0.00     0.031 A 
ATOM     90  C   UNL     1       9.900  -0.951 -18.500  1.00  0.00     0.131 A 
ATOM     91  C   UNL     1       8.103   1.050 -17.831  1.00  0.00     0.055 A 
ATOM     92  C   UNL     1       9.810   0.192 -19.295  1.00  0.00     0.041 A 
ATOM     93  F   UNL     1      10.800  -1.881 -18.860  1.00  0.00    -0.206 F 
ATOM     94  C   UNL     1       8.906   1.194 -18.967  1.00  0.00     0.022 A 
BRANCH  91  95
ATOM     95  S   UNL     1       6.898   2.367 -17.453  1.00  0.00     0.124 S 
ATOM     96  O   UNL     1       5.659   1.637 -17.214  1.00  0.00    -0.237 OA
ATOM     97  O   UNL     1       7.494   3.017 -16.289  1.00  0.00    -0.237 OA
ATOM     98  O   UNL     1       6.896   3.185 -18.669  1.00  0.00    -0.744 OA
ENDBRANCH  91  95
ENDBRANCH  65  88
ENDBRANCH  39  40
ENDBRANCH  32  34
ENDBRANCH  31  32
ENDBRANCH  30  31
ENDBRANCH  29  30
ENDBRANCH  28  29
ENDBRANCH   1  28
TORSDOF 22
