REMARK SMILES COc1ccc([C@H]2CC(c3ccc(S(C)(=O)=O)cc3)=NN2c2ccc(C(=O)OCCOCCOC(=O)c3ccc(-c4c5nc(c(-c6cc(S(=O)(=O)[O-])ccc6F)c6ccc([nH]6)c(-c6cc(S(=O)(=O)[O-])ccc6F)c6nc(c(-c7cc(S(=O)(=O)[O-])ccc7F)c7ccc4[nH]7)C=C6)C=C5)cc3)cc2)cc1OC
REMARK SMILES IDX 31 1 30 2 29 3 28 4 26 5 27 6 25 7 22 8 23 9 101 10 24 11
REMARK SMILES IDX 100 12 21 13 7 14 8 15 9 16 20 17 6 18 3 19 4 20 103 21 5 22
REMARK SMILES IDX 102 23 2 24 1 25 104 26 105 27 10 28 11 29 19 30 12 31 18 32
REMARK SMILES IDX 13 33 14 34 15 35 16 36 17 37 32 38 33 39 34 40 35 41 36 42
REMARK SMILES IDX 37 43 38 44 99 45 39 46 98 47 40 48 41 49 42 50 92 51 43 52
REMARK SMILES IDX 97 53 91 54 93 55 44 56 96 57 90 58 89 59 45 61 77 62 57 63
REMARK SMILES IDX 76 64 58 65 61 66 75 67 94 68 59 69 60 70 74 72 95 73 62 74
REMARK SMILES IDX 46 75 47 76 55 77 48 78 54 79 56 80 53 81 49 82 50 83 51 84
REMARK SMILES IDX 52 85 78 86 79 87 87 88 80 89 86 90 88 91 85 92 81 93 82 94
REMARK SMILES IDX 83 95 84 96 63 97 64 98 72 99 65 100 71 101 73 102 70 103
REMARK SMILES IDX 66 104 67 105 68 106 69 107
REMARK H PARENT 93 60 61 71
REMARK Flexibility Score: inf
ROOT
ATOM      1  O   UNL     1       7.338   4.690  -8.219  1.00  0.00    -0.374 OA
ENDROOT
BRANCH   1   2
ATOM      2  C   UNL     1       6.394   3.817  -8.839  1.00  0.00     0.202 C 
BRANCH   2   3
ATOM      3  C   UNL     1       5.633   2.869  -7.907  1.00  0.00     0.261 C 
BRANCH   3   4
ATOM      4  O   UNL     1       4.858   3.587  -6.935  1.00  0.00    -0.460 OA
BRANCH   4   5
ATOM      5  C   UNL     1       5.378   3.582  -5.685  1.00  0.00     0.338 C 
ATOM      6  O   UNL     1       6.355   2.955  -5.298  1.00  0.00    -0.246 OA
BRANCH   5   7
ATOM      7  C   UNL     1       4.685   4.573  -4.834  1.00  0.00     0.060 A 
ATOM      8  C   UNL     1       3.450   6.282  -2.974  1.00  0.00     0.060 A 
ATOM      9  C   UNL     1       4.841   6.114  -2.978  1.00  0.00     0.029 A 
ATOM     10  C   UNL     1       2.706   5.668  -3.994  1.00  0.00     0.029 A 
ATOM     11  C   UNL     1       5.453   5.243  -3.878  1.00  0.00     0.018 A 
ATOM     12  C   UNL     1       3.316   4.826  -4.932  1.00  0.00     0.018 A 
BRANCH   8  13
ATOM     13  N   UNL     1       2.845   6.945  -1.916  1.00  0.00    -0.257 N 
ATOM     14  C   UNL     1       1.615   6.526  -1.229  1.00  0.00     0.144 C 
ATOM     15  C   UNL     1       1.724   7.297   0.092  1.00  0.00     0.091 C 
ATOM     16  C   UNL     1       2.697   8.360  -0.341  1.00  0.00     0.071 C 
ATOM     17  N   UNL     1       3.368   8.102  -1.420  1.00  0.00    -0.176 NA
BRANCH  14  18
ATOM     18  C   UNL     1       1.452   5.025  -1.046  1.00  0.00    -0.019 A 
ATOM     19  C   UNL     1       1.172   2.214  -0.984  1.00  0.00     0.160 A 
ATOM     20  C   UNL     1       0.074   3.033  -1.273  1.00  0.00     0.051 A 
ATOM     21  C   UNL     1       2.416   2.787  -0.698  1.00  0.00     0.161 A 
ATOM     22  C   UNL     1       0.210   4.425  -1.297  1.00  0.00     0.010 A 
ATOM     23  C   UNL     1       2.532   4.188  -0.708  1.00  0.00     0.056 A 
BRANCH  19  24
ATOM     24  O   UNL     1       1.026   0.858  -1.111  1.00  0.00    -0.493 OA
ATOM     25  C   UNL     1       0.191   0.301  -0.099  1.00  0.00     0.278 C 
ENDBRANCH  19  24
BRANCH  21  26
ATOM     26  O   UNL     1       3.599   2.159  -0.414  1.00  0.00    -0.493 OA
ATOM     27  C   UNL     1       3.619   0.741  -0.345  1.00  0.00     0.278 C 
ENDBRANCH  21  26
ENDBRANCH  14  18
BRANCH  16  28
ATOM     28  C   UNL     1       2.851   9.612   0.409  1.00  0.00    -0.002 A 
ATOM     29  C   UNL     1       2.643  10.816  -0.275  1.00  0.00     0.011 A 
ATOM     30  C   UNL     1       3.188   9.608   1.763  1.00  0.00     0.011 A 
ATOM     31  C   UNL     1       2.752  12.030   0.405  1.00  0.00     0.021 A 
ATOM     32  C   UNL     1       3.326  10.825   2.440  1.00  0.00     0.021 A 
ATOM     33  C   UNL     1       3.107  12.028   1.757  1.00  0.00     0.067 A 
BRANCH  33  34
ATOM     34  S   UNL     1       3.245  13.579   2.616  1.00  0.00     0.175 S 
ATOM     35  C   UNL     1       4.512  14.462   1.744  1.00  0.00     0.163 C 
ATOM     36  O   UNL     1       1.988  14.276   2.428  1.00  0.00    -0.224 OA
ATOM     37  O   UNL     1       3.750  13.300   3.949  1.00  0.00    -0.224 OA
ENDBRANCH  33  34
ENDBRANCH  16  28
ENDBRANCH   8  13
ENDBRANCH   5   7
ENDBRANCH   4   5
ENDBRANCH   3   4
ENDBRANCH   2   3
ENDBRANCH   1   2
BRANCH   1  38
ATOM     38  C   UNL     1       6.824   5.899  -7.655  1.00  0.00     0.202 C 
BRANCH  38  39
ATOM     39  C   UNL     1       6.520   7.034  -8.640  1.00  0.00     0.261 C 
BRANCH  39  40
ATOM     40  O   UNL     1       5.382   6.735  -9.470  1.00  0.00    -0.460 OA
BRANCH  40  41
ATOM     41  C   UNL     1       5.671   6.498 -10.771  1.00  0.00     0.338 C 
ATOM     42  O   UNL     1       6.766   6.593 -11.310  1.00  0.00    -0.246 OA
BRANCH  41  43
ATOM     43  C   UNL     1       4.499   5.911 -11.450  1.00  0.00     0.060 A 
ATOM     44  C   UNL     1       4.694   4.727 -12.174  1.00  0.00     0.016 A 
ATOM     45  C   UNL     1       3.247   6.530 -11.431  1.00  0.00     0.016 A 
ATOM     46  C   UNL     1       3.651   4.183 -12.922  1.00  0.00     0.010 A 
ATOM     47  C   UNL     1       2.204   5.987 -12.192  1.00  0.00     0.010 A 
ATOM     48  C   UNL     1       2.410   4.830 -12.966  1.00  0.00    -0.014 A 
BRANCH  48  49
ATOM     49  C   UNL     1       1.376   4.380 -13.932  1.00  0.00     0.031 A 
ATOM     50  C   UNL     1       1.214   5.135 -15.225  1.00  0.00     0.074 A 
ATOM     51  C   UNL     1       0.602   3.311 -13.667  1.00  0.00     0.049 A 
ATOM     52  N   UNL     1       0.338   4.965 -16.181  1.00  0.00    -0.248 NA
ATOM     53  C   UNL     1       2.165   6.231 -15.470  1.00  0.00     0.031 C 
ATOM     54  C   UNL     1       0.697   2.477 -12.469  1.00  0.00     0.029 A 
ATOM     55  N   UNL     1      -0.428   2.752 -14.382  1.00  0.00    -0.354 N 
ATOM     56  C   UNL     1       0.617   5.942 -17.130  1.00  0.00     0.074 A 
ATOM     57  C   UNL     1       1.735   6.712 -16.627  1.00  0.00     0.031 C 
ATOM     58  C   UNL     1      -0.251   1.526 -12.523  1.00  0.00     0.029 A 
ATOM     59  C   UNL     1      -1.047   1.706 -13.736  1.00  0.00     0.049 A 
ATOM     60  H   UNL     1      -0.699   3.069 -15.274  1.00  0.00     0.167 HD
ATOM     61  C   UNL     1      -0.004   6.175 -18.312  1.00  0.00     0.034 A 
ATOM     62  C   UNL     1      -2.148   1.000 -14.069  1.00  0.00     0.034 A 
ATOM     63  C   UNL     1      -1.109   5.391 -18.806  1.00  0.00     0.049 A 
ATOM     64  C   UNL     1      -2.860   1.323 -15.365  1.00  0.00     0.074 A 
ATOM     65  C   UNL     1      -1.774   5.511 -20.014  1.00  0.00     0.029 A 
ATOM     66  N   UNL     1      -1.722   4.355 -18.115  1.00  0.00    -0.354 N 
ATOM     67  N   UNL     1      -2.559   2.227 -16.270  1.00  0.00    -0.248 NA
ATOM     68  C   UNL     1      -4.052   0.527 -15.687  1.00  0.00     0.031 C 
ATOM     69  C   UNL     1      -2.836   4.601 -20.021  1.00  0.00     0.029 A 
ATOM     70  C   UNL     1      -2.784   3.856 -18.854  1.00  0.00     0.049 A 
ATOM     71  H   UNL     1      -1.444   4.023 -17.231  1.00  0.00     0.167 HD
ATOM     72  C   UNL     1      -3.504   2.077 -17.284  1.00  0.00     0.074 A 
ATOM     73  C   UNL     1      -4.373   0.991 -16.885  1.00  0.00     0.031 C 
ATOM     74  C   UNL     1      -3.640   2.769 -18.444  1.00  0.00     0.034 A 
BRANCH  61  75
ATOM     75  C   UNL     1       0.453   7.357 -19.128  1.00  0.00     0.023 A 
ATOM     76  C   UNL     1       1.715   7.399 -19.744  1.00  0.00     0.031 A 
ATOM     77  C   UNL     1      -0.408   8.454 -19.310  1.00  0.00     0.131 A 
ATOM     78  C   UNL     1       2.095   8.533 -20.479  1.00  0.00     0.055 A 
ATOM     79  C   UNL     1      -0.050   9.550 -20.095  1.00  0.00     0.041 A 
ATOM     80  F   UNL     1      -1.617   8.476 -18.726  1.00  0.00    -0.206 F 
ATOM     81  C   UNL     1       1.212   9.597 -20.678  1.00  0.00     0.022 A 
BRANCH  78  82
ATOM     82  S   UNL     1       3.797   8.641 -21.098  1.00  0.00     0.124 S 
ATOM     83  O   UNL     1       4.566   8.605 -19.856  1.00  0.00    -0.237 OA
ATOM     84  O   UNL     1       3.900   7.461 -21.948  1.00  0.00    -0.237 OA
ATOM     85  O   UNL     1       3.824   9.921 -21.803  1.00  0.00    -0.744 OA
ENDBRANCH  78  82
ENDBRANCH  61  75
BRANCH  62  86
ATOM     86  C   UNL     1      -2.698  -0.042 -13.151  1.00  0.00     0.023 A 
ATOM     87  C   UNL     1      -2.822  -1.380 -13.558  1.00  0.00     0.031 A 
ATOM     88  C   UNL     1      -3.200   0.308 -11.884  1.00  0.00     0.131 A 
ATOM     89  C   UNL     1      -3.494  -2.301 -12.739  1.00  0.00     0.055 A 
ATOM     90  C   UNL     1      -3.809  -0.628 -11.045  1.00  0.00     0.041 A 
ATOM     91  F   UNL     1      -3.114   1.573 -11.443  1.00  0.00    -0.206 F 
ATOM     92  C   UNL     1      -3.977  -1.938 -11.480  1.00  0.00     0.022 A 
BRANCH  89  93
ATOM     93  S   UNL     1      -3.849  -3.953 -13.402  1.00  0.00     0.124 S 
ATOM     94  O   UNL     1      -4.548  -3.631 -14.641  1.00  0.00    -0.237 OA
ATOM     95  O   UNL     1      -2.509  -4.513 -13.547  1.00  0.00    -0.237 OA
ATOM     96  O   UNL     1      -4.671  -4.567 -12.362  1.00  0.00    -0.744 OA
ENDBRANCH  89  93
ENDBRANCH  62  86
BRANCH  74  97
ATOM     97  C   UNL     1      -4.731   2.329 -19.389  1.00  0.00     0.023 A 
ATOM     98  C   UNL     1      -6.093   2.476 -19.073  1.00  0.00     0.031 A 
ATOM     99  C   UNL     1      -4.398   1.752 -20.628  1.00  0.00     0.131 A 
ATOM    100  C   UNL     1      -7.071   2.005 -19.962  1.00  0.00     0.055 A 
ATOM    101  C   UNL     1      -5.375   1.340 -21.534  1.00  0.00     0.041 A 
ATOM    102  F   UNL     1      -3.113   1.587 -20.981  1.00  0.00    -0.206 F 
ATOM    103  C   UNL     1      -6.721   1.454 -21.198  1.00  0.00     0.022 A 
BRANCH 100 104
ATOM    104  S   UNL     1      -8.810   2.046 -19.448  1.00  0.00     0.124 S 
ATOM    105  O   UNL     1      -8.789   1.229 -18.240  1.00  0.00    -0.237 OA
ATOM    106  O   UNL     1      -9.043   3.473 -19.248  1.00  0.00    -0.237 OA
ATOM    107  O   UNL     1      -9.518   1.457 -20.584  1.00  0.00    -0.744 OA
ENDBRANCH 100 104
ENDBRANCH  74  97
ENDBRANCH  48  49
ENDBRANCH  41  43
ENDBRANCH  40  41
ENDBRANCH  39  40
ENDBRANCH  38  39
ENDBRANCH   1  38
TORSDOF 23
