REMARK SMILES O=C(OCCOCCOC(=O)c1ccc(-n2cc(CSc3nc4ccccc4c(=O)n3-c3ccc(Br)cc3)nn2)cc1)c1ccc(-c2c3nc(c(-c4cc(S(=O)(=O)[O-])ccc4F)c4ccc([nH]4)c(-c4cc(S(=O)(=O)[O-])ccc4F)c4nc(c(-c5cc(S(=O)(=O)[O-])ccc5F)c5ccc2[nH]5)C=C4)C=C3)cc1
REMARK SMILES IDX 7 1 6 2 5 3 4 4 3 5 2 6 1 7 43 8 44 9 105 10 45 11 104 12
REMARK SMILES IDX 46 13 47 14 48 15 98 16 49 17 103 18 97 19 99 20 50 21
REMARK SMILES IDX 102 22 96 23 95 24 51 26 83 27 63 28 82 29 64 30 67 31 81 32
REMARK SMILES IDX 100 33 65 34 66 35 80 37 101 38 68 39 52 40 53 41 61 42
REMARK SMILES IDX 54 43 60 44 62 45 59 46 55 47 56 48 57 49 58 50 84 51 85 52
REMARK SMILES IDX 93 53 86 54 92 55 94 56 91 57 87 58 88 59 89 60 90 61 69 62
REMARK SMILES IDX 70 63 78 64 71 65 77 66 79 67 76 68 72 69 73 70 74 71 75 72
REMARK SMILES IDX 8 73 9 74 10 75 11 76 12 77 13 78 42 79 14 80 41 81 15 82
REMARK SMILES IDX 16 83 17 84 40 85 18 86 39 87 19 88 20 89 21 90 22 91 31 92
REMARK SMILES IDX 23 93 29 94 24 95 28 96 30 97 25 98 27 99 26 100 32 101
REMARK SMILES IDX 33 102 38 103 34 104 37 105 35 106 36 107
REMARK H PARENT 99 25 67 36
REMARK Flexibility Score: inf
ROOT
ATOM      1  C   UNL     1       3.041  -0.946  -1.791  1.00  0.00     0.202 C 
ENDROOT
BRANCH   1   2
ATOM      2  O   UNL     1       4.219  -0.294  -1.299  1.00  0.00    -0.374 OA
BRANCH   2   3
ATOM      3  C   UNL     1       4.817  -0.802  -0.113  1.00  0.00     0.202 C 
BRANCH   3   4
ATOM      4  C   UNL     1       4.468  -0.188   1.242  1.00  0.00     0.261 C 
BRANCH   4   5
ATOM      5  O   UNL     1       3.093  -0.388   1.597  1.00  0.00    -0.460 OA
BRANCH   5   6
ATOM      6  C   UNL     1       2.027   0.167   0.984  1.00  0.00     0.338 C 
ATOM      7  O   UNL     1       0.991  -0.486   0.866  1.00  0.00    -0.246 OA
BRANCH   6   8
ATOM      8  C   UNL     1       2.014   1.611   0.636  1.00  0.00     0.060 A 
ATOM      9  C   UNL     1       3.134   2.426   0.469  1.00  0.00     0.016 A 
ATOM     10  C   UNL     1       0.737   2.192   0.597  1.00  0.00     0.016 A 
ATOM     11  C   UNL     1       3.009   3.794   0.602  1.00  0.00     0.010 A 
ATOM     12  C   UNL     1       0.598   3.562   0.647  1.00  0.00     0.010 A 
ATOM     13  C   UNL     1       1.741   4.342   0.770  1.00  0.00    -0.014 A 
BRANCH  13  14
ATOM     14  C   UNL     1       1.629   5.780   0.919  1.00  0.00     0.031 A 
ATOM     15  C   UNL     1       2.103   6.514  -0.280  1.00  0.00     0.074 A 
ATOM     16  C   UNL     1       1.043   6.341   1.995  1.00  0.00     0.049 A 
ATOM     17  N   UNL     1       3.147   7.266  -0.382  1.00  0.00    -0.248 NA
ATOM     18  C   UNL     1       1.474   6.197  -1.575  1.00  0.00     0.031 C 
ATOM     19  C   UNL     1       0.358   5.673   3.105  1.00  0.00     0.029 A 
ATOM     20  N   UNL     1       0.843   7.654   2.276  1.00  0.00    -0.354 N 
ATOM     21  C   UNL     1       3.147   7.731  -1.692  1.00  0.00     0.074 A 
ATOM     22  C   UNL     1       2.257   6.870  -2.419  1.00  0.00     0.031 C 
ATOM     23  C   UNL     1      -0.390   6.576   3.780  1.00  0.00     0.029 A 
ATOM     24  C   UNL     1      -0.137   7.901   3.236  1.00  0.00     0.049 A 
ATOM     25  H   UNL     1       1.349   8.375   1.837  1.00  0.00     0.167 HD
ATOM     26  C   UNL     1       3.661   8.954  -1.997  1.00  0.00     0.034 A 
ATOM     27  C   UNL     1      -0.742   9.095   3.496  1.00  0.00     0.034 A 
ATOM     28  C   UNL     1       4.518   9.430  -0.935  1.00  0.00     0.049 A 
ATOM     29  C   UNL     1       0.164  10.148   2.962  1.00  0.00     0.074 A 
ATOM     30  C   UNL     1       5.675   8.958  -0.345  1.00  0.00     0.029 A 
ATOM     31  N   UNL     1       3.996  10.348  -0.051  1.00  0.00    -0.354 N 
ATOM     32  N   UNL     1       1.355  10.373   3.452  1.00  0.00    -0.248 NA
ATOM     33  C   UNL     1      -0.018  10.563   1.576  1.00  0.00     0.031 C 
ATOM     34  C   UNL     1       5.509   9.225   1.046  1.00  0.00     0.029 A 
ATOM     35  C   UNL     1       4.317   9.933   1.219  1.00  0.00     0.049 A 
ATOM     36  H   UNL     1       3.486  11.156  -0.286  1.00  0.00     0.167 HD
ATOM     37  C   UNL     1       2.178  10.533   2.346  1.00  0.00     0.074 A 
ATOM     38  C   UNL     1       1.262  10.718   1.218  1.00  0.00     0.031 C 
ATOM     39  C   UNL     1       3.502  10.197   2.391  1.00  0.00     0.034 A 
BRANCH  26  40
ATOM     40  C   UNL     1       3.080   9.887  -3.036  1.00  0.00     0.023 A 
ATOM     41  C   UNL     1       3.728  11.124  -3.211  1.00  0.00     0.031 A 
ATOM     42  C   UNL     1       1.796   9.777  -3.619  1.00  0.00     0.131 A 
ATOM     43  C   UNL     1       3.066  12.204  -3.818  1.00  0.00     0.055 A 
ATOM     44  C   UNL     1       1.170  10.834  -4.283  1.00  0.00     0.041 A 
ATOM     45  F   UNL     1       1.032   8.686  -3.501  1.00  0.00    -0.206 F 
ATOM     46  C   UNL     1       1.789  12.068  -4.355  1.00  0.00     0.022 A 
BRANCH  43  47
ATOM     47  S   UNL     1       3.834  13.839  -3.722  1.00  0.00     0.124 S 
ATOM     48  O   UNL     1       4.006  13.997  -2.282  1.00  0.00    -0.237 OA
ATOM     49  O   UNL     1       5.054  13.644  -4.500  1.00  0.00    -0.237 OA
ATOM     50  O   UNL     1       2.839  14.717  -4.334  1.00  0.00    -0.744 OA
ENDBRANCH  43  47
ENDBRANCH  26  40
BRANCH  27  51
ATOM     51  C   UNL     1      -2.193   9.319   3.792  1.00  0.00     0.023 A 
ATOM     52  C   UNL     1      -2.702  10.510   4.363  1.00  0.00     0.031 A 
ATOM     53  C   UNL     1      -3.152   8.414   3.282  1.00  0.00     0.131 A 
ATOM     54  C   UNL     1      -4.102  10.743   4.409  1.00  0.00     0.055 A 
ATOM     55  C   UNL     1      -4.528   8.649   3.329  1.00  0.00     0.041 A 
ATOM     56  F   UNL     1      -2.781   7.297   2.637  1.00  0.00    -0.206 F 
ATOM     57  C   UNL     1      -5.010   9.820   3.886  1.00  0.00     0.022 A 
BRANCH  54  58
ATOM     58  S   UNL     1      -4.778  12.300   5.087  1.00  0.00     0.124 S 
ATOM     59  O   UNL     1      -4.452  12.191   6.503  1.00  0.00    -0.237 OA
ATOM     60  O   UNL     1      -4.056  13.314   4.329  1.00  0.00    -0.237 OA
ATOM     61  O   UNL     1      -6.208  12.214   4.781  1.00  0.00    -0.744 OA
ENDBRANCH  54  58
ENDBRANCH  27  51
BRANCH  39  62
ATOM     62  C   UNL     1       4.130   9.896   3.740  1.00  0.00     0.023 A 
ATOM     63  C   UNL     1       3.715   8.877   4.630  1.00  0.00     0.031 A 
ATOM     64  C   UNL     1       5.299  10.607   4.066  1.00  0.00     0.131 A 
ATOM     65  C   UNL     1       4.462   8.614   5.798  1.00  0.00     0.055 A 
ATOM     66  C   UNL     1       6.046  10.328   5.208  1.00  0.00     0.041 A 
ATOM     67  F   UNL     1       5.760  11.568   3.249  1.00  0.00    -0.206 F 
ATOM     68  C   UNL     1       5.627   9.334   6.082  1.00  0.00     0.022 A 
BRANCH  65  69
ATOM     69  S   UNL     1       3.925   7.342   6.990  1.00  0.00     0.124 S 
ATOM     70  O   UNL     1       2.506   7.622   7.172  1.00  0.00    -0.237 OA
ATOM     71  O   UNL     1       4.249   6.100   6.292  1.00  0.00    -0.237 OA
ATOM     72  O   UNL     1       4.755   7.608   8.167  1.00  0.00    -0.744 OA
ENDBRANCH  65  69
ENDBRANCH  39  62
ENDBRANCH  13  14
ENDBRANCH   6   8
ENDBRANCH   5   6
ENDBRANCH   4   5
ENDBRANCH   3   4
ENDBRANCH   2   3
ENDBRANCH   1   2
BRANCH   1  73
ATOM     73  C   UNL     1       3.097  -2.411  -2.265  1.00  0.00     0.261 C 
BRANCH  73  74
ATOM     74  O   UNL     1       3.446  -3.340  -1.223  1.00  0.00    -0.460 OA
BRANCH  74  75
ATOM     75  C   UNL     1       4.708  -3.842  -1.305  1.00  0.00     0.338 C 
ATOM     76  O   UNL     1       5.497  -3.713  -2.212  1.00  0.00    -0.246 OA
BRANCH  75  77
ATOM     77  C   UNL     1       5.083  -4.398   0.015  1.00  0.00     0.060 A 
ATOM     78  C   UNL     1       6.157  -3.797   0.694  1.00  0.00     0.018 A 
ATOM     79  C   UNL     1       4.430  -5.505   0.552  1.00  0.00     0.018 A 
ATOM     80  C   UNL     1       6.584  -4.288   1.922  1.00  0.00     0.029 A 
ATOM     81  C   UNL     1       4.926  -6.069   1.730  1.00  0.00     0.029 A 
ATOM     82  C   UNL     1       6.012  -5.465   2.397  1.00  0.00     0.066 A 
BRANCH  82  83
ATOM     83  N   UNL     1       6.718  -6.175   3.384  1.00  0.00    -0.220 N 
ATOM     84  C   UNL     1       7.118  -7.476   3.241  1.00  0.00     0.141 A 
ATOM     85  N   UNL     1       7.346  -5.626   4.444  1.00  0.00    -0.062 NA
ATOM     86  C   UNL     1       8.031  -7.700   4.243  1.00  0.00     0.093 A 
ATOM     87  N   UNL     1       8.090  -6.570   5.018  1.00  0.00    -0.134 NA
BRANCH  86  88
ATOM     88  C   UNL     1       8.672  -8.971   4.642  1.00  0.00     0.138 C 
BRANCH  88  89
ATOM     89  S   UNL     1      10.292  -9.501   4.087  1.00  0.00    -0.081 SA
BRANCH  89  90
ATOM     90  C   UNL     1      10.830  -8.777   2.595  1.00  0.00     0.176 A 
ATOM     91  N   UNL     1      12.124  -8.621   2.564  1.00  0.00    -0.223 NA
ATOM     92  N   UNL     1      10.040  -8.400   1.522  1.00  0.00    -0.255 N 
ATOM     93  C   UNL     1      12.688  -7.926   1.486  1.00  0.00     0.079 A 
ATOM     94  C   UNL     1      10.453  -7.213   0.903  1.00  0.00     0.266 A 
ATOM     95  C   UNL     1      14.053  -8.001   1.205  1.00  0.00     0.029 A 
ATOM     96  C   UNL     1      11.905  -7.056   0.743  1.00  0.00     0.066 A 
ATOM     97  O   UNL     1       9.716  -6.323   0.485  1.00  0.00    -0.268 OA
ATOM     98  C   UNL     1      14.621  -7.159   0.240  1.00  0.00     0.002 A 
ATOM     99  C   UNL     1      12.462  -6.165  -0.178  1.00  0.00     0.016 A 
ATOM    100  C   UNL     1      13.833  -6.213  -0.421  1.00  0.00     0.001 A 
BRANCH  92 101
ATOM    101  C   UNL     1       8.877  -9.079   0.994  1.00  0.00     0.051 A 
ATOM    102  C   UNL     1       8.322  -8.663  -0.236  1.00  0.00     0.028 A 
ATOM    103  C   UNL     1       8.238 -10.159   1.611  1.00  0.00     0.028 A 
ATOM    104  C   UNL     1       7.069  -9.099  -0.676  1.00  0.00     0.018 A 
ATOM    105  C   UNL     1       6.946 -10.553   1.224  1.00  0.00     0.018 A 
ATOM    106  C   UNL     1       6.348  -9.981   0.108  1.00  0.00     0.018 A 
ATOM    107  Br  UNL     1       4.551 -10.364  -0.314  1.00  0.00    -0.051 Br
ENDBRANCH  92 101
ENDBRANCH  89  90
ENDBRANCH  88  89
ENDBRANCH  86  88
ENDBRANCH  82  83
ENDBRANCH  75  77
ENDBRANCH  74  75
ENDBRANCH  73  74
ENDBRANCH   1  73
TORSDOF 22
