REMARK SMILES C[C@H](CCCO)Nc1ccc2c(C(=O)OCCOCCOC(=O)c3ccc(-c4c5nc(c(-c6cc(S(=O)(=O)[O-])ccc6F)c6ccc([nH]6)c(-c6cc(S(=O)(=O)[O-])ccc6F)c6nc(c(-c7cc(S(=O)(=O)[O-])ccc7F)c7ccc4[nH]7)C=C6)C=C5)cc3)cccc2n1
REMARK SMILES IDX 16 1 15 2 13 3 14 4 12 5 8 6 9 7 91 8 10 9 90 10 11 11 89 12
REMARK SMILES IDX 88 13 87 14 7 15 2 17 1 18 3 19 4 20 5 21 6 22 17 24 18 25
REMARK SMILES IDX 19 26 20 27 21 28 22 29 23 30 24 31 25 32 86 33 26 34 85 35
REMARK SMILES IDX 27 36 28 37 29 38 79 39 30 40 84 41 78 42 80 43 31 44 83 45
REMARK SMILES IDX 77 46 76 47 32 49 64 50 44 51 63 52 45 53 48 54 62 55 81 56
REMARK SMILES IDX 46 57 47 58 61 60 82 61 49 62 33 63 34 64 42 65 35 66 41 67
REMARK SMILES IDX 43 68 40 69 36 70 37 71 38 72 39 73 65 74 66 75 74 76 67 77
REMARK SMILES IDX 73 78 75 79 72 80 68 81 69 82 70 83 71 84 50 85 51 86 59 87
REMARK SMILES IDX 52 88 58 89 60 90 57 91 53 92 54 93 55 94 56 95
REMARK H PARENT 7 16 6 23 80 48 48 59
REMARK Flexibility Score: inf
ROOT
ATOM      1  C   UNL     1      -6.277   0.645   6.993  1.00  0.00     0.261 C 
ENDROOT
BRANCH   1   2
ATOM      2  O   UNL     1      -5.245   1.599   6.695  1.00  0.00    -0.460 OA
BRANCH   2   3
ATOM      3  C   UNL     1      -4.104   1.070   6.203  1.00  0.00     0.338 C 
ATOM      4  O   UNL     1      -3.788  -0.113   6.181  1.00  0.00    -0.246 OA
BRANCH   3   5
ATOM      5  C   UNL     1      -3.313   2.127   5.540  1.00  0.00     0.069 A 
ATOM      6  C   UNL     1      -1.727   1.618   1.696  1.00  0.00     0.126 A 
ATOM      7  C   UNL     1      -2.704   0.729   2.105  1.00  0.00     0.047 A 
ATOM      8  N   UNL     1      -1.367   2.671   2.457  1.00  0.00    -0.231 NA
ATOM      9  C   UNL     1      -3.251   0.870   3.373  1.00  0.00     0.015 A 
ATOM     10  C   UNL     1      -1.939   2.847   3.662  1.00  0.00     0.073 A 
ATOM     11  C   UNL     1      -2.849   1.928   4.212  1.00  0.00     0.015 A 
ATOM     12  C   UNL     1      -1.613   3.980   4.399  1.00  0.00     0.029 A 
ATOM     13  C   UNL     1      -2.144   4.222   5.669  1.00  0.00     0.003 A 
ATOM     14  C   UNL     1      -2.986   3.284   6.253  1.00  0.00     0.016 A 
BRANCH   6  15
ATOM     15  N   UNL     1      -1.035   1.342   0.534  1.00  0.00    -0.368 N 
ATOM     16  H   UNL     1      -1.501   0.926  -0.227  1.00  0.00     0.162 HD
BRANCH  15  17
ATOM     17  C   UNL     1       0.379   1.663   0.429  1.00  0.00     0.077 C 
ATOM     18  C   UNL     1       0.535   2.927  -0.405  1.00  0.00     0.031 C 
BRANCH  17  19
ATOM     19  C   UNL     1       1.109   0.385  -0.059  1.00  0.00     0.027 C 
BRANCH  19  20
ATOM     20  C   UNL     1       1.893   0.417  -1.373  1.00  0.00     0.030 C 
BRANCH  20  21
ATOM     21  C   UNL     1       3.200   1.203  -1.367  1.00  0.00     0.156 C 
BRANCH  21  22
ATOM     22  O   UNL     1       4.014   0.862  -0.257  1.00  0.00    -0.396 OA
ATOM     23  H   UNL     1       3.544   1.074   0.565  1.00  0.00     0.210 HD
ENDBRANCH  21  22
ENDBRANCH  20  21
ENDBRANCH  19  20
ENDBRANCH  17  19
ENDBRANCH  15  17
ENDBRANCH   6  15
ENDBRANCH   3   5
ENDBRANCH   2   3
ENDBRANCH   1   2
BRANCH   1  24
ATOM     24  C   UNL     1      -7.539   0.940   6.178  1.00  0.00     0.202 C 
BRANCH  24  25
ATOM     25  O   UNL     1      -7.397   0.881   4.757  1.00  0.00    -0.374 OA
BRANCH  25  26
ATOM     26  C   UNL     1      -6.799   2.006   4.111  1.00  0.00     0.202 C 
BRANCH  26  27
ATOM     27  C   UNL     1      -7.665   3.258   3.925  1.00  0.00     0.261 C 
BRANCH  27  28
ATOM     28  O   UNL     1      -8.049   3.855   5.176  1.00  0.00    -0.460 OA
BRANCH  28  29
ATOM     29  C   UNL     1      -9.360   3.705   5.485  1.00  0.00     0.338 C 
ATOM     30  O   UNL     1     -10.222   3.193   4.784  1.00  0.00    -0.246 OA
BRANCH  29  31
ATOM     31  C   UNL     1      -9.603   4.076   6.892  1.00  0.00     0.060 A 
ATOM     32  C   UNL     1     -10.313   3.162   7.679  1.00  0.00     0.016 A 
ATOM     33  C   UNL     1      -9.213   5.311   7.418  1.00  0.00     0.016 A 
ATOM     34  C   UNL     1     -10.691   3.502   8.975  1.00  0.00     0.010 A 
ATOM     35  C   UNL     1      -9.599   5.653   8.721  1.00  0.00     0.010 A 
ATOM     36  C   UNL     1     -10.373   4.765   9.491  1.00  0.00    -0.014 A 
BRANCH  36  37
ATOM     37  C   UNL     1     -10.992   5.192  10.771  1.00  0.00     0.031 A 
ATOM     38  C   UNL     1     -12.208   6.079  10.733  1.00  0.00     0.074 A 
ATOM     39  C   UNL     1     -10.527   4.728  11.946  1.00  0.00     0.049 A 
ATOM     40  N   UNL     1     -12.935   6.537  11.720  1.00  0.00    -0.248 NA
ATOM     41  C   UNL     1     -12.666   6.504   9.401  1.00  0.00     0.031 C 
ATOM     42  C   UNL     1      -9.387   3.825  12.103  1.00  0.00     0.029 A 
ATOM     43  N   UNL     1     -10.965   4.941  13.229  1.00  0.00    -0.354 N 
ATOM     44  C   UNL     1     -13.943   7.293  11.130  1.00  0.00     0.074 A 
ATOM     45  C   UNL     1     -13.701   7.274   9.703  1.00  0.00     0.031 C 
ATOM     46  C   UNL     1      -9.221   3.556  13.409  1.00  0.00     0.029 A 
ATOM     47  C   UNL     1     -10.220   4.290  14.184  1.00  0.00     0.049 A 
ATOM     48  H   UNL     1     -11.741   5.508  13.445  1.00  0.00     0.167 HD
ATOM     49  C   UNL     1     -14.984   7.930  11.722  1.00  0.00     0.034 A 
ATOM     50  C   UNL     1     -10.326   4.296  15.528  1.00  0.00     0.034 A 
ATOM     51  C   UNL     1     -15.205   7.955  13.148  1.00  0.00     0.049 A 
ATOM     52  C   UNL     1     -11.440   5.091  16.169  1.00  0.00     0.074 A 
ATOM     53  C   UNL     1     -16.220   8.578  13.854  1.00  0.00     0.029 A 
ATOM     54  N   UNL     1     -14.392   7.336  14.089  1.00  0.00    -0.354 N 
ATOM     55  N   UNL     1     -12.388   5.799  15.597  1.00  0.00    -0.248 NA
ATOM     56  C   UNL     1     -11.504   5.075  17.636  1.00  0.00     0.031 C 
ATOM     57  C   UNL     1     -15.984   8.392  15.221  1.00  0.00     0.029 A 
ATOM     58  C   UNL     1     -14.867   7.586  15.368  1.00  0.00     0.049 A 
ATOM     59  H   UNL     1     -13.595   6.797  13.879  1.00  0.00     0.167 HD
ATOM     60  C   UNL     1     -13.181   6.280  16.637  1.00  0.00     0.074 A 
ATOM     61  C   UNL     1     -12.610   5.766  17.865  1.00  0.00     0.031 C 
ATOM     62  C   UNL     1     -14.283   7.073  16.585  1.00  0.00     0.034 A 
BRANCH  49  63
ATOM     63  C   UNL     1     -15.935   8.684  10.824  1.00  0.00     0.023 A 
ATOM     64  C   UNL     1     -16.737   8.024   9.876  1.00  0.00     0.031 A 
ATOM     65  C   UNL     1     -16.027  10.085  10.902  1.00  0.00     0.131 A 
ATOM     66  C   UNL     1     -17.546   8.768   9.003  1.00  0.00     0.055 A 
ATOM     67  C   UNL     1     -16.892  10.814  10.083  1.00  0.00     0.041 A 
ATOM     68  F   UNL     1     -15.270  10.773  11.772  1.00  0.00    -0.206 F 
ATOM     69  C   UNL     1     -17.648  10.156   9.117  1.00  0.00     0.022 A 
BRANCH  66  70
ATOM     70  S   UNL     1     -18.365   7.908   7.632  1.00  0.00     0.124 S 
ATOM     71  O   UNL     1     -17.223   7.350   6.911  1.00  0.00    -0.237 OA
ATOM     72  O   UNL     1     -19.216   6.947   8.324  1.00  0.00    -0.237 OA
ATOM     73  O   UNL     1     -19.073   8.977   6.931  1.00  0.00    -0.744 OA
ENDBRANCH  66  70
ENDBRANCH  49  63
BRANCH  50  74
ATOM     74  C   UNL     1      -9.345   3.555  16.375  1.00  0.00     0.023 A 
ATOM     75  C   UNL     1      -9.758   2.518  17.227  1.00  0.00     0.031 A 
ATOM     76  C   UNL     1      -7.990   3.930  16.404  1.00  0.00     0.131 A 
ATOM     77  C   UNL     1      -8.841   1.934  18.114  1.00  0.00     0.055 A 
ATOM     78  C   UNL     1      -7.069   3.305  17.246  1.00  0.00     0.041 A 
ATOM     79  F   UNL     1      -7.540   4.917  15.613  1.00  0.00    -0.206 F 
ATOM     80  C   UNL     1      -7.497   2.311  18.121  1.00  0.00     0.022 A 
BRANCH  77  81
ATOM     81  S   UNL     1      -9.456   0.748  19.342  1.00  0.00     0.124 S 
ATOM     82  O   UNL     1     -10.478   1.532  20.026  1.00  0.00    -0.237 OA
ATOM     83  O   UNL     1      -9.939  -0.338  18.496  1.00  0.00    -0.237 OA
ATOM     84  O   UNL     1      -8.270   0.437  20.137  1.00  0.00    -0.744 OA
ENDBRANCH  77  81
ENDBRANCH  50  74
BRANCH  62  85
ATOM     85  C   UNL     1     -14.964   7.384  17.897  1.00  0.00     0.023 A 
ATOM     86  C   UNL     1     -14.336   8.149  18.895  1.00  0.00     0.031 A 
ATOM     87  C   UNL     1     -16.251   6.882  18.162  1.00  0.00     0.131 A 
ATOM     88  C   UNL     1     -14.964   8.331  20.137  1.00  0.00     0.055 A 
ATOM     89  C   UNL     1     -16.898   7.122  19.375  1.00  0.00     0.041 A 
ATOM     90  F   UNL     1     -16.899   6.145  17.246  1.00  0.00    -0.206 F 
ATOM     91  C   UNL     1     -16.248   7.835  20.377  1.00  0.00     0.022 A 
BRANCH  88  92
ATOM     92  S   UNL     1     -14.033   9.129  21.474  1.00  0.00     0.124 S 
ATOM     93  O   UNL     1     -12.854   8.276  21.575  1.00  0.00    -0.237 OA
ATOM     94  O   UNL     1     -13.808  10.468  20.941  1.00  0.00    -0.237 OA
ATOM     95  O   UNL     1     -14.946   9.062  22.614  1.00  0.00    -0.744 OA
ENDBRANCH  88  92
ENDBRANCH  62  85
ENDBRANCH  36  37
ENDBRANCH  29  31
ENDBRANCH  28  29
ENDBRANCH  27  28
ENDBRANCH  26  27
ENDBRANCH  25  26
ENDBRANCH  24  25
ENDBRANCH   1  24
TORSDOF 23
