REMARK SMILES COCC[C@@H](C)NC(=O)N1Cc2nc[nH]c2C[C@@H]1C(=O)OCCOCCOC(=O)c1ccc(-c2c3nc(c(-c4cc(S(=O)(=O)[O-])ccc4F)c4ccc([nH]4)c(-c4cc(S(=O)(=O)[O-])ccc4F)c4nc(c(-c5cc(S(=O)(=O)[O-])ccc5F)c5ccc2[nH]5)C=C4)C=C3)cc1
REMARK SMILES IDX 23 1 22 2 21 3 19 4 20 5 18 6 10 7 11 8 12 9 17 10 13 11
REMARK SMILES IDX 16 12 14 13 15 14 8 16 7 17 9 19 5 20 6 21 4 22 3 23 2 24
REMARK SMILES IDX 1 25 24 26 25 27 26 28 27 29 28 30 29 31 30 32 31 33 92 34
REMARK SMILES IDX 32 35 91 36 33 37 34 38 35 39 85 40 36 41 90 42 84 43 86 44
REMARK SMILES IDX 37 45 89 46 83 47 82 48 38 50 70 51 50 52 69 53 51 54 54 55
REMARK SMILES IDX 68 56 87 57 52 58 53 59 67 61 88 62 55 63 39 64 40 65 48 66
REMARK SMILES IDX 41 67 47 68 49 69 46 70 42 71 43 72 44 73 45 74 71 75 72 76
REMARK SMILES IDX 80 77 73 78 79 79 81 80 78 81 74 82 75 83 76 84 77 85 56 86
REMARK SMILES IDX 57 87 65 88 58 89 64 90 66 91 63 92 59 93 60 94 61 95 62 96
REMARK H PARENT 15 15 7 18 86 49 54 60
REMARK Flexibility Score: inf
ROOT
ATOM      1  C   UNL     1       4.360  -1.074   2.233  1.00  0.00     0.202 C 
ENDROOT
BRANCH   1   2
ATOM      2  C   UNL     1       4.165  -2.026   1.037  1.00  0.00     0.261 C 
BRANCH   2   3
ATOM      3  O   UNL     1       2.788  -2.311   0.686  1.00  0.00    -0.462 OA
BRANCH   3   4
ATOM      4  C   UNL     1       2.168  -3.394   1.248  1.00  0.00     0.329 C 
ATOM      5  O   UNL     1       2.688  -4.147   2.058  1.00  0.00    -0.250 OA
BRANCH   4   6
ATOM      6  C   UNL     1       0.744  -3.548   0.656  1.00  0.00     0.203 C 
ATOM      7  N   UNL     1      -0.403  -3.470   1.619  1.00  0.00    -0.305 N 
ATOM      8  C   UNL     1      -1.764  -3.715   1.107  1.00  0.00     0.180 C 
ATOM      9  C   UNL     1      -1.751  -4.868   0.180  1.00  0.00     0.081 A 
ATOM     10  C   UNL     1       0.769  -4.920  -0.107  1.00  0.00     0.093 C 
ATOM     11  N   UNL     1      -2.856  -5.565  -0.231  1.00  0.00    -0.240 NA
ATOM     12  C   UNL     1      -0.610  -5.392  -0.378  1.00  0.00     0.042 A 
ATOM     13  C   UNL     1      -2.384  -6.530  -0.990  1.00  0.00     0.197 A 
ATOM     14  N   UNL     1      -1.020  -6.466  -1.110  1.00  0.00    -0.348 N 
ATOM     15  H   UNL     1      -0.447  -7.078  -1.626  1.00  0.00     0.167 HD
BRANCH   7  16
ATOM     16  C   UNL     1      -0.390  -2.708   2.754  1.00  0.00     0.318 C 
ATOM     17  N   UNL     1      -0.592  -1.367   2.636  1.00  0.00    -0.335 N 
ATOM     18  H   UNL     1      -0.963  -0.915   3.428  1.00  0.00     0.165 HD
ATOM     19  O   UNL     1      -0.344  -3.217   3.871  1.00  0.00    -0.249 OA
BRANCH  17  20
ATOM     20  C   UNL     1      -0.327  -0.519   1.479  1.00  0.00     0.083 C 
ATOM     21  C   UNL     1       1.124  -0.090   1.562  1.00  0.00     0.031 C 
BRANCH  20  22
ATOM     22  C   UNL     1      -1.251   0.692   1.388  1.00  0.00     0.053 C 
BRANCH  22  23
ATOM     23  C   UNL     1      -0.828   1.679   0.292  1.00  0.00     0.162 C 
BRANCH  23  24
ATOM     24  O   UNL     1      -0.960   1.110  -1.012  1.00  0.00    -0.385 OA
ATOM     25  C   UNL     1       0.249   0.640  -1.593  1.00  0.00     0.194 C 
ENDBRANCH  23  24
ENDBRANCH  22  23
ENDBRANCH  20  22
ENDBRANCH  17  20
ENDBRANCH   7  16
ENDBRANCH   4   6
ENDBRANCH   3   4
ENDBRANCH   2   3
ENDBRANCH   1   2
BRANCH   1  26
ATOM     26  O   UNL     1       4.411  -1.764   3.478  1.00  0.00    -0.374 OA
BRANCH  26  27
ATOM     27  C   UNL     1       3.224  -1.741   4.272  1.00  0.00     0.202 C 
BRANCH  27  28
ATOM     28  C   UNL     1       3.067  -0.473   5.114  1.00  0.00     0.261 C 
BRANCH  28  29
ATOM     29  O   UNL     1       2.439   0.588   4.383  1.00  0.00    -0.460 OA
BRANCH  29  30
ATOM     30  C   UNL     1       3.120   1.740   4.201  1.00  0.00     0.338 C 
ATOM     31  O   UNL     1       4.337   1.887   4.268  1.00  0.00    -0.246 OA
BRANCH  30  32
ATOM     32  C   UNL     1       2.145   2.825   3.923  1.00  0.00     0.060 A 
ATOM     33  C   UNL     1       2.586   4.128   3.686  1.00  0.00     0.016 A 
ATOM     34  C   UNL     1       0.768   2.554   3.931  1.00  0.00     0.016 A 
ATOM     35  C   UNL     1       1.646   5.147   3.517  1.00  0.00     0.010 A 
ATOM     36  C   UNL     1      -0.158   3.550   3.684  1.00  0.00     0.010 A 
ATOM     37  C   UNL     1       0.267   4.863   3.545  1.00  0.00    -0.014 A 
BRANCH  37  38
ATOM     38  C   UNL     1      -0.716   5.939   3.365  1.00  0.00     0.031 A 
ATOM     39  C   UNL     1      -0.470   6.795   2.182  1.00  0.00     0.074 A 
ATOM     40  C   UNL     1      -1.831   6.123   4.110  1.00  0.00     0.049 A 
ATOM     41  N   UNL     1       0.098   7.954   2.167  1.00  0.00    -0.248 NA
ATOM     42  C   UNL     1      -0.710   6.234   0.845  1.00  0.00     0.031 C 
ATOM     43  C   UNL     1      -2.379   5.222   5.131  1.00  0.00     0.029 A 
ATOM     44  N   UNL     1      -2.760   7.131   4.070  1.00  0.00    -0.354 N 
ATOM     45  C   UNL     1      -0.004   8.401   0.855  1.00  0.00     0.074 A 
ATOM     46  C   UNL     1      -0.264   7.226   0.070  1.00  0.00     0.031 C 
ATOM     47  C   UNL     1      -3.634   5.604   5.455  1.00  0.00     0.029 A 
ATOM     48  C   UNL     1      -3.908   6.881   4.819  1.00  0.00     0.049 A 
ATOM     49  H   UNL     1      -2.627   7.961   3.556  1.00  0.00     0.167 HD
ATOM     50  C   UNL     1      -0.195   9.727   0.603  1.00  0.00     0.034 A 
ATOM     51  C   UNL     1      -5.004   7.667   4.980  1.00  0.00     0.034 A 
ATOM     52  C   UNL     1       0.066  10.504   1.799  1.00  0.00     0.049 A 
ATOM     53  C   UNL     1      -4.575   9.066   4.782  1.00  0.00     0.074 A 
ATOM     54  C   UNL     1       1.165  10.850   2.554  1.00  0.00     0.029 A 
ATOM     55  N   UNL     1      -1.044  10.738   2.575  1.00  0.00    -0.354 N 
ATOM     56  N   UNL     1      -3.724   9.663   5.571  1.00  0.00    -0.248 NA
ATOM     57  C   UNL     1      -4.799   9.727   3.502  1.00  0.00     0.031 C 
ATOM     58  C   UNL     1       0.681  11.076   3.879  1.00  0.00     0.029 A 
ATOM     59  C   UNL     1      -0.704  10.913   3.890  1.00  0.00     0.049 A 
ATOM     60  H   UNL     1      -1.965  10.775   2.230  1.00  0.00     0.167 HD
ATOM     61  C   UNL     1      -2.997  10.488   4.737  1.00  0.00     0.074 A 
ATOM     62  C   UNL     1      -3.809  10.624   3.536  1.00  0.00     0.031 C 
ATOM     63  C   UNL     1      -1.669  10.711   4.960  1.00  0.00     0.034 A 
BRANCH  50  64
ATOM     64  C   UNL     1      -1.090  10.297  -0.494  1.00  0.00     0.023 A 
ATOM     65  C   UNL     1      -1.323  11.690  -0.458  1.00  0.00     0.031 A 
ATOM     66  C   UNL     1      -1.950   9.566  -1.342  1.00  0.00     0.131 A 
ATOM     67  C   UNL     1      -2.432  12.264  -1.105  1.00  0.00     0.055 A 
ATOM     68  C   UNL     1      -3.028  10.149  -2.020  1.00  0.00     0.041 A 
ATOM     69  F   UNL     1      -1.855   8.246  -1.519  1.00  0.00    -0.206 F 
ATOM     70  C   UNL     1      -3.298  11.497  -1.874  1.00  0.00     0.022 A 
BRANCH  67  71
ATOM     71  S   UNL     1      -2.818  14.003  -0.778  1.00  0.00     0.124 S 
ATOM     72  O   UNL     1      -2.901  14.017   0.678  1.00  0.00    -0.237 OA
ATOM     73  O   UNL     1      -1.668  14.680  -1.369  1.00  0.00    -0.237 OA
ATOM     74  O   UNL     1      -4.085  14.204  -1.478  1.00  0.00    -0.744 OA
ENDBRANCH  67  71
ENDBRANCH  50  64
BRANCH  51  75
ATOM     75  C   UNL     1      -6.422   7.237   5.101  1.00  0.00     0.023 A 
ATOM     76  C   UNL     1      -7.431   8.025   5.695  1.00  0.00     0.031 A 
ATOM     77  C   UNL     1      -6.846   6.096   4.382  1.00  0.00     0.131 A 
ATOM     78  C   UNL     1      -8.793   7.668   5.543  1.00  0.00     0.055 A 
ATOM     79  C   UNL     1      -8.190   5.750   4.236  1.00  0.00     0.041 A 
ATOM     80  F   UNL     1      -5.963   5.326   3.726  1.00  0.00    -0.206 F 
ATOM     81  C   UNL     1      -9.172   6.542   4.807  1.00  0.00     0.022 A 
BRANCH  78  82
ATOM     82  S   UNL     1     -10.112   8.718   6.239  1.00  0.00     0.124 S 
ATOM     83  O   UNL     1      -9.859   8.632   7.672  1.00  0.00    -0.237 OA
ATOM     84  O   UNL     1      -9.850  10.006   5.608  1.00  0.00    -0.237 OA
ATOM     85  O   UNL     1     -11.343   8.061   5.795  1.00  0.00    -0.744 OA
ENDBRANCH  78  82
ENDBRANCH  51  75
BRANCH  63  86
ATOM     86  C   UNL     1      -1.169  10.619   6.381  1.00  0.00     0.023 A 
ATOM     87  C   UNL     1      -1.227   9.473   7.203  1.00  0.00     0.031 A 
ATOM     88  C   UNL     1      -0.567  11.775   6.912  1.00  0.00     0.131 A 
ATOM     89  C   UNL     1      -0.698   9.520   8.508  1.00  0.00     0.055 A 
ATOM     90  C   UNL     1      -0.026  11.811   8.195  1.00  0.00     0.041 A 
ATOM     91  F   UNL     1      -0.476  12.896   6.177  1.00  0.00    -0.206 F 
ATOM     92  C   UNL     1      -0.096  10.683   9.002  1.00  0.00     0.022 A 
BRANCH  89  93
ATOM     93  S   UNL     1      -0.807   8.071   9.608  1.00  0.00     0.124 S 
ATOM     94  O   UNL     1      -2.196   7.649   9.481  1.00  0.00    -0.237 OA
ATOM     95  O   UNL     1       0.189   7.168   9.037  1.00  0.00    -0.237 OA
ATOM     96  O   UNL     1      -0.452   8.613  10.921  1.00  0.00    -0.744 OA
ENDBRANCH  89  93
ENDBRANCH  63  86
ENDBRANCH  37  38
ENDBRANCH  30  32
ENDBRANCH  29  30
ENDBRANCH  28  29
ENDBRANCH  27  28
ENDBRANCH  26  27
ENDBRANCH   1  26
TORSDOF 22
