REMARK SMILES COc1ccccc1C[N@@H+](C)[C@@H](C)c1ccc(C(=O)OCCOCCOC(=O)c2ccc(-c3c4nc(c(-c5cc(S(=O)(=O)[O-])ccc5F)c5ccc([nH]5)c(-c5cc(S(=O)(=O)[O-])ccc5F)c5nc(c(-c6cc(S(=O)(=O)[O-])ccc6F)c6ccc3[nH]6)C=C5)C=C4)cc2)o1
REMARK SMILES IDX 22 1 21 2 20 3 18 4 19 5 17 6 14 7 15 8 92 9 16 10 12 11
REMARK SMILES IDX 13 12 10 13 11 14 9 16 8 17 3 18 4 19 5 20 7 21 6 22 2 23
REMARK SMILES IDX 1 24 23 25 24 26 25 27 26 28 27 29 28 30 29 31 30 32 91 33
REMARK SMILES IDX 31 34 90 35 32 36 33 37 34 38 84 39 35 40 89 41 83 42 85 43
REMARK SMILES IDX 36 44 88 45 82 46 81 47 37 49 69 50 49 51 68 52 50 53 53 54
REMARK SMILES IDX 67 55 86 56 51 57 52 58 66 60 87 61 54 62 38 63 39 64 47 65
REMARK SMILES IDX 40 66 46 67 48 68 45 69 41 70 42 71 43 72 44 73 70 74 71 75
REMARK SMILES IDX 79 76 72 77 78 78 80 79 77 80 73 81 74 82 75 83 76 84 55 85
REMARK SMILES IDX 56 86 64 87 57 88 63 89 65 90 62 91 58 92 59 93 60 94 61 95
REMARK H PARENT 10 15 85 48 53 59
REMARK Flexibility Score: inf
ROOT
ATOM      1  C   UNL     1       1.710   9.291   1.515  1.00  0.00     0.202 C 
ENDROOT
BRANCH   1   2
ATOM      2  C   UNL     1       1.076   9.019   0.148  1.00  0.00     0.261 C 
BRANCH   2   3
ATOM      3  O   UNL     1       0.951   7.607  -0.089  1.00  0.00    -0.457 OA
BRANCH   3   4
ATOM      4  C   UNL     1       1.988   7.023  -0.757  1.00  0.00     0.374 C 
ATOM      5  O   UNL     1       2.919   7.625  -1.278  1.00  0.00    -0.242 OA
BRANCH   4   6
ATOM      6  C   UNL     1       1.840   5.590  -0.700  1.00  0.00     0.212 A 
ATOM      7  C   UNL     1       2.577   3.504  -0.722  1.00  0.00     0.162 A 
ATOM      8  C   UNL     1       1.199   3.447  -0.649  1.00  0.00     0.053 A 
ATOM      9  O   UNL     1       2.965   4.814  -0.798  1.00  0.00    -0.448 OA
ATOM     10  C   UNL     1       0.735   4.777  -0.543  1.00  0.00     0.059 A 
BRANCH   7  11
ATOM     11  C   UNL     1       3.667   2.474  -0.863  1.00  0.00     0.248 C 
ATOM     12  C   UNL     1       3.314   1.504  -2.001  1.00  0.00     0.084 C 
BRANCH  11  13
ATOM     13  N   UNL     1       4.129   1.849   0.409  1.00  0.00    -0.325 N 
ATOM     14  C   UNL     1       5.371   1.095   0.188  1.00  0.00     0.333 C 
ATOM     15  H   UNL     1       4.265   2.650   1.026  1.00  0.00     0.348 HD
BRANCH  13  16
ATOM     16  C   UNL     1       3.163   0.977   1.116  1.00  0.00     0.303 C 
BRANCH  16  17
ATOM     17  C   UNL     1       2.098   1.696   1.917  1.00  0.00     0.048 A 
ATOM     18  C   UNL     1       0.709   1.481   1.861  1.00  0.00     0.127 A 
ATOM     19  C   UNL     1      -0.141   2.310   2.622  1.00  0.00     0.047 A 
ATOM     20  C   UNL     1       0.350   3.311   3.458  1.00  0.00     0.004 A 
ATOM     21  C   UNL     1       2.575   2.691   2.811  1.00  0.00     0.013 A 
ATOM     22  C   UNL     1       1.718   3.493   3.564  1.00  0.00     0.001 A 
BRANCH  18  23
ATOM     23  O   UNL     1      -0.036   0.631   1.093  1.00  0.00    -0.496 OA
ATOM     24  C   UNL     1       0.517  -0.522   0.499  1.00  0.00     0.278 C 
ENDBRANCH  18  23
ENDBRANCH  16  17
ENDBRANCH  13  16
ENDBRANCH  11  13
ENDBRANCH   7  11
ENDBRANCH   4   6
ENDBRANCH   3   4
ENDBRANCH   2   3
ENDBRANCH   1   2
BRANCH   1  25
ATOM     25  O   UNL     1       3.095   8.944   1.576  1.00  0.00    -0.374 OA
BRANCH  25  26
ATOM     26  C   UNL     1       3.376   7.635   2.080  1.00  0.00     0.202 C 
BRANCH  26  27
ATOM     27  C   UNL     1       3.591   7.594   3.595  1.00  0.00     0.261 C 
BRANCH  27  28
ATOM     28  O   UNL     1       2.343   7.770   4.289  1.00  0.00    -0.460 OA
BRANCH  28  29
ATOM     29  C   UNL     1       2.132   9.019   4.772  1.00  0.00     0.338 C 
ATOM     30  O   UNL     1       2.923   9.947   4.771  1.00  0.00    -0.246 OA
BRANCH  29  31
ATOM     31  C   UNL     1       0.713   9.171   5.159  1.00  0.00     0.060 A 
ATOM     32  C   UNL     1       0.079  10.371   4.814  1.00  0.00     0.016 A 
ATOM     33  C   UNL     1       0.024   8.189   5.876  1.00  0.00     0.016 A 
ATOM     34  C   UNL     1      -1.229  10.615   5.228  1.00  0.00     0.010 A 
ATOM     35  C   UNL     1      -1.289   8.437   6.293  1.00  0.00     0.010 A 
ATOM     36  C   UNL     1      -1.910   9.665   6.001  1.00  0.00    -0.014 A 
BRANCH  36  37
ATOM     37  C   UNL     1      -3.209  10.024   6.622  1.00  0.00     0.031 A 
ATOM     38  C   UNL     1      -3.237  10.420   8.074  1.00  0.00     0.074 A 
ATOM     39  C   UNL     1      -4.341  10.034   5.896  1.00  0.00     0.049 A 
ATOM     40  N   UNL     1      -4.254  10.751   8.827  1.00  0.00    -0.248 NA
ATOM     41  C   UNL     1      -1.941  10.438   8.769  1.00  0.00     0.031 C 
ATOM     42  C   UNL     1      -4.432   9.710   4.473  1.00  0.00     0.029 A 
ATOM     43  N   UNL     1      -5.632  10.328   6.257  1.00  0.00    -0.354 N 
ATOM     44  C   UNL     1      -3.723  11.016  10.085  1.00  0.00     0.074 A 
ATOM     45  C   UNL     1      -2.300  10.763  10.001  1.00  0.00     0.031 C 
ATOM     46  C   UNL     1      -5.714   9.817   4.083  1.00  0.00     0.029 A 
ATOM     47  C   UNL     1      -6.539  10.180   5.234  1.00  0.00     0.049 A 
ATOM     48  H   UNL     1      -5.885  10.617   7.164  1.00  0.00     0.167 HD
ATOM     49  C   UNL     1      -4.362  11.442  11.204  1.00  0.00     0.034 A 
ATOM     50  C   UNL     1      -7.882  10.301   5.233  1.00  0.00     0.034 A 
ATOM     51  C   UNL     1      -5.784  11.679  11.274  1.00  0.00     0.049 A 
ATOM     52  C   UNL     1      -8.584  10.693   6.511  1.00  0.00     0.074 A 
ATOM     53  C   UNL     1      -6.532  12.129  12.349  1.00  0.00     0.029 A 
ATOM     54  N   UNL     1      -6.679  11.471  10.231  1.00  0.00    -0.354 N 
ATOM     55  N   UNL     1      -8.070  10.954   7.691  1.00  0.00    -0.248 NA
ATOM     56  C   UNL     1     -10.046  10.815   6.452  1.00  0.00     0.031 C 
ATOM     57  C   UNL     1      -7.882  12.120  11.980  1.00  0.00     0.029 A 
ATOM     58  C   UNL     1      -7.973  11.745  10.649  1.00  0.00     0.049 A 
ATOM     59  H   UNL     1      -6.430  11.172   9.327  1.00  0.00     0.167 HD
ATOM     60  C   UNL     1      -9.146  11.300   8.507  1.00  0.00     0.074 A 
ATOM     61  C   UNL     1     -10.332  11.228   7.679  1.00  0.00     0.031 C 
ATOM     62  C   UNL     1      -9.152  11.653   9.818  1.00  0.00     0.034 A 
BRANCH  49  63
ATOM     63  C   UNL     1      -3.528  11.623  12.450  1.00  0.00     0.023 A 
ATOM     64  C   UNL     1      -2.495  12.575  12.521  1.00  0.00     0.031 A 
ATOM     65  C   UNL     1      -3.745  10.803  13.572  1.00  0.00     0.131 A 
ATOM     66  C   UNL     1      -1.672  12.631  13.656  1.00  0.00     0.055 A 
ATOM     67  C   UNL     1      -2.974  10.921  14.731  1.00  0.00     0.041 A 
ATOM     68  F   UNL     1      -4.700   9.861  13.556  1.00  0.00    -0.206 F 
ATOM     69  C   UNL     1      -1.920  11.828  14.771  1.00  0.00     0.022 A 
BRANCH  66  70
ATOM     70  S   UNL     1      -0.179  13.661  13.595  1.00  0.00     0.124 S 
ATOM     71  O   UNL     1       0.518  13.101  12.440  1.00  0.00    -0.237 OA
ATOM     72  O   UNL     1      -0.728  15.001  13.423  1.00  0.00    -0.237 OA
ATOM     73  O   UNL     1       0.464  13.410  14.883  1.00  0.00    -0.744 OA
ENDBRANCH  66  70
ENDBRANCH  49  63
BRANCH  50  74
ATOM     74  C   UNL     1      -8.663  10.010   3.996  1.00  0.00     0.023 A 
ATOM     75  C   UNL     1      -9.411  11.009   3.354  1.00  0.00     0.031 A 
ATOM     76  C   UNL     1      -8.710   8.708   3.466  1.00  0.00     0.131 A 
ATOM     77  C   UNL     1     -10.207  10.682   2.245  1.00  0.00     0.055 A 
ATOM     78  C   UNL     1      -9.462   8.398   2.332  1.00  0.00     0.041 A 
ATOM     79  F   UNL     1      -8.014   7.715   4.043  1.00  0.00    -0.206 F 
ATOM     80  C   UNL     1     -10.227   9.387   1.722  1.00  0.00     0.022 A 
BRANCH  77  81
ATOM     81  S   UNL     1     -11.283  11.961   1.538  1.00  0.00     0.124 S 
ATOM     82  O   UNL     1     -12.119  12.310   2.681  1.00  0.00    -0.237 OA
ATOM     83  O   UNL     1     -10.316  12.969   1.117  1.00  0.00    -0.237 OA
ATOM     84  O   UNL     1     -11.969  11.265   0.451  1.00  0.00    -0.744 OA
ENDBRANCH  77  81
ENDBRANCH  50  74
BRANCH  62  85
ATOM     85  C   UNL     1     -10.484  12.030  10.423  1.00  0.00     0.023 A 
ATOM     86  C   UNL     1     -11.518  11.091  10.586  1.00  0.00     0.031 A 
ATOM     87  C   UNL     1     -10.726  13.354  10.830  1.00  0.00     0.131 A 
ATOM     88  C   UNL     1     -12.763  11.501  11.087  1.00  0.00     0.055 A 
ATOM     89  C   UNL     1     -11.945  13.743  11.386  1.00  0.00     0.041 A 
ATOM     90  F   UNL     1      -9.777  14.295  10.696  1.00  0.00    -0.206 F 
ATOM     91  C   UNL     1     -12.978  12.817  11.504  1.00  0.00     0.022 A 
BRANCH  88  92
ATOM     92  S   UNL     1     -14.134  10.313  11.097  1.00  0.00     0.124 S 
ATOM     93  O   UNL     1     -14.227   9.944   9.688  1.00  0.00    -0.237 OA
ATOM     94  O   UNL     1     -13.641   9.275  11.997  1.00  0.00    -0.237 OA
ATOM     95  O   UNL     1     -15.260  11.092  11.610  1.00  0.00    -0.744 OA
ENDBRANCH  88  92
ENDBRANCH  62  85
ENDBRANCH  36  37
ENDBRANCH  29  31
ENDBRANCH  28  29
ENDBRANCH  27  28
ENDBRANCH  26  27
ENDBRANCH  25  26
ENDBRANCH   1  25
TORSDOF 22
