REMARK SMILES O=C(OCCOCCOC(=O)[C@@]1([NH2+]C2CC2)CCC[C@@H]([NH+]2CCS(=O)(=O)CC2)C1)c1ccc(-c2c3nc(c(-c4cc(S(=O)(=O)[O-])ccc4F)c4ccc([nH]4)c(-c4cc(S(=O)(=O)[O-])ccc4F)c4nc(c(-c5cc(S(=O)(=O)[O-])ccc5F)c5ccc2[nH]5)C=C4)C=C3)cc1
REMARK SMILES IDX 5 1 4 2 3 3 2 4 1 5 30 6 31 7 92 8 32 9 91 10 33 11 34 12
REMARK SMILES IDX 35 13 85 14 36 15 90 16 84 17 86 18 37 19 89 20 83 21 82 22
REMARK SMILES IDX 38 24 70 25 50 26 69 27 51 28 54 29 68 30 87 31 52 32 53 33
REMARK SMILES IDX 67 35 88 36 55 37 39 38 40 39 48 40 41 41 47 42 49 43 46 44
REMARK SMILES IDX 42 45 43 46 44 47 45 48 71 49 72 50 80 51 73 52 79 53 81 54
REMARK SMILES IDX 78 55 74 56 75 57 76 58 77 59 56 60 57 61 65 62 58 63 64 64
REMARK SMILES IDX 66 65 63 66 59 67 60 68 61 69 62 70 6 71 7 72 8 73 9 74
REMARK SMILES IDX 10 75 11 76 12 77 17 78 29 79 18 80 20 81 19 82 13 83 14 86
REMARK SMILES IDX 15 87 16 88 21 89 22 90 28 91 23 93 27 94 24 95 25 96 26 97
REMARK H PARENT 86 23 54 34 13 84 13 85 21 92
REMARK Flexibility Score: inf
ROOT
ATOM      1  C   UNL     1       4.891   0.032  -0.714  1.00  0.00     0.202 C 
ENDROOT
BRANCH   1   2
ATOM      2  C   UNL     1       4.436  -0.682   0.562  1.00  0.00     0.261 C 
BRANCH   2   3
ATOM      3  O   UNL     1       2.997  -0.844   0.596  1.00  0.00    -0.460 OA
BRANCH   3   4
ATOM      4  C   UNL     1       2.119  -0.058   1.288  1.00  0.00     0.338 C 
ATOM      5  O   UNL     1       0.909  -0.223   1.218  1.00  0.00    -0.246 OA
BRANCH   4   6
ATOM      6  C   UNL     1       2.665   1.006   2.154  1.00  0.00     0.060 A 
ATOM      7  C   UNL     1       3.620   1.869   1.654  1.00  0.00     0.016 A 
ATOM      8  C   UNL     1       2.295   1.121   3.488  1.00  0.00     0.016 A 
ATOM      9  C   UNL     1       4.499   2.486   2.482  1.00  0.00     0.010 A 
ATOM     10  C   UNL     1       3.007   2.002   4.308  1.00  0.00     0.010 A 
ATOM     11  C   UNL     1       4.165   2.625   3.813  1.00  0.00    -0.014 A 
BRANCH  11  12
ATOM     12  C   UNL     1       5.163   3.332   4.625  1.00  0.00     0.031 A 
ATOM     13  C   UNL     1       5.862   2.551   5.688  1.00  0.00     0.074 A 
ATOM     14  C   UNL     1       5.572   4.555   4.226  1.00  0.00     0.049 A 
ATOM     15  N   UNL     1       6.709   2.963   6.584  1.00  0.00    -0.248 NA
ATOM     16  C   UNL     1       5.564   1.109   5.756  1.00  0.00     0.031 C 
ATOM     17  C   UNL     1       5.066   5.281   3.046  1.00  0.00     0.029 A 
ATOM     18  N   UNL     1       6.556   5.372   4.700  1.00  0.00    -0.354 N 
ATOM     19  C   UNL     1       6.981   1.853   7.373  1.00  0.00     0.074 A 
ATOM     20  C   UNL     1       6.218   0.748   6.846  1.00  0.00     0.031 C 
ATOM     21  C   UNL     1       5.805   6.378   2.845  1.00  0.00     0.029 A 
ATOM     22  C   UNL     1       6.708   6.529   3.969  1.00  0.00     0.049 A 
ATOM     23  H   UNL     1       7.105   5.155   5.488  1.00  0.00     0.167 HD
ATOM     24  C   UNL     1       7.786   1.800   8.458  1.00  0.00     0.034 A 
ATOM     25  C   UNL     1       7.446   7.620   4.235  1.00  0.00     0.034 A 
ATOM     26  C   UNL     1       8.525   2.953   8.906  1.00  0.00     0.049 A 
ATOM     27  C   UNL     1       8.237   7.579   5.513  1.00  0.00     0.074 A 
ATOM     28  C   UNL     1       9.304   3.104  10.034  1.00  0.00     0.029 A 
ATOM     29  N   UNL     1       8.570   4.167   8.220  1.00  0.00    -0.354 N 
ATOM     30  N   UNL     1       8.375   6.582   6.363  1.00  0.00    -0.248 NA
ATOM     31  C   UNL     1       8.950   8.799   5.884  1.00  0.00     0.031 C 
ATOM     32  C   UNL     1       9.756   4.428  10.069  1.00  0.00     0.029 A 
ATOM     33  C   UNL     1       9.343   5.079   8.913  1.00  0.00     0.049 A 
ATOM     34  H   UNL     1       8.117   4.348   7.365  1.00  0.00     0.167 HD
ATOM     35  C   UNL     1       9.216   7.049   7.362  1.00  0.00     0.074 A 
ATOM     36  C   UNL     1       9.568   8.409   6.988  1.00  0.00     0.031 C 
ATOM     37  C   UNL     1       9.659   6.425   8.484  1.00  0.00     0.034 A 
BRANCH  24  38
ATOM     38  C   UNL     1       7.757   0.527   9.265  1.00  0.00     0.023 A 
ATOM     39  C   UNL     1       8.169  -0.711   8.738  1.00  0.00     0.031 A 
ATOM     40  C   UNL     1       7.171   0.533  10.543  1.00  0.00     0.131 A 
ATOM     41  C   UNL     1       7.899  -1.895   9.444  1.00  0.00     0.055 A 
ATOM     42  C   UNL     1       6.991  -0.640  11.280  1.00  0.00     0.041 A 
ATOM     43  F   UNL     1       6.717   1.676  11.082  1.00  0.00    -0.206 F 
ATOM     44  C   UNL     1       7.337  -1.866  10.722  1.00  0.00     0.022 A 
BRANCH  41  45
ATOM     45  S   UNL     1       8.115  -3.484   8.590  1.00  0.00     0.124 S 
ATOM     46  O   UNL     1       7.182  -3.345   7.473  1.00  0.00    -0.237 OA
ATOM     47  O   UNL     1       9.531  -3.467   8.243  1.00  0.00    -0.237 OA
ATOM     48  O   UNL     1       7.729  -4.470   9.597  1.00  0.00    -0.744 OA
ENDBRANCH  41  45
ENDBRANCH  24  38
BRANCH  25  49
ATOM     49  C   UNL     1       7.383   8.834   3.367  1.00  0.00     0.023 A 
ATOM     50  C   UNL     1       8.542   9.383   2.799  1.00  0.00     0.031 A 
ATOM     51  C   UNL     1       6.163   9.501   3.129  1.00  0.00     0.131 A 
ATOM     52  C   UNL     1       8.466  10.581   2.068  1.00  0.00     0.055 A 
ATOM     53  C   UNL     1       6.083  10.653   2.345  1.00  0.00     0.041 A 
ATOM     54  F   UNL     1       5.016   9.035   3.651  1.00  0.00    -0.206 F 
ATOM     55  C   UNL     1       7.244  11.211   1.824  1.00  0.00     0.022 A 
BRANCH  52  56
ATOM     56  S   UNL     1      10.010  11.369   1.534  1.00  0.00     0.124 S 
ATOM     57  O   UNL     1      10.724  11.508   2.797  1.00  0.00    -0.237 OA
ATOM     58  O   UNL     1      10.544  10.384   0.599  1.00  0.00    -0.237 OA
ATOM     59  O   UNL     1       9.561  12.622   0.929  1.00  0.00    -0.744 OA
ENDBRANCH  52  56
ENDBRANCH  25  49
BRANCH  37  60
ATOM     60  C   UNL     1      10.628   7.203   9.329  1.00  0.00     0.023 A 
ATOM     61  C   UNL     1      10.248   8.376   9.998  1.00  0.00     0.031 A 
ATOM     62  C   UNL     1      11.959   6.766   9.442  1.00  0.00     0.131 A 
ATOM     63  C   UNL     1      11.212   9.118  10.689  1.00  0.00     0.055 A 
ATOM     64  C   UNL     1      12.893   7.464  10.202  1.00  0.00     0.041 A 
ATOM     65  F   UNL     1      12.369   5.651   8.815  1.00  0.00    -0.206 F 
ATOM     66  C   UNL     1      12.526   8.658  10.816  1.00  0.00     0.022 A 
BRANCH  63  67
ATOM     67  S   UNL     1      10.755  10.760  11.304  1.00  0.00     0.124 S 
ATOM     68  O   UNL     1      10.309  11.425  10.084  1.00  0.00    -0.237 OA
ATOM     69  O   UNL     1       9.714  10.450  12.278  1.00  0.00    -0.237 OA
ATOM     70  O   UNL     1      12.002  11.271  11.870  1.00  0.00    -0.744 OA
ENDBRANCH  63  67
ENDBRANCH  37  60
ENDBRANCH  11  12
ENDBRANCH   4   6
ENDBRANCH   3   4
ENDBRANCH   2   3
ENDBRANCH   1   2
BRANCH   1  71
ATOM     71  O   UNL     1       4.195   1.211  -1.091  1.00  0.00    -0.374 OA
BRANCH  71  72
ATOM     72  C   UNL     1       2.850   1.133  -1.564  1.00  0.00     0.202 C 
BRANCH  72  73
ATOM     73  C   UNL     1       2.752   1.886  -2.887  1.00  0.00     0.261 C 
BRANCH  73  74
ATOM     74  O   UNL     1       3.317   1.056  -3.905  1.00  0.00    -0.459 OA
BRANCH  74  75
ATOM     75  C   UNL     1       4.678   0.956  -3.857  1.00  0.00     0.368 C 
ATOM     76  O   UNL     1       5.427   1.696  -3.229  1.00  0.00    -0.245 OA
BRANCH  75  77
ATOM     77  C   UNL     1       5.163  -0.231  -4.693  1.00  0.00     0.200 C 
ATOM     78  C   UNL     1       6.649  -0.487  -4.380  1.00  0.00     0.081 C 
ATOM     79  C   UNL     1       4.359  -1.495  -4.218  1.00  0.00     0.146 C 
ATOM     80  C   UNL     1       7.178  -1.715  -5.104  1.00  0.00     0.013 C 
ATOM     81  C   UNL     1       4.927  -2.883  -4.572  1.00  0.00     0.191 C 
ATOM     82  C   UNL     1       6.471  -2.970  -4.615  1.00  0.00     0.065 C 
BRANCH  77  83
ATOM     83  N   UNL     1       4.915   0.046  -6.124  1.00  0.00    -0.329 N 
ATOM     84  H   UNL     1       3.940  -0.198  -6.294  1.00  0.00     0.347 HD
ATOM     85  H   UNL     1       5.656  -0.494  -6.571  1.00  0.00     0.347 HD
BRANCH  83  86
ATOM     86  C   UNL     1       5.113   1.380  -6.722  1.00  0.00     0.183 C 
ATOM     87  C   UNL     1       5.545   2.672  -6.080  1.00  0.00     0.071 C 
ATOM     88  C   UNL     1       6.498   1.923  -6.956  1.00  0.00     0.071 C 
ENDBRANCH  83  86
ENDBRANCH  77  83
BRANCH  81  89
ATOM     89  N   UNL     1       4.364  -4.000  -3.772  1.00  0.00    -0.331 N 
ATOM     90  C   UNL     1       2.992  -4.427  -4.056  1.00  0.00     0.278 C 
ATOM     91  C   UNL     1       4.800  -4.252  -2.392  1.00  0.00     0.278 C 
ATOM     92  H   UNL     1       4.966  -4.669  -4.253  1.00  0.00     0.348 HD
ATOM     93  C   UNL     1       1.920  -3.874  -3.132  1.00  0.00     0.198 C 
ATOM     94  C   UNL     1       3.911  -3.708  -1.289  1.00  0.00     0.198 C 
ATOM     95  S   UNL     1       2.261  -4.306  -1.451  1.00  0.00     0.161 S 
ATOM     96  O   UNL     1       1.398  -3.514  -0.608  1.00  0.00    -0.228 OA
ATOM     97  O   UNL     1       2.276  -5.757  -1.336  1.00  0.00    -0.228 OA
ENDBRANCH  81  89
ENDBRANCH  75  77
ENDBRANCH  74  75
ENDBRANCH  73  74
ENDBRANCH  72  73
ENDBRANCH  71  72
ENDBRANCH   1  71
TORSDOF 20
