REMARK SMILES Cc1cc(Br)cc2c1O[C@H](C(F)(F)F)C(C(=O)OCCOCCOC(=O)c1ccc(-c3c4nc(c(-c5cc(S(=O)(=O)[O-])ccc5F)c5ccc([nH]5)c(-c5cc(S(=O)(=O)[O-])ccc5F)c5nc(c(-c6cc(S(=O)(=O)[O-])ccc6F)c6ccc3[nH]6)C=C5)C=C4)cc1)=C2
REMARK SMILES IDX 22 1 21 2 20 3 19 4 18 5 16 6 17 7 15 8 1 9 2 10 3 11 8 12
REMARK SMILES IDX 4 13 7 14 9 15 5 16 6 17 90 18 10 19 11 20 12 21 13 22 14 23
REMARK SMILES IDX 23 24 24 25 25 26 26 27 27 28 28 29 89 30 29 31 88 32 30 33
REMARK SMILES IDX 31 34 32 35 82 36 33 37 87 38 81 39 83 40 34 41 86 42 80 43
REMARK SMILES IDX 79 44 35 46 67 47 47 48 66 49 48 50 51 51 65 52 84 53 49 54
REMARK SMILES IDX 50 55 64 57 85 58 52 59 36 60 37 61 45 62 38 63 44 64 46 65
REMARK SMILES IDX 43 66 39 67 40 68 41 69 42 70 68 71 69 72 77 73 70 74 76 75
REMARK SMILES IDX 78 76 75 77 71 78 72 79 73 80 74 81 53 82 54 83 62 84 55 85
REMARK SMILES IDX 61 86 63 87 60 88 56 89 57 90 58 91 59 92
REMARK H PARENT 83 45 51 56
REMARK Flexibility Score: inf
ROOT
ATOM      1  C   UNL     1      -0.088  -2.211   7.457  1.00  0.00     0.202 C 
ENDROOT
BRANCH   1   2
ATOM      2  O   UNL     1      -1.220  -2.619   8.226  1.00  0.00    -0.374 OA
BRANCH   2   3
ATOM      3  C   UNL     1      -1.951  -3.760   7.778  1.00  0.00     0.202 C 
BRANCH   3   4
ATOM      4  C   UNL     1      -2.934  -3.533   6.627  1.00  0.00     0.261 C 
BRANCH   4   5
ATOM      5  O   UNL     1      -2.277  -2.987   5.470  1.00  0.00    -0.460 OA
BRANCH   5   6
ATOM      6  C   UNL     1      -2.630  -1.719   5.164  1.00  0.00     0.338 C 
ATOM      7  O   UNL     1      -3.519  -1.057   5.681  1.00  0.00    -0.246 OA
BRANCH   6   8
ATOM      8  C   UNL     1      -1.690  -1.161   4.174  1.00  0.00     0.087 C 
ATOM      9  C   UNL     1       1.112  -0.046  -0.004  1.00  0.00     0.048 C 
ATOM     10  C   UNL     1       0.655   0.669   1.237  1.00  0.00    -0.007 A 
ATOM     11  C   UNL     1       0.951   2.037   1.367  1.00  0.00     0.023 A 
ATOM     12  C   UNL     1      -0.057   0.023   2.261  1.00  0.00     0.130 A 
ATOM     13  C   UNL     1       0.539   2.744   2.495  1.00  0.00     0.019 A 
ATOM     14  C   UNL     1      -0.496   0.750   3.374  1.00  0.00     0.019 A 
ATOM     15  O   UNL     1      -0.277  -1.319   2.126  1.00  0.00    -0.475 OA
ATOM     16  Br  UNL     1       0.939   4.585   2.652  1.00  0.00    -0.051 Br
ATOM     17  C   UNL     1      -0.184   2.108   3.498  1.00  0.00     0.027 A 
ATOM     18  C   UNL     1      -1.328   0.111   4.377  1.00  0.00     0.027 C 
ATOM     19  C   UNL     1      -1.212  -1.992   3.016  1.00  0.00     0.316 C 
BRANCH  19  20
ATOM     20  C   UNL     1      -2.369  -2.543   2.170  1.00  0.00     0.430 C 
ATOM     21  F   UNL     1      -1.907  -3.243   1.106  1.00  0.00    -0.167 F 
ATOM     22  F   UNL     1      -3.158  -3.383   2.879  1.00  0.00    -0.167 F 
ATOM     23  F   UNL     1      -3.157  -1.553   1.691  1.00  0.00    -0.167 F 
ENDBRANCH  19  20
ENDBRANCH   6   8
ENDBRANCH   5   6
ENDBRANCH   4   5
ENDBRANCH   3   4
ENDBRANCH   2   3
ENDBRANCH   1   2
BRANCH   1  24
ATOM     24  C   UNL     1       1.172  -3.082   7.536  1.00  0.00     0.261 C 
BRANCH  24  25
ATOM     25  O   UNL     1       0.983  -4.374   6.931  1.00  0.00    -0.460 OA
BRANCH  25  26
ATOM     26  C   UNL     1       1.041  -5.413   7.798  1.00  0.00     0.338 C 
ATOM     27  O   UNL     1       1.298  -5.358   8.995  1.00  0.00    -0.246 OA
BRANCH  26  28
ATOM     28  C   UNL     1       0.562  -6.646   7.151  1.00  0.00     0.060 A 
ATOM     29  C   UNL     1      -0.505  -7.323   7.756  1.00  0.00     0.016 A 
ATOM     30  C   UNL     1       1.207  -7.186   6.036  1.00  0.00     0.016 A 
ATOM     31  C   UNL     1      -0.898  -8.571   7.282  1.00  0.00     0.010 A 
ATOM     32  C   UNL     1       0.821  -8.448   5.571  1.00  0.00     0.010 A 
ATOM     33  C   UNL     1      -0.205  -9.162   6.217  1.00  0.00    -0.014 A 
BRANCH  33  34
ATOM     34  C   UNL     1      -0.431 -10.595   5.912  1.00  0.00     0.031 A 
ATOM     35  C   UNL     1       0.505 -11.613   6.507  1.00  0.00     0.074 A 
ATOM     36  C   UNL     1      -1.483 -10.989   5.173  1.00  0.00     0.049 A 
ATOM     37  N   UNL     1       0.532 -12.909   6.344  1.00  0.00    -0.248 NA
ATOM     38  C   UNL     1       1.546 -11.097   7.412  1.00  0.00     0.031 C 
ATOM     39  C   UNL     1      -2.501 -10.102   4.612  1.00  0.00     0.029 A 
ATOM     40  N   UNL     1      -1.872 -12.243   4.775  1.00  0.00    -0.354 N 
ATOM     41  C   UNL     1       1.587 -13.366   7.127  1.00  0.00     0.074 A 
ATOM     42  C   UNL     1       2.194 -12.205   7.739  1.00  0.00     0.031 C 
ATOM     43  C   UNL     1      -3.402 -10.843   3.943  1.00  0.00     0.029 A 
ATOM     44  C   UNL     1      -3.003 -12.248   3.994  1.00  0.00     0.049 A 
ATOM     45  H   UNL     1      -1.387 -13.062   5.025  1.00  0.00     0.167 HD
ATOM     46  C   UNL     1       2.005 -14.640   7.324  1.00  0.00     0.034 A 
ATOM     47  C   UNL     1      -3.631 -13.269   3.375  1.00  0.00     0.034 A 
ATOM     48  C   UNL     1       1.399 -15.789   6.703  1.00  0.00     0.049 A 
ATOM     49  C   UNL     1      -3.078 -14.665   3.515  1.00  0.00     0.074 A 
ATOM     50  C   UNL     1       1.757 -17.120   6.821  1.00  0.00     0.029 A 
ATOM     51  N   UNL     1       0.309 -15.745   5.845  1.00  0.00    -0.354 N 
ATOM     52  N   UNL     1      -2.045 -15.077   4.213  1.00  0.00    -0.248 NA
ATOM     53  C   UNL     1      -3.770 -15.731   2.777  1.00  0.00     0.031 C 
ATOM     54  C   UNL     1       0.921 -17.874   5.990  1.00  0.00     0.029 A 
ATOM     55  C   UNL     1      -0.000 -17.021   5.404  1.00  0.00     0.049 A 
ATOM     56  H   UNL     1      -0.174 -14.926   5.587  1.00  0.00     0.167 HD
ATOM     57  C   UNL     1      -1.975 -16.453   4.012  1.00  0.00     0.074 A 
ATOM     58  C   UNL     1      -3.074 -16.802   3.135  1.00  0.00     0.031 C 
ATOM     59  C   UNL     1      -1.086 -17.348   4.511  1.00  0.00     0.034 A 
BRANCH  46  60
ATOM     60  C   UNL     1       3.201 -14.848   8.213  1.00  0.00     0.023 A 
ATOM     61  C   UNL     1       3.133 -14.634   9.600  1.00  0.00     0.031 A 
ATOM     62  C   UNL     1       4.423 -15.275   7.666  1.00  0.00     0.131 A 
ATOM     63  C   UNL     1       4.280 -14.809  10.389  1.00  0.00     0.055 A 
ATOM     64  C   UNL     1       5.545 -15.505   8.464  1.00  0.00     0.041 A 
ATOM     65  F   UNL     1       4.546 -15.472   6.343  1.00  0.00    -0.206 F 
ATOM     66  C   UNL     1       5.479 -15.265   9.833  1.00  0.00     0.022 A 
BRANCH  63  67
ATOM     67  S   UNL     1       4.209 -14.358  12.144  1.00  0.00     0.124 S 
ATOM     68  O   UNL     1       3.995 -12.915  12.068  1.00  0.00    -0.237 OA
ATOM     69  O   UNL     1       3.083 -15.147  12.629  1.00  0.00    -0.237 OA
ATOM     70  O   UNL     1       5.518 -14.763  12.654  1.00  0.00    -0.744 OA
ENDBRANCH  63  67
ENDBRANCH  46  60
BRANCH  47  71
ATOM     71  C   UNL     1      -4.827 -13.008   2.528  1.00  0.00     0.023 A 
ATOM     72  C   UNL     1      -6.095 -13.481   2.899  1.00  0.00     0.031 A 
ATOM     73  C   UNL     1      -4.711 -12.300   1.318  1.00  0.00     0.131 A 
ATOM     74  C   UNL     1      -7.195 -13.260   2.056  1.00  0.00     0.055 A 
ATOM     75  C   UNL     1      -5.815 -12.050   0.502  1.00  0.00     0.041 A 
ATOM     76  F   UNL     1      -3.519 -11.828   0.920  1.00  0.00    -0.206 F 
ATOM     77  C   UNL     1      -7.066 -12.537   0.867  1.00  0.00     0.022 A 
BRANCH  74  78
ATOM     78  S   UNL     1      -8.803 -13.962   2.519  1.00  0.00     0.124 S 
ATOM     79  O   UNL     1      -8.531 -15.393   2.455  1.00  0.00    -0.237 OA
ATOM     80  O   UNL     1      -9.006 -13.405   3.853  1.00  0.00    -0.237 OA
ATOM     81  O   UNL     1      -9.706 -13.450   1.491  1.00  0.00    -0.744 OA
ENDBRANCH  74  78
ENDBRANCH  47  71
BRANCH  59  82
ATOM     82  C   UNL     1      -1.276 -18.795   4.137  1.00  0.00     0.023 A 
ATOM     83  C   UNL     1      -1.016 -19.255   2.836  1.00  0.00     0.031 A 
ATOM     84  C   UNL     1      -1.690 -19.728   5.104  1.00  0.00     0.131 A 
ATOM     85  C   UNL     1      -1.206 -20.610   2.526  1.00  0.00     0.055 A 
ATOM     86  C   UNL     1      -1.831 -21.083   4.802  1.00  0.00     0.041 A 
ATOM     87  F   UNL     1      -1.948 -19.338   6.362  1.00  0.00    -0.206 F 
ATOM     88  C   UNL     1      -1.595 -21.529   3.504  1.00  0.00     0.022 A 
BRANCH  85  89
ATOM     89  S   UNL     1      -0.980 -21.151   0.810  1.00  0.00     0.124 S 
ATOM     90  O   UNL     1      -2.027 -20.407   0.118  1.00  0.00    -0.237 OA
ATOM     91  O   UNL     1       0.390 -20.737   0.526  1.00  0.00    -0.237 OA
ATOM     92  O   UNL     1      -1.187 -22.597   0.876  1.00  0.00    -0.744 OA
ENDBRANCH  85  89
ENDBRANCH  59  82
ENDBRANCH  33  34
ENDBRANCH  26  28
ENDBRANCH  25  26
ENDBRANCH  24  25
ENDBRANCH   1  24
TORSDOF 18
