REMARK SMILES CC(=O)N[C@@H](C(=O)N(CC(=O)OCCOCCOC(=O)c1ccc(-c2c3nc(c(-c4cc(S(=O)(=O)[O-])ccc4F)c4ccc([nH]4)c(-c4cc(S(=O)(=O)[O-])ccc4F)c4nc(c(-c5cc(S(=O)(=O)[O-])ccc5F)c5ccc2[nH]5)C=C4)C=C3)cc1)C(C)(C)C)C(C)C
REMARK SMILES IDX 14 1 13 2 12 3 10 4 11 5 9 6 8 7 6 8 7 9 5 10 4 11 1 12 2 13
REMARK SMILES IDX 3 14 88 16 89 17 90 18 84 19 85 20 86 21 87 22 15 23 16 24
REMARK SMILES IDX 17 25 18 26 19 27 20 28 21 29 22 30 83 31 23 32 82 33 24 34
REMARK SMILES IDX 25 35 26 36 76 37 27 38 81 39 75 40 77 41 28 42 80 43 74 44
REMARK SMILES IDX 73 45 29 47 61 48 41 49 60 50 42 51 45 52 59 53 78 54 43 55
REMARK SMILES IDX 44 56 58 58 79 59 46 60 30 61 31 62 39 63 32 64 38 65 40 66
REMARK SMILES IDX 37 67 33 68 34 69 35 70 36 71 62 72 63 73 71 74 64 75 70 76
REMARK SMILES IDX 72 77 69 78 65 79 66 80 67 81 68 82 47 83 48 84 56 85 49 86
REMARK SMILES IDX 55 87 57 88 54 89 50 90 51 91 52 92 53 93
REMARK H PARENT 4 15 77 46 45 57
REMARK Flexibility Score: inf
ROOT
ATOM      1  C   UNL     1       2.869   5.448   2.171  1.00  0.00     0.202 C 
ENDROOT
BRANCH   1   2
ATOM      2  C   UNL     1       2.189   4.211   1.566  1.00  0.00     0.261 C 
BRANCH   2   3
ATOM      3  O   UNL     1       2.809   2.958   1.948  1.00  0.00    -0.462 OA
BRANCH   3   4
ATOM      4  C   UNL     1       3.180   2.154   0.917  1.00  0.00     0.325 C 
ATOM      5  O   UNL     1       3.089   2.447  -0.273  1.00  0.00    -0.250 OA
BRANCH   4   6
ATOM      6  C   UNL     1       3.755   0.791   1.329  1.00  0.00     0.242 C 
BRANCH   6   7
ATOM      7  N   UNL     1       3.862   0.383   2.743  1.00  0.00    -0.325 N 
BRANCH   7   8
ATOM      8  C   UNL     1       2.779  -0.204   3.424  1.00  0.00     0.246 C 
ATOM      9  O   UNL     1       2.790  -0.333   4.651  1.00  0.00    -0.272 OA
BRANCH   8  10
ATOM     10  C   UNL     1       1.539  -0.714   2.618  1.00  0.00     0.174 C 
BRANCH  10  11
ATOM     11  N   UNL     1       0.738   0.460   2.272  1.00  0.00    -0.344 N 
ATOM     12  C   UNL     1       0.285  -0.140  -0.083  1.00  0.00     0.114 C 
ATOM     13  C   UNL     1       0.144   0.790   1.091  1.00  0.00     0.217 C 
ATOM     14  O   UNL     1      -0.463   1.855   1.000  1.00  0.00    -0.275 OA
ATOM     15  H   UNL     1       0.607   1.108   3.002  1.00  0.00     0.164 HD
ENDBRANCH  10  11
BRANCH  10  16
ATOM     16  C   UNL     1       0.724  -1.739   3.462  1.00  0.00     0.015 C 
ATOM     17  C   UNL     1      -0.598  -2.148   2.804  1.00  0.00     0.010 C 
ATOM     18  C   UNL     1       1.541  -3.015   3.722  1.00  0.00     0.010 C 
ENDBRANCH  10  16
ENDBRANCH   8  10
ENDBRANCH   7   8
BRANCH   7  19
ATOM     19  C   UNL     1       5.176   0.536   3.478  1.00  0.00     0.035 C 
ATOM     20  C   UNL     1       5.016   1.392   4.753  1.00  0.00     0.034 C 
ATOM     21  C   UNL     1       5.706  -0.868   3.859  1.00  0.00     0.034 C 
ATOM     22  C   UNL     1       6.306   1.176   2.636  1.00  0.00     0.034 C 
ENDBRANCH   7  19
ENDBRANCH   6   7
ENDBRANCH   4   6
ENDBRANCH   3   4
ENDBRANCH   2   3
ENDBRANCH   1   2
BRANCH   1  23
ATOM     23  O   UNL     1       4.195   5.736   1.718  1.00  0.00    -0.374 OA
BRANCH  23  24
ATOM     24  C   UNL     1       5.220   4.840   2.134  1.00  0.00     0.202 C 
BRANCH  24  25
ATOM     25  C   UNL     1       5.688   4.969   3.588  1.00  0.00     0.261 C 
BRANCH  25  26
ATOM     26  O   UNL     1       4.609   4.790   4.518  1.00  0.00    -0.460 OA
BRANCH  26  27
ATOM     27  C   UNL     1       4.484   5.785   5.425  1.00  0.00     0.338 C 
ATOM     28  O   UNL     1       5.287   6.686   5.636  1.00  0.00    -0.246 OA
BRANCH  27  29
ATOM     29  C   UNL     1       3.141   5.768   6.029  1.00  0.00     0.060 A 
ATOM     30  C   UNL     1       2.358   6.916   5.864  1.00  0.00     0.016 A 
ATOM     31  C   UNL     1       2.691   4.707   6.820  1.00  0.00     0.016 A 
ATOM     32  C   UNL     1       1.153   7.040   6.549  1.00  0.00     0.010 A 
ATOM     33  C   UNL     1       1.478   4.837   7.512  1.00  0.00     0.010 A 
ATOM     34  C   UNL     1       0.728   6.024   7.415  1.00  0.00    -0.014 A 
BRANCH  34  35
ATOM     35  C   UNL     1      -0.412   6.305   8.326  1.00  0.00     0.031 A 
ATOM     36  C   UNL     1      -0.126   6.761   9.733  1.00  0.00     0.074 A 
ATOM     37  C   UNL     1      -1.679   6.249   7.877  1.00  0.00     0.049 A 
ATOM     38  N   UNL     1      -0.954   7.165  10.662  1.00  0.00    -0.248 NA
ATOM     39  C   UNL     1       1.286   6.764  10.143  1.00  0.00     0.031 C 
ATOM     40  C   UNL     1      -2.076   5.852   6.527  1.00  0.00     0.029 A 
ATOM     41  N   UNL     1      -2.864   6.544   8.503  1.00  0.00    -0.354 N 
ATOM     42  C   UNL     1      -0.164   7.484  11.763  1.00  0.00     0.074 A 
ATOM     43  C   UNL     1       1.203   7.177  11.399  1.00  0.00     0.031 C 
ATOM     44  C   UNL     1      -3.413   5.934   6.424  1.00  0.00     0.029 A 
ATOM     45  C   UNL     1      -3.970   6.370   7.704  1.00  0.00     0.049 A 
ATOM     46  H   UNL     1      -2.918   6.851   9.437  1.00  0.00     0.167 HD
ATOM     47  C   UNL     1      -0.542   8.000  12.960  1.00  0.00     0.034 A 
ATOM     48  C   UNL     1      -5.280   6.539   7.975  1.00  0.00     0.034 A 
ATOM     49  C   UNL     1      -1.912   8.280  13.315  1.00  0.00     0.049 A 
ATOM     50  C   UNL     1      -5.684   7.045   9.339  1.00  0.00     0.074 A 
ATOM     51  C   UNL     1      -2.408   8.812  14.493  1.00  0.00     0.029 A 
ATOM     52  N   UNL     1      -3.011   8.033  12.501  1.00  0.00    -0.354 N 
ATOM     53  N   UNL     1      -4.924   7.371  10.360  1.00  0.00    -0.248 NA
ATOM     54  C   UNL     1      -7.122   7.219   9.580  1.00  0.00     0.031 C 
ATOM     55  C   UNL     1      -3.806   8.821  14.417  1.00  0.00     0.029 A 
ATOM     56  C   UNL     1      -4.183   8.366  13.164  1.00  0.00     0.049 A 
ATOM     57  H   UNL     1      -2.964   7.673  11.585  1.00  0.00     0.167 HD
ATOM     58  C   UNL     1      -5.793   7.812  11.355  1.00  0.00     0.074 A 
ATOM     59  C   UNL     1      -7.130   7.726  10.804  1.00  0.00     0.031 C 
ATOM     60  C   UNL     1      -5.512   8.253  12.609  1.00  0.00     0.034 A 
BRANCH  47  61
ATOM     61  C   UNL     1       0.545   8.239  13.981  1.00  0.00     0.023 A 
ATOM     62  C   UNL     1       1.572   9.176  13.766  1.00  0.00     0.031 A 
ATOM     63  C   UNL     1       0.579   7.489  15.170  1.00  0.00     0.131 A 
ATOM     64  C   UNL     1       2.626   9.286  14.687  1.00  0.00     0.055 A 
ATOM     65  C   UNL     1       1.590   7.657  16.119  1.00  0.00     0.041 A 
ATOM     66  F   UNL     1      -0.361   6.565  15.422  1.00  0.00    -0.206 F 
ATOM     67  C   UNL     1       2.630   8.549  15.873  1.00  0.00     0.022 A 
BRANCH  64  68
ATOM     68  S   UNL     1       4.066  10.298  14.245  1.00  0.00     0.124 S 
ATOM     69  O   UNL     1       4.502   9.666  13.002  1.00  0.00    -0.237 OA
ATOM     70  O   UNL     1       3.488  11.630  14.119  1.00  0.00    -0.237 OA
ATOM     71  O   UNL     1       4.973  10.116  15.377  1.00  0.00    -0.744 OA
ENDBRANCH  64  68
ENDBRANCH  47  61
BRANCH  48  72
ATOM     72  C   UNL     1      -6.310   6.204   6.950  1.00  0.00     0.023 A 
ATOM     73  C   UNL     1      -7.145   7.188   6.399  1.00  0.00     0.031 A 
ATOM     74  C   UNL     1      -6.499   4.872   6.539  1.00  0.00     0.131 A 
ATOM     75  C   UNL     1      -8.156   6.821   5.496  1.00  0.00     0.055 A 
ATOM     76  C   UNL     1      -7.473   4.519   5.604  1.00  0.00     0.041 A 
ATOM     77  F   UNL     1      -5.728   3.892   7.037  1.00  0.00    -0.206 F 
ATOM     78  C   UNL     1      -8.317   5.495   5.085  1.00  0.00     0.022 A 
BRANCH  75  79
ATOM     79  S   UNL     1      -9.311   8.094   4.915  1.00  0.00     0.124 S 
ATOM     80  O   UNL     1      -9.887   8.569   6.168  1.00  0.00    -0.237 OA
ATOM     81  O   UNL     1      -8.419   9.021   4.226  1.00  0.00    -0.237 OA
ATOM     82  O   UNL     1     -10.226   7.354   4.048  1.00  0.00    -0.744 OA
ENDBRANCH  75  79
ENDBRANCH  48  72
BRANCH  60  83
ATOM     83  C   UNL     1      -6.681   8.701  13.453  1.00  0.00     0.023 A 
ATOM     84  C   UNL     1      -7.657   7.795  13.904  1.00  0.00     0.031 A 
ATOM     85  C   UNL     1      -6.831  10.057  13.793  1.00  0.00     0.131 A 
ATOM     86  C   UNL     1      -8.770   8.264  14.619  1.00  0.00     0.055 A 
ATOM     87  C   UNL     1      -7.909  10.509  14.555  1.00  0.00     0.041 A 
ATOM     88  F   UNL     1      -5.930  10.967  13.388  1.00  0.00    -0.206 F 
ATOM     89  C   UNL     1      -8.894   9.613  14.961  1.00  0.00     0.022 A 
BRANCH  86  90
ATOM     90  S   UNL     1     -10.104   7.101  15.017  1.00  0.00     0.124 S 
ATOM     91  O   UNL     1     -10.490   6.618  13.695  1.00  0.00    -0.237 OA
ATOM     92  O   UNL     1      -9.431   6.135  15.878  1.00  0.00    -0.237 OA
ATOM     93  O   UNL     1     -11.100   7.937  15.685  1.00  0.00    -0.744 OA
ENDBRANCH  86  90
ENDBRANCH  60  83
ENDBRANCH  34  35
ENDBRANCH  27  29
ENDBRANCH  26  27
ENDBRANCH  25  26
ENDBRANCH  24  25
ENDBRANCH  23  24
ENDBRANCH   1  23
TORSDOF 23
