REMARK SMILES O=C1C[C@@H](c2cccc(O)c2)c2c(c(C(=O)OCCOCCOC(=O)c3ccc(-c4c5nc(c(-c6cc(S(=O)(=O)[O-])ccc6F)c6ccc([nH]6)c(-c6cc(S(=O)(=O)[O-])ccc6F)c6nc(c(-c7cc(S(=O)(=O)[O-])ccc7F)c7ccc4[nH]7)C=C6)C=C5)cc3)cn2-c2cccc(C(F)(F)F)c2)N1
REMARK SMILES IDX 21 1 20 2 19 3 18 4 17 5 15 6 16 7 14 8 1 9 2 10 3 11 101 12
REMARK SMILES IDX 4 13 13 14 12 16 90 17 89 18 5 19 6 20 11 21 7 22 9 23 8 24
REMARK SMILES IDX 10 25 91 27 92 28 100 29 93 30 95 31 94 32 96 33 97 34 98 35
REMARK SMILES IDX 99 36 22 37 23 38 24 39 25 40 26 41 27 42 88 43 28 44 87 45
REMARK SMILES IDX 29 46 30 47 31 48 81 49 32 50 86 51 80 52 82 53 33 54 85 55
REMARK SMILES IDX 79 56 78 57 34 59 66 60 46 61 65 62 47 63 50 64 64 65 83 66
REMARK SMILES IDX 48 67 49 68 63 70 84 71 51 72 35 73 36 74 44 75 37 76 43 77
REMARK SMILES IDX 45 78 42 79 38 80 39 81 40 82 41 83 67 84 68 85 76 86 69 87
REMARK SMILES IDX 75 88 77 89 74 90 70 91 71 92 72 93 73 94 52 95 53 96 61 97
REMARK SMILES IDX 54 98 60 99 62 100 59 101 55 102 56 103 57 104 58 105
REMARK H PARENT 101 15 10 26 82 58 50 69
REMARK Flexibility Score: inf
ROOT
ATOM      1  C   UNL     1       2.916  -4.393   1.762  1.00  0.00     0.202 C 
ENDROOT
BRANCH   1   2
ATOM      2  O   UNL     1       3.550  -5.605   1.364  1.00  0.00    -0.374 OA
BRANCH   2   3
ATOM      3  C   UNL     1       4.769  -6.017   1.982  1.00  0.00     0.202 C 
BRANCH   3   4
ATOM      4  C   UNL     1       6.064  -5.309   1.575  1.00  0.00     0.261 C 
BRANCH   4   5
ATOM      5  O   UNL     1       6.086  -3.926   1.961  1.00  0.00    -0.460 OA
BRANCH   5   6
ATOM      6  C   UNL     1       5.768  -3.060   0.958  1.00  0.00     0.341 C 
ATOM      7  O   UNL     1       5.587  -3.378  -0.211  1.00  0.00    -0.246 OA
BRANCH   6   8
ATOM      8  C   UNL     1       5.487  -1.718   1.437  1.00  0.00     0.102 A 
ATOM      9  O   UNL     1       1.720  -0.360  -1.165  1.00  0.00    -0.275 OA
ATOM     10  C   UNL     1       2.703  -0.106  -0.472  1.00  0.00     0.225 C 
ATOM     11  C   UNL     1       3.216   1.312  -0.275  1.00  0.00     0.115 C 
ATOM     12  N   UNL     1       3.494  -1.105   0.031  1.00  0.00    -0.324 N 
ATOM     13  C   UNL     1       3.830   1.582   1.116  1.00  0.00     0.078 C 
ATOM     14  C   UNL     1       4.473  -0.860   0.965  1.00  0.00     0.078 A 
ATOM     15  H   UNL     1       3.358  -2.027  -0.286  1.00  0.00     0.170 HD
ATOM     16  C   UNL     1       4.583   0.365   1.584  1.00  0.00     0.055 A 
ATOM     17  N   UNL     1       5.606   0.269   2.519  1.00  0.00    -0.317 N 
ATOM     18  C   UNL     1       6.154  -1.004   2.414  1.00  0.00     0.109 A 
BRANCH  13  19
ATOM     19  C   UNL     1       2.764   2.112   2.052  1.00  0.00    -0.035 A 
ATOM     20  C   UNL     1       1.728   1.314   2.559  1.00  0.00     0.005 A 
ATOM     21  C   UNL     1       2.810   3.469   2.421  1.00  0.00     0.050 A 
ATOM     22  C   UNL     1       0.789   1.854   3.443  1.00  0.00     0.004 A 
ATOM     23  C   UNL     1       1.891   3.986   3.324  1.00  0.00     0.115 A 
ATOM     24  C   UNL     1       0.876   3.190   3.838  1.00  0.00     0.046 A 
BRANCH  23  25
ATOM     25  O   UNL     1       2.047   5.283   3.711  1.00  0.00    -0.508 OA
ATOM     26  H   UNL     1       1.446   5.666   4.319  1.00  0.00     0.293 HD
ENDBRANCH  23  25
ENDBRANCH  13  19
BRANCH  17  27
ATOM     27  C   UNL     1       6.105   1.259   3.405  1.00  0.00     0.046 A 
ATOM     28  C   UNL     1       7.489   1.426   3.530  1.00  0.00     0.026 A 
ATOM     29  C   UNL     1       5.239   2.019   4.198  1.00  0.00     0.039 A 
ATOM     30  C   UNL     1       8.000   2.397   4.391  1.00  0.00     0.003 A 
ATOM     31  C   UNL     1       5.745   2.994   5.075  1.00  0.00     0.058 A 
ATOM     32  C   UNL     1       7.134   3.184   5.150  1.00  0.00     0.013 A 
BRANCH  31  33
ATOM     33  C   UNL     1       4.833   3.832   5.942  1.00  0.00     0.416 C 
ATOM     34  F   UNL     1       5.196   3.801   7.255  1.00  0.00    -0.166 F 
ATOM     35  F   UNL     1       4.853   5.148   5.587  1.00  0.00    -0.166 F 
ATOM     36  F   UNL     1       3.527   3.453   5.910  1.00  0.00    -0.166 F 
ENDBRANCH  31  33
ENDBRANCH  17  27
ENDBRANCH   6   8
ENDBRANCH   5   6
ENDBRANCH   4   5
ENDBRANCH   3   4
ENDBRANCH   2   3
ENDBRANCH   1   2
BRANCH   1  37
ATOM     37  C   UNL     1       2.275  -4.297   3.135  1.00  0.00     0.261 C 
BRANCH  37  38
ATOM     38  O   UNL     1       3.224  -4.497   4.165  1.00  0.00    -0.460 OA
BRANCH  38  39
ATOM     39  C   UNL     1       3.189  -5.744   4.699  1.00  0.00     0.338 C 
ATOM     40  O   UNL     1       2.668  -6.730   4.227  1.00  0.00    -0.246 OA
BRANCH  39  41
ATOM     41  C   UNL     1       3.775  -5.668   6.040  1.00  0.00     0.060 A 
ATOM     42  C   UNL     1       3.582  -6.794   6.840  1.00  0.00     0.016 A 
ATOM     43  C   UNL     1       4.141  -4.420   6.565  1.00  0.00     0.016 A 
ATOM     44  C   UNL     1       3.478  -6.601   8.195  1.00  0.00     0.010 A 
ATOM     45  C   UNL     1       4.006  -4.225   7.913  1.00  0.00     0.010 A 
ATOM     46  C   UNL     1       3.581  -5.298   8.691  1.00  0.00    -0.014 A 
BRANCH  46  47
ATOM     47  C   UNL     1       3.379  -5.094  10.106  1.00  0.00     0.031 A 
ATOM     48  C   UNL     1       4.554  -5.551  10.874  1.00  0.00     0.074 A 
ATOM     49  C   UNL     1       2.304  -4.453  10.597  1.00  0.00     0.049 A 
ATOM     50  N   UNL     1       4.663  -6.627  11.579  1.00  0.00    -0.248 NA
ATOM     51  C   UNL     1       5.842  -4.890  10.590  1.00  0.00     0.031 C 
ATOM     52  C   UNL     1       1.251  -3.749   9.861  1.00  0.00     0.029 A 
ATOM     53  N   UNL     1       1.978  -4.207  11.891  1.00  0.00    -0.354 N 
ATOM     54  C   UNL     1       5.964  -6.597  12.066  1.00  0.00     0.074 A 
ATOM     55  C   UNL     1       6.688  -5.727  11.188  1.00  0.00     0.031 C 
ATOM     56  C   UNL     1       0.555  -2.966  10.720  1.00  0.00     0.029 A 
ATOM     57  C   UNL     1       1.031  -3.204  12.074  1.00  0.00     0.049 A 
ATOM     58  H   UNL     1       2.381  -4.700  12.642  1.00  0.00     0.167 HD
ATOM     59  C   UNL     1       6.226  -6.976  13.345  1.00  0.00     0.034 A 
ATOM     60  C   UNL     1       0.744  -2.568  13.246  1.00  0.00     0.034 A 
ATOM     61  C   UNL     1       5.154  -7.814  13.853  1.00  0.00     0.049 A 
ATOM     62  C   UNL     1       1.236  -3.455  14.337  1.00  0.00     0.074 A 
ATOM     63  C   UNL     1       4.571  -8.994  13.424  1.00  0.00     0.029 A 
ATOM     64  N   UNL     1       4.246  -7.256  14.729  1.00  0.00    -0.354 N 
ATOM     65  N   UNL     1       0.736  -4.638  14.575  1.00  0.00    -0.248 NA
ATOM     66  C   UNL     1       2.601  -3.260  14.806  1.00  0.00     0.031 C 
ATOM     67  C   UNL     1       3.175  -8.829  13.669  1.00  0.00     0.029 A 
ATOM     68  C   UNL     1       2.983  -7.609  14.320  1.00  0.00     0.049 A 
ATOM     69  H   UNL     1       4.465  -6.701  15.512  1.00  0.00     0.167 HD
ATOM     70  C   UNL     1       1.832  -5.455  14.820  1.00  0.00     0.074 A 
ATOM     71  C   UNL     1       2.948  -4.532  15.028  1.00  0.00     0.031 C 
ATOM     72  C   UNL     1       1.799  -6.792  14.534  1.00  0.00     0.034 A 
BRANCH  59  73
ATOM     73  C   UNL     1       7.177  -6.216  14.257  1.00  0.00     0.023 A 
ATOM     74  C   UNL     1       7.213  -6.635  15.597  1.00  0.00     0.031 A 
ATOM     75  C   UNL     1       7.802  -4.970  13.998  1.00  0.00     0.131 A 
ATOM     76  C   UNL     1       7.677  -5.781  16.610  1.00  0.00     0.055 A 
ATOM     77  C   UNL     1       8.315  -4.147  15.004  1.00  0.00     0.041 A 
ATOM     78  F   UNL     1       7.910  -4.429  12.781  1.00  0.00    -0.206 F 
ATOM     79  C   UNL     1       8.215  -4.531  16.326  1.00  0.00     0.022 A 
BRANCH  76  80
ATOM     80  S   UNL     1       7.378  -6.268  18.323  1.00  0.00     0.124 S 
ATOM     81  O   UNL     1       5.938  -6.506  18.303  1.00  0.00    -0.237 OA
ATOM     82  O   UNL     1       8.227  -7.448  18.446  1.00  0.00    -0.237 OA
ATOM     83  O   UNL     1       7.812  -5.101  19.085  1.00  0.00    -0.744 OA
ENDBRANCH  76  80
ENDBRANCH  59  73
BRANCH  60  84
ATOM     84  C   UNL     1       0.471  -1.108  13.431  1.00  0.00     0.023 A 
ATOM     85  C   UNL     1      -0.115  -0.569  14.601  1.00  0.00     0.031 A 
ATOM     86  C   UNL     1       1.021  -0.175  12.522  1.00  0.00     0.131 A 
ATOM     87  C   UNL     1      -0.135   0.834  14.813  1.00  0.00     0.055 A 
ATOM     88  C   UNL     1       0.998   1.206  12.736  1.00  0.00     0.041 A 
ATOM     89  F   UNL     1       1.683  -0.576  11.426  1.00  0.00    -0.206 F 
ATOM     90  C   UNL     1       0.427   1.716  13.888  1.00  0.00     0.022 A 
BRANCH  87  91
ATOM     91  S   UNL     1      -0.832   1.546  16.343  1.00  0.00     0.124 S 
ATOM     92  O   UNL     1      -2.251   1.237  16.211  1.00  0.00    -0.237 OA
ATOM     93  O   UNL     1      -0.105   0.829  17.384  1.00  0.00    -0.237 OA
ATOM     94  O   UNL     1      -0.504   2.969  16.240  1.00  0.00    -0.744 OA
ENDBRANCH  87  91
ENDBRANCH  60  84
BRANCH  72  95
ATOM     95  C   UNL     1       0.457  -7.439  14.245  1.00  0.00     0.023 A 
ATOM     96  C   UNL     1      -0.430  -7.067  13.206  1.00  0.00     0.031 A 
ATOM     97  C   UNL     1       0.124  -8.575  15.005  1.00  0.00     0.131 A 
ATOM     98  C   UNL     1      -1.600  -7.822  12.973  1.00  0.00     0.055 A 
ATOM     99  C   UNL     1      -1.019  -9.331  14.757  1.00  0.00     0.041 A 
ATOM    100  F   UNL     1       0.936  -8.995  15.990  1.00  0.00    -0.206 F 
ATOM    101  C   UNL     1      -1.889  -8.954  13.742  1.00  0.00     0.022 A 
BRANCH  98 102
ATOM    102  S   UNL     1      -2.787  -7.341  11.674  1.00  0.00     0.124 S 
ATOM    103  O   UNL     1      -2.969  -5.910  11.891  1.00  0.00    -0.237 OA
ATOM    104  O   UNL     1      -2.085  -7.718  10.450  1.00  0.00    -0.237 OA
ATOM    105  O   UNL     1      -3.966  -8.156  11.972  1.00  0.00    -0.744 OA
ENDBRANCH  98 102
ENDBRANCH  72  95
ENDBRANCH  46  47
ENDBRANCH  39  41
ENDBRANCH  38  39
ENDBRANCH  37  38
ENDBRANCH   1  37
TORSDOF 21
