REMARK SMILES C[C@@H](Sc1nc2ccccc2c(=O)n1N)C(=O)OCCOCCOC(=O)c1ccc(-c2c3nc(c(-c4cc(S(=O)(=O)[O-])ccc4F)c4ccc([nH]4)c(-c4cc(S(=O)(=O)[O-])ccc4F)c4nc(c(-c5cc(S(=O)(=O)[O-])ccc5F)c5ccc2[nH]5)C=C4)C=C3)cc1
REMARK SMILES IDX 21 1 20 2 19 3 18 4 16 5 17 6 2 7 1 8 3 9 4 10 5 11 14 12
REMARK SMILES IDX 6 13 12 14 7 15 11 16 13 17 8 18 10 19 9 20 15 21 22 24
REMARK SMILES IDX 23 25 24 26 25 27 26 28 27 29 28 30 89 31 29 32 88 33 30 34
REMARK SMILES IDX 31 35 32 36 82 37 33 38 87 39 81 40 83 41 34 42 86 43 80 44
REMARK SMILES IDX 79 45 35 47 67 48 47 49 66 50 48 51 51 52 65 53 84 54 49 55
REMARK SMILES IDX 50 56 64 58 85 59 52 60 36 61 37 62 45 63 38 64 44 65 46 66
REMARK SMILES IDX 43 67 39 68 40 69 41 70 42 71 68 72 69 73 77 74 70 75 76 76
REMARK SMILES IDX 78 77 75 78 71 79 72 80 73 81 74 82 53 83 54 84 62 85 55 86
REMARK SMILES IDX 61 87 63 88 60 89 56 90 57 91 58 92 59 93
REMARK H PARENT 15 22 15 23 83 46 51 57
REMARK Flexibility Score: inf
ROOT
ATOM      1  O   UNL     1      -3.373  -0.704  -1.700  1.00  0.00    -0.374 OA
ENDROOT
BRANCH   1   2
ATOM      2  C   UNL     1      -3.820  -0.824  -0.350  1.00  0.00     0.202 C 
BRANCH   2   3
ATOM      3  C   UNL     1      -3.124  -1.887   0.504  1.00  0.00     0.261 C 
BRANCH   3   4
ATOM      4  O   UNL     1      -1.734  -1.580   0.703  1.00  0.00    -0.462 OA
BRANCH   4   5
ATOM      5  C   UNL     1      -0.847  -2.409   0.091  1.00  0.00     0.319 C 
ATOM      6  O   UNL     1      -1.152  -3.404  -0.561  1.00  0.00    -0.251 OA
BRANCH   5   7
ATOM      7  C   UNL     1       0.601  -1.974   0.294  1.00  0.00     0.161 C 
ATOM      8  C   UNL     1       0.796  -0.522   0.718  1.00  0.00     0.032 C 
BRANCH   7   9
ATOM      9  S   UNL     1       1.328  -3.139   1.493  1.00  0.00    -0.071 SA
BRANCH   9  10
ATOM     10  C   UNL     1       3.029  -2.818   1.280  1.00  0.00     0.191 A 
ATOM     11  N   UNL     1       3.650  -2.292   2.284  1.00  0.00    -0.222 NA
ATOM     12  N   UNL     1       3.655  -3.210   0.100  1.00  0.00    -0.202 N 
ATOM     13  C   UNL     1       5.038  -2.137   2.199  1.00  0.00     0.079 A 
ATOM     14  C   UNL     1       5.036  -3.095  -0.065  1.00  0.00     0.280 A 
ATOM     15  C   UNL     1       5.719  -1.618   3.301  1.00  0.00     0.029 A 
ATOM     16  C   UNL     1       5.773  -2.531   1.080  1.00  0.00     0.068 A 
ATOM     17  O   UNL     1       5.633  -3.457  -1.079  1.00  0.00    -0.267 OA
ATOM     18  C   UNL     1       7.112  -1.510   3.291  1.00  0.00     0.002 A 
ATOM     19  C   UNL     1       7.168  -2.425   1.057  1.00  0.00     0.016 A 
ATOM     20  C   UNL     1       7.837  -1.917   2.171  1.00  0.00     0.001 A 
BRANCH  12  21
ATOM     21  N   UNL     1       2.923  -3.761  -1.004  1.00  0.00    -0.334 N 
ATOM     22  H   UNL     1       1.946  -3.865  -0.944  1.00  0.00     0.178 HD
ATOM     23  H   UNL     1       3.398  -4.034  -1.822  1.00  0.00     0.178 HD
ENDBRANCH  12  21
ENDBRANCH   9  10
ENDBRANCH   7   9
ENDBRANCH   5   7
ENDBRANCH   4   5
ENDBRANCH   3   4
ENDBRANCH   2   3
ENDBRANCH   1   2
BRANCH   1  24
ATOM     24  C   UNL     1      -2.145  -0.016  -1.933  1.00  0.00     0.202 C 
BRANCH  24  25
ATOM     25  C   UNL     1      -2.165   1.512  -1.802  1.00  0.00     0.261 C 
BRANCH  25  26
ATOM     26  O   UNL     1      -2.429   1.949  -0.456  1.00  0.00    -0.460 OA
BRANCH  26  27
ATOM     27  C   UNL     1      -3.601   2.611  -0.305  1.00  0.00     0.338 C 
ATOM     28  O   UNL     1      -4.382   2.925  -1.198  1.00  0.00    -0.246 OA
BRANCH  27  29
ATOM     29  C   UNL     1      -3.944   2.764   1.121  1.00  0.00     0.060 A 
ATOM     30  C   UNL     1      -5.213   2.329   1.519  1.00  0.00     0.016 A 
ATOM     31  C   UNL     1      -3.098   3.404   2.031  1.00  0.00     0.016 A 
ATOM     32  C   UNL     1      -5.669   2.589   2.808  1.00  0.00     0.010 A 
ATOM     33  C   UNL     1      -3.561   3.669   3.328  1.00  0.00     0.010 A 
ATOM     34  C   UNL     1      -4.864   3.300   3.709  1.00  0.00    -0.014 A 
BRANCH  34  35
ATOM     35  C   UNL     1      -5.474   3.779   4.977  1.00  0.00     0.031 A 
ATOM     36  C   UNL     1      -5.966   5.200   5.062  1.00  0.00     0.074 A 
ATOM     37  C   UNL     1      -5.674   2.933   6.004  1.00  0.00     0.049 A 
ATOM     38  N   UNL     1      -6.593   5.807   6.037  1.00  0.00    -0.248 NA
ATOM     39  C   UNL     1      -5.721   6.049   3.885  1.00  0.00     0.031 C 
ATOM     40  C   UNL     1      -5.272   1.527   6.027  1.00  0.00     0.029 A 
ATOM     41  N   UNL     1      -6.276   3.130   7.221  1.00  0.00    -0.354 N 
ATOM     42  C   UNL     1      -6.835   7.101   5.587  1.00  0.00     0.074 A 
ATOM     43  C   UNL     1      -6.235   7.206   4.274  1.00  0.00     0.031 C 
ATOM     44  C   UNL     1      -5.639   0.988   7.202  1.00  0.00     0.029 A 
ATOM     45  C   UNL     1      -6.280   2.013   8.024  1.00  0.00     0.049 A 
ATOM     46  H   UNL     1      -6.669   3.990   7.495  1.00  0.00     0.167 HD
ATOM     47  C   UNL     1      -7.512   8.103   6.202  1.00  0.00     0.034 A 
ATOM     48  C   UNL     1      -6.737   1.840   9.280  1.00  0.00     0.034 A 
ATOM     49  C   UNL     1      -8.085   7.996   7.522  1.00  0.00     0.049 A 
ATOM     50  C   UNL     1      -7.423   2.993   9.975  1.00  0.00     0.074 A 
ATOM     51  C   UNL     1      -8.773   8.955   8.247  1.00  0.00     0.029 A 
ATOM     52  N   UNL     1      -8.031   6.862   8.322  1.00  0.00    -0.354 N 
ATOM     53  N   UNL     1      -7.651   4.209   9.532  1.00  0.00    -0.248 NA
ATOM     54  C   UNL     1      -7.930   2.742  11.330  1.00  0.00     0.031 C 
ATOM     55  C   UNL     1      -9.079   8.422   9.504  1.00  0.00     0.029 A 
ATOM     56  C   UNL     1      -8.651   7.105   9.540  1.00  0.00     0.049 A 
ATOM     57  H   UNL     1      -7.614   6.008   8.063  1.00  0.00     0.167 HD
ATOM     58  C   UNL     1      -8.351   4.857  10.547  1.00  0.00     0.074 A 
ATOM     59  C   UNL     1      -8.530   3.889  11.610  1.00  0.00     0.031 C 
ATOM     60  C   UNL     1      -8.807   6.135  10.598  1.00  0.00     0.034 A 
BRANCH  47  61
ATOM     61  C   UNL     1      -7.629   9.413   5.459  1.00  0.00     0.023 A 
ATOM     62  C   UNL     1      -8.348   9.513   4.253  1.00  0.00     0.031 A 
ATOM     63  C   UNL     1      -6.993  10.569   5.944  1.00  0.00     0.131 A 
ATOM     64  C   UNL     1      -8.357  10.723   3.542  1.00  0.00     0.055 A 
ATOM     65  C   UNL     1      -7.070  11.789   5.270  1.00  0.00     0.041 A 
ATOM     66  F   UNL     1      -6.274  10.528   7.077  1.00  0.00    -0.206 F 
ATOM     67  C   UNL     1      -7.744  11.868   4.055  1.00  0.00     0.022 A 
BRANCH  64  68
ATOM     68  S   UNL     1      -9.071  10.746   1.875  1.00  0.00     0.124 S 
ATOM     69  O   UNL     1      -8.240   9.762   1.185  1.00  0.00    -0.237 OA
ATOM     70  O   UNL     1     -10.455  10.356   2.118  1.00  0.00    -0.237 OA
ATOM     71  O   UNL     1      -8.879  12.127   1.439  1.00  0.00    -0.744 OA
ENDBRANCH  64  68
ENDBRANCH  47  61
BRANCH  48  72
ATOM     72  C   UNL     1      -6.535   0.542   9.987  1.00  0.00     0.023 A 
ATOM     73  C   UNL     1      -7.619  -0.245  10.406  1.00  0.00     0.031 A 
ATOM     74  C   UNL     1      -5.238   0.104  10.316  1.00  0.00     0.131 A 
ATOM     75  C   UNL     1      -7.392  -1.398  11.174  1.00  0.00     0.055 A 
ATOM     76  C   UNL     1      -5.015  -1.072  11.032  1.00  0.00     0.041 A 
ATOM     77  F   UNL     1      -4.165   0.819   9.941  1.00  0.00    -0.206 F 
ATOM     78  C   UNL     1      -6.097  -1.823  11.479  1.00  0.00     0.022 A 
BRANCH  75  79
ATOM     79  S   UNL     1      -8.820  -2.284  11.858  1.00  0.00     0.124 S 
ATOM     80  O   UNL     1      -9.492  -1.231  12.610  1.00  0.00    -0.237 OA
ATOM     81  O   UNL     1      -9.497  -2.742  10.649  1.00  0.00    -0.237 OA
ATOM     82  O   UNL     1      -8.211  -3.338  12.666  1.00  0.00    -0.744 OA
ENDBRANCH  75  79
ENDBRANCH  48  72
BRANCH  60  83
ATOM     83  C   UNL     1      -9.573   6.538  11.837  1.00  0.00     0.023 A 
ATOM     84  C   UNL     1      -8.958   6.598  13.100  1.00  0.00     0.031 A 
ATOM     85  C   UNL     1     -10.945   6.834  11.757  1.00  0.00     0.131 A 
ATOM     86  C   UNL     1      -9.726   6.875  14.241  1.00  0.00     0.055 A 
ATOM     87  C   UNL     1     -11.692   7.173  12.887  1.00  0.00     0.041 A 
ATOM     88  F   UNL     1     -11.586   6.794  10.578  1.00  0.00    -0.206 F 
ATOM     89  C   UNL     1     -11.086   7.178  14.140  1.00  0.00     0.022 A 
BRANCH  86  90
ATOM     90  S   UNL     1      -8.947   6.726  15.873  1.00  0.00     0.124 S 
ATOM     91  O   UNL     1      -8.456   5.352  15.850  1.00  0.00    -0.237 OA
ATOM     92  O   UNL     1      -7.928   7.769  15.827  1.00  0.00    -0.237 OA
ATOM     93  O   UNL     1     -10.047   6.976  16.802  1.00  0.00    -0.744 OA
ENDBRANCH  86  90
ENDBRANCH  60  83
ENDBRANCH  34  35
ENDBRANCH  27  29
ENDBRANCH  26  27
ENDBRANCH  25  26
ENDBRANCH  24  25
ENDBRANCH   1  24
TORSDOF 20
