REMARK SMILES COc1cccc(C(=O)/C=C(/Nc2cc(C)c(C)cc2[N+](=O)[O-])C(=O)OCCOCCOC(=O)c2ccc(-c3c4nc(c(-c5cc(S(=O)(=O)[O-])ccc5F)c5ccc([nH]5)c(-c5cc(S(=O)(=O)[O-])ccc5F)c5nc(c(-c6cc(S(=O)(=O)[O-])ccc6F)c6ccc3[nH]6)C=C5)C=C4)cc2)c1
REMARK SMILES IDX 29 1 28 2 27 3 26 4 24 5 25 6 11 7 10 8 8 9 9 10 7 11 3 12
REMARK SMILES IDX 4 13 98 14 5 15 6 16 2 17 1 18 12 19 13 21 14 22 20 23 15 24
REMARK SMILES IDX 19 25 16 26 17 27 18 28 21 29 22 30 23 31 30 32 31 33 32 34
REMARK SMILES IDX 33 35 34 36 35 37 36 38 97 39 37 40 96 41 38 42 39 43 40 44
REMARK SMILES IDX 90 45 41 46 95 47 89 48 91 49 42 50 94 51 88 52 87 53 43 55
REMARK SMILES IDX 75 56 55 57 74 58 56 59 59 60 73 61 92 62 57 63 58 64 72 66
REMARK SMILES IDX 93 67 60 68 44 69 45 70 53 71 46 72 52 73 54 74 51 75 47 76
REMARK SMILES IDX 48 77 49 78 50 79 76 80 77 81 85 82 78 83 84 84 86 85 83 86
REMARK SMILES IDX 79 87 80 88 81 89 82 90 61 91 62 92 70 93 63 94 69 95 71 96
REMARK SMILES IDX 68 97 64 98 65 99 66 100 67 101
REMARK H PARENT 12 20 91 54 59 65
REMARK Flexibility Score: inf
ROOT
ATOM      1  O   UNL     1       1.257   0.394  -2.702  1.00  0.00    -0.374 OA
ENDROOT
BRANCH   1   2
ATOM      2  C   UNL     1       0.695   0.364  -1.393  1.00  0.00     0.202 C 
BRANCH   2   3
ATOM      3  C   UNL     1       1.598  -0.014  -0.212  1.00  0.00     0.261 C 
BRANCH   3   4
ATOM      4  O   UNL     1       2.908  -0.309  -0.666  1.00  0.00    -0.459 OA
BRANCH   4   5
ATOM      5  C   UNL     1       3.387  -1.517  -0.354  1.00  0.00     0.354 C 
ATOM      6  O   UNL     1       2.950  -2.303   0.478  1.00  0.00    -0.244 OA
BRANCH   5   7
ATOM      7  C   UNL     1       4.643  -1.699  -1.116  1.00  0.00     0.129 C 
ATOM      8  C   UNL     1       4.556  -2.217  -2.357  1.00  0.00     0.086 C 
BRANCH   8   9
ATOM      9  C   UNL     1       3.495  -2.731  -3.297  1.00  0.00     0.188 C 
ATOM     10  O   UNL     1       3.894  -3.017  -4.434  1.00  0.00    -0.289 OA
BRANCH   9  11
ATOM     11  C   UNL     1       2.027  -2.856  -3.056  1.00  0.00     0.026 A 
ATOM     12  C   UNL     1       0.037  -3.257  -1.715  1.00  0.00     0.119 A 
ATOM     13  C   UNL     1      -0.785  -3.019  -2.812  1.00  0.00     0.046 A 
ATOM     14  C   UNL     1       1.433  -3.270  -1.863  1.00  0.00     0.058 A 
ATOM     15  C   UNL     1      -0.212  -2.731  -4.046  1.00  0.00     0.005 A 
ATOM     16  C   UNL     1       1.180  -2.631  -4.160  1.00  0.00     0.012 A 
BRANCH  12  17
ATOM     17  O   UNL     1      -0.483  -3.575  -0.488  1.00  0.00    -0.497 OA
ATOM     18  C   UNL     1      -1.331  -2.556   0.055  1.00  0.00     0.278 C 
ENDBRANCH  12  17
ENDBRANCH   9  11
ENDBRANCH   8   9
BRANCH   7  19
ATOM     19  N   UNL     1       5.815  -1.192  -0.526  1.00  0.00    -0.344 N 
ATOM     20  H   UNL     1       6.625  -1.150  -1.083  1.00  0.00     0.167 HD
BRANCH  19  21
ATOM     21  C   UNL     1       5.913  -0.736   0.815  1.00  0.00     0.118 A 
ATOM     22  C   UNL     1       6.324   0.590   1.048  1.00  0.00     0.037 A 
ATOM     23  C   UNL     1       5.423  -1.450   1.925  1.00  0.00     0.292 A 
ATOM     24  C   UNL     1       6.122   1.223   2.297  1.00  0.00    -0.046 A 
ATOM     25  C   UNL     1       5.095  -0.799   3.123  1.00  0.00     0.091 A 
ATOM     26  C   UNL     1       6.691   2.601   2.513  1.00  0.00     0.045 C 
ATOM     27  C   UNL     1       5.380   0.561   3.292  1.00  0.00    -0.041 A 
ATOM     28  C   UNL     1       4.927   1.237   4.560  1.00  0.00     0.045 C 
BRANCH  23  29
ATOM     29  N   UNL     1       5.349  -2.919   1.900  1.00  0.00     0.064 N 
ATOM     30  O   UNL     1       4.615  -3.478   2.729  1.00  0.00    -0.258 OA
ATOM     31  O   UNL     1       6.091  -3.524   1.109  1.00  0.00    -0.258 OA
ENDBRANCH  23  29
ENDBRANCH  19  21
ENDBRANCH   7  19
ENDBRANCH   5   7
ENDBRANCH   4   5
ENDBRANCH   3   4
ENDBRANCH   2   3
ENDBRANCH   1   2
BRANCH   1  32
ATOM     32  C   UNL     1       2.412   1.183  -2.972  1.00  0.00     0.202 C 
BRANCH  32  33
ATOM     33  C   UNL     1       2.372   2.667  -2.610  1.00  0.00     0.261 C 
BRANCH  33  34
ATOM     34  O   UNL     1       2.344   2.892  -1.189  1.00  0.00    -0.460 OA
BRANCH  34  35
ATOM     35  C   UNL     1       1.215   3.487  -0.732  1.00  0.00     0.338 C 
ATOM     36  O   UNL     1       0.245   3.823  -1.392  1.00  0.00    -0.246 OA
BRANCH  35  37
ATOM     37  C   UNL     1       1.223   3.533   0.740  1.00  0.00     0.060 A 
ATOM     38  C   UNL     1       0.114   3.014   1.424  1.00  0.00     0.016 A 
ATOM     39  C   UNL     1       2.253   4.172   1.431  1.00  0.00     0.016 A 
ATOM     40  C   UNL     1      -0.002   3.194   2.800  1.00  0.00     0.010 A 
ATOM     41  C   UNL     1       2.125   4.370   2.807  1.00  0.00     0.010 A 
ATOM     42  C   UNL     1       0.975   3.926   3.486  1.00  0.00    -0.014 A 
BRANCH  42  43
ATOM     43  C   UNL     1       0.694   4.426   4.852  1.00  0.00     0.031 A 
ATOM     44  C   UNL     1       0.178   5.833   5.001  1.00  0.00     0.074 A 
ATOM     45  C   UNL     1       0.876   3.646   5.931  1.00  0.00     0.049 A 
ATOM     46  N   UNL     1      -0.041   6.530   6.085  1.00  0.00    -0.248 NA
ATOM     47  C   UNL     1      -0.126   6.549   3.751  1.00  0.00     0.031 C 
ATOM     48  C   UNL     1       1.300   2.247   5.900  1.00  0.00     0.029 A 
ATOM     49  N   UNL     1       0.735   3.927   7.265  1.00  0.00    -0.354 N 
ATOM     50  C   UNL     1      -0.518   7.763   5.650  1.00  0.00     0.074 A 
ATOM     51  C   UNL     1      -0.506   7.734   4.203  1.00  0.00     0.031 C 
ATOM     52  C   UNL     1       1.407   1.798   7.163  1.00  0.00     0.029 A 
ATOM     53  C   UNL     1       1.098   2.886   8.088  1.00  0.00     0.049 A 
ATOM     54  H   UNL     1       0.406   4.791   7.602  1.00  0.00     0.167 HD
ATOM     55  C   UNL     1      -0.939   8.818   6.391  1.00  0.00     0.034 A 
ATOM     56  C   UNL     1       1.194   2.836   9.432  1.00  0.00     0.034 A 
ATOM     57  C   UNL     1      -0.915   8.841   7.832  1.00  0.00     0.049 A 
ATOM     58  C   UNL     1       0.828   4.066  10.235  1.00  0.00     0.074 A 
ATOM     59  C   UNL     1      -1.269   9.870   8.688  1.00  0.00     0.029 A 
ATOM     60  N   UNL     1      -0.512   7.781   8.634  1.00  0.00    -0.354 N 
ATOM     61  N   UNL     1       0.405   5.237   9.813  1.00  0.00    -0.248 NA
ATOM     62  C   UNL     1       0.937   3.960  11.695  1.00  0.00     0.031 C 
ATOM     63  C   UNL     1      -1.024   9.453  10.001  1.00  0.00     0.029 A 
ATOM     64  C   UNL     1      -0.594   8.136   9.971  1.00  0.00     0.049 A 
ATOM     65  H   UNL     1      -0.211   6.904   8.301  1.00  0.00     0.167 HD
ATOM     66  C   UNL     1       0.152   5.985  10.962  1.00  0.00     0.074 A 
ATOM     67  C   UNL     1       0.455   5.128  12.088  1.00  0.00     0.031 C 
ATOM     68  C   UNL     1      -0.294   7.263  11.081  1.00  0.00     0.034 A 
BRANCH  55  69
ATOM     69  C   UNL     1      -1.418  10.039   5.643  1.00  0.00     0.023 A 
ATOM     70  C   UNL     1      -2.563   9.999   4.828  1.00  0.00     0.031 A 
ATOM     71  C   UNL     1      -0.707  11.249   5.720  1.00  0.00     0.131 A 
ATOM     72  C   UNL     1      -2.926  11.125   4.074  1.00  0.00     0.055 A 
ATOM     73  C   UNL     1      -1.119  12.390   5.028  1.00  0.00     0.041 A 
ATOM     74  F   UNL     1       0.410  11.341   6.459  1.00  0.00    -0.206 F 
ATOM     75  C   UNL     1      -2.227  12.329   4.189  1.00  0.00     0.022 A 
BRANCH  72  76
ATOM     76  S   UNL     1      -4.244  10.954   2.839  1.00  0.00     0.124 S 
ATOM     77  O   UNL     1      -3.692   9.924   1.962  1.00  0.00    -0.237 OA
ATOM     78  O   UNL     1      -5.388  10.556   3.651  1.00  0.00    -0.237 OA
ATOM     79  O   UNL     1      -4.332  12.286   2.246  1.00  0.00    -0.744 OA
ENDBRANCH  72  76
ENDBRANCH  55  69
BRANCH  56  80
ATOM     80  C   UNL     1       1.687   1.607  10.120  1.00  0.00     0.023 A 
ATOM     81  C   UNL     1       0.886   0.932  11.054  1.00  0.00     0.031 A 
ATOM     82  C   UNL     1       3.002   1.146   9.927  1.00  0.00     0.131 A 
ATOM     83  C   UNL     1       1.429  -0.116  11.815  1.00  0.00     0.055 A 
ATOM     84  C   UNL     1       3.516   0.060  10.638  1.00  0.00     0.041 A 
ATOM     85  F   UNL     1       3.814   1.753   9.046  1.00  0.00    -0.206 F 
ATOM     86  C   UNL     1       2.734  -0.565  11.604  1.00  0.00     0.022 A 
BRANCH  83  87
ATOM     87  S   UNL     1       0.444  -0.791  13.181  1.00  0.00     0.124 S 
ATOM     88  O   UNL     1       0.150   0.410  13.954  1.00  0.00    -0.237 OA
ATOM     89  O   UNL     1      -0.683  -1.389  12.472  1.00  0.00    -0.237 OA
ATOM     90  O   UNL     1       1.354  -1.739  13.819  1.00  0.00    -0.744 OA
ENDBRANCH  83  87
ENDBRANCH  56  80
BRANCH  68  91
ATOM     91  C   UNL     1      -0.549   7.773  12.480  1.00  0.00     0.023 A 
ATOM     92  C   UNL     1       0.489   7.936  13.415  1.00  0.00     0.031 A 
ATOM     93  C   UNL     1      -1.861   8.068  12.894  1.00  0.00     0.131 A 
ATOM     94  C   UNL     1       0.190   8.306  14.735  1.00  0.00     0.055 A 
ATOM     95  C   UNL     1      -2.144   8.504  14.189  1.00  0.00     0.041 A 
ATOM     96  F   UNL     1      -2.892   7.933  12.045  1.00  0.00    -0.206 F 
ATOM     97  C   UNL     1      -1.118   8.606  15.123  1.00  0.00     0.022 A 
BRANCH  94  98
ATOM     98  S   UNL     1       1.519   8.271  15.969  1.00  0.00     0.124 S 
ATOM     99  O   UNL     1       2.003   6.899  15.856  1.00  0.00    -0.237 OA
ATOM    100  O   UNL     1       2.423   9.307  15.480  1.00  0.00    -0.237 OA
ATOM    101  O   UNL     1       0.833   8.586  17.221  1.00  0.00    -0.744 OA
ENDBRANCH  94  98
ENDBRANCH  68  91
ENDBRANCH  42  43
ENDBRANCH  35  37
ENDBRANCH  34  35
ENDBRANCH  33  34
ENDBRANCH  32  33
ENDBRANCH   1  32
TORSDOF 23
