REMARK SMILES O=C(Nc1cccc(C(=O)OCCOCCOC(=O)c2ccc(-c3c4nc(c(-c5cc(S(=O)(=O)[O-])ccc5F)c5ccc([nH]5)c(-c5cc(S(=O)(=O)[O-])ccc5F)c5nc(c(-c6cc(S(=O)(=O)[O-])ccc6F)c6ccc3[nH]6)C=C5)C=C4)cc2)c1)Nc1cc(Cl)c(Cl)cc1Cl
REMARK SMILES IDX 15 1 14 2 13 3 12 4 11 5 9 6 10 7 8 8 4 9 5 10 83 11 6 12
REMARK SMILES IDX 7 13 3 14 1 15 2 16 84 17 85 20 86 21 92 22 87 23 91 24
REMARK SMILES IDX 93 25 88 26 89 27 90 28 16 29 17 30 18 31 19 32 20 33 21 34
REMARK SMILES IDX 82 35 22 36 81 37 23 38 24 39 25 40 75 41 26 42 80 43 74 44
REMARK SMILES IDX 76 45 27 46 79 47 73 48 72 49 28 51 60 52 40 53 59 54 41 55
REMARK SMILES IDX 44 56 58 57 77 58 42 59 43 60 57 62 78 63 45 64 29 65 30 66
REMARK SMILES IDX 38 67 31 68 37 69 39 70 36 71 32 72 33 73 34 74 35 75 61 76
REMARK SMILES IDX 62 77 70 78 63 79 69 80 71 81 68 82 64 83 65 84 66 85 67 86
REMARK SMILES IDX 46 87 47 88 55 89 48 90 54 91 56 92 53 93 49 94 50 95 51 96
REMARK SMILES IDX 52 97
REMARK H PARENT 3 18 84 19 76 50 44 61
REMARK Flexibility Score: inf
ROOT
ATOM      1  C   UNL     1       8.160   3.320   1.569  1.00  0.00     0.202 C 
ENDROOT
BRANCH   1   2
ATOM      2  O   UNL     1       8.902   3.900   0.496  1.00  0.00    -0.374 OA
BRANCH   2   3
ATOM      3  C   UNL     1       8.161   4.316  -0.653  1.00  0.00     0.202 C 
BRANCH   3   4
ATOM      4  C   UNL     1       7.820   3.219  -1.668  1.00  0.00     0.261 C 
BRANCH   4   5
ATOM      5  O   UNL     1       6.955   2.229  -1.086  1.00  0.00    -0.460 OA
BRANCH   5   6
ATOM      6  C   UNL     1       7.527   1.028  -0.835  1.00  0.00     0.338 C 
ATOM      7  O   UNL     1       8.628   0.644  -1.194  1.00  0.00    -0.246 OA
BRANCH   6   8
ATOM      8  C   UNL     1       6.674   0.257   0.102  1.00  0.00     0.062 A 
ATOM      9  C   UNL     1       4.516  -0.399   0.989  1.00  0.00     0.043 A 
ATOM     10  C   UNL     1       5.164  -1.195   1.940  1.00  0.00     0.026 A 
ATOM     11  C   UNL     1       5.280   0.377   0.111  1.00  0.00     0.041 A 
ATOM     12  C   UNL     1       6.556  -1.294   1.952  1.00  0.00     0.003 A 
ATOM     13  C   UNL     1       7.310  -0.588   1.018  1.00  0.00     0.016 A 
BRANCH   9  14
ATOM     14  N   UNL     1       3.111  -0.439   0.968  1.00  0.00    -0.308 N 
ATOM     15  O   UNL     1       1.017  -0.175   0.231  1.00  0.00    -0.248 OA
ATOM     16  C   UNL     1       2.215  -0.145  -0.031  1.00  0.00     0.323 C 
ATOM     17  N   UNL     1       2.749  -0.016  -1.284  1.00  0.00    -0.306 N 
ATOM     18  H   UNL     1       2.698  -0.726   1.814  1.00  0.00     0.171 HD
ATOM     19  H   UNL     1       3.696  -0.269  -1.376  1.00  0.00     0.171 HD
BRANCH  17  20
ATOM     20  C   UNL     1       2.115   0.434  -2.460  1.00  0.00     0.063 A 
ATOM     21  C   UNL     1       2.634  -0.108  -3.647  1.00  0.00     0.049 A 
ATOM     22  C   UNL     1       1.062   1.359  -2.543  1.00  0.00     0.066 A 
ATOM     23  C   UNL     1       2.038   0.159  -4.879  1.00  0.00     0.061 A 
ATOM     24  C   UNL     1       0.459   1.621  -3.781  1.00  0.00     0.044 A 
ATOM     25  Cl  UNL     1       0.550   2.345  -1.219  1.00  0.00    -0.082 Cl
ATOM     26  Cl  UNL     1       2.721  -0.597  -6.275  1.00  0.00    -0.083 Cl
ATOM     27  C   UNL     1       0.922   0.994  -4.940  1.00  0.00     0.061 A 
ATOM     28  Cl  UNL     1       0.071   1.264  -6.412  1.00  0.00    -0.083 Cl
ENDBRANCH  17  20
ENDBRANCH   9  14
ENDBRANCH   6   8
ENDBRANCH   5   6
ENDBRANCH   4   5
ENDBRANCH   3   4
ENDBRANCH   2   3
ENDBRANCH   1   2
BRANCH   1  29
ATOM     29  C   UNL     1       7.416   4.282   2.504  1.00  0.00     0.261 C 
BRANCH  29  30
ATOM     30  O   UNL     1       6.344   4.970   1.838  1.00  0.00    -0.460 OA
BRANCH  30  31
ATOM     31  C   UNL     1       6.581   6.285   1.596  1.00  0.00     0.338 C 
ATOM     32  O   UNL     1       7.558   6.928   1.940  1.00  0.00    -0.246 OA
BRANCH  31  33
ATOM     33  C   UNL     1       5.559   6.811   0.671  1.00  0.00     0.060 A 
ATOM     34  C   UNL     1       6.006   7.437  -0.499  1.00  0.00     0.016 A 
ATOM     35  C   UNL     1       4.194   6.739   0.960  1.00  0.00     0.016 A 
ATOM     36  C   UNL     1       5.090   8.022  -1.372  1.00  0.00     0.010 A 
ATOM     37  C   UNL     1       3.278   7.335   0.086  1.00  0.00     0.010 A 
ATOM     38  C   UNL     1       3.722   7.998  -1.072  1.00  0.00    -0.014 A 
BRANCH  38  39
ATOM     39  C   UNL     1       2.767   8.757  -1.918  1.00  0.00     0.031 A 
ATOM     40  C   UNL     1       2.259  10.090  -1.441  1.00  0.00     0.074 A 
ATOM     41  C   UNL     1       2.372   8.268  -3.108  1.00  0.00     0.049 A 
ATOM     42  N   UNL     1       1.376  10.886  -1.986  1.00  0.00    -0.248 NA
ATOM     43  C   UNL     1       2.822  10.588  -0.177  1.00  0.00     0.031 C 
ATOM     44  C   UNL     1       2.831   7.010  -3.698  1.00  0.00     0.029 A 
ATOM     45  N   UNL     1       1.489   8.769  -4.031  1.00  0.00    -0.354 N 
ATOM     46  C   UNL     1       1.271  11.979  -1.131  1.00  0.00     0.074 A 
ATOM     47  C   UNL     1       2.157  11.722  -0.014  1.00  0.00     0.031 C 
ATOM     48  C   UNL     1       2.218   6.834  -4.881  1.00  0.00     0.029 A 
ATOM     49  C   UNL     1       1.292   7.941  -5.111  1.00  0.00     0.049 A 
ATOM     50  H   UNL     1       1.040   9.639  -3.929  1.00  0.00     0.167 HD
ATOM     51  C   UNL     1       0.512  13.095  -1.271  1.00  0.00     0.034 A 
ATOM     52  C   UNL     1       0.436   8.048  -6.147  1.00  0.00     0.034 A 
ATOM     53  C   UNL     1      -0.377  13.327  -2.384  1.00  0.00     0.049 A 
ATOM     54  C   UNL     1      -0.482   9.244  -6.221  1.00  0.00     0.074 A 
ATOM     55  C   UNL     1      -1.175  14.431  -2.635  1.00  0.00     0.029 A 
ATOM     56  N   UNL     1      -0.603  12.434  -3.424  1.00  0.00    -0.354 N 
ATOM     57  N   UNL     1      -0.570  10.272  -5.410  1.00  0.00    -0.248 NA
ATOM     58  C   UNL     1      -1.420   9.287  -7.351  1.00  0.00     0.031 C 
ATOM     59  C   UNL     1      -1.940  14.171  -3.777  1.00  0.00     0.029 A 
ATOM     60  C   UNL     1      -1.559  12.942  -4.291  1.00  0.00     0.049 A 
ATOM     61  H   UNL     1      -0.149  11.566  -3.530  1.00  0.00     0.167 HD
ATOM     62  C   UNL     1      -1.555  11.097  -5.949  1.00  0.00     0.074 A 
ATOM     63  C   UNL     1      -2.019  10.453  -7.160  1.00  0.00     0.031 C 
ATOM     64  C   UNL     1      -2.030  12.282  -5.486  1.00  0.00     0.034 A 
BRANCH  51  65
ATOM     65  C   UNL     1       0.573  14.121  -0.164  1.00  0.00     0.023 A 
ATOM     66  C   UNL     1       1.755  14.820   0.136  1.00  0.00     0.031 A 
ATOM     67  C   UNL     1      -0.567  14.390   0.615  1.00  0.00     0.131 A 
ATOM     68  C   UNL     1       1.789  15.701   1.228  1.00  0.00     0.055 A 
ATOM     69  C   UNL     1      -0.548  15.328   1.649  1.00  0.00     0.041 A 
ATOM     70  F   UNL     1      -1.719  13.738   0.391  1.00  0.00    -0.206 F 
ATOM     71  C   UNL     1       0.639  15.979   1.971  1.00  0.00     0.022 A 
BRANCH  68  72
ATOM     72  S   UNL     1       3.391  16.370   1.753  1.00  0.00     0.124 S 
ATOM     73  O   UNL     1       4.150  15.150   2.015  1.00  0.00    -0.237 OA
ATOM     74  O   UNL     1       3.806  17.144   0.589  1.00  0.00    -0.237 OA
ATOM     75  O   UNL     1       3.062  17.157   2.940  1.00  0.00    -0.744 OA
ENDBRANCH  68  72
ENDBRANCH  51  65
BRANCH  52  76
ATOM     76  C   UNL     1       0.343   6.968  -7.169  1.00  0.00     0.023 A 
ATOM     77  C   UNL     1       0.663   7.210  -8.515  1.00  0.00     0.031 A 
ATOM     78  C   UNL     1      -0.155   5.700  -6.825  1.00  0.00     0.131 A 
ATOM     79  C   UNL     1       0.439   6.212  -9.476  1.00  0.00     0.055 A 
ATOM     80  C   UNL     1      -0.337   4.701  -7.780  1.00  0.00     0.041 A 
ATOM     81  F   UNL     1      -0.477   5.415  -5.553  1.00  0.00    -0.206 F 
ATOM     82  C   UNL     1      -0.044   4.953  -9.115  1.00  0.00     0.022 A 
BRANCH  79  83
ATOM     83  S   UNL     1       0.690   6.615 -11.226  1.00  0.00     0.124 S 
ATOM     84  O   UNL     1      -0.269   7.696 -11.420  1.00  0.00    -0.237 OA
ATOM     85  O   UNL     1       2.099   6.994 -11.251  1.00  0.00    -0.237 OA
ATOM     86  O   UNL     1       0.372   5.365 -11.913  1.00  0.00    -0.744 OA
ENDBRANCH  79  83
ENDBRANCH  52  76
BRANCH  64  87
ATOM     87  C   UNL     1      -3.082  12.974  -6.321  1.00  0.00     0.023 A 
ATOM     88  C   UNL     1      -4.369  12.434  -6.487  1.00  0.00     0.031 A 
ATOM     89  C   UNL     1      -2.786  14.188  -6.967  1.00  0.00     0.131 A 
ATOM     90  C   UNL     1      -5.295  13.079  -7.322  1.00  0.00     0.055 A 
ATOM     91  C   UNL     1      -3.732  14.857  -7.745  1.00  0.00     0.041 A 
ATOM     92  F   UNL     1      -1.571  14.747  -6.848  1.00  0.00    -0.206 F 
ATOM     93  C   UNL     1      -4.991  14.297  -7.936  1.00  0.00     0.022 A 
BRANCH  90  94
ATOM     94  S   UNL     1      -6.877  12.260  -7.668  1.00  0.00     0.124 S 
ATOM     95  O   UNL     1      -6.442  11.007  -8.276  1.00  0.00    -0.237 OA
ATOM     96  O   UNL     1      -7.471  12.152  -6.339  1.00  0.00    -0.237 OA
ATOM     97  O   UNL     1      -7.553  13.188  -8.574  1.00  0.00    -0.744 OA
ENDBRANCH  90  94
ENDBRANCH  64  87
ENDBRANCH  38  39
ENDBRANCH  31  33
ENDBRANCH  30  31
ENDBRANCH  29  30
ENDBRANCH   1  29
TORSDOF 19
