REMARK SMILES O=C(OCCOCCOC(=O)[C@@H]1CN(c2nc(-c3ccccc3)no2)CC[NH2+]1)c1ccc(-c2c3nc(c(-c4cc(S(=O)(=O)[O-])ccc4F)c4ccc([nH]4)c(-c4cc(S(=O)(=O)[O-])ccc4F)c4nc(c(-c5cc(S(=O)(=O)[O-])ccc5F)c5ccc2[nH]5)C=C4)C=C3)cc1
REMARK SMILES IDX 5 1 4 2 3 3 2 4 1 5 29 6 30 7 91 8 31 9 90 10 32 11 33 12
REMARK SMILES IDX 34 13 84 14 35 15 89 16 83 17 85 18 36 19 88 20 82 21 81 22
REMARK SMILES IDX 37 24 69 25 49 26 68 27 50 28 53 29 67 30 86 31 51 32 52 33
REMARK SMILES IDX 66 35 87 36 54 37 38 38 39 39 47 40 40 41 46 42 48 43 45 44
REMARK SMILES IDX 41 45 42 46 43 47 44 48 70 49 71 50 79 51 72 52 78 53 80 54
REMARK SMILES IDX 77 55 73 56 74 57 75 58 76 59 55 60 56 61 64 62 57 63 63 64
REMARK SMILES IDX 65 65 62 66 58 67 59 68 60 69 61 70 6 71 7 72 8 73 9 74
REMARK SMILES IDX 10 75 11 76 12 77 13 78 28 79 14 80 27 81 26 84 15 85 16 86
REMARK SMILES IDX 25 87 17 88 24 89 18 90 19 91 23 92 20 93 22 94 21 95
REMARK H PARENT 85 23 53 34 28 82 28 83
REMARK Flexibility Score: inf
ROOT
ATOM      1  C   UNL     1       4.774  -0.605  -0.977  1.00  0.00     0.202 C 
ENDROOT
BRANCH   1   2
ATOM      2  C   UNL     1       4.352  -1.032   0.441  1.00  0.00     0.261 C 
BRANCH   2   3
ATOM      3  O   UNL     1       2.934  -0.917   0.651  1.00  0.00    -0.460 OA
BRANCH   3   4
ATOM      4  C   UNL     1       2.274   0.126   1.217  1.00  0.00     0.338 C 
ATOM      5  O   UNL     1       1.055   0.050   1.358  1.00  0.00    -0.246 OA
BRANCH   4   6
ATOM      6  C   UNL     1       2.963   1.380   1.645  1.00  0.00     0.060 A 
ATOM      7  C   UNL     1       4.176   1.818   1.121  1.00  0.00     0.016 A 
ATOM      8  C   UNL     1       2.325   2.203   2.583  1.00  0.00     0.016 A 
ATOM      9  C   UNL     1       4.789   2.970   1.534  1.00  0.00     0.010 A 
ATOM     10  C   UNL     1       2.923   3.398   3.001  1.00  0.00     0.010 A 
ATOM     11  C   UNL     1       4.171   3.761   2.483  1.00  0.00    -0.014 A 
BRANCH  11  12
ATOM     12  C   UNL     1       5.021   4.824   3.026  1.00  0.00     0.031 A 
ATOM     13  C   UNL     1       5.715   4.540   4.319  1.00  0.00     0.074 A 
ATOM     14  C   UNL     1       5.365   5.848   2.225  1.00  0.00     0.049 A 
ATOM     15  N   UNL     1       6.541   5.284   4.996  1.00  0.00    -0.248 NA
ATOM     16  C   UNL     1       5.459   3.218   4.919  1.00  0.00     0.031 C 
ATOM     17  C   UNL     1       4.896   6.033   0.845  1.00  0.00     0.029 A 
ATOM     18  N   UNL     1       6.238   6.878   2.419  1.00  0.00    -0.354 N 
ATOM     19  C   UNL     1       6.864   4.543   6.127  1.00  0.00     0.074 A 
ATOM     20  C   UNL     1       6.150   3.291   6.042  1.00  0.00     0.031 C 
ATOM     21  C   UNL     1       5.513   7.098   0.312  1.00  0.00     0.029 A 
ATOM     22  C   UNL     1       6.341   7.719   1.337  1.00  0.00     0.049 A 
ATOM     23  H   UNL     1       6.744   7.007   3.254  1.00  0.00     0.167 HD
ATOM     24  C   UNL     1       7.673   4.909   7.148  1.00  0.00     0.034 A 
ATOM     25  C   UNL     1       7.003   8.884   1.223  1.00  0.00     0.034 A 
ATOM     26  C   UNL     1       8.349   6.181   7.166  1.00  0.00     0.049 A 
ATOM     27  C   UNL     1       7.777   9.342   2.434  1.00  0.00     0.074 A 
ATOM     28  C   UNL     1       9.116   6.745   8.165  1.00  0.00     0.029 A 
ATOM     29  N   UNL     1       8.324   7.096   6.114  1.00  0.00    -0.354 N 
ATOM     30  N   UNL     1       7.972   8.714   3.574  1.00  0.00    -0.248 NA
ATOM     31  C   UNL     1       8.406  10.661   2.353  1.00  0.00     0.031 C 
ATOM     32  C   UNL     1       9.486   8.030   7.750  1.00  0.00     0.029 A 
ATOM     33  C   UNL     1       9.036   8.233   6.452  1.00  0.00     0.049 A 
ATOM     34  H   UNL     1       7.866   6.954   5.255  1.00  0.00     0.167 HD
ATOM     35  C   UNL     1       8.778   9.550   4.336  1.00  0.00     0.074 A 
ATOM     36  C   UNL     1       9.039  10.719   3.515  1.00  0.00     0.031 C 
ATOM     37  C   UNL     1       9.265   9.375   5.594  1.00  0.00     0.034 A 
BRANCH  24  38
ATOM     38  C   UNL     1       7.714   3.987   8.343  1.00  0.00     0.023 A 
ATOM     39  C   UNL     1       8.185   2.664   8.261  1.00  0.00     0.031 A 
ATOM     40  C   UNL     1       7.132   4.402   9.554  1.00  0.00     0.131 A 
ATOM     41  C   UNL     1       7.967   1.778   9.329  1.00  0.00     0.055 A 
ATOM     42  C   UNL     1       7.007   3.542  10.647  1.00  0.00     0.041 A 
ATOM     43  F   UNL     1       6.626   5.639   9.681  1.00  0.00    -0.206 F 
ATOM     44  C   UNL     1       7.405   2.215  10.531  1.00  0.00     0.022 A 
BRANCH  41  45
ATOM     45  S   UNL     1       8.235   0.002   9.054  1.00  0.00     0.124 S 
ATOM     46  O   UNL     1       7.320  -0.266   7.946  1.00  0.00    -0.237 OA
ATOM     47  O   UNL     1       9.656  -0.059   8.737  1.00  0.00    -0.237 OA
ATOM     48  O   UNL     1       7.852  -0.605  10.327  1.00  0.00    -0.744 OA
ENDBRANCH  41  45
ENDBRANCH  24  38
BRANCH  25  49
ATOM     49  C   UNL     1       6.897   9.714  -0.012  1.00  0.00     0.023 A 
ATOM     50  C   UNL     1       8.034  10.084  -0.746  1.00  0.00     0.031 A 
ATOM     51  C   UNL     1       5.649  10.197  -0.453  1.00  0.00     0.131 A 
ATOM     52  C   UNL     1       7.906  10.942  -1.851  1.00  0.00     0.055 A 
ATOM     53  C   UNL     1       5.520  11.000  -1.587  1.00  0.00     0.041 A 
ATOM     54  F   UNL     1       4.524   9.887   0.212  1.00  0.00    -0.206 F 
ATOM     55  C   UNL     1       6.657  11.390  -2.286  1.00  0.00     0.022 A 
BRANCH  52  56
ATOM     56  S   UNL     1       9.413  11.547  -2.661  1.00  0.00     0.124 S 
ATOM     57  O   UNL     1      10.108  12.188  -1.551  1.00  0.00    -0.237 OA
ATOM     58  O   UNL     1      10.004  10.312  -3.163  1.00  0.00    -0.237 OA
ATOM     59  O   UNL     1       8.906  12.456  -3.688  1.00  0.00    -0.744 OA
ENDBRANCH  52  56
ENDBRANCH  25  49
BRANCH  37  60
ATOM     60  C   UNL     1      10.182  10.452   6.110  1.00  0.00     0.023 A 
ATOM     61  C   UNL     1       9.729  11.757   6.359  1.00  0.00     0.031 A 
ATOM     62  C   UNL     1      11.537  10.159   6.345  1.00  0.00     0.131 A 
ATOM     63  C   UNL     1      10.641  12.742   6.760  1.00  0.00     0.055 A 
ATOM     64  C   UNL     1      12.423  11.124   6.820  1.00  0.00     0.041 A 
ATOM     65  F   UNL     1      12.020   8.926   6.119  1.00  0.00    -0.206 F 
ATOM     66  C   UNL     1      11.979  12.429   7.014  1.00  0.00     0.022 A 
BRANCH  63  67
ATOM     67  S   UNL     1      10.080  14.464   6.825  1.00  0.00     0.124 S 
ATOM     68  O   UNL     1       9.597  14.676   5.465  1.00  0.00    -0.237 OA
ATOM     69  O   UNL     1       9.057  14.419   7.865  1.00  0.00    -0.237 OA
ATOM     70  O   UNL     1      11.290  15.204   7.177  1.00  0.00    -0.744 OA
ENDBRANCH  63  67
ENDBRANCH  37  60
ENDBRANCH  11  12
ENDBRANCH   4   6
ENDBRANCH   3   4
ENDBRANCH   2   3
ENDBRANCH   1   2
BRANCH   1  71
ATOM     71  O   UNL     1       4.255   0.615  -1.520  1.00  0.00    -0.374 OA
BRANCH  71  72
ATOM     72  C   UNL     1       2.864   0.655  -1.844  1.00  0.00     0.202 C 
BRANCH  72  73
ATOM     73  C   UNL     1       2.667   0.970  -3.321  1.00  0.00     0.261 C 
BRANCH  73  74
ATOM     74  O   UNL     1       3.056  -0.201  -4.049  1.00  0.00    -0.459 OA
BRANCH  74  75
ATOM     75  C   UNL     1       4.386  -0.263  -4.347  1.00  0.00     0.366 C 
ATOM     76  O   UNL     1       5.142   0.700  -4.432  1.00  0.00    -0.245 OA
BRANCH  75  77
ATOM     77  C   UNL     1       4.801  -1.701  -4.591  1.00  0.00     0.313 C 
ATOM     78  C   UNL     1       4.133  -2.139  -5.893  1.00  0.00     0.199 C 
ATOM     79  N   UNL     1       4.384  -2.608  -3.474  1.00  0.00    -0.332 N 
ATOM     80  N   UNL     1       4.474  -3.529  -6.198  1.00  0.00    -0.312 N 
ATOM     81  C   UNL     1       4.824  -3.978  -3.772  1.00  0.00     0.283 C 
ATOM     82  H   UNL     1       3.369  -2.589  -3.380  1.00  0.00     0.347 HD
ATOM     83  H   UNL     1       4.810  -2.295  -2.601  1.00  0.00     0.347 HD
ATOM     84  C   UNL     1       4.282  -4.506  -5.122  1.00  0.00     0.183 C 
BRANCH  80  85
ATOM     85  C   UNL     1       5.480  -3.697  -7.073  1.00  0.00     0.324 A 
ATOM     86  N   UNL     1       6.547  -2.958  -7.237  1.00  0.00    -0.171 NA
ATOM     87  O   UNL     1       5.290  -4.607  -8.071  1.00  0.00    -0.315 OA
ATOM     88  C   UNL     1       7.032  -3.410  -8.434  1.00  0.00     0.204 A 
ATOM     89  N   UNL     1       6.313  -4.394  -8.996  1.00  0.00    -0.055 NA
BRANCH  88  90
ATOM     90  C   UNL     1       8.234  -2.874  -9.031  1.00  0.00     0.023 A 
ATOM     91  C   UNL     1       8.169  -2.171 -10.240  1.00  0.00     0.012 A 
ATOM     92  C   UNL     1       9.472  -3.100  -8.421  1.00  0.00     0.012 A 
ATOM     93  C   UNL     1       9.343  -1.737 -10.857  1.00  0.00     0.001 A 
ATOM     94  C   UNL     1      10.644  -2.678  -9.048  1.00  0.00     0.001 A 
ATOM     95  C   UNL     1      10.579  -2.006 -10.269  1.00  0.00     0.000 A 
ENDBRANCH  88  90
ENDBRANCH  80  85
ENDBRANCH  75  77
ENDBRANCH  74  75
ENDBRANCH  73  74
ENDBRANCH  72  73
ENDBRANCH  71  72
ENDBRANCH   1  71
TORSDOF 19
