REMARK SMILES Cc1n[nH]c2c1[C@@]1(C(=O)N([C@@H](C)C(=O)OCCOCCOC(=O)c3ccc(-c4c5nc(c(-c6cc(S(=O)(=O)[O-])ccc6F)c6ccc([nH]6)c(-c6cc(S(=O)(=O)[O-])ccc6F)c6nc(c(-c7cc(S(=O)(=O)[O-])ccc7F)c7ccc4[nH]7)C=C6)C=C5)cc3)c3ccccc31)C(C#N)=C(N)O2
REMARK SMILES IDX 19 1 18 2 17 3 16 4 15 5 13 6 14 7 11 8 12 9 10 10 1 11 2 12
REMARK SMILES IDX 3 13 6 14 4 15 5 16 7 17 98 19 8 20 92 21 93 22 96 23 9 24
REMARK SMILES IDX 87 25 91 26 88 27 90 28 89 29 94 30 95 31 97 32 20 35 21 36
REMARK SMILES IDX 22 37 23 38 24 39 25 40 86 41 26 42 85 43 27 44 28 45 29 46
REMARK SMILES IDX 79 47 30 48 84 49 78 50 80 51 31 52 83 53 77 54 76 55 32 57
REMARK SMILES IDX 64 58 44 59 63 60 45 61 48 62 62 63 81 64 46 65 47 66 61 68
REMARK SMILES IDX 82 69 49 70 33 71 34 72 42 73 35 74 41 75 43 76 40 77 36 78
REMARK SMILES IDX 37 79 38 80 39 81 65 82 66 83 74 84 67 85 73 86 75 87 72 88
REMARK SMILES IDX 68 89 69 90 70 91 71 92 50 93 51 94 59 95 52 96 58 97 60 98
REMARK SMILES IDX 57 99 53 100 54 101 55 102 56 103
REMARK H PARENT 4 18 97 33 97 34 80 56 48 67
REMARK Flexibility Score: inf
ROOT
ATOM      1  C   UNL     1       8.259   2.190  -1.132  1.00  0.00     0.202 C 
ENDROOT
BRANCH   1   2
ATOM      2  O   UNL     1       8.952   1.925  -2.347  1.00  0.00    -0.374 OA
BRANCH   2   3
ATOM      3  C   UNL     1       8.309   2.257  -3.576  1.00  0.00     0.202 C 
BRANCH   3   4
ATOM      4  C   UNL     1       7.008   1.522  -3.939  1.00  0.00     0.261 C 
BRANCH   4   5
ATOM      5  O   UNL     1       6.029   1.449  -2.879  1.00  0.00    -0.462 OA
BRANCH   5   6
ATOM      6  C   UNL     1       5.799   0.192  -2.433  1.00  0.00     0.329 C 
ATOM      7  O   UNL     1       6.377  -0.810  -2.855  1.00  0.00    -0.250 OA
BRANCH   6   8
ATOM      8  C   UNL     1       4.747   0.049  -1.323  1.00  0.00     0.197 C 
ATOM      9  C   UNL     1       3.639  -0.859  -1.873  1.00  0.00     0.044 C 
BRANCH   8  10
ATOM     10  N   UNL     1       4.181   1.166  -0.534  1.00  0.00    -0.297 N 
ATOM     11  C   UNL     1       0.706  -0.059   0.087  1.00  0.00     0.069 C 
ATOM     12  C   UNL     1       0.333   1.359   0.285  1.00  0.00     0.068 A 
ATOM     13  N   UNL     1      -0.968   1.661   0.443  1.00  0.00    -0.177 NA
ATOM     14  C   UNL     1       1.149   2.521   0.338  1.00  0.00     0.063 A 
ATOM     15  N   UNL     1      -0.991   3.000   0.533  1.00  0.00    -0.246 N 
ATOM     16  C   UNL     1       0.248   3.547   0.505  1.00  0.00     0.222 A 
ATOM     17  C   UNL     1       2.614   2.837   0.225  1.00  0.00     0.149 C 
ATOM     18  H   UNL     1      -1.819   3.528   0.610  1.00  0.00     0.193 HD
ATOM     19  O   UNL     1       0.483   4.849   0.595  1.00  0.00    -0.422 OA
ATOM     20  C   UNL     1       3.268   2.130  -1.027  1.00  0.00     0.248 C 
ATOM     21  C   UNL     1       3.301   2.137   1.373  1.00  0.00     0.002 A 
ATOM     22  C   UNL     1       2.819   4.351   0.277  1.00  0.00     0.114 C 
ATOM     23  C   UNL     1       1.816   5.253   0.441  1.00  0.00     0.208 C 
ATOM     24  O   UNL     1       3.001   2.340  -2.185  1.00  0.00    -0.273 OA
ATOM     25  C   UNL     1       4.221   1.202   0.880  1.00  0.00     0.050 A 
ATOM     26  C   UNL     1       3.139   2.341   2.740  1.00  0.00     0.008 A 
ATOM     27  C   UNL     1       4.995   0.454   1.752  1.00  0.00     0.027 A 
ATOM     28  C   UNL     1       3.916   1.590   3.619  1.00  0.00     0.001 A 
ATOM     29  C   UNL     1       4.839   0.656   3.128  1.00  0.00     0.002 A 
BRANCH  22  30
ATOM     30  C   UNL     1       4.225   4.869   0.018  1.00  0.00     0.102 C 
ATOM     31  N   UNL     1       5.391   5.299  -0.196  1.00  0.00    -0.193 NA
ENDBRANCH  22  30
BRANCH  23  32
ATOM     32  N   UNL     1       1.964   6.609   0.457  1.00  0.00    -0.369 N 
ATOM     33  H   UNL     1       2.859   7.008   0.358  1.00  0.00     0.159 HD
ATOM     34  H   UNL     1       1.176   7.189   0.568  1.00  0.00     0.159 HD
ENDBRANCH  23  32
ENDBRANCH   8  10
ENDBRANCH   6   8
ENDBRANCH   5   6
ENDBRANCH   4   5
ENDBRANCH   3   4
ENDBRANCH   2   3
ENDBRANCH   1   2
BRANCH   1  35
ATOM     35  C   UNL     1       7.753   3.611  -0.878  1.00  0.00     0.261 C 
BRANCH  35  36
ATOM     36  O   UNL     1       6.908   4.060  -1.938  1.00  0.00    -0.460 OA
BRANCH  36  37
ATOM     37  C   UNL     1       7.037   5.370  -2.290  1.00  0.00     0.338 C 
ATOM     38  O   UNL     1       7.682   6.242  -1.728  1.00  0.00    -0.246 OA
BRANCH  37  39
ATOM     39  C   UNL     1       6.553   5.464  -3.673  1.00  0.00     0.060 A 
ATOM     40  C   UNL     1       5.438   4.741  -4.118  1.00  0.00     0.016 A 
ATOM     41  C   UNL     1       7.492   5.997  -4.559  1.00  0.00     0.016 A 
ATOM     42  C   UNL     1       5.372   4.401  -5.460  1.00  0.00     0.010 A 
ATOM     43  C   UNL     1       7.443   5.624  -5.884  1.00  0.00     0.010 A 
ATOM     44  C   UNL     1       6.430   4.762  -6.306  1.00  0.00    -0.014 A 
BRANCH  44  45
ATOM     45  C   UNL     1       6.432   4.258  -7.671  1.00  0.00     0.031 A 
ATOM     46  C   UNL     1       5.445   4.913  -8.558  1.00  0.00     0.074 A 
ATOM     47  C   UNL     1       7.362   3.409  -8.149  1.00  0.00     0.049 A 
ATOM     48  N   UNL     1       4.457   4.382  -9.197  1.00  0.00    -0.248 NA
ATOM     49  C   UNL     1       5.505   6.380  -8.635  1.00  0.00     0.031 C 
ATOM     50  C   UNL     1       8.603   2.986  -7.494  1.00  0.00     0.029 A 
ATOM     51  N   UNL     1       7.463   2.855  -9.391  1.00  0.00    -0.354 N 
ATOM     52  C   UNL     1       3.869   5.428  -9.903  1.00  0.00     0.074 A 
ATOM     53  C   UNL     1       4.435   6.645  -9.378  1.00  0.00     0.031 C 
ATOM     54  C   UNL     1       9.428   2.444  -8.416  1.00  0.00     0.029 A 
ATOM     55  C   UNL     1       8.729   2.373  -9.689  1.00  0.00     0.049 A 
ATOM     56  H   UNL     1       6.706   2.801 -10.019  1.00  0.00     0.167 HD
ATOM     57  C   UNL     1       3.119   5.222 -11.021  1.00  0.00     0.034 A 
ATOM     58  C   UNL     1       9.207   2.058 -10.918  1.00  0.00     0.034 A 
ATOM     59  C   UNL     1       2.721   3.849 -11.150  1.00  0.00     0.049 A 
ATOM     60  C   UNL     1       8.062   1.898 -11.845  1.00  0.00     0.074 A 
ATOM     61  C   UNL     1       1.952   2.987 -10.396  1.00  0.00     0.029 A 
ATOM     62  N   UNL     1       3.427   3.064 -12.028  1.00  0.00    -0.354 N 
ATOM     63  N   UNL     1       7.207   0.915 -11.812  1.00  0.00    -0.248 NA
ATOM     64  C   UNL     1       7.637   3.066 -12.603  1.00  0.00     0.031 C 
ATOM     65  C   UNL     1       2.552   1.709 -10.560  1.00  0.00     0.029 A 
ATOM     66  C   UNL     1       3.635   1.847 -11.432  1.00  0.00     0.049 A 
ATOM     67  H   UNL     1       3.731   3.329 -12.926  1.00  0.00     0.167 HD
ATOM     68  C   UNL     1       5.993   1.501 -12.137  1.00  0.00     0.074 A 
ATOM     69  C   UNL     1       6.342   2.780 -12.747  1.00  0.00     0.031 C 
ATOM     70  C   UNL     1       4.818   1.030 -11.625  1.00  0.00     0.034 A 
BRANCH  57  71
ATOM     71  C   UNL     1       3.028   6.214 -12.152  1.00  0.00     0.023 A 
ATOM     72  C   UNL     1       3.942   7.274 -12.303  1.00  0.00     0.031 A 
ATOM     73  C   UNL     1       2.151   6.002 -13.232  1.00  0.00     0.131 A 
ATOM     74  C   UNL     1       3.938   8.100 -13.431  1.00  0.00     0.055 A 
ATOM     75  C   UNL     1       2.199   6.776 -14.399  1.00  0.00     0.041 A 
ATOM     76  F   UNL     1       1.258   5.000 -13.209  1.00  0.00    -0.206 F 
ATOM     77  C   UNL     1       3.091   7.838 -14.500  1.00  0.00     0.022 A 
BRANCH  74  78
ATOM     78  S   UNL     1       5.042   9.536 -13.510  1.00  0.00     0.124 S 
ATOM     79  O   UNL     1       5.883   9.204 -14.654  1.00  0.00    -0.237 OA
ATOM     80  O   UNL     1       4.094  10.628 -13.714  1.00  0.00    -0.237 OA
ATOM     81  O   UNL     1       5.703   9.530 -12.208  1.00  0.00    -0.744 OA
ENDBRANCH  74  78
ENDBRANCH  57  71
BRANCH  58  82
ATOM     82  C   UNL     1      10.574   2.332 -11.421  1.00  0.00     0.023 A 
ATOM     83  C   UNL     1      11.303   3.424 -10.912  1.00  0.00     0.031 A 
ATOM     84  C   UNL     1      11.050   1.731 -12.598  1.00  0.00     0.131 A 
ATOM     85  C   UNL     1      12.426   3.912 -11.592  1.00  0.00     0.055 A 
ATOM     86  C   UNL     1      12.179   2.213 -13.271  1.00  0.00     0.041 A 
ATOM     87  F   UNL     1      10.386   0.706 -13.155  1.00  0.00    -0.206 F 
ATOM     88  C   UNL     1      12.865   3.318 -12.775  1.00  0.00     0.022 A 
BRANCH  85  89
ATOM     89  S   UNL     1      13.293   5.382 -10.979  1.00  0.00     0.124 S 
ATOM     90  O   UNL     1      14.695   4.987 -11.095  1.00  0.00    -0.237 OA
ATOM     91  O   UNL     1      12.847   6.403 -11.920  1.00  0.00    -0.237 OA
ATOM     92  O   UNL     1      12.804   5.521  -9.610  1.00  0.00    -0.744 OA
ENDBRANCH  85  89
ENDBRANCH  58  82
BRANCH  70  93
ATOM     93  C   UNL     1       4.797  -0.330 -10.961  1.00  0.00     0.023 A 
ATOM     94  C   UNL     1       3.756  -1.204 -11.329  1.00  0.00     0.031 A 
ATOM     95  C   UNL     1       5.593  -0.697  -9.860  1.00  0.00     0.131 A 
ATOM     96  C   UNL     1       3.510  -2.367 -10.589  1.00  0.00     0.055 A 
ATOM     97  C   UNL     1       5.392  -1.898  -9.171  1.00  0.00     0.041 A 
ATOM     98  F   UNL     1       6.526   0.126  -9.360  1.00  0.00    -0.206 F 
ATOM     99  C   UNL     1       4.335  -2.731  -9.522  1.00  0.00     0.022 A 
BRANCH  96 100
ATOM    100  S   UNL     1       2.013  -3.342 -10.890  1.00  0.00     0.124 S 
ATOM    101  O   UNL     1       2.558  -4.596 -11.402  1.00  0.00    -0.237 OA
ATOM    102  O   UNL     1       1.416  -3.417  -9.558  1.00  0.00    -0.237 OA
ATOM    103  O   UNL     1       1.260  -2.547 -11.857  1.00  0.00    -0.744 OA
ENDBRANCH  96 100
ENDBRANCH  70  93
ENDBRANCH  44  45
ENDBRANCH  37  39
ENDBRANCH  36  37
ENDBRANCH  35  36
ENDBRANCH   1  35
TORSDOF 20
