REMARK SMILES O=C(COc1ccc(F)cc1)Nc1sccc1C(=O)OCCOCCOC(=O)c1ccc(-c2c3nc(c(-c4cc(S(=O)(=O)[O-])ccc4F)c4ccc([nH]4)c(-c4cc(S(=O)(=O)[O-])ccc4F)c4nc(c(-c5cc(S(=O)(=O)[O-])ccc5F)c5ccc2[nH]5)C=C4)C=C3)cc1
REMARK SMILES IDX 22 1 21 2 20 3 18 4 19 5 17 6 13 7 14 8 15 9 16 10 12 11
REMARK SMILES IDX 1 12 2 13 3 15 4 16 5 17 6 18 11 19 7 20 10 21 8 22 9 23
REMARK SMILES IDX 23 24 24 25 25 26 26 27 27 28 28 29 29 30 30 31 91 32 31 33
REMARK SMILES IDX 90 34 32 35 33 36 34 37 84 38 35 39 89 40 83 41 85 42 36 43
REMARK SMILES IDX 88 44 82 45 81 46 37 48 69 49 49 50 68 51 50 52 53 53 67 54
REMARK SMILES IDX 86 55 51 56 52 57 66 59 87 60 54 61 38 62 39 63 47 64 40 65
REMARK SMILES IDX 46 66 48 67 45 68 41 69 42 70 43 71 44 72 70 73 71 74 79 75
REMARK SMILES IDX 72 76 78 77 80 78 77 79 73 80 74 81 75 82 76 83 55 84 56 85
REMARK SMILES IDX 64 86 57 87 63 88 65 89 62 90 58 91 59 92 60 93 61 94
REMARK H PARENT 12 14 85 47 53 58
REMARK Flexibility Score: inf
ROOT
ATOM      1  C   UNL     1      -0.121   1.951   3.758  1.00  0.00     0.202 C 
ENDROOT
BRANCH   1   2
ATOM      2  C   UNL     1      -0.755   1.308   2.522  1.00  0.00     0.261 C 
BRANCH   2   3
ATOM      3  O   UNL     1       0.161   1.447   1.427  1.00  0.00    -0.460 OA
BRANCH   3   4
ATOM      4  C   UNL     1      -0.364   1.830   0.231  1.00  0.00     0.341 C 
ATOM      5  O   UNL     1      -1.561   1.933  -0.011  1.00  0.00    -0.246 OA
BRANCH   4   6
ATOM      6  C   UNL     1       0.662   2.375  -0.653  1.00  0.00     0.094 A 
ATOM      7  C   UNL     1       1.959   1.931  -0.826  1.00  0.00     0.110 A 
ATOM      8  S   UNL     1       2.918   3.024  -1.726  1.00  0.00    -0.126 S 
ATOM      9  C   UNL     1       1.579   4.024  -2.061  1.00  0.00     0.068 A 
ATOM     10  C   UNL     1       0.441   3.567  -1.438  1.00  0.00     0.029 A 
BRANCH   7  11
ATOM     11  N   UNL     1       2.682   0.810  -0.489  1.00  0.00    -0.314 N 
ATOM     12  O   UNL     1       0.927  -0.660  -0.043  1.00  0.00    -0.271 OA
ATOM     13  C   UNL     1       2.122  -0.416  -0.173  1.00  0.00     0.262 C 
ATOM     14  H   UNL     1       3.663   0.885  -0.472  1.00  0.00     0.170 HD
BRANCH  13  15
ATOM     15  C   UNL     1       3.182  -1.516  -0.098  1.00  0.00     0.329 C 
BRANCH  15  16
ATOM     16  O   UNL     1       3.999  -1.527  -1.278  1.00  0.00    -0.484 OA
BRANCH  16  17
ATOM     17  C   UNL     1       3.360  -2.179  -2.301  1.00  0.00     0.120 A 
ATOM     18  C   UNL     1       2.497  -1.480  -3.148  1.00  0.00     0.049 A 
ATOM     19  C   UNL     1       3.627  -3.530  -2.514  1.00  0.00     0.049 A 
ATOM     20  C   UNL     1       1.847  -2.154  -4.180  1.00  0.00     0.043 A 
ATOM     21  C   UNL     1       2.983  -4.201  -3.555  1.00  0.00     0.043 A 
ATOM     22  C   UNL     1       2.093  -3.509  -4.373  1.00  0.00     0.123 A 
ATOM     23  F   UNL     1       1.471  -4.154  -5.368  1.00  0.00    -0.207 F 
ENDBRANCH  16  17
ENDBRANCH  15  16
ENDBRANCH  13  15
ENDBRANCH   7  11
ENDBRANCH   4   6
ENDBRANCH   3   4
ENDBRANCH   2   3
ENDBRANCH   1   2
BRANCH   1  24
ATOM     24  O   UNL     1      -0.164   3.384   3.743  1.00  0.00    -0.374 OA
BRANCH  24  25
ATOM     25  C   UNL     1       0.805   4.042   2.926  1.00  0.00     0.202 C 
BRANCH  25  26
ATOM     26  C   UNL     1       2.147   4.312   3.612  1.00  0.00     0.261 C 
BRANCH  26  27
ATOM     27  O   UNL     1       2.870   3.095   3.868  1.00  0.00    -0.460 OA
BRANCH  27  28
ATOM     28  C   UNL     1       2.935   2.742   5.175  1.00  0.00     0.338 C 
ATOM     29  O   UNL     1       2.503   3.372   6.126  1.00  0.00    -0.246 OA
BRANCH  28  30
ATOM     30  C   UNL     1       3.503   1.385   5.313  1.00  0.00     0.060 A 
ATOM     31  C   UNL     1       2.848   0.502   6.179  1.00  0.00     0.016 A 
ATOM     32  C   UNL     1       4.691   1.003   4.681  1.00  0.00     0.016 A 
ATOM     33  C   UNL     1       3.397  -0.750   6.447  1.00  0.00     0.010 A 
ATOM     34  C   UNL     1       5.248  -0.252   4.960  1.00  0.00     0.010 A 
ATOM     35  C   UNL     1       4.618  -1.122   5.866  1.00  0.00    -0.014 A 
BRANCH  35  36
ATOM     36  C   UNL     1       5.273  -2.376   6.313  1.00  0.00     0.031 A 
ATOM     37  C   UNL     1       6.272  -2.323   7.438  1.00  0.00     0.074 A 
ATOM     38  C   UNL     1       4.919  -3.559   5.779  1.00  0.00     0.049 A 
ATOM     39  N   UNL     1       6.925  -3.301   8.009  1.00  0.00    -0.248 NA
ATOM     40  C   UNL     1       6.564  -0.994   7.998  1.00  0.00     0.031 C 
ATOM     41  C   UNL     1       3.915  -3.744   4.731  1.00  0.00     0.029 A 
ATOM     42  N   UNL     1       5.348  -4.831   6.062  1.00  0.00    -0.354 N 
ATOM     43  C   UNL     1       7.689  -2.713   9.011  1.00  0.00     0.074 A 
ATOM     44  C   UNL     1       7.444  -1.287   8.946  1.00  0.00     0.031 C 
ATOM     45  C   UNL     1       3.796  -5.058   4.470  1.00  0.00     0.029 A 
ATOM     46  C   UNL     1       4.730  -5.803   5.313  1.00  0.00     0.049 A 
ATOM     47  H   UNL     1       6.035  -5.029   6.739  1.00  0.00     0.167 HD
ATOM     48  C   UNL     1       8.511  -3.306   9.909  1.00  0.00     0.034 A 
ATOM     49  C   UNL     1       4.898  -7.141   5.307  1.00  0.00     0.034 A 
ATOM     50  C   UNL     1       8.768  -4.721   9.963  1.00  0.00     0.049 A 
ATOM     51  C   UNL     1       5.888  -7.768   6.255  1.00  0.00     0.074 A 
ATOM     52  C   UNL     1       9.615  -5.412  10.814  1.00  0.00     0.029 A 
ATOM     53  N   UNL     1       8.180  -5.664   9.134  1.00  0.00    -0.354 N 
ATOM     54  N   UNL     1       6.642  -7.188   7.158  1.00  0.00    -0.248 NA
ATOM     55  C   UNL     1       6.051  -9.228   6.182  1.00  0.00     0.031 C 
ATOM     56  C   UNL     1       9.568  -6.768  10.473  1.00  0.00     0.029 A 
ATOM     57  C   UNL     1       8.655  -6.926   9.443  1.00  0.00     0.049 A 
ATOM     58  H   UNL     1       7.521  -5.464   8.431  1.00  0.00     0.167 HD
ATOM     59  C   UNL     1       7.345  -8.216   7.780  1.00  0.00     0.074 A 
ATOM     60  C   UNL     1       6.936  -9.450   7.144  1.00  0.00     0.031 C 
ATOM     61  C   UNL     1       8.240  -8.144   8.796  1.00  0.00     0.034 A 
BRANCH  48  62
ATOM     62  C   UNL     1       9.221  -2.415  10.890  1.00  0.00     0.023 A 
ATOM     63  C   UNL     1       8.540  -1.833  11.972  1.00  0.00     0.031 A 
ATOM     64  C   UNL     1      10.596  -2.165  10.752  1.00  0.00     0.131 A 
ATOM     65  C   UNL     1       9.234  -1.000  12.861  1.00  0.00     0.055 A 
ATOM     66  C   UNL     1      11.291  -1.375  11.668  1.00  0.00     0.041 A 
ATOM     67  F   UNL     1      11.284  -2.686   9.723  1.00  0.00    -0.206 F 
ATOM     68  C   UNL     1      10.609  -0.784  12.728  1.00  0.00     0.022 A 
BRANCH  65  69
ATOM     69  S   UNL     1       8.310  -0.158  14.175  1.00  0.00     0.124 S 
ATOM     70  O   UNL     1       7.542   0.821  13.410  1.00  0.00    -0.237 OA
ATOM     71  O   UNL     1       7.543  -1.243  14.775  1.00  0.00    -0.237 OA
ATOM     72  O   UNL     1       9.360   0.404  15.023  1.00  0.00    -0.744 OA
ENDBRANCH  65  69
ENDBRANCH  48  62
BRANCH  49  73
ATOM     73  C   UNL     1       4.127  -7.987   4.356  1.00  0.00     0.023 A 
ATOM     74  C   UNL     1       3.128  -8.861   4.811  1.00  0.00     0.031 A 
ATOM     75  C   UNL     1       4.405  -7.952   2.979  1.00  0.00     0.131 A 
ATOM     76  C   UNL     1       2.460  -9.688   3.896  1.00  0.00     0.055 A 
ATOM     77  C   UNL     1       3.715  -8.753   2.069  1.00  0.00     0.041 A 
ATOM     78  F   UNL     1       5.349  -7.126   2.499  1.00  0.00    -0.206 F 
ATOM     79  C   UNL     1       2.740  -9.634   2.528  1.00  0.00     0.022 A 
BRANCH  76  80
ATOM     80  S   UNL     1       1.239 -10.873   4.524  1.00  0.00     0.124 S 
ATOM     81  O   UNL     1       2.067 -11.739   5.356  1.00  0.00    -0.237 OA
ATOM     82  O   UNL     1       0.306 -10.002   5.232  1.00  0.00    -0.237 OA
ATOM     83  O   UNL     1       0.711 -11.492   3.310  1.00  0.00    -0.744 OA
ENDBRANCH  76  80
ENDBRANCH  49  73
BRANCH  61  84
ATOM     84  C   UNL     1       8.804  -9.436   9.315  1.00  0.00     0.023 A 
ATOM     85  C   UNL     1       9.825 -10.117   8.633  1.00  0.00     0.031 A 
ATOM     86  C   UNL     1       8.345  -9.961  10.534  1.00  0.00     0.131 A 
ATOM     87  C   UNL     1      10.344 -11.305   9.169  1.00  0.00     0.055 A 
ATOM     88  C   UNL     1       8.885 -11.126  11.078  1.00  0.00     0.041 A 
ATOM     89  F   UNL     1       7.374  -9.338  11.222  1.00  0.00    -0.206 F 
ATOM     90  C   UNL     1       9.890 -11.806  10.394  1.00  0.00     0.022 A 
BRANCH  87  91
ATOM     91  S   UNL     1      11.631 -12.195   8.252  1.00  0.00     0.124 S 
ATOM     92  O   UNL     1      10.878 -12.737   7.125  1.00  0.00    -0.237 OA
ATOM     93  O   UNL     1      12.584 -11.138   7.930  1.00  0.00    -0.237 OA
ATOM     94  O   UNL     1      12.113 -13.186   9.213  1.00  0.00    -0.744 OA
ENDBRANCH  87  91
ENDBRANCH  61  84
ENDBRANCH  35  36
ENDBRANCH  28  30
ENDBRANCH  27  28
ENDBRANCH  26  27
ENDBRANCH  25  26
ENDBRANCH  24  25
ENDBRANCH   1  24
TORSDOF 21
