REMARK SMILES CC1=Nc2nc(NC(=O)CCC(=O)OCCOCCOC(=O)c3ccc(-c4c5nc(c(-c6cc(S(=O)(=O)[O-])ccc6F)c6ccc([nH]6)c(-c6cc(S(=O)(=O)[O-])ccc6F)c6nc(c(-c7cc(S(=O)(=O)[O-])ccc7F)c7ccc4[nH]7)C=C6)C=C5)cc3)nn2[C@@H](c2ccc(Cl)cc2)C1
REMARK SMILES IDX 16 1 15 2 14 3 12 4 13 5 11 6 10 7 8 8 7 9 9 11 6 12 1 13
REMARK SMILES IDX 2 14 3 15 96 16 4 17 88 18 5 19 87 20 86 21 89 22 90 23
REMARK SMILES IDX 95 24 91 25 94 26 92 27 93 28 17 29 18 30 19 31 20 32 21 33
REMARK SMILES IDX 22 34 23 35 24 36 85 37 25 38 84 39 26 40 27 41 28 42 78 43
REMARK SMILES IDX 29 44 83 45 77 46 79 47 30 48 82 49 76 50 75 51 31 53 63 54
REMARK SMILES IDX 43 55 62 56 44 57 47 58 61 59 80 60 45 61 46 62 60 64 81 65
REMARK SMILES IDX 48 66 32 67 33 68 41 69 34 70 40 71 42 72 39 73 35 74 36 75
REMARK SMILES IDX 37 76 38 77 64 78 65 79 73 80 66 81 72 82 74 83 71 84 67 85
REMARK SMILES IDX 68 86 69 87 70 88 49 89 50 90 58 91 51 92 57 93 59 94 56 95
REMARK SMILES IDX 52 96 53 97 54 98 55 99
REMARK H PARENT 7 10 79 52 47 63
REMARK Flexibility Score: inf
ROOT
ATOM      1  C   UNL     1       1.585   4.750  -2.414  1.00  0.00     0.202 C 
ENDROOT
BRANCH   1   2
ATOM      2  C   UNL     1       1.295   5.992  -3.255  1.00  0.00     0.261 C 
BRANCH   2   3
ATOM      3  O   UNL     1       0.739   7.093  -2.503  1.00  0.00    -0.463 OA
BRANCH   3   4
ATOM      4  C   UNL     1      -0.602   7.269  -2.541  1.00  0.00     0.306 C 
ATOM      5  O   UNL     1      -1.367   6.561  -3.188  1.00  0.00    -0.252 OA
BRANCH   4   6
ATOM      6  C   UNL     1      -1.063   8.514  -1.810  1.00  0.00     0.132 C 
BRANCH   6   7
ATOM      7  C   UNL     1      -0.669   8.737  -0.355  1.00  0.00     0.112 C 
BRANCH   7   8
ATOM      8  C   UNL     1       0.804   8.615  -0.086  1.00  0.00     0.227 C 
ATOM      9  N   UNL     1       1.306   7.516   0.522  1.00  0.00    -0.293 N 
ATOM     10  H   UNL     1       2.262   7.569   0.752  1.00  0.00     0.173 HD
ATOM     11  O   UNL     1       1.570   9.511  -0.452  1.00  0.00    -0.275 OA
BRANCH   9  12
ATOM     12  C   UNL     1       0.694   6.342   0.869  1.00  0.00     0.250 A 
ATOM     13  C   UNL     1       0.830  -0.105   0.148  1.00  0.00     0.062 C 
ATOM     14  C   UNL     1       0.350   1.269   0.546  1.00  0.00     0.021 C 
ATOM     15  N   UNL     1       1.293   2.123   0.752  1.00  0.00    -0.221 NA
ATOM     16  C   UNL     1      -1.161   1.469   0.726  1.00  0.00     0.083 C 
ATOM     17  C   UNL     1       0.937   3.381   1.015  1.00  0.00     0.250 A 
ATOM     18  C   UNL     1      -1.811   2.879   0.639  1.00  0.00     0.147 C 
ATOM     19  N   UNL     1       1.812   4.800   1.025  1.00  0.00    -0.174 NA
ATOM     20  N   UNL     1      -0.819   3.911   0.882  1.00  0.00    -0.220 N 
ATOM     21  N   UNL     1      -0.927   5.753   0.767  1.00  0.00    -0.130 NA
BRANCH  18  22
ATOM     22  C   UNL     1      -2.667   3.036  -0.617  1.00  0.00    -0.023 A 
ATOM     23  C   UNL     1      -2.361   3.837  -1.723  1.00  0.00     0.007 A 
ATOM     24  C   UNL     1      -3.852   2.281  -0.702  1.00  0.00     0.007 A 
ATOM     25  C   UNL     1      -3.164   3.879  -2.867  1.00  0.00     0.021 A 
ATOM     26  C   UNL     1      -4.661   2.313  -1.846  1.00  0.00     0.021 A 
ATOM     27  C   UNL     1      -4.311   3.112  -2.928  1.00  0.00     0.041 A 
ATOM     28  Cl  UNL     1      -5.291   3.150  -4.337  1.00  0.00    -0.084 Cl
ENDBRANCH  18  22
ENDBRANCH   9  12
ENDBRANCH   7   8
ENDBRANCH   6   7
ENDBRANCH   4   6
ENDBRANCH   3   4
ENDBRANCH   2   3
ENDBRANCH   1   2
BRANCH   1  29
ATOM     29  O   UNL     1       1.774   5.073  -1.042  1.00  0.00    -0.374 OA
BRANCH  29  30
ATOM     30  C   UNL     1       0.475   4.815  -0.211  1.00  0.00     0.202 C 
BRANCH  30  31
ATOM     31  C   UNL     1       0.294   4.913   2.055  1.00  0.00     0.261 C 
BRANCH  31  32
ATOM     32  O   UNL     1       1.323   5.494   2.994  1.00  0.00    -0.460 OA
BRANCH  32  33
ATOM     33  C   UNL     1       2.320   4.646   3.359  1.00  0.00     0.338 C 
ATOM     34  O   UNL     1       2.225   3.460   3.620  1.00  0.00    -0.246 OA
BRANCH  33  35
ATOM     35  C   UNL     1       3.544   5.447   3.327  1.00  0.00     0.060 A 
ATOM     36  C   UNL     1       4.717   4.796   3.672  1.00  0.00     0.016 A 
ATOM     37  C   UNL     1       3.410   6.844   3.332  1.00  0.00     0.016 A 
ATOM     38  C   UNL     1       5.589   5.516   4.438  1.00  0.00     0.010 A 
ATOM     39  C   UNL     1       4.262   7.556   4.108  1.00  0.00     0.010 A 
ATOM     40  C   UNL     1       5.260   6.846   4.753  1.00  0.00    -0.014 A 
BRANCH  40  41
ATOM     41  C   UNL     1       6.152   7.600   5.589  1.00  0.00     0.031 A 
ATOM     42  C   UNL     1       7.396   7.813   4.827  1.00  0.00     0.074 A 
ATOM     43  C   UNL     1       5.797   8.065   6.801  1.00  0.00     0.049 A 
ATOM     44  N   UNL     1       8.454   7.078   4.911  1.00  0.00    -0.248 NA
ATOM     45  C   UNL     1       7.336   8.615   3.586  1.00  0.00     0.031 C 
ATOM     46  C   UNL     1       4.481   8.028   7.447  1.00  0.00     0.029 A 
ATOM     47  N   UNL     1       6.550   8.744   7.705  1.00  0.00    -0.354 N 
ATOM     48  C   UNL     1       9.323   7.622   3.981  1.00  0.00     0.074 A 
ATOM     49  C   UNL     1       8.494   8.278   3.016  1.00  0.00     0.031 C 
ATOM     50  C   UNL     1       4.484   8.845   8.528  1.00  0.00     0.029 A 
ATOM     51  C   UNL     1       5.829   9.358   8.734  1.00  0.00     0.049 A 
ATOM     52  H   UNL     1       7.531   8.800   7.641  1.00  0.00     0.167 HD
ATOM     53  C   UNL     1      10.600   7.871   4.375  1.00  0.00     0.034 A 
ATOM     54  C   UNL     1       6.323  10.255   9.640  1.00  0.00     0.034 A 
ATOM     55  C   UNL     1      10.919   7.052   5.537  1.00  0.00     0.049 A 
ATOM     56  C   UNL     1       7.791  10.019   9.674  1.00  0.00     0.074 A 
ATOM     57  C   UNL     1      10.925   5.696   5.803  1.00  0.00     0.029 A 
ATOM     58  N   UNL     1      10.838   7.683   6.759  1.00  0.00    -0.354 N 
ATOM     59  N   UNL     1       8.324   8.905  10.104  1.00  0.00    -0.248 NA
ATOM     60  C   UNL     1       8.618  10.784   8.754  1.00  0.00     0.031 C 
ATOM     61  C   UNL     1      10.461   5.570   7.149  1.00  0.00     0.029 A 
ATOM     62  C   UNL     1      10.299   6.844   7.698  1.00  0.00     0.049 A 
ATOM     63  H   UNL     1      11.128   8.607   6.934  1.00  0.00     0.167 HD
ATOM     64  C   UNL     1       9.328   8.609   9.191  1.00  0.00     0.074 A 
ATOM     65  C   UNL     1       9.522   9.852   8.440  1.00  0.00     0.031 C 
ATOM     66  C   UNL     1       9.672   7.309   8.931  1.00  0.00     0.034 A 
BRANCH  53  67
ATOM     67  C   UNL     1      11.293   9.199   4.106  1.00  0.00     0.023 A 
ATOM     68  C   UNL     1      12.538   9.376   4.734  1.00  0.00     0.031 A 
ATOM     69  C   UNL     1      10.715  10.375   3.564  1.00  0.00     0.131 A 
ATOM     70  C   UNL     1      13.073  10.659   4.928  1.00  0.00     0.055 A 
ATOM     71  C   UNL     1      11.277  11.644   3.721  1.00  0.00     0.041 A 
ATOM     72  F   UNL     1       9.552  10.399   2.908  1.00  0.00    -0.206 F 
ATOM     73  C   UNL     1      12.447  11.798   4.435  1.00  0.00     0.022 A 
BRANCH  70  74
ATOM     74  S   UNL     1      14.528  10.816   5.987  1.00  0.00     0.124 S 
ATOM     75  O   UNL     1      14.027  10.265   7.241  1.00  0.00    -0.237 OA
ATOM     76  O   UNL     1      15.507  10.005   5.269  1.00  0.00    -0.237 OA
ATOM     77  O   UNL     1      14.789  12.252   5.988  1.00  0.00    -0.744 OA
ENDBRANCH  70  74
ENDBRANCH  53  67
BRANCH  54  78
ATOM     78  C   UNL     1       5.690  11.528  10.125  1.00  0.00     0.023 A 
ATOM     79  C   UNL     1       6.206  12.299  11.201  1.00  0.00     0.031 A 
ATOM     80  C   UNL     1       4.692  12.150   9.342  1.00  0.00     0.131 A 
ATOM     81  C   UNL     1       5.728  13.617  11.442  1.00  0.00     0.055 A 
ATOM     82  C   UNL     1       4.234  13.450   9.578  1.00  0.00     0.041 A 
ATOM     83  F   UNL     1       4.179  11.548   8.259  1.00  0.00    -0.206 F 
ATOM     84  C   UNL     1       4.758  14.193  10.621  1.00  0.00     0.022 A 
BRANCH  81  85
ATOM     85  S   UNL     1       6.402  14.650  12.794  1.00  0.00     0.124 S 
ATOM     86  O   UNL     1       5.944  13.945  13.985  1.00  0.00    -0.237 OA
ATOM     87  O   UNL     1       7.836  14.622  12.532  1.00  0.00    -0.237 OA
ATOM     88  O   UNL     1       5.770  15.954  12.578  1.00  0.00    -0.744 OA
ENDBRANCH  81  85
ENDBRANCH  54  78
BRANCH  66  89
ATOM     89  C   UNL     1       9.301   6.245   9.952  1.00  0.00     0.023 A 
ATOM     90  C   UNL     1       8.000   5.901  10.392  1.00  0.00     0.031 A 
ATOM     91  C   UNL     1      10.374   5.475  10.440  1.00  0.00     0.131 A 
ATOM     92  C   UNL     1       7.825   4.820  11.287  1.00  0.00     0.055 A 
ATOM     93  C   UNL     1      10.194   4.394  11.297  1.00  0.00     0.041 A 
ATOM     94  F   UNL     1      11.634   5.745  10.058  1.00  0.00    -0.206 F 
ATOM     95  C   UNL     1       8.918   4.065  11.729  1.00  0.00     0.022 A 
BRANCH  92  96
ATOM     96  S   UNL     1       6.177   4.382  11.942  1.00  0.00     0.124 S 
ATOM     97  O   UNL     1       5.613   5.667  12.337  1.00  0.00    -0.237 OA
ATOM     98  O   UNL     1       5.545   3.729  10.799  1.00  0.00    -0.237 OA
ATOM     99  O   UNL     1       6.482   3.484  13.059  1.00  0.00    -0.744 OA
ENDBRANCH  92  96
ENDBRANCH  66  89
ENDBRANCH  40  41
ENDBRANCH  33  35
ENDBRANCH  32  33
ENDBRANCH  31  32
ENDBRANCH  30  31
ENDBRANCH  29  30
ENDBRANCH   1  29
TORSDOF 21
