REMARK SMILES CCC[NH2+]C[C@H]1CCC[N@@H+](Cc2ccc(C(=O)OCCOCCOC(=O)c3ccc(-c4c5nc(c(-c6cc(S(=O)(=O)[O-])ccc6F)c6ccc([nH]6)c(-c6cc(S(=O)(=O)[O-])ccc6F)c6nc(c(-c7cc(S(=O)(=O)[O-])ccc7F)c7ccc4[nH]7)C=C6)C=C5)cc3)cc2)C1
REMARK SMILES IDX 19 1 18 2 16 3 17 4 15 5 12 6 13 7 91 8 14 9 90 10 11 11
REMARK SMILES IDX 10 12 6 13 7 14 92 15 8 16 9 17 5 19 4 20 3 23 2 24 1 25
REMARK SMILES IDX 20 26 21 27 22 28 23 29 24 30 25 31 26 32 27 33 28 34 89 35
REMARK SMILES IDX 29 36 88 37 30 38 31 39 32 40 82 41 33 42 87 43 81 44 83 45
REMARK SMILES IDX 34 46 86 47 80 48 79 49 35 51 67 52 47 53 66 54 48 55 51 56
REMARK SMILES IDX 65 57 84 58 49 59 50 60 64 62 85 63 52 64 36 65 37 66 45 67
REMARK SMILES IDX 38 68 44 69 46 70 43 71 39 72 40 73 41 74 42 75 68 76 69 77
REMARK SMILES IDX 77 78 70 79 76 80 78 81 75 82 71 83 72 84 73 85 74 86 53 87
REMARK SMILES IDX 54 88 62 89 55 90 61 91 63 92 60 93 56 94 57 95 58 96 59 97
REMARK H PARENT 10 18 4 21 4 22 83 50 51 61
REMARK Flexibility Score: inf
ROOT
ATOM      1  C   UNL     1      10.772  -0.505  -4.537  1.00  0.00     0.261 C 
ENDROOT
BRANCH   1   2
ATOM      2  O   UNL     1       9.346  -0.626  -4.613  1.00  0.00    -0.460 OA
BRANCH   2   3
ATOM      3  C   UNL     1       8.662   0.173  -3.763  1.00  0.00     0.338 C 
ATOM      4  O   UNL     1       9.124   0.824  -2.836  1.00  0.00    -0.246 OA
BRANCH   3   5
ATOM      5  C   UNL     1       7.244   0.279  -4.185  1.00  0.00     0.060 A 
ATOM      6  C   UNL     1       4.498   0.458  -4.675  1.00  0.00     0.006 A 
ATOM      7  C   UNL     1       5.152   1.474  -3.966  1.00  0.00     0.010 A 
ATOM      8  C   UNL     1       5.264  -0.544  -5.292  1.00  0.00     0.010 A 
ATOM      9  C   UNL     1       6.518   1.381  -3.718  1.00  0.00     0.016 A 
ATOM     10  C   UNL     1       6.629  -0.655  -5.024  1.00  0.00     0.016 A 
BRANCH   6  11
ATOM     11  C   UNL     1       2.984   0.334  -4.577  1.00  0.00     0.299 C 
BRANCH  11  12
ATOM     12  N   UNL     1       2.506  -0.602  -3.521  1.00  0.00    -0.331 N 
ATOM     13  C   UNL     1       2.356  -3.037  -2.818  1.00  0.00     0.099 C 
ATOM     14  C   UNL     1       2.977  -2.652  -1.468  1.00  0.00     0.021 C 
ATOM     15  C   UNL     1       2.778  -2.002  -3.878  1.00  0.00     0.271 C 
ATOM     16  C   UNL     1       2.583  -1.225  -1.108  1.00  0.00     0.062 C 
ATOM     17  C   UNL     1       3.040  -0.256  -2.194  1.00  0.00     0.262 C 
ATOM     18  H   UNL     1       1.493  -0.498  -3.463  1.00  0.00     0.348 HD
BRANCH  13  19
ATOM     19  C   UNL     1       2.773  -4.439  -3.330  1.00  0.00     0.269 C 
BRANCH  19  20
ATOM     20  N   UNL     1       2.872  -5.506  -2.342  1.00  0.00    -0.346 N 
ATOM     21  H   UNL     1       3.185  -6.352  -2.818  1.00  0.00     0.346 HD
ATOM     22  H   UNL     1       3.527  -5.182  -1.630  1.00  0.00     0.346 HD
BRANCH  20  23
ATOM     23  C   UNL     1       1.627  -5.809  -1.651  1.00  0.00     0.260 C 
BRANCH  23  24
ATOM     24  C   UNL     1       1.873  -6.738  -0.455  1.00  0.00     0.058 C 
ATOM     25  C   UNL     1       2.790  -6.144   0.610  1.00  0.00     0.010 C 
ENDBRANCH  23  24
ENDBRANCH  20  23
ENDBRANCH  19  20
ENDBRANCH  13  19
ENDBRANCH  11  12
ENDBRANCH   6  11
ENDBRANCH   3   5
ENDBRANCH   2   3
ENDBRANCH   1   2
BRANCH   1  26
ATOM     26  C   UNL     1      11.330   0.207  -5.773  1.00  0.00     0.202 C 
BRANCH  26  27
ATOM     27  O   UNL     1      10.859   1.529  -6.037  1.00  0.00    -0.374 OA
BRANCH  27  28
ATOM     28  C   UNL     1       9.571   1.671  -6.636  1.00  0.00     0.202 C 
BRANCH  28  29
ATOM     29  C   UNL     1       9.417   1.329  -8.123  1.00  0.00     0.261 C 
BRANCH  29  30
ATOM     30  O   UNL     1       9.687  -0.052  -8.417  1.00  0.00    -0.460 OA
BRANCH  30  31
ATOM     31  C   UNL     1      10.848  -0.268  -9.082  1.00  0.00     0.338 C 
ATOM     32  O   UNL     1      11.631   0.580  -9.489  1.00  0.00    -0.246 OA
BRANCH  31  33
ATOM     33  C   UNL     1      11.161  -1.709  -9.091  1.00  0.00     0.060 A 
ATOM     34  C   UNL     1      12.379  -2.114  -8.532  1.00  0.00     0.016 A 
ATOM     35  C   UNL     1      10.308  -2.640  -9.688  1.00  0.00     0.016 A 
ATOM     36  C   UNL     1      12.762  -3.452  -8.589  1.00  0.00     0.010 A 
ATOM     37  C   UNL     1      10.702  -3.981  -9.754  1.00  0.00     0.010 A 
ATOM     38  C   UNL     1      11.940  -4.391  -9.224  1.00  0.00    -0.014 A 
BRANCH  38  39
ATOM     39  C   UNL     1      12.421  -5.782  -9.418  1.00  0.00     0.031 A 
ATOM     40  C   UNL     1      12.936  -6.201 -10.768  1.00  0.00     0.074 A 
ATOM     41  C   UNL     1      12.417  -6.653  -8.392  1.00  0.00     0.049 A 
ATOM     42  N   UNL     1      13.346  -7.376 -11.171  1.00  0.00    -0.248 NA
ATOM     43  C   UNL     1      12.994  -5.156 -11.802  1.00  0.00     0.031 C 
ATOM     44  C   UNL     1      11.987  -6.344  -7.028  1.00  0.00     0.029 A 
ATOM     45  N   UNL     1      12.777  -7.976  -8.338  1.00  0.00    -0.354 N 
ATOM     46  C   UNL     1      13.704  -7.217 -12.505  1.00  0.00     0.074 A 
ATOM     47  C   UNL     1      13.434  -5.837 -12.850  1.00  0.00     0.031 C 
ATOM     48  C   UNL     1      12.099  -7.451  -6.274  1.00  0.00     0.029 A 
ATOM     49  C   UNL     1      12.561  -8.558  -7.110  1.00  0.00     0.049 A 
ATOM     50  H   UNL     1      13.155  -8.464  -9.106  1.00  0.00     0.167 HD
ATOM     51  C   UNL     1      14.216  -8.138 -13.359  1.00  0.00     0.034 A 
ATOM     52  C   UNL     1      12.688  -9.841  -6.715  1.00  0.00     0.034 A 
ATOM     53  C   UNL     1      14.473  -9.512 -12.998  1.00  0.00     0.049 A 
ATOM     54  C   UNL     1      13.169 -10.868  -7.715  1.00  0.00     0.074 A 
ATOM     55  C   UNL     1      15.014 -10.519 -13.779  1.00  0.00     0.029 A 
ATOM     56  N   UNL     1      14.195 -10.078 -11.761  1.00  0.00    -0.354 N 
ATOM     57  N   UNL     1      13.521 -10.700  -8.969  1.00  0.00    -0.248 NA
ATOM     58  C   UNL     1      13.277 -12.255  -7.242  1.00  0.00     0.031 C 
ATOM     59  C   UNL     1      14.985 -11.709 -13.045  1.00  0.00     0.029 A 
ATOM     60  C   UNL     1      14.512 -11.429 -11.773  1.00  0.00     0.049 A 
ATOM     61  H   UNL     1      13.827  -9.592 -10.988  1.00  0.00     0.167 HD
ATOM     62  C   UNL     1      13.923 -11.956  -9.422  1.00  0.00     0.074 A 
ATOM     63  C   UNL     1      13.789 -12.862  -8.302  1.00  0.00     0.031 C 
ATOM     64  C   UNL     1      14.365 -12.326 -10.651  1.00  0.00     0.034 A 
BRANCH  51  65
ATOM     65  C   UNL     1      14.480  -7.708 -14.781  1.00  0.00     0.023 A 
ATOM     66  C   UNL     1      15.457  -6.750 -15.101  1.00  0.00     0.031 A 
ATOM     67  C   UNL     1      13.746  -8.278 -15.838  1.00  0.00     0.131 A 
ATOM     68  C   UNL     1      15.640  -6.355 -16.436  1.00  0.00     0.055 A 
ATOM     69  C   UNL     1      13.984  -7.935 -17.169  1.00  0.00     0.041 A 
ATOM     70  F   UNL     1      12.784  -9.181 -15.591  1.00  0.00    -0.206 F 
ATOM     71  C   UNL     1      14.928  -6.961 -17.474  1.00  0.00     0.022 A 
BRANCH  68  72
ATOM     72  S   UNL     1      16.739  -4.955 -16.787  1.00  0.00     0.124 S 
ATOM     73  O   UNL     1      16.111  -3.886 -16.015  1.00  0.00    -0.237 OA
ATOM     74  O   UNL     1      18.025  -5.431 -16.291  1.00  0.00    -0.237 OA
ATOM     75  O   UNL     1      16.646  -4.803 -18.238  1.00  0.00    -0.744 OA
ENDBRANCH  68  72
ENDBRANCH  51  65
BRANCH  52  76
ATOM     76  C   UNL     1      12.305 -10.255  -5.333  1.00  0.00     0.023 A 
ATOM     77  C   UNL     1      13.240 -10.839  -4.464  1.00  0.00     0.031 A 
ATOM     78  C   UNL     1      10.973 -10.150  -4.890  1.00  0.00     0.131 A 
ATOM     79  C   UNL     1      12.820 -11.351  -3.225  1.00  0.00     0.055 A 
ATOM     80  C   UNL     1      10.575 -10.600  -3.630  1.00  0.00     0.041 A 
ATOM     81  F   UNL     1      10.034  -9.606  -5.681  1.00  0.00    -0.206 F 
ATOM     82  C   UNL     1      11.498 -11.221  -2.796  1.00  0.00     0.022 A 
BRANCH  79  83
ATOM     83  S   UNL     1      14.007 -12.300  -2.234  1.00  0.00     0.124 S 
ATOM     84  O   UNL     1      14.405 -13.345  -3.170  1.00  0.00    -0.237 OA
ATOM     85  O   UNL     1      15.017 -11.294  -1.927  1.00  0.00    -0.237 OA
ATOM     86  O   UNL     1      13.212 -12.752  -1.094  1.00  0.00    -0.744 OA
ENDBRANCH  79  83
ENDBRANCH  52  76
BRANCH  64  87
ATOM     87  C   UNL     1      14.779 -13.768 -10.829  1.00  0.00     0.023 A 
ATOM     88  C   UNL     1      13.855 -14.824 -10.735  1.00  0.00     0.031 A 
ATOM     89  C   UNL     1      16.125 -14.092 -11.083  1.00  0.00     0.131 A 
ATOM     90  C   UNL     1      14.297 -16.152 -10.833  1.00  0.00     0.055 A 
ATOM     91  C   UNL     1      16.547 -15.412 -11.248  1.00  0.00     0.041 A 
ATOM     92  F   UNL     1      17.053 -13.127 -11.180  1.00  0.00    -0.206 F 
ATOM     93  C   UNL     1      15.633 -16.452 -11.108  1.00  0.00     0.022 A 
BRANCH  90  94
ATOM     94  S   UNL     1      13.119 -17.489 -10.493  1.00  0.00     0.124 S 
ATOM     95  O   UNL     1      12.691 -17.177  -9.133  1.00  0.00    -0.237 OA
ATOM     96  O   UNL     1      12.117 -17.296 -11.536  1.00  0.00    -0.237 OA
ATOM     97  O   UNL     1      13.926 -18.700 -10.627  1.00  0.00    -0.744 OA
ENDBRANCH  90  94
ENDBRANCH  64  87
ENDBRANCH  38  39
ENDBRANCH  31  33
ENDBRANCH  30  31
ENDBRANCH  29  30
ENDBRANCH  28  29
ENDBRANCH  27  28
ENDBRANCH  26  27
ENDBRANCH   1  26
TORSDOF 23
