REMARK SMILES O=C(OCCOCCOC(=O)c1cc(-c2ccccc2)nc(Nc2nc3ccccc3s2)n1)c1ccc(-c2c3nc(c(-c4cc(S(=O)(=O)[O-])ccc4F)c4ccc([nH]4)c(-c4cc(S(=O)(=O)[O-])ccc4F)c4nc(c(-c5cc(S(=O)(=O)[O-])ccc5F)c5ccc2[nH]5)C=C4)C=C3)cc1
REMARK SMILES IDX 5 1 4 2 3 3 2 4 1 5 34 6 35 7 96 8 36 9 95 10 37 11 38 12
REMARK SMILES IDX 39 13 89 14 40 15 94 16 88 17 90 18 41 19 93 20 87 21 86 22
REMARK SMILES IDX 42 24 74 25 54 26 73 27 55 28 58 29 72 30 91 31 56 32 57 33
REMARK SMILES IDX 71 35 92 36 59 37 43 38 44 39 52 40 45 41 51 42 53 43 50 44
REMARK SMILES IDX 46 45 47 46 48 47 49 48 75 49 76 50 84 51 77 52 83 53 85 54
REMARK SMILES IDX 82 55 78 56 79 57 80 58 81 59 60 60 61 61 69 62 62 63 68 64
REMARK SMILES IDX 70 65 67 66 63 67 64 68 65 69 66 70 6 71 7 72 8 73 9 74
REMARK SMILES IDX 10 75 11 76 12 77 13 78 33 79 14 80 22 81 21 82 15 83 16 84
REMARK SMILES IDX 20 85 17 86 19 87 18 88 23 89 24 91 25 92 32 93 26 94 31 95
REMARK SMILES IDX 27 96 30 97 28 98 29 99
REMARK H PARENT 90 23 58 34 23 90
REMARK Flexibility Score: inf
ROOT
ATOM      1  C   UNL     1       3.997   1.413   0.825  1.00  0.00     0.202 C 
ENDROOT
BRANCH   1   2
ATOM      2  C   UNL     1       3.659   1.208  -0.649  1.00  0.00     0.261 C 
BRANCH   2   3
ATOM      3  O   UNL     1       2.296   0.787  -0.796  1.00  0.00    -0.460 OA
BRANCH   3   4
ATOM      4  C   UNL     1       1.853  -0.477  -1.002  1.00  0.00     0.338 C 
ATOM      5  O   UNL     1       0.642  -0.645  -1.151  1.00  0.00    -0.246 OA
BRANCH   4   6
ATOM      6  C   UNL     1       2.738  -1.686  -1.060  1.00  0.00     0.060 A 
ATOM      7  C   UNL     1       3.972  -1.824  -0.419  1.00  0.00     0.016 A 
ATOM      8  C   UNL     1       2.230  -2.808  -1.737  1.00  0.00     0.016 A 
ATOM      9  C   UNL     1       4.687  -3.011  -0.447  1.00  0.00     0.010 A 
ATOM     10  C   UNL     1       2.929  -4.021  -1.749  1.00  0.00     0.010 A 
ATOM     11  C   UNL     1       4.161  -4.120  -1.095  1.00  0.00    -0.014 A 
BRANCH  11  12
ATOM     12  C   UNL     1       4.977  -5.345  -1.121  1.00  0.00     0.031 A 
ATOM     13  C   UNL     1       5.732  -5.666  -2.370  1.00  0.00     0.074 A 
ATOM     14  C   UNL     1       5.128  -6.057   0.010  1.00  0.00     0.049 A 
ATOM     15  N   UNL     1       6.474  -6.702  -2.644  1.00  0.00    -0.248 NA
ATOM     16  C   UNL     1       5.650  -4.674  -3.455  1.00  0.00     0.031 C 
ATOM     17  C   UNL     1       4.530  -5.714   1.305  1.00  0.00     0.029 A 
ATOM     18  N   UNL     1       5.848  -7.191   0.269  1.00  0.00    -0.354 N 
ATOM     19  C   UNL     1       6.931  -6.502  -3.940  1.00  0.00     0.074 A 
ATOM     20  C   UNL     1       6.376  -5.249  -4.401  1.00  0.00     0.031 C 
ATOM     21  C   UNL     1       4.923  -6.612   2.222  1.00  0.00     0.029 A 
ATOM     22  C   UNL     1       5.732  -7.633   1.567  1.00  0.00     0.049 A 
ATOM     23  H   UNL     1       6.397  -7.647  -0.409  1.00  0.00     0.167 HD
ATOM     24  C   UNL     1       7.735  -7.310  -4.671  1.00  0.00     0.034 A 
ATOM     25  C   UNL     1       6.195  -8.762   2.139  1.00  0.00     0.034 A 
ATOM     26  C   UNL     1       8.246  -8.560  -4.168  1.00  0.00     0.049 A 
ATOM     27  C   UNL     1       6.990  -9.702   1.264  1.00  0.00     0.074 A 
ATOM     28  C   UNL     1       8.998  -9.517  -4.823  1.00  0.00     0.029 A 
ATOM     29  N   UNL     1       8.046  -9.028  -2.872  1.00  0.00    -0.354 N 
ATOM     30  N   UNL     1       7.351  -9.552   0.007  1.00  0.00    -0.248 NA
ATOM     31  C   UNL     1       7.432 -10.960   1.872  1.00  0.00     0.031 C 
ATOM     32  C   UNL     1       9.197 -10.588  -3.945  1.00  0.00     0.029 A 
ATOM     33  C   UNL     1       8.637 -10.269  -2.716  1.00  0.00     0.049 A 
ATOM     34  H   UNL     1       7.554  -8.545  -2.169  1.00  0.00     0.167 HD
ATOM     35  C   UNL     1       8.081 -10.690  -0.317  1.00  0.00     0.074 A 
ATOM     36  C   UNL     1       8.129 -11.502   0.884  1.00  0.00     0.031 C 
ATOM     37  C   UNL     1       8.657 -11.043  -1.495  1.00  0.00     0.034 A 
BRANCH  24  38
ATOM     38  C   UNL     1       8.000  -6.901  -6.097  1.00  0.00     0.023 A 
ATOM     39  C   UNL     1       8.721  -5.737  -6.418  1.00  0.00     0.031 A 
ATOM     40  C   UNL     1       7.444  -7.645  -7.153  1.00  0.00     0.131 A 
ATOM     41  C   UNL     1       8.803  -5.312  -7.754  1.00  0.00     0.055 A 
ATOM     42  C   UNL     1       7.595  -7.258  -8.486  1.00  0.00     0.041 A 
ATOM     43  F   UNL     1       6.716  -8.745  -6.905  1.00  0.00    -0.206 F 
ATOM     44  C   UNL     1       8.265  -6.077  -8.792  1.00  0.00     0.022 A 
BRANCH  41  45
ATOM     45  S   UNL     1       9.491  -3.670  -8.104  1.00  0.00     0.124 S 
ATOM     46  O   UNL     1       8.572  -2.801  -7.371  1.00  0.00    -0.237 OA
ATOM     47  O   UNL     1      10.841  -3.768  -7.562  1.00  0.00    -0.237 OA
ATOM     48  O   UNL     1       9.409  -3.565  -9.559  1.00  0.00    -0.744 OA
ENDBRANCH  41  45
ENDBRANCH  24  38
BRANCH  25  49
ATOM     49  C   UNL     1       5.858  -9.109   3.553  1.00  0.00     0.023 A 
ATOM     50  C   UNL     1       6.858  -9.346   4.510  1.00  0.00     0.031 A 
ATOM     51  C   UNL     1       4.519  -9.278   3.954  1.00  0.00     0.131 A 
ATOM     52  C   UNL     1       6.507  -9.790   5.797  1.00  0.00     0.055 A 
ATOM     53  C   UNL     1       4.173  -9.655   5.253  1.00  0.00     0.041 A 
ATOM     54  F   UNL     1       3.516  -9.079   3.083  1.00  0.00    -0.206 F 
ATOM     55  C   UNL     1       5.172  -9.931   6.179  1.00  0.00     0.022 A 
BRANCH  52  56
ATOM     56  S   UNL     1       7.827 -10.300   6.934  1.00  0.00     0.124 S 
ATOM     57  O   UNL     1       8.541 -11.290   6.136  1.00  0.00    -0.237 OA
ATOM     58  O   UNL     1       8.526  -9.041   7.171  1.00  0.00    -0.237 OA
ATOM     59  O   UNL     1       7.099 -10.833   8.083  1.00  0.00    -0.744 OA
ENDBRANCH  52  56
ENDBRANCH  25  49
BRANCH  37  60
ATOM     60  C   UNL     1       9.421 -12.341  -1.507  1.00  0.00     0.023 A 
ATOM     61  C   UNL     1       8.770 -13.579  -1.376  1.00  0.00     0.031 A 
ATOM     62  C   UNL     1      10.819 -12.332  -1.646  1.00  0.00     0.131 A 
ATOM     63  C   UNL     1       9.525 -14.758  -1.331  1.00  0.00     0.055 A 
ATOM     64  C   UNL     1      11.559 -13.514  -1.665  1.00  0.00     0.041 A 
ATOM     65  F   UNL     1      11.487 -11.174  -1.774  1.00  0.00    -0.206 F 
ATOM     66  C   UNL     1      10.913 -14.735  -1.493  1.00  0.00     0.022 A 
BRANCH  63  67
ATOM     67  S   UNL     1       8.676 -16.318  -0.968  1.00  0.00     0.124 S 
ATOM     68  O   UNL     1       8.086 -16.045   0.339  1.00  0.00    -0.237 OA
ATOM     69  O   UNL     1       7.738 -16.430  -2.080  1.00  0.00    -0.237 OA
ATOM     70  O   UNL     1       9.756 -17.303  -0.968  1.00  0.00    -0.744 OA
ENDBRANCH  63  67
ENDBRANCH  37  60
ENDBRANCH  11  12
ENDBRANCH   4   6
ENDBRANCH   3   4
ENDBRANCH   2   3
ENDBRANCH   1   2
BRANCH   1  71
ATOM     71  O   UNL     1       3.732   0.270   1.636  1.00  0.00    -0.374 OA
BRANCH  71  72
ATOM     72  C   UNL     1       2.443   0.191   2.237  1.00  0.00     0.202 C 
BRANCH  72  73
ATOM     73  C   UNL     1       2.631   0.021   3.745  1.00  0.00     0.261 C 
BRANCH  73  74
ATOM     74  O   UNL     1       3.266   1.210   4.242  1.00  0.00    -0.459 OA
BRANCH  74  75
ATOM     75  C   UNL     1       4.625   1.218   4.115  1.00  0.00     0.357 C 
ATOM     76  O   UNL     1       5.369   0.254   4.124  1.00  0.00    -0.244 OA
BRANCH  75  77
ATOM     77  C   UNL     1       5.029   2.623   3.856  1.00  0.00     0.154 A 
ATOM     78  C   UNL     1       4.410   3.620   4.551  1.00  0.00     0.065 A 
ATOM     79  N   UNL     1       5.979   2.841   2.927  1.00  0.00    -0.206 NA
ATOM     80  C   UNL     1       4.885   4.887   4.324  1.00  0.00     0.077 A 
ATOM     81  C   UNL     1       6.324   4.109   2.684  1.00  0.00     0.230 A 
ATOM     82  N   UNL     1       5.834   5.149   3.393  1.00  0.00    -0.213 NA
BRANCH  80  83
ATOM     83  C   UNL     1       4.391   5.982   5.171  1.00  0.00     0.000 A 
ATOM     84  C   UNL     1       3.937   7.199   4.649  1.00  0.00     0.010 A 
ATOM     85  C   UNL     1       4.277   5.778   6.564  1.00  0.00     0.010 A 
ATOM     86  C   UNL     1       3.353   8.157   5.488  1.00  0.00     0.001 A 
ATOM     87  C   UNL     1       3.691   6.726   7.399  1.00  0.00     0.001 A 
ATOM     88  C   UNL     1       3.222   7.915   6.857  1.00  0.00     0.000 A 
ENDBRANCH  80  83
BRANCH  81  89
ATOM     89  N   UNL     1       7.304   4.395   1.738  1.00  0.00    -0.300 N 
ATOM     90  H   UNL     1       7.726   5.283   1.788  1.00  0.00     0.172 HD
BRANCH  89  91
ATOM     91  C   UNL     1       7.731   3.569   0.758  1.00  0.00     0.190 A 
ATOM     92  N   UNL     1       6.966   2.865  -0.050  1.00  0.00    -0.220 NA
ATOM     93  S   UNL     1       9.418   3.465   0.400  1.00  0.00    -0.097 S 
ATOM     94  C   UNL     1       7.732   2.126  -0.945  1.00  0.00     0.084 A 
ATOM     95  C   UNL     1       9.111   2.284  -0.815  1.00  0.00     0.056 A 
ATOM     96  C   UNL     1       7.249   1.254  -1.944  1.00  0.00     0.030 A 
ATOM     97  C   UNL     1      10.019   1.561  -1.613  1.00  0.00     0.021 A 
ATOM     98  C   UNL     1       8.139   0.526  -2.739  1.00  0.00     0.002 A 
ATOM     99  C   UNL     1       9.509   0.672  -2.565  1.00  0.00     0.002 A 
ENDBRANCH  89  91
ENDBRANCH  81  89
ENDBRANCH  75  77
ENDBRANCH  74  75
ENDBRANCH  73  74
ENDBRANCH  72  73
ENDBRANCH  71  72
ENDBRANCH   1  71
TORSDOF 20
