REMARK SMILES C[C@H]1CCC[C@H]([C@](C)(O)C(=O)OCCOCCOC(=O)c2ccc(-c3c4nc(c(-c5cc(S(=O)(=O)[O-])ccc5F)c5ccc([nH]5)c(-c5cc(S(=O)(=O)[O-])ccc5F)c5nc(c(-c6cc(S(=O)(=O)[O-])ccc6F)c6ccc3[nH]6)C=C5)C=C4)cc2)CC1
REMARK SMILES IDX 14 1 13 2 12 3 10 4 11 5 7 6 8 7 6 8 84 9 85 10 2 11 1 12
REMARK SMILES IDX 3 13 5 15 4 16 9 18 15 20 16 21 17 22 18 23 19 24 20 25
REMARK SMILES IDX 21 26 22 27 83 28 23 29 82 30 24 31 25 32 26 33 76 34 27 35
REMARK SMILES IDX 81 36 75 37 77 38 28 39 80 40 74 41 73 42 29 44 61 45 41 46
REMARK SMILES IDX 60 47 42 48 45 49 59 50 78 51 43 52 44 53 58 55 79 56 46 57
REMARK SMILES IDX 30 58 31 59 39 60 32 61 38 62 40 63 37 64 33 65 34 66 35 67
REMARK SMILES IDX 36 68 62 69 63 70 71 71 64 72 70 73 72 74 69 75 65 76 66 77
REMARK SMILES IDX 67 78 68 79 47 80 48 81 56 82 49 83 55 84 57 85 54 86 50 87
REMARK SMILES IDX 51 88 52 89 53 90
REMARK H PARENT 9 19 77 43 45 54
REMARK Flexibility Score: 80.00
ROOT
ATOM      1  C   UNL     1       1.113  -0.806  -0.376  1.00  0.00     0.202 C 
ENDROOT
BRANCH   1   2
ATOM      2  C   UNL     1       0.187  -0.020  -1.306  1.00  0.00     0.261 C 
BRANCH   2   3
ATOM      3  O   UNL     1       0.727   1.261  -1.672  1.00  0.00    -0.461 OA
BRANCH   3   4
ATOM      4  C   UNL     1      -0.039   2.344  -1.364  1.00  0.00     0.338 C 
ATOM      5  O   UNL     1      -1.135   2.281  -0.812  1.00  0.00    -0.249 OA
BRANCH   4   6
ATOM      6  C   UNL     1       0.644   3.685  -1.740  1.00  0.00     0.161 C 
ATOM      7  C   UNL     1       0.131   4.715  -0.707  1.00  0.00     0.055 C 
BRANCH   6   8
ATOM      8  C   UNL     1       0.349   4.198  -3.196  1.00  0.00     0.032 C 
BRANCH   8   9
ATOM      9  C   UNL     1      -1.092   4.058  -3.717  1.00  0.00     0.007 C 
BRANCH   9  10
ATOM     10  C   UNL     1      -1.720   2.680  -3.947  1.00  0.00     0.004 C 
BRANCH  10  11
ATOM     11  C   UNL     1      -0.966   1.511  -4.619  1.00  0.00    -0.014 C 
ATOM     12  C   UNL     1      -1.698   1.084  -5.901  1.00  0.00     0.007 C 
BRANCH  11  13
ATOM     13  C   UNL     1       0.537   1.624  -4.898  1.00  0.00     0.003 CG0
ATOM     14  G   UNL     1       1.000   2.969  -5.416  1.00  0.00     0.000 G0
ENDBRANCH  11  13
ENDBRANCH  10  11
ENDBRANCH   9  10
ENDBRANCH   8   9
BRANCH   8  15
ATOM     15  C   UNL     1       1.413   3.895  -4.279  1.00  0.00     0.007 C 
BRANCH  15  16
ATOM     16  C   UNL     1       1.000   2.969  -5.416  1.00  0.00     0.001 CG0
ATOM     17  G   UNL     1       0.537   1.624  -4.898  1.00  0.00     0.000 G0
ENDBRANCH  15  16
ENDBRANCH   8  15
ENDBRANCH   6   8
BRANCH   6  18
ATOM     18  O   UNL     1       2.060   3.638  -1.505  1.00  0.00    -0.378 OA
ATOM     19  H   UNL     1       2.228   3.320  -0.604  1.00  0.00     0.212 HD
ENDBRANCH   6  18
ENDBRANCH   4   6
ENDBRANCH   3   4
ENDBRANCH   2   3
ENDBRANCH   1   2
BRANCH   1  20
ATOM     20  O   UNL     1       1.392  -0.220   0.893  1.00  0.00    -0.374 OA
BRANCH  20  21
ATOM     21  C   UNL     1       2.208   0.950   0.912  1.00  0.00     0.202 C 
BRANCH  21  22
ATOM     22  C   UNL     1       3.687   0.788   0.538  1.00  0.00     0.261 C 
BRANCH  22  23
ATOM     23  O   UNL     1       3.914   0.393  -0.828  1.00  0.00    -0.460 OA
BRANCH  23  24
ATOM     24  C   UNL     1       4.490  -0.823  -0.982  1.00  0.00     0.338 C 
ATOM     25  O   UNL     1       4.786  -1.618  -0.096  1.00  0.00    -0.246 OA
BRANCH  24  26
ATOM     26  C   UNL     1       4.650  -1.148  -2.407  1.00  0.00     0.060 A 
ATOM     27  C   UNL     1       3.935  -2.229  -2.937  1.00  0.00     0.016 A 
ATOM     28  C   UNL     1       5.624  -0.499  -3.168  1.00  0.00     0.016 A 
ATOM     29  C   UNL     1       4.219  -2.690  -4.224  1.00  0.00     0.010 A 
ATOM     30  C   UNL     1       5.912  -0.968  -4.454  1.00  0.00     0.010 A 
ATOM     31  C   UNL     1       5.235  -2.085  -4.976  1.00  0.00    -0.014 A 
BRANCH  31  32
ATOM     32  C   UNL     1       5.689  -2.688  -6.255  1.00  0.00     0.031 A 
ATOM     33  C   UNL     1       6.932  -3.536  -6.267  1.00  0.00     0.074 A 
ATOM     34  C   UNL     1       5.012  -2.467  -7.395  1.00  0.00     0.049 A 
ATOM     35  N   UNL     1       7.575  -4.056  -7.281  1.00  0.00    -0.248 NA
ATOM     36  C   UNL     1       7.529  -3.833  -4.956  1.00  0.00     0.031 C 
ATOM     37  C   UNL     1       3.766  -1.710  -7.502  1.00  0.00     0.029 A 
ATOM     38  N   UNL     1       5.290  -2.844  -8.685  1.00  0.00    -0.354 N 
ATOM     39  C   UNL     1       8.656  -4.740  -6.734  1.00  0.00     0.074 A 
ATOM     40  C   UNL     1       8.596  -4.538  -5.301  1.00  0.00     0.031 C 
ATOM     41  C   UNL     1       3.396  -1.662  -8.793  1.00  0.00     0.029 A 
ATOM     42  C   UNL     1       4.403  -2.341  -9.607  1.00  0.00     0.049 A 
ATOM     43  H   UNL     1       6.051  -3.420  -8.927  1.00  0.00     0.167 HD
ATOM     44  C   UNL     1       9.606  -5.472  -7.369  1.00  0.00     0.034 A 
ATOM     45  C   UNL     1       4.424  -2.387 -10.954  1.00  0.00     0.034 A 
ATOM     46  C   UNL     1       9.665  -5.646  -8.800  1.00  0.00     0.049 A 
ATOM     47  C   UNL     1       5.559  -3.099 -11.649  1.00  0.00     0.074 A 
ATOM     48  C   UNL     1      10.573  -6.377  -9.547  1.00  0.00     0.029 A 
ATOM     49  N   UNL     1       8.786  -5.065  -9.707  1.00  0.00    -0.354 N 
ATOM     50  N   UNL     1       6.582  -3.734 -11.124  1.00  0.00    -0.248 NA
ATOM     51  C   UNL     1       5.546  -3.092 -13.118  1.00  0.00     0.031 C 
ATOM     52  C   UNL     1      10.287  -6.181 -10.903  1.00  0.00     0.029 A 
ATOM     53  C   UNL     1       9.156  -5.387 -11.004  1.00  0.00     0.049 A 
ATOM     54  H   UNL     1       8.013  -4.506  -9.463  1.00  0.00     0.167 HD
ATOM     55  C   UNL     1       7.318  -4.224 -12.200  1.00  0.00     0.074 A 
ATOM     56  C   UNL     1       6.620  -3.816 -13.402  1.00  0.00     0.031 C 
ATOM     57  C   UNL     1       8.463  -4.953 -12.195  1.00  0.00     0.034 A 
BRANCH  44  58
ATOM     58  C   UNL     1      10.688  -6.088  -6.514  1.00  0.00     0.023 A 
ATOM     59  C   UNL     1      10.402  -7.079  -5.559  1.00  0.00     0.031 A 
ATOM     60  C   UNL     1      12.019  -5.650  -6.629  1.00  0.00     0.131 A 
ATOM     61  C   UNL     1      11.416  -7.546  -4.708  1.00  0.00     0.055 A 
ATOM     62  C   UNL     1      13.039  -6.173  -5.830  1.00  0.00     0.041 A 
ATOM     63  F   UNL     1      12.350  -4.691  -7.509  1.00  0.00    -0.206 F 
ATOM     64  C   UNL     1      12.737  -7.115  -4.852  1.00  0.00     0.022 A 
BRANCH  61  65
ATOM     65  S   UNL     1      10.957  -8.615  -3.316  1.00  0.00     0.124 S 
ATOM     66  O   UNL     1       9.982  -7.785  -2.614  1.00  0.00    -0.237 OA
ATOM     67  O   UNL     1      10.427  -9.796  -3.987  1.00  0.00    -0.237 OA
ATOM     68  O   UNL     1      12.220  -8.814  -2.606  1.00  0.00    -0.744 OA
ENDBRANCH  61  65
ENDBRANCH  44  58
BRANCH  45  69
ATOM     69  C   UNL     1       3.372  -1.690 -11.745  1.00  0.00     0.023 A 
ATOM     70  C   UNL     1       2.471  -2.409 -12.546  1.00  0.00     0.031 A 
ATOM     71  C   UNL     1       3.280  -0.287 -11.742  1.00  0.00     0.131 A 
ATOM     72  C   UNL     1       1.538  -1.721 -13.336  1.00  0.00     0.055 A 
ATOM     73  C   UNL     1       2.320   0.391 -12.495  1.00  0.00     0.041 A 
ATOM     74  F   UNL     1       4.120   0.447 -10.994  1.00  0.00    -0.206 F 
ATOM     75  C   UNL     1       1.448  -0.327 -13.306  1.00  0.00     0.022 A 
BRANCH  72  76
ATOM     76  S   UNL     1       0.479  -2.674 -14.459  1.00  0.00     0.124 S 
ATOM     77  O   UNL     1       1.463  -3.323 -15.317  1.00  0.00    -0.237 OA
ATOM     78  O   UNL     1      -0.239  -3.543 -13.533  1.00  0.00    -0.237 OA
ATOM     79  O   UNL     1      -0.338  -1.649 -15.107  1.00  0.00    -0.744 OA
ENDBRANCH  72  76
ENDBRANCH  45  69
BRANCH  57  80
ATOM     80  C   UNL     1       9.007  -5.385 -13.535  1.00  0.00     0.023 A 
ATOM     81  C   UNL     1       9.564  -4.464 -14.439  1.00  0.00     0.031 A 
ATOM     82  C   UNL     1       8.961  -6.739 -13.912  1.00  0.00     0.131 A 
ATOM     83  C   UNL     1      10.014  -4.902 -15.694  1.00  0.00     0.055 A 
ATOM     84  C   UNL     1       9.457  -7.177 -15.141  1.00  0.00     0.041 A 
ATOM     85  F   UNL     1       8.437  -7.660 -13.087  1.00  0.00    -0.206 F 
ATOM     86  C   UNL     1       9.978  -6.255 -16.044  1.00  0.00     0.022 A 
BRANCH  83  87
ATOM     87  S   UNL     1      10.588  -3.671 -16.896  1.00  0.00     0.124 S 
ATOM     88  O   UNL     1       9.394  -2.855 -17.089  1.00  0.00    -0.237 OA
ATOM     89  O   UNL     1      11.690  -3.029 -16.186  1.00  0.00    -0.237 OA
ATOM     90  O   UNL     1      10.983  -4.476 -18.051  1.00  0.00    -0.744 OA
ENDBRANCH  83  87
ENDBRANCH  57  80
ENDBRANCH  31  32
ENDBRANCH  24  26
ENDBRANCH  23  24
ENDBRANCH  22  23
ENDBRANCH  21  22
ENDBRANCH  20  21
ENDBRANCH   1  20
TORSDOF 19
