REMARK SMILES COC[C@H]1CCN(C(=O)N2CC[C@H](C(=O)OCCOCCOC(=O)c3ccc(-c4c5nc(c(-c6cc(S(=O)(=O)[O-])ccc6F)c6ccc([nH]6)c(-c6cc(S(=O)(=O)[O-])ccc6F)c6nc(c(-c7cc(S(=O)(=O)[O-])ccc7F)c7ccc4[nH]7)C=C6)C=C5)cc3)[C@@H]2C)C1
REMARK SMILES IDX 18 1 17 2 16 3 14 4 15 5 13 6 10 7 11 8 88 9 12 10 89 11
REMARK SMILES IDX 8 12 9 13 7 14 4 15 5 16 90 17 6 18 3 19 2 20 1 21 19 22
REMARK SMILES IDX 20 23 21 24 22 25 23 26 24 27 25 28 26 29 87 30 27 31 86 32
REMARK SMILES IDX 28 33 29 34 30 35 80 36 31 37 85 38 79 39 81 40 32 41 84 42
REMARK SMILES IDX 78 43 77 44 33 46 65 47 45 48 64 49 46 50 49 51 63 52 82 53
REMARK SMILES IDX 47 54 48 55 62 57 83 58 50 59 34 60 35 61 43 62 36 63 42 64
REMARK SMILES IDX 44 65 41 66 37 67 38 68 39 69 40 70 66 71 67 72 75 73 68 74
REMARK SMILES IDX 74 75 76 76 73 77 69 78 70 79 71 80 72 81 51 82 52 83 60 84
REMARK SMILES IDX 53 85 59 86 61 87 58 88 54 89 55 90 56 91 57 92
REMARK H PARENT 81 45 49 56
REMARK Flexibility Score: inf
ROOT
ATOM      1  C   UNL     1       8.345   4.712  -1.927  1.00  0.00     0.202 C 
ENDROOT
BRANCH   1   2
ATOM      2  C   UNL     1       7.118   4.943  -1.042  1.00  0.00     0.261 C 
BRANCH   2   3
ATOM      3  O   UNL     1       5.902   4.678  -1.762  1.00  0.00    -0.463 OA
BRANCH   3   4
ATOM      4  C   UNL     1       5.056   5.727  -1.927  1.00  0.00     0.311 C 
ATOM      5  O   UNL     1       5.213   6.848  -1.459  1.00  0.00    -0.252 OA
BRANCH   4   6
ATOM      6  C   UNL     1       3.844   5.357  -2.747  1.00  0.00     0.123 C 
ATOM      7  N   UNL     1       2.217   3.639  -2.789  1.00  0.00    -0.321 N 
ATOM      8  C   UNL     1       2.701   3.817  -4.141  1.00  0.00     0.122 C 
ATOM      9  C   UNL     1       2.712   4.713  -1.927  1.00  0.00     0.098 C 
ATOM     10  C   UNL     1       4.082   4.391  -3.918  1.00  0.00     0.039 C 
ATOM     11  C   UNL     1       3.095   4.171  -0.551  1.00  0.00     0.032 C 
BRANCH   7  12
ATOM     12  C   UNL     1       1.070   2.965  -2.473  1.00  0.00     0.320 C 
ATOM     13  O   UNL     1       0.164   3.516  -1.846  1.00  0.00    -0.248 OA
BRANCH  12  14
ATOM     14  N   UNL     1       1.028   1.630  -2.787  1.00  0.00    -0.324 N 
ATOM     15  C   UNL     1       0.263  -0.607  -2.571  1.00  0.00     0.036 C 
ATOM     16  C   UNL     1       1.417  -0.540  -3.571  1.00  0.00     0.029 C 
ATOM     17  C   UNL     1      -0.130   0.857  -2.378  1.00  0.00     0.127 C 
ATOM     18  C   UNL     1       2.121   0.747  -3.167  1.00  0.00     0.122 C 
BRANCH  15  19
ATOM     19  C   UNL     1      -0.903  -1.476  -3.028  1.00  0.00     0.165 C 
BRANCH  19  20
ATOM     20  O   UNL     1      -2.102  -1.208  -2.300  1.00  0.00    -0.384 OA
ATOM     21  C   UNL     1      -2.063  -1.640  -0.947  1.00  0.00     0.194 C 
ENDBRANCH  19  20
ENDBRANCH  15  19
ENDBRANCH  12  14
ENDBRANCH   7  12
ENDBRANCH   4   6
ENDBRANCH   3   4
ENDBRANCH   2   3
ENDBRANCH   1   2
BRANCH   1  22
ATOM     22  O   UNL     1       8.496   5.600  -3.035  1.00  0.00    -0.374 OA
BRANCH  22  23
ATOM     23  C   UNL     1       7.664   5.380  -4.171  1.00  0.00     0.202 C 
BRANCH  23  24
ATOM     24  C   UNL     1       8.045   4.224  -5.105  1.00  0.00     0.261 C 
BRANCH  24  25
ATOM     25  O   UNL     1       7.975   2.936  -4.468  1.00  0.00    -0.460 OA
BRANCH  25  26
ATOM     26  C   UNL     1       9.184   2.360  -4.251  1.00  0.00     0.338 C 
ATOM     27  O   UNL     1      10.274   2.807  -4.584  1.00  0.00    -0.246 OA
BRANCH  26  28
ATOM     28  C   UNL     1       9.057   1.164  -3.397  1.00  0.00     0.060 A 
ATOM     29  C   UNL     1       9.906   1.081  -2.287  1.00  0.00     0.016 A 
ATOM     30  C   UNL     1       8.214   0.098  -3.723  1.00  0.00     0.016 A 
ATOM     31  C   UNL     1       9.962  -0.089  -1.535  1.00  0.00     0.010 A 
ATOM     32  C   UNL     1       8.275  -1.081  -2.966  1.00  0.00     0.010 A 
ATOM     33  C   UNL     1       9.178  -1.194  -1.893  1.00  0.00    -0.014 A 
BRANCH  33  34
ATOM     34  C   UNL     1       9.430  -2.497  -1.224  1.00  0.00     0.031 A 
ATOM     35  C   UNL     1      10.290  -3.524  -1.914  1.00  0.00     0.074 A 
ATOM     36  C   UNL     1       8.966  -2.729   0.018  1.00  0.00     0.049 A 
ATOM     37  N   UNL     1      10.682  -4.699  -1.493  1.00  0.00    -0.248 NA
ATOM     38  C   UNL     1      10.770  -3.176  -3.260  1.00  0.00     0.031 C 
ATOM     39  C   UNL     1       8.155  -1.796   0.801  1.00  0.00     0.029 A 
ATOM     40  N   UNL     1       9.119  -3.815   0.842  1.00  0.00    -0.354 N 
ATOM     41  C   UNL     1      11.463  -5.229  -2.515  1.00  0.00     0.074 A 
ATOM     42  C   UNL     1      11.447  -4.265  -3.595  1.00  0.00     0.031 C 
ATOM     43  C   UNL     1       7.887  -2.350   1.996  1.00  0.00     0.029 A 
ATOM     44  C   UNL     1       8.482  -3.684   2.054  1.00  0.00     0.049 A 
ATOM     45  H   UNL     1       9.636  -4.614   0.590  1.00  0.00     0.167 HD
ATOM     46  C   UNL     1      12.143  -6.403  -2.545  1.00  0.00     0.034 A 
ATOM     47  C   UNL     1       8.385  -4.544   3.088  1.00  0.00     0.034 A 
ATOM     48  C   UNL     1      12.141  -7.362  -1.467  1.00  0.00     0.049 A 
ATOM     49  C   UNL     1       9.098  -5.873   3.004  1.00  0.00     0.074 A 
ATOM     50  C   UNL     1      12.791  -8.583  -1.395  1.00  0.00     0.029 A 
ATOM     51  N   UNL     1      11.449  -7.215  -0.272  1.00  0.00    -0.354 N 
ATOM     52  N   UNL     1       9.840  -6.355   2.033  1.00  0.00    -0.248 NA
ATOM     53  C   UNL     1       8.972  -6.764   4.164  1.00  0.00     0.031 C 
ATOM     54  C   UNL     1      12.442  -9.199  -0.188  1.00  0.00     0.029 A 
ATOM     55  C   UNL     1      11.634  -8.332   0.530  1.00  0.00     0.049 A 
ATOM     56  H   UNL     1      10.905  -6.431  -0.028  1.00  0.00     0.167 HD
ATOM     57  C   UNL     1      10.295  -7.593   2.484  1.00  0.00     0.074 A 
ATOM     58  C   UNL     1       9.762  -7.769   3.818  1.00  0.00     0.031 C 
ATOM     59  C   UNL     1      11.084  -8.502   1.854  1.00  0.00     0.034 A 
BRANCH  46  60
ATOM     60  C   UNL     1      12.906  -6.729  -3.807  1.00  0.00     0.023 A 
ATOM     61  C   UNL     1      14.010  -5.963  -4.223  1.00  0.00     0.031 A 
ATOM     62  C   UNL     1      12.510  -7.808  -4.617  1.00  0.00     0.131 A 
ATOM     63  C   UNL     1      14.639  -6.248  -5.445  1.00  0.00     0.055 A 
ATOM     64  C   UNL     1      13.187  -8.132  -5.795  1.00  0.00     0.041 A 
ATOM     65  F   UNL     1      11.449  -8.559  -4.284  1.00  0.00    -0.206 F 
ATOM     66  C   UNL     1      14.250  -7.343  -6.222  1.00  0.00     0.022 A 
BRANCH  63  67
ATOM     67  S   UNL     1      15.889  -5.092  -6.070  1.00  0.00     0.124 S 
ATOM     68  O   UNL     1      15.120  -3.855  -6.175  1.00  0.00    -0.237 OA
ATOM     69  O   UNL     1      16.904  -5.128  -5.024  1.00  0.00    -0.237 OA
ATOM     70  O   UNL     1      16.289  -5.678  -7.348  1.00  0.00    -0.744 OA
ENDBRANCH  63  67
ENDBRANCH  46  60
BRANCH  47  71
ATOM     71  C   UNL     1       7.565  -4.202   4.286  1.00  0.00     0.023 A 
ATOM     72  C   UNL     1       8.147  -4.077   5.557  1.00  0.00     0.031 A 
ATOM     73  C   UNL     1       6.169  -4.066   4.184  1.00  0.00     0.131 A 
ATOM     74  C   UNL     1       7.333  -3.879   6.683  1.00  0.00     0.055 A 
ATOM     75  C   UNL     1       5.368  -3.815   5.300  1.00  0.00     0.041 A 
ATOM     76  F   UNL     1       5.560  -4.176   2.992  1.00  0.00    -0.206 F 
ATOM     77  C   UNL     1       5.949  -3.736   6.561  1.00  0.00     0.022 A 
BRANCH  74  78
ATOM     78  S   UNL     1       8.101  -3.910   8.326  1.00  0.00     0.124 S 
ATOM     79  O   UNL     1       8.742  -5.220   8.330  1.00  0.00    -0.237 OA
ATOM     80  O   UNL     1       8.994  -2.758   8.263  1.00  0.00    -0.237 OA
ATOM     81  O   UNL     1       6.965  -3.768   9.235  1.00  0.00    -0.744 OA
ENDBRANCH  74  78
ENDBRANCH  47  71
BRANCH  59  82
ATOM     82  C   UNL     1      11.443  -9.747   2.631  1.00  0.00     0.023 A 
ATOM     83  C   UNL     1      10.470 -10.688   3.011  1.00  0.00     0.031 A 
ATOM     84  C   UNL     1      12.771  -9.971   3.036  1.00  0.00     0.131 A 
ATOM     85  C   UNL     1      10.824 -11.769   3.833  1.00  0.00     0.055 A 
ATOM     86  C   UNL     1      13.130 -11.084   3.799  1.00  0.00     0.041 A 
ATOM     87  F   UNL     1      13.743  -9.107   2.703  1.00  0.00    -0.206 F 
ATOM     88  C   UNL     1      12.150 -11.980   4.218  1.00  0.00     0.022 A 
BRANCH  85  89
ATOM     89  S   UNL     1       9.507 -12.825   4.496  1.00  0.00     0.124 S 
ATOM     90  O   UNL     1       8.640 -11.854   5.154  1.00  0.00    -0.237 OA
ATOM     91  O   UNL     1       8.968 -13.444   3.288  1.00  0.00    -0.237 OA
ATOM     92  O   UNL     1      10.215 -13.734   5.395  1.00  0.00    -0.744 OA
ENDBRANCH  85  89
ENDBRANCH  59  82
ENDBRANCH  33  34
ENDBRANCH  26  28
ENDBRANCH  25  26
ENDBRANCH  24  25
ENDBRANCH  23  24
ENDBRANCH  22  23
ENDBRANCH   1  22
TORSDOF 21
