REMARK SMILES Cc1cccc(N2C(=O)/C(=C/c3ccc(C(=O)OCCOCCOC(=O)c4ccc(-c5c6nc(c(-c7cc(S(=O)(=O)[O-])ccc7F)c7ccc([nH]7)c(-c7cc(S(=O)(=O)[O-])ccc7F)c7nc(c(-c8cc(S(=O)(=O)[O-])ccc8F)c8ccc5[nH]8)C=C7)C=C6)cc4)cc3)c3ccccc3C2=O)c1
REMARK SMILES IDX 22 1 21 2 20 3 19 4 18 5 16 6 17 7 15 8 12 9 13 10 91 11
REMARK SMILES IDX 14 12 90 13 11 14 7 15 8 16 98 17 9 18 10 19 97 20 99 21
REMARK SMILES IDX 92 22 96 23 93 24 95 25 94 26 6 27 1 28 2 29 3 30 100 31
REMARK SMILES IDX 4 32 5 33 23 34 24 35 25 36 26 37 27 38 28 39 89 40 29 41
REMARK SMILES IDX 88 42 30 43 31 44 32 45 82 46 33 47 87 48 81 49 83 50 34 51
REMARK SMILES IDX 86 52 80 53 79 54 35 56 67 57 47 58 66 59 48 60 51 61 65 62
REMARK SMILES IDX 84 63 49 64 50 65 64 67 85 68 52 69 36 70 37 71 45 72 38 73
REMARK SMILES IDX 44 74 46 75 43 76 39 77 40 78 41 79 42 80 68 81 69 82 77 83
REMARK SMILES IDX 70 84 76 85 78 86 75 87 71 88 72 89 73 90 74 91 53 92 54 93
REMARK SMILES IDX 62 94 55 95 61 96 63 97 60 98 56 99 57 100 58 101 59 102
REMARK H PARENT 83 55 51 66
REMARK Flexibility Score: inf
ROOT
ATOM      1  C   UNL     1      -1.476  12.987   1.547  1.00  0.00     0.202 C 
ENDROOT
BRANCH   1   2
ATOM      2  O   UNL     1      -2.643  12.530   0.906  1.00  0.00    -0.374 OA
BRANCH   2   3
ATOM      3  C   UNL     1      -3.587  11.876   1.746  1.00  0.00     0.202 C 
BRANCH   3   4
ATOM      4  C   UNL     1      -4.691  11.467   0.827  1.00  0.00     0.261 C 
BRANCH   4   5
ATOM      5  O   UNL     1      -4.329  10.371  -0.026  1.00  0.00    -0.460 OA
BRANCH   5   6
ATOM      6  C   UNL     1      -3.667  10.608  -1.199  1.00  0.00     0.338 C 
ATOM      7  O   UNL     1      -3.351  11.637  -1.715  1.00  0.00    -0.246 OA
BRANCH   6   8
ATOM      8  C   UNL     1      -3.196   9.274  -1.621  1.00  0.00     0.060 A 
ATOM      9  C   UNL     1      -2.032   6.796  -1.415  1.00  0.00    -0.025 A 
ATOM     10  C   UNL     1      -1.246   7.900  -1.772  1.00  0.00     0.009 A 
ATOM     11  C   UNL     1      -3.426   6.898  -1.411  1.00  0.00     0.009 A 
ATOM     12  C   UNL     1      -1.835   9.152  -1.891  1.00  0.00     0.016 A 
ATOM     13  C   UNL     1      -4.012   8.150  -1.475  1.00  0.00     0.016 A 
BRANCH   9  14
ATOM     14  C   UNL     1      -1.358   5.587  -0.949  1.00  0.00     0.022 C 
ATOM     15  N   UNL     1      -1.605   2.462   0.507  1.00  0.00    -0.242 N 
ATOM     16  C   UNL     1      -0.850   3.632   0.297  1.00  0.00     0.265 C 
ATOM     17  C   UNL     1      -2.967   2.545   0.897  1.00  0.00     0.265 C 
ATOM     18  O   UNL     1       0.369   3.761   0.201  1.00  0.00    -0.268 OA
ATOM     19  C   UNL     1      -1.676   4.858   0.143  1.00  0.00     0.049 C 
ATOM     20  C   UNL     1      -3.455   3.847   1.422  1.00  0.00     0.048 A 
ATOM     21  O   UNL     1      -3.800   1.639   0.893  1.00  0.00    -0.268 OA
ATOM     22  C   UNL     1      -2.776   5.017   1.090  1.00  0.00    -0.000 A 
ATOM     23  C   UNL     1      -4.584   3.888   2.254  1.00  0.00     0.014 A 
ATOM     24  C   UNL     1      -3.168   6.223   1.680  1.00  0.00     0.010 A 
ATOM     25  C   UNL     1      -5.000   5.099   2.799  1.00  0.00     0.001 A 
ATOM     26  C   UNL     1      -4.279   6.259   2.527  1.00  0.00     0.001 A 
BRANCH  15  27
ATOM     27  C   UNL     1      -0.973   1.158   0.306  1.00  0.00     0.053 A 
ATOM     28  C   UNL     1       2.558  -0.302  -0.036  1.00  0.00     0.044 C 
ATOM     29  C   UNL     1       1.061  -0.228   0.031  1.00  0.00    -0.049 A 
ATOM     30  C   UNL     1       0.286  -1.376  -0.089  1.00  0.00     0.003 A 
ATOM     31  C   UNL     1       0.426   1.008   0.242  1.00  0.00     0.030 A 
ATOM     32  C   UNL     1      -1.097  -1.274  -0.027  1.00  0.00     0.002 A 
ATOM     33  C   UNL     1      -1.711  -0.028   0.158  1.00  0.00     0.027 A 
ENDBRANCH  15  27
ENDBRANCH   9  14
ENDBRANCH   6   8
ENDBRANCH   5   6
ENDBRANCH   4   5
ENDBRANCH   3   4
ENDBRANCH   2   3
ENDBRANCH   1   2
BRANCH   1  34
ATOM     34  C   UNL     1      -1.760  14.062   2.601  1.00  0.00     0.261 C 
BRANCH  34  35
ATOM     35  O   UNL     1      -2.351  15.220   1.973  1.00  0.00    -0.460 OA
BRANCH  35  36
ATOM     36  C   UNL     1      -3.680  15.407   2.217  1.00  0.00     0.338 C 
ATOM     37  O   UNL     1      -4.173  15.541   3.324  1.00  0.00    -0.246 OA
BRANCH  36  38
ATOM     38  C   UNL     1      -4.454  15.285   0.948  1.00  0.00     0.060 A 
ATOM     39  C   UNL     1      -5.850  15.098   0.978  1.00  0.00     0.016 A 
ATOM     40  C   UNL     1      -3.757  15.101  -0.242  1.00  0.00     0.016 A 
ATOM     41  C   UNL     1      -6.519  14.577  -0.144  1.00  0.00     0.010 A 
ATOM     42  C   UNL     1      -4.404  14.514  -1.308  1.00  0.00     0.010 A 
ATOM     43  C   UNL     1      -5.775  14.206  -1.261  1.00  0.00    -0.014 A 
BRANCH  43  44
ATOM     44  C   UNL     1      -6.237  13.383  -2.388  1.00  0.00     0.031 A 
ATOM     45  C   UNL     1      -6.093  13.933  -3.756  1.00  0.00     0.074 A 
ATOM     46  C   UNL     1      -6.457  12.051  -2.234  1.00  0.00     0.049 A 
ATOM     47  N   UNL     1      -6.490  13.325  -4.815  1.00  0.00    -0.248 NA
ATOM     48  C   UNL     1      -5.518  15.246  -4.059  1.00  0.00     0.031 C 
ATOM     49  C   UNL     1      -6.328  10.987  -3.234  1.00  0.00     0.029 A 
ATOM     50  N   UNL     1      -6.887  11.351  -1.105  1.00  0.00    -0.354 N 
ATOM     51  C   UNL     1      -5.881  13.923  -5.890  1.00  0.00     0.074 A 
ATOM     52  C   UNL     1      -5.437  15.196  -5.393  1.00  0.00     0.031 C 
ATOM     53  C   UNL     1      -6.932   9.871  -2.788  1.00  0.00     0.029 A 
ATOM     54  C   UNL     1      -7.582  10.211  -1.536  1.00  0.00     0.049 A 
ATOM     55  H   UNL     1      -6.730  11.612  -0.169  1.00  0.00     0.167 HD
ATOM     56  C   UNL     1      -5.710  13.179  -7.018  1.00  0.00     0.034 A 
ATOM     57  C   UNL     1      -8.881  10.027  -1.183  1.00  0.00     0.034 A 
ATOM     58  C   UNL     1      -6.471  11.921  -6.928  1.00  0.00     0.049 A 
ATOM     59  C   UNL     1      -9.701  10.081  -2.448  1.00  0.00     0.074 A 
ATOM     60  C   UNL     1      -6.127  10.583  -6.848  1.00  0.00     0.029 A 
ATOM     61  N   UNL     1      -7.832  11.988  -6.621  1.00  0.00    -0.354 N 
ATOM     62  N   UNL     1      -9.246  10.616  -3.552  1.00  0.00    -0.248 NA
ATOM     63  C   UNL     1     -10.996   9.444  -2.638  1.00  0.00     0.031 C 
ATOM     64  C   UNL     1      -7.274   9.869  -6.375  1.00  0.00     0.029 A 
ATOM     65  C   UNL     1      -8.323  10.764  -6.217  1.00  0.00     0.049 A 
ATOM     66  H   UNL     1      -8.373  12.808  -6.685  1.00  0.00     0.167 HD
ATOM     67  C   UNL     1     -10.061  10.306  -4.593  1.00  0.00     0.074 A 
ATOM     68  C   UNL     1     -11.178   9.616  -3.962  1.00  0.00     0.031 C 
ATOM     69  C   UNL     1      -9.740  10.614  -5.886  1.00  0.00     0.034 A 
BRANCH  56  70
ATOM     70  C   UNL     1      -4.739  13.486  -8.143  1.00  0.00     0.023 A 
ATOM     71  C   UNL     1      -4.700  12.620  -9.258  1.00  0.00     0.031 A 
ATOM     72  C   UNL     1      -3.775  14.521  -8.162  1.00  0.00     0.131 A 
ATOM     73  C   UNL     1      -3.768  12.798 -10.301  1.00  0.00     0.055 A 
ATOM     74  C   UNL     1      -2.888  14.731  -9.227  1.00  0.00     0.041 A 
ATOM     75  F   UNL     1      -3.586  15.355  -7.135  1.00  0.00    -0.206 F 
ATOM     76  C   UNL     1      -2.877  13.866 -10.305  1.00  0.00     0.022 A 
BRANCH  73  77
ATOM     77  S   UNL     1      -3.696  11.580 -11.643  1.00  0.00     0.124 S 
ATOM     78  O   UNL     1      -3.276  10.373 -10.938  1.00  0.00    -0.237 OA
ATOM     79  O   UNL     1      -5.062  11.593 -12.151  1.00  0.00    -0.237 OA
ATOM     80  O   UNL     1      -2.696  12.138 -12.554  1.00  0.00    -0.744 OA
ENDBRANCH  73  77
ENDBRANCH  56  70
BRANCH  57  81
ATOM     81  C   UNL     1      -9.143  10.568   0.194  1.00  0.00     0.023 A 
ATOM     82  C   UNL     1      -8.457   9.933   1.270  1.00  0.00     0.031 A 
ATOM     83  C   UNL     1      -9.552  11.895   0.395  1.00  0.00     0.131 A 
ATOM     84  C   UNL     1      -8.071  10.660   2.415  1.00  0.00     0.055 A 
ATOM     85  C   UNL     1      -9.186  12.607   1.550  1.00  0.00     0.041 A 
ATOM     86  F   UNL     1     -10.169  12.572  -0.584  1.00  0.00    -0.206 F 
ATOM     87  C   UNL     1      -8.405  12.008   2.541  1.00  0.00     0.022 A 
BRANCH  84  88
ATOM     88  S   UNL     1      -6.856   9.936   3.576  1.00  0.00     0.124 S 
ATOM     89  O   UNL     1      -7.705   9.224   4.522  1.00  0.00    -0.237 OA
ATOM     90  O   UNL     1      -6.038   9.096   2.707  1.00  0.00    -0.237 OA
ATOM     91  O   UNL     1      -6.151  11.103   4.104  1.00  0.00    -0.744 OA
ENDBRANCH  84  88
ENDBRANCH  57  81
BRANCH  69  92
ATOM     92  C   UNL     1     -10.763  10.767  -6.978  1.00  0.00     0.023 A 
ATOM     93  C   UNL     1     -12.131  10.861  -6.703  1.00  0.00     0.031 A 
ATOM     94  C   UNL     1     -10.388  10.975  -8.326  1.00  0.00     0.131 A 
ATOM     95  C   UNL     1     -13.065  11.047  -7.727  1.00  0.00     0.055 A 
ATOM     96  C   UNL     1     -11.311  11.277  -9.329  1.00  0.00     0.041 A 
ATOM     97  F   UNL     1      -9.110  10.920  -8.727  1.00  0.00    -0.206 F 
ATOM     98  C   UNL     1     -12.666  11.294  -9.036  1.00  0.00     0.022 A 
BRANCH  95  99
ATOM     99  S   UNL     1     -14.810  10.857  -7.301  1.00  0.00     0.124 S 
ATOM    100  O   UNL     1     -14.852   9.472  -6.838  1.00  0.00    -0.237 OA
ATOM    101  O   UNL     1     -14.996  11.872  -6.269  1.00  0.00    -0.237 OA
ATOM    102  O   UNL     1     -15.502  11.113  -8.562  1.00  0.00    -0.744 OA
ENDBRANCH  95  99
ENDBRANCH  69  92
ENDBRANCH  43  44
ENDBRANCH  36  38
ENDBRANCH  35  36
ENDBRANCH  34  35
ENDBRANCH   1  34
TORSDOF 19
