REMARK SMILES C[C@@H]1CC[N@@H+]1[C@@H](CO)C(=O)OCCOCCOC(=O)c1ccc(-c2c3nc(c(-c4cc(S(=O)(=O)[O-])ccc4F)c4ccc([nH]4)c(-c4cc(S(=O)(=O)[O-])ccc4F)c4nc(c(-c5cc(S(=O)(=O)[O-])ccc5F)c5ccc2[nH]5)C=C4)C=C3)cc1
REMARK SMILES IDX 15 1 14 2 13 3 12 4 11 5 9 6 10 7 6 8 5 9 1 10 2 11 3 12
REMARK SMILES IDX 4 13 7 15 8 16 16 18 17 19 18 20 19 21 20 22 21 23 82 24
REMARK SMILES IDX 22 25 81 26 23 27 24 28 25 29 75 30 26 31 80 32 74 33 76 34
REMARK SMILES IDX 27 35 79 36 73 37 72 38 28 40 60 41 40 42 59 43 41 44 44 45
REMARK SMILES IDX 58 46 77 47 42 48 43 49 57 51 78 52 45 53 29 54 30 55 38 56
REMARK SMILES IDX 31 57 37 58 39 59 36 60 32 61 33 62 34 63 35 64 61 65 62 66
REMARK SMILES IDX 70 67 63 68 69 69 71 70 68 71 64 72 65 73 66 74 67 75 46 76
REMARK SMILES IDX 47 77 55 78 48 79 54 80 56 81 53 82 49 83 50 84 51 85 52 86
REMARK H PARENT 5 14 8 17 76 39 44 50
REMARK Flexibility Score: inf
ROOT
ATOM      1  C   UNL     1      -0.119  -5.665  -0.539  1.00  0.00     0.202 C 
ENDROOT
BRANCH   1   2
ATOM      2  O   UNL     1       0.759  -6.751  -0.835  1.00  0.00    -0.374 OA
BRANCH   2   3
ATOM      3  C   UNL     1       1.873  -6.940   0.037  1.00  0.00     0.202 C 
BRANCH   3   4
ATOM      4  C   UNL     1       3.072  -6.016  -0.195  1.00  0.00     0.261 C 
BRANCH   4   5
ATOM      5  O   UNL     1       2.789  -4.661   0.200  1.00  0.00    -0.459 OA
BRANCH   5   6
ATOM      6  C   UNL     1       2.665  -3.748  -0.805  1.00  0.00     0.367 C 
ATOM      7  O   UNL     1       2.871  -3.985  -1.992  1.00  0.00    -0.245 OA
BRANCH   6   8
ATOM      8  C   UNL     1       2.307  -2.347  -0.289  1.00  0.00     0.321 C 
BRANCH   8   9
ATOM      9  N   UNL     1       1.094  -2.395   0.570  1.00  0.00    -0.319 N 
ATOM     10  C   UNL     1       0.659   0.104   0.058  1.00  0.00     0.075 C 
ATOM     11  C   UNL     1       0.480  -1.099   0.962  1.00  0.00     0.187 C 
ATOM     12  C   UNL     1       1.248  -1.168   2.296  1.00  0.00     0.126 C 
ATOM     13  C   UNL     1       1.346  -2.677   2.004  1.00  0.00     0.269 C 
ATOM     14  H   UNL     1       0.575  -3.043  -0.023  1.00  0.00     0.349 HD
ENDBRANCH   8   9
BRANCH   8  15
ATOM     15  C   UNL     1       3.638  -1.670   0.102  1.00  0.00     0.233 C 
BRANCH  15  16
ATOM     16  O   UNL     1       4.186  -2.074   1.351  1.00  0.00    -0.390 OA
ATOM     17  H   UNL     1       3.578  -1.827   2.065  1.00  0.00     0.210 HD
ENDBRANCH  15  16
ENDBRANCH   8  15
ENDBRANCH   6   8
ENDBRANCH   5   6
ENDBRANCH   4   5
ENDBRANCH   3   4
ENDBRANCH   2   3
ENDBRANCH   1   2
BRANCH   1  18
ATOM     18  C   UNL     1      -1.136  -5.890   0.586  1.00  0.00     0.261 C 
BRANCH  18  19
ATOM     19  O   UNL     1      -0.513  -6.056   1.872  1.00  0.00    -0.460 OA
BRANCH  19  20
ATOM     20  C   UNL     1      -0.561  -7.318   2.361  1.00  0.00     0.338 C 
ATOM     21  O   UNL     1      -1.123  -8.280   1.854  1.00  0.00    -0.246 OA
BRANCH  20  22
ATOM     22  C   UNL     1       0.324  -7.450   3.534  1.00  0.00     0.060 A 
ATOM     23  C   UNL     1       1.219  -8.527   3.543  1.00  0.00     0.016 A 
ATOM     24  C   UNL     1       0.237  -6.594   4.636  1.00  0.00     0.016 A 
ATOM     25  C   UNL     1       1.986  -8.789   4.675  1.00  0.00     0.010 A 
ATOM     26  C   UNL     1       1.007  -6.862   5.776  1.00  0.00     0.010 A 
ATOM     27  C   UNL     1       1.856  -7.984   5.814  1.00  0.00    -0.014 A 
BRANCH  27  28
ATOM     28  C   UNL     1       2.499  -8.421   7.080  1.00  0.00     0.031 A 
ATOM     29  C   UNL     1       1.665  -9.121   8.121  1.00  0.00     0.074 A 
ATOM     30  C   UNL     1       3.821  -8.257   7.270  1.00  0.00     0.049 A 
ATOM     31  N   UNL     1       2.023  -9.618   9.277  1.00  0.00    -0.248 NA
ATOM     32  C   UNL     1       0.236  -9.278   7.814  1.00  0.00     0.031 C 
ATOM     33  C   UNL     1       4.736  -7.625   6.321  1.00  0.00     0.029 A 
ATOM     34  N   UNL     1       4.623  -8.614   8.324  1.00  0.00    -0.354 N 
ATOM     35  C   UNL     1       0.865 -10.150   9.836  1.00  0.00     0.074 A 
ATOM     36  C   UNL     1      -0.212  -9.871   8.910  1.00  0.00     0.031 C 
ATOM     37  C   UNL     1       5.977  -7.640   6.836  1.00  0.00     0.029 A 
ATOM     38  C   UNL     1       5.941  -8.254   8.162  1.00  0.00     0.049 A 
ATOM     39  H   UNL     1       4.288  -9.083   9.122  1.00  0.00     0.167 HD
ATOM     40  C   UNL     1       0.717 -10.819  11.007  1.00  0.00     0.034 A 
ATOM     41  C   UNL     1       6.993  -8.392   8.994  1.00  0.00     0.034 A 
ATOM     42  C   UNL     1       1.799 -11.079  11.927  1.00  0.00     0.049 A 
ATOM     43  C   UNL     1       6.791  -9.080  10.322  1.00  0.00     0.074 A 
ATOM     44  C   UNL     1       1.763 -11.759  13.132  1.00  0.00     0.029 A 
ATOM     45  N   UNL     1       3.112 -10.658  11.752  1.00  0.00    -0.354 N 
ATOM     46  N   UNL     1       5.694  -9.595  10.831  1.00  0.00    -0.248 NA
ATOM     47  C   UNL     1       7.974  -9.218  11.180  1.00  0.00     0.031 C 
ATOM     48  C   UNL     1       3.033 -11.687  13.717  1.00  0.00     0.029 A 
ATOM     49  C   UNL     1       3.885 -11.034  12.841  1.00  0.00     0.049 A 
ATOM     50  H   UNL     1       3.446 -10.165  10.968  1.00  0.00     0.167 HD
ATOM     51  C   UNL     1       6.065 -10.143  12.057  1.00  0.00     0.074 A 
ATOM     52  C   UNL     1       7.489  -9.915  12.197  1.00  0.00     0.031 C 
ATOM     53  C   UNL     1       5.301 -10.781  12.981  1.00  0.00     0.034 A 
BRANCH  40  54
ATOM     54  C   UNL     1      -0.678 -11.267  11.376  1.00  0.00     0.023 A 
ATOM     55  C   UNL     1      -1.385 -12.209  10.606  1.00  0.00     0.031 A 
ATOM     56  C   UNL     1      -1.326 -10.718  12.497  1.00  0.00     0.131 A 
ATOM     57  C   UNL     1      -2.717 -12.517  10.924  1.00  0.00     0.055 A 
ATOM     58  C   UNL     1      -2.624 -11.089  12.854  1.00  0.00     0.041 A 
ATOM     59  F   UNL     1      -0.712  -9.798  13.258  1.00  0.00    -0.206 F 
ATOM     60  C   UNL     1      -3.333 -11.982  12.057  1.00  0.00     0.022 A 
BRANCH  57  61
ATOM     61  S   UNL     1      -3.681 -13.513   9.754  1.00  0.00     0.124 S 
ATOM     62  O   UNL     1      -3.592 -12.709   8.537  1.00  0.00    -0.237 OA
ATOM     63  O   UNL     1      -2.954 -14.777   9.740  1.00  0.00    -0.237 OA
ATOM     64  O   UNL     1      -5.010 -13.564  10.361  1.00  0.00    -0.744 OA
ENDBRANCH  57  61
ENDBRANCH  40  54
BRANCH  41  65
ATOM     65  C   UNL     1       8.328  -7.843   8.619  1.00  0.00     0.023 A 
ATOM     66  C   UNL     1       9.438  -8.682   8.436  1.00  0.00     0.031 A 
ATOM     67  C   UNL     1       8.522  -6.455   8.493  1.00  0.00     0.131 A 
ATOM     68  C   UNL     1      10.702  -8.124   8.183  1.00  0.00     0.055 A 
ATOM     69  C   UNL     1       9.770  -5.909   8.190  1.00  0.00     0.041 A 
ATOM     70  F   UNL     1       7.494  -5.608   8.658  1.00  0.00    -0.206 F 
ATOM     71  C   UNL     1      10.872  -6.745   8.046  1.00  0.00     0.022 A 
BRANCH  68  72
ATOM     72  S   UNL     1      12.141  -9.226   8.116  1.00  0.00     0.124 S 
ATOM     73  O   UNL     1      12.103  -9.847   9.435  1.00  0.00    -0.237 OA
ATOM     74  O   UNL     1      11.807 -10.091   6.989  1.00  0.00    -0.237 OA
ATOM     75  O   UNL     1      13.259  -8.312   7.886  1.00  0.00    -0.744 OA
ENDBRANCH  68  72
ENDBRANCH  41  65
BRANCH  53  76
ATOM     76  C   UNL     1       6.010 -11.308  14.208  1.00  0.00     0.023 A 
ATOM     77  C   UNL     1       6.619 -10.446  15.138  1.00  0.00     0.031 A 
ATOM     78  C   UNL     1       6.108 -12.693  14.431  1.00  0.00     0.131 A 
ATOM     79  C   UNL     1       7.361 -10.979  16.205  1.00  0.00     0.055 A 
ATOM     80  C   UNL     1       6.789 -13.215  15.532  1.00  0.00     0.041 A 
ATOM     81  F   UNL     1       5.548 -13.565  13.577  1.00  0.00    -0.206 F 
ATOM     82  C   UNL     1       7.435 -12.357  16.417  1.00  0.00     0.022 A 
BRANCH  79  83
ATOM     83  S   UNL     1       8.329  -9.847  17.241  1.00  0.00     0.124 S 
ATOM     84  O   UNL     1       9.160  -9.167  16.254  1.00  0.00    -0.237 OA
ATOM     85  O   UNL     1       7.292  -9.036  17.869  1.00  0.00    -0.237 OA
ATOM     86  O   UNL     1       9.048 -10.742  18.146  1.00  0.00    -0.744 OA
ENDBRANCH  79  83
ENDBRANCH  53  76
ENDBRANCH  27  28
ENDBRANCH  20  22
ENDBRANCH  19  20
ENDBRANCH  18  19
ENDBRANCH   1  18
TORSDOF 20
