REMARK SMILES Cc1ccc(C(c2ccccc2)(c2ccccc2)n2cnc(C[C@H]([NH3+])C(=O)OCCOCCOC(=O)c3ccc(-c4c5nc(c(-c6cc(S(=O)(=O)[O-])ccc6F)c6ccc([nH]6)c(-c6cc(S(=O)(=O)[O-])ccc6F)c6nc(c(-c7cc(S(=O)(=O)[O-])ccc7F)c7ccc4[nH]7)C=C6)C=C5)cc3)c2)cc1
REMARK SMILES IDX 30 1 29 2 28 3 26 4 27 5 24 6 23 7 22 8 19 9 20 10 100 11
REMARK SMILES IDX 21 12 6 13 5 14 1 15 2 16 3 17 102 18 4 19 101 20 7 21 8 22
REMARK SMILES IDX 12 23 9 24 11 25 10 26 13 27 14 28 18 29 15 30 17 31 16 32
REMARK SMILES IDX 25 33 31 37 32 38 33 39 34 40 35 41 36 42 37 43 38 44 99 45
REMARK SMILES IDX 39 46 98 47 40 48 41 49 42 50 92 51 43 52 97 53 91 54 93 55
REMARK SMILES IDX 44 56 96 57 90 58 89 59 45 61 77 62 57 63 76 64 58 65 61 66
REMARK SMILES IDX 75 67 94 68 59 69 60 70 74 72 95 73 62 74 46 75 47 76 55 77
REMARK SMILES IDX 48 78 54 79 56 80 53 81 49 82 50 83 51 84 52 85 78 86 79 87
REMARK SMILES IDX 87 88 80 89 86 90 88 91 85 92 81 93 82 94 83 95 84 96 63 97
REMARK SMILES IDX 64 98 72 99 65 100 71 101 73 102 70 103 66 104 67 105 68 106
REMARK SMILES IDX 69 107
REMARK H PARENT 25 34 25 35 25 36 93 60 61 71
REMARK Flexibility Score: inf
ROOT
ATOM      1  C   UNL     1      -6.723  -5.333   3.547  1.00  0.00     0.202 C 
ENDROOT
BRANCH   1   2
ATOM      2  C   UNL     1      -6.841  -6.178   2.323  1.00  0.00     0.261 C 
BRANCH   2   3
ATOM      3  O   UNL     1      -6.337  -5.524   1.172  1.00  0.00    -0.459 OA
BRANCH   3   4
ATOM      4  C   UNL     1      -7.090  -4.507   0.650  1.00  0.00     0.365 C 
ATOM      5  O   UNL     1      -8.212  -4.163   0.969  1.00  0.00    -0.245 OA
BRANCH   4   6
ATOM      6  C   UNL     1      -6.196  -3.788  -0.358  1.00  0.00     0.297 C 
BRANCH   6   7
ATOM      7  C   UNL     1      -5.843  -4.763  -1.494  1.00  0.00     0.135 C 
BRANCH   7   8
ATOM      8  C   UNL     1      -7.047  -5.187  -2.262  1.00  0.00     0.065 A 
ATOM      9  N   UNL     1      -8.574  -5.483  -3.816  1.00  0.00    -0.319 N 
ATOM     10  C   UNL     1      -9.072  -5.818  -2.583  1.00  0.00     0.201 A 
ATOM     11  C   UNL     1      -7.232  -5.214  -3.620  1.00  0.00     0.112 A 
ATOM     12  N   UNL     1      -8.189  -5.599  -1.636  1.00  0.00    -0.241 NA
BRANCH   9  13
ATOM     13  C   UNL     1      -9.365  -5.333  -5.088  1.00  0.00     0.121 C 
BRANCH  13  14
ATOM     14  C   UNL     1      -9.426  -6.734  -5.815  1.00  0.00    -0.013 A 
ATOM     15  C   UNL     1      -9.932 -10.681  -7.532  1.00  0.00     0.044 C 
ATOM     16  C   UNL     1      -9.633  -9.278  -7.094  1.00  0.00    -0.051 A 
ATOM     17  C   UNL     1      -8.638  -9.034  -6.151  1.00  0.00     0.004 A 
ATOM     18  C   UNL     1     -10.429  -8.212  -7.503  1.00  0.00     0.004 A 
ATOM     19  C   UNL     1      -8.559  -7.798  -5.493  1.00  0.00     0.007 A 
ATOM     20  C   UNL     1     -10.273  -6.947  -6.924  1.00  0.00     0.007 A 
ENDBRANCH  13  14
BRANCH  13  21
ATOM     21  C   UNL     1     -10.796  -4.744  -4.672  1.00  0.00    -0.013 A 
ATOM     22  C   UNL     1     -10.916  -3.617  -3.821  1.00  0.00     0.007 A 
ATOM     23  C   UNL     1     -12.023  -5.342  -5.016  1.00  0.00     0.007 A 
ATOM     24  C   UNL     1     -12.153  -3.052  -3.471  1.00  0.00     0.000 A 
ATOM     25  C   UNL     1     -13.263  -4.772  -4.688  1.00  0.00     0.000 A 
ATOM     26  C   UNL     1     -13.331  -3.614  -3.933  1.00  0.00     0.000 A 
ENDBRANCH  13  21
BRANCH  13  27
ATOM     27  C   UNL     1      -8.508  -4.327  -5.996  1.00  0.00    -0.013 A 
ATOM     28  C   UNL     1      -7.646  -4.830  -7.002  1.00  0.00     0.007 A 
ATOM     29  C   UNL     1      -8.306  -2.981  -5.623  1.00  0.00     0.007 A 
ATOM     30  C   UNL     1      -6.591  -4.073  -7.519  1.00  0.00     0.000 A 
ATOM     31  C   UNL     1      -7.243  -2.227  -6.135  1.00  0.00     0.000 A 
ATOM     32  C   UNL     1      -6.373  -2.780  -7.064  1.00  0.00     0.000 A 
ENDBRANCH  13  27
ENDBRANCH   9  13
ENDBRANCH   7   8
ENDBRANCH   6   7
BRANCH   6  33
ATOM     33  N   UNL     1      -4.989  -3.285   0.370  1.00  0.00    -0.346 N 
ATOM     34  H   UNL     1      -4.502  -4.070   0.803  1.00  0.00     0.345 HD
ATOM     35  H   UNL     1      -5.277  -2.624   1.091  1.00  0.00     0.345 HD
ATOM     36  H   UNL     1      -4.364  -2.820  -0.289  1.00  0.00     0.345 HD
ENDBRANCH   6  33
ENDBRANCH   4   6
ENDBRANCH   3   4
ENDBRANCH   2   3
ENDBRANCH   1   2
BRANCH   1  37
ATOM     37  O   UNL     1      -7.934  -4.590   3.609  1.00  0.00    -0.374 OA
BRANCH  37  38
ATOM     38  C   UNL     1      -7.936  -3.549   4.555  1.00  0.00     0.202 C 
BRANCH  38  39
ATOM     39  C   UNL     1      -7.785  -4.090   5.979  1.00  0.00     0.261 C 
BRANCH  39  40
ATOM     40  O   UNL     1      -8.881  -4.990   6.275  1.00  0.00    -0.460 OA
BRANCH  40  41
ATOM     41  C   UNL     1      -8.553  -6.309   6.370  1.00  0.00     0.338 C 
ATOM     42  O   UNL     1      -7.748  -6.770   7.173  1.00  0.00    -0.246 OA
BRANCH  41  43
ATOM     43  C   UNL     1      -9.185  -7.095   5.270  1.00  0.00     0.060 A 
ATOM     44  C   UNL     1      -8.744  -8.400   4.978  1.00  0.00     0.016 A 
ATOM     45  C   UNL     1      -9.992  -6.424   4.358  1.00  0.00     0.016 A 
ATOM     46  C   UNL     1      -8.981  -8.961   3.711  1.00  0.00     0.010 A 
ATOM     47  C   UNL     1     -10.109  -6.927   3.080  1.00  0.00     0.010 A 
ATOM     48  C   UNL     1      -9.597  -8.185   2.732  1.00  0.00    -0.014 A 
BRANCH  48  49
ATOM     49  C   UNL     1      -9.719  -8.533   1.309  1.00  0.00     0.031 A 
ATOM     50  C   UNL     1     -11.094  -8.674   0.758  1.00  0.00     0.074 A 
ATOM     51  C   UNL     1      -8.651  -8.544   0.468  1.00  0.00     0.049 A 
ATOM     52  N   UNL     1     -11.397  -9.354  -0.290  1.00  0.00    -0.248 NA
ATOM     53  C   UNL     1     -12.279  -8.070   1.370  1.00  0.00     0.031 C 
ATOM     54  C   UNL     1      -8.651  -8.607  -0.989  1.00  0.00     0.029 A 
ATOM     55  N   UNL     1      -7.279  -8.534   0.753  1.00  0.00    -0.354 N 
ATOM     56  C   UNL     1     -12.682  -9.018  -0.668  1.00  0.00     0.074 A 
ATOM     57  C   UNL     1     -13.215  -8.285   0.444  1.00  0.00     0.031 C 
ATOM     58  C   UNL     1      -7.430  -8.954  -1.437  1.00  0.00     0.029 A 
ATOM     59  C   UNL     1      -6.620  -9.235  -0.272  1.00  0.00     0.049 A 
ATOM     60  H   UNL     1      -6.851  -8.111   1.533  1.00  0.00     0.167 HD
ATOM     61  C   UNL     1     -13.081  -9.282  -1.946  1.00  0.00     0.034 A 
ATOM     62  C   UNL     1      -5.919 -10.368  -0.008  1.00  0.00     0.034 A 
ATOM     63  C   UNL     1     -11.986  -9.930  -2.666  1.00  0.00     0.049 A 
ATOM     64  C   UNL     1      -6.642 -11.505  -0.693  1.00  0.00     0.074 A 
ATOM     65  C   UNL     1     -11.041  -9.389  -3.516  1.00  0.00     0.029 A 
ATOM     66  N   UNL     1     -11.485 -11.162  -2.237  1.00  0.00    -0.354 N 
ATOM     67  N   UNL     1      -7.937 -11.522  -0.897  1.00  0.00    -0.248 NA
ATOM     68  C   UNL     1      -5.947 -12.588  -1.380  1.00  0.00     0.031 C 
ATOM     69  C   UNL     1      -9.903 -10.225  -3.449  1.00  0.00     0.029 A 
ATOM     70  C   UNL     1     -10.183 -11.327  -2.670  1.00  0.00     0.049 A 
ATOM     71  H   UNL     1     -11.987 -11.819  -1.703  1.00  0.00     0.167 HD
ATOM     72  C   UNL     1      -8.225 -12.463  -1.851  1.00  0.00     0.074 A 
ATOM     73  C   UNL     1      -6.956 -13.147  -2.072  1.00  0.00     0.031 C 
ATOM     74  C   UNL     1      -9.426 -12.555  -2.508  1.00  0.00     0.034 A 
BRANCH  61  75
ATOM     75  C   UNL     1     -14.287  -8.680  -2.648  1.00  0.00     0.023 A 
ATOM     76  C   UNL     1     -14.303  -8.628  -4.063  1.00  0.00     0.031 A 
ATOM     77  C   UNL     1     -15.419  -8.121  -2.023  1.00  0.00     0.131 A 
ATOM     78  C   UNL     1     -15.345  -7.995  -4.772  1.00  0.00     0.055 A 
ATOM     79  C   UNL     1     -16.430  -7.445  -2.722  1.00  0.00     0.041 A 
ATOM     80  F   UNL     1     -15.647  -8.253  -0.712  1.00  0.00    -0.206 F 
ATOM     81  C   UNL     1     -16.395  -7.374  -4.104  1.00  0.00     0.022 A 
BRANCH  78  82
ATOM     82  S   UNL     1     -15.323  -8.000  -6.589  1.00  0.00     0.124 S 
ATOM     83  O   UNL     1     -14.096  -7.274  -6.894  1.00  0.00    -0.237 OA
ATOM     84  O   UNL     1     -15.322  -9.425  -6.897  1.00  0.00    -0.237 OA
ATOM     85  O   UNL     1     -16.554  -7.294  -6.941  1.00  0.00    -0.744 OA
ENDBRANCH  78  82
ENDBRANCH  61  75
BRANCH  62  86
ATOM     86  C   UNL     1      -5.253 -10.292   1.333  1.00  0.00     0.023 A 
ATOM     87  C   UNL     1      -4.286  -9.259   1.507  1.00  0.00     0.031 A 
ATOM     88  C   UNL     1      -5.852 -10.810   2.488  1.00  0.00     0.131 A 
ATOM     89  C   UNL     1      -4.085  -8.663   2.766  1.00  0.00     0.055 A 
ATOM     90  C   UNL     1      -5.617 -10.238   3.749  1.00  0.00     0.041 A 
ATOM     91  F   UNL     1      -6.780 -11.774   2.402  1.00  0.00    -0.206 F 
ATOM     92  C   UNL     1      -4.773  -9.133   3.886  1.00  0.00     0.022 A 
BRANCH  89  93
ATOM     93  S   UNL     1      -3.178  -7.075   2.876  1.00  0.00     0.124 S 
ATOM     94  O   UNL     1      -1.795  -7.518   2.999  1.00  0.00    -0.237 OA
ATOM     95  O   UNL     1      -3.516  -6.401   1.623  1.00  0.00    -0.237 OA
ATOM     96  O   UNL     1      -3.748  -6.444   4.065  1.00  0.00    -0.744 OA
ENDBRANCH  89  93
ENDBRANCH  62  86
BRANCH  74  97
ATOM     97  C   UNL     1      -9.874 -13.747  -3.310  1.00  0.00     0.023 A 
ATOM     98  C   UNL     1      -9.277 -14.998  -3.154  1.00  0.00     0.031 A 
ATOM     99  C   UNL     1     -10.993 -13.695  -4.181  1.00  0.00     0.131 A 
ATOM    100  C   UNL     1      -9.713 -16.097  -3.903  1.00  0.00     0.055 A 
ATOM    101  C   UNL     1     -11.506 -14.820  -4.823  1.00  0.00     0.041 A 
ATOM    102  F   UNL     1     -11.647 -12.556  -4.449  1.00  0.00    -0.206 F 
ATOM    103  C   UNL     1     -10.853 -16.033  -4.699  1.00  0.00     0.022 A 
BRANCH 100 104
ATOM    104  S   UNL     1      -8.682 -17.577  -3.882  1.00  0.00     0.124 S 
ATOM    105  O   UNL     1      -7.503 -17.119  -4.613  1.00  0.00    -0.237 OA
ATOM    106  O   UNL     1      -8.487 -17.811  -2.455  1.00  0.00    -0.237 OA
ATOM    107  O   UNL     1      -9.499 -18.571  -4.572  1.00  0.00    -0.744 OA
ENDBRANCH 100 104
ENDBRANCH  74  97
ENDBRANCH  48  49
ENDBRANCH  41  43
ENDBRANCH  40  41
ENDBRANCH  39  40
ENDBRANCH  38  39
ENDBRANCH  37  38
ENDBRANCH   1  37
TORSDOF 24
