REMARK SMILES O=C(OCCOCCOC(=O)c1ccc(-c2c3nc(c(-c4cc(S(=O)(=O)[O-])ccc4F)c4ccc([nH]4)c(-c4cc(S(=O)(=O)[O-])ccc4F)c4nc(c(-c5cc(S(=O)(=O)[O-])ccc5F)c5ccc2[nH]5)C=C4)C=C3)cc1)c1ccc(C#CC#C[C@H]2C[C@@H](O)C2)cc1
REMARK SMILES IDX 5 1 4 2 3 3 2 4 1 5 75 6 76 7 89 8 77 9 88 10 78 11 79 12
REMARK SMILES IDX 80 13 81 14 82 15 83 16 87 17 84 18 85 19 86 20 6 22 7 23
REMARK SMILES IDX 8 24 9 25 10 26 11 27 12 28 13 29 74 30 14 31 73 32 15 33
REMARK SMILES IDX 16 34 17 35 67 36 18 37 72 38 66 39 68 40 19 41 71 42 65 43
REMARK SMILES IDX 64 44 20 46 52 47 32 48 51 49 33 50 36 51 50 52 69 53 34 54
REMARK SMILES IDX 35 55 49 57 70 58 37 59 21 60 22 61 30 62 23 63 29 64 31 65
REMARK SMILES IDX 28 66 24 67 25 68 26 69 27 70 53 71 54 72 62 73 55 74 61 75
REMARK SMILES IDX 63 76 60 77 56 78 57 79 58 80 59 81 38 82 39 83 47 84 40 85
REMARK SMILES IDX 46 86 48 87 45 88 41 89 42 90 43 91 44 92
REMARK H PARENT 86 21 68 45 36 56
REMARK Flexibility Score: inf
ROOT
ATOM      1  C   UNL     1       4.451   0.831   1.054  1.00  0.00     0.202 C 
ENDROOT
BRANCH   1   2
ATOM      2  C   UNL     1       4.171   0.883  -0.446  1.00  0.00     0.261 C 
BRANCH   2   3
ATOM      3  O   UNL     1       2.781   0.634  -0.708  1.00  0.00    -0.460 OA
BRANCH   3   4
ATOM      4  C   UNL     1       2.252  -0.568  -1.035  1.00  0.00     0.338 C 
ATOM      5  O   UNL     1       1.034  -0.717  -1.078  1.00  0.00    -0.246 OA
BRANCH   4   6
ATOM      6  C   UNL     1       3.109  -1.715  -1.432  1.00  0.00     0.060 A 
ATOM      7  C   UNL     1       4.100  -2.272  -0.619  1.00  0.00     0.017 A 
ATOM      8  C   UNL     1       2.791  -2.353  -2.635  1.00  0.00     0.017 A 
ATOM      9  C   UNL     1       4.797  -3.408  -1.007  1.00  0.00     0.018 A 
ATOM     10  C   UNL     1       3.474  -3.510  -3.022  1.00  0.00     0.018 A 
ATOM     11  C   UNL     1       4.476  -4.031  -2.205  1.00  0.00     0.026 A 
BRANCH  11  12
ATOM     12  C   UNL     1       5.171  -5.226  -2.532  1.00  0.00    -0.053 C 
ATOM     13  C   UNL     1       5.824  -6.219  -2.673  1.00  0.00    -0.010 C 
BRANCH  13  14
ATOM     14  C   UNL     1       6.713  -7.449  -2.772  1.00  0.00    -0.015 C 
ATOM     15  C   UNL     1       7.445  -8.389  -2.870  1.00  0.00    -0.085 C 
BRANCH  15  16
ATOM     16  C   UNL     1       8.342  -9.498  -3.055  1.00  0.00     0.070 C 
ATOM     17  C   UNL     1       9.404  -9.726  -1.952  1.00  0.00     0.048 C 
ATOM     18  C   UNL     1       7.785 -10.892  -2.680  1.00  0.00     0.048 C 
ATOM     19  C   UNL     1       9.219 -11.242  -2.214  1.00  0.00     0.116 C 
BRANCH  19  20
ATOM     20  O   UNL     1       9.335 -12.119  -1.083  1.00  0.00    -0.393 OA
ATOM     21  H   UNL     1       8.773 -11.793  -0.362  1.00  0.00     0.210 HD
ENDBRANCH  19  20
ENDBRANCH  15  16
ENDBRANCH  13  14
ENDBRANCH  11  12
ENDBRANCH   4   6
ENDBRANCH   3   4
ENDBRANCH   2   3
ENDBRANCH   1   2
BRANCH   1  22
ATOM     22  O   UNL     1       4.014  -0.368   1.688  1.00  0.00    -0.374 OA
BRANCH  22  23
ATOM     23  C   UNL     1       2.643  -0.425   2.097  1.00  0.00     0.202 C 
BRANCH  23  24
ATOM     24  C   UNL     1       2.570  -0.828   3.570  1.00  0.00     0.261 C 
BRANCH  24  25
ATOM     25  O   UNL     1       3.126   0.234   4.348  1.00  0.00    -0.460 OA
BRANCH  25  26
ATOM     26  C   UNL     1       4.483   0.247   4.380  1.00  0.00     0.338 C 
ATOM     27  O   UNL     1       5.237  -0.694   4.208  1.00  0.00    -0.246 OA
BRANCH  26  28
ATOM     28  C   UNL     1       4.907   1.661   4.437  1.00  0.00     0.060 A 
ATOM     29  C   UNL     1       6.115   2.021   3.825  1.00  0.00     0.016 A 
ATOM     30  C   UNL     1       4.108   2.623   5.064  1.00  0.00     0.016 A 
ATOM     31  C   UNL     1       6.574   3.329   3.925  1.00  0.00     0.010 A 
ATOM     32  C   UNL     1       4.562   3.930   5.159  1.00  0.00     0.010 A 
ATOM     33  C   UNL     1       5.829   4.261   4.656  1.00  0.00    -0.014 A 
BRANCH  33  34
ATOM     34  C   UNL     1       6.482   5.487   5.150  1.00  0.00     0.031 A 
ATOM     35  C   UNL     1       6.950   5.496   6.579  1.00  0.00     0.074 A 
ATOM     36  C   UNL     1       6.655   6.546   4.346  1.00  0.00     0.049 A 
ATOM     37  N   UNL     1       7.496   6.459   7.270  1.00  0.00    -0.248 NA
ATOM     38  C   UNL     1       6.752   4.248   7.337  1.00  0.00     0.031 C 
ATOM     39  C   UNL     1       6.271   6.607   2.937  1.00  0.00     0.029 A 
ATOM     40  N   UNL     1       7.201   7.773   4.606  1.00  0.00    -0.354 N 
ATOM     41  C   UNL     1       7.688   5.941   8.547  1.00  0.00     0.074 A 
ATOM     42  C   UNL     1       7.149   4.600   8.547  1.00  0.00     0.031 C 
ATOM     43  C   UNL     1       6.605   7.814   2.451  1.00  0.00     0.029 A 
ATOM     44  C   UNL     1       7.180   8.620   3.526  1.00  0.00     0.049 A 
ATOM     45  H   UNL     1       7.572   8.024   5.482  1.00  0.00     0.167 HD
ATOM     46  C   UNL     1       8.273   6.532   9.616  1.00  0.00     0.034 A 
ATOM     47  C   UNL     1       7.568   9.905   3.434  1.00  0.00     0.034 A 
ATOM     48  C   UNL     1       8.786   7.878   9.581  1.00  0.00     0.049 A 
ATOM     49  C   UNL     1       8.142  10.573   4.660  1.00  0.00     0.074 A 
ATOM     50  C   UNL     1       9.418   8.586  10.586  1.00  0.00     0.029 A 
ATOM     51  N   UNL     1       8.706   8.729   8.483  1.00  0.00    -0.354 N 
ATOM     52  N   UNL     1       8.333  10.078   5.862  1.00  0.00    -0.248 NA
ATOM     53  C   UNL     1       8.565  11.969   4.509  1.00  0.00     0.031 C 
ATOM     54  C   UNL     1       9.626   9.892  10.132  1.00  0.00     0.029 A 
ATOM     55  C   UNL     1       9.237   9.968   8.802  1.00  0.00     0.049 A 
ATOM     56  H   UNL     1       8.326   8.486   7.608  1.00  0.00     0.167 HD
ATOM     57  C   UNL     1       8.947  11.089   6.598  1.00  0.00     0.074 A 
ATOM     58  C   UNL     1       9.094  12.216   5.698  1.00  0.00     0.031 C 
ATOM     59  C   UNL     1       9.366  11.084   7.891  1.00  0.00     0.034 A 
BRANCH  46  60
ATOM     60  C   UNL     1       8.311   5.750  10.909  1.00  0.00     0.023 A 
ATOM     61  C   UNL     1       8.957   4.504  11.012  1.00  0.00     0.031 A 
ATOM     62  C   UNL     1       7.631   6.228  12.043  1.00  0.00     0.131 A 
ATOM     63  C   UNL     1       8.826   3.741  12.182  1.00  0.00     0.055 A 
ATOM     64  C   UNL     1       7.593   5.510  13.239  1.00  0.00     0.041 A 
ATOM     65  F   UNL     1       6.965   7.393  12.001  1.00  0.00    -0.206 F 
ATOM     66  C   UNL     1       8.176   4.249  13.308  1.00  0.00     0.022 A 
BRANCH  63  67
ATOM     67  S   UNL     1       9.347   2.003  12.144  1.00  0.00     0.124 S 
ATOM     68  O   UNL     1       8.554   1.483  11.032  1.00  0.00    -0.237 OA
ATOM     69  O   UNL     1      10.782   2.108  11.912  1.00  0.00    -0.237 OA
ATOM     70  O   UNL     1       8.961   1.501  13.462  1.00  0.00    -0.744 OA
ENDBRANCH  63  67
ENDBRANCH  46  60
BRANCH  47  71
ATOM     71  C   UNL     1       7.432  10.640   2.146  1.00  0.00     0.023 A 
ATOM     72  C   UNL     1       8.563  11.122   1.470  1.00  0.00     0.031 A 
ATOM     73  C   UNL     1       6.168  10.897   1.585  1.00  0.00     0.131 A 
ATOM     74  C   UNL     1       8.408  11.876   0.297  1.00  0.00     0.055 A 
ATOM     75  C   UNL     1       6.022  11.594   0.385  1.00  0.00     0.041 A 
ATOM     76  F   UNL     1       5.053  10.459   2.191  1.00  0.00    -0.206 F 
ATOM     77  C   UNL     1       7.147  12.099  -0.260  1.00  0.00     0.022 A 
BRANCH  74  78
ATOM     78  S   UNL     1       9.877  12.640  -0.439  1.00  0.00     0.124 S 
ATOM     79  O   UNL     1      10.358  13.471   0.658  1.00  0.00    -0.237 OA
ATOM     80  O   UNL     1      10.691  11.476  -0.769  1.00  0.00    -0.237 OA
ATOM     81  O   UNL     1       9.341  13.369  -1.587  1.00  0.00    -0.744 OA
ENDBRANCH  74  78
ENDBRANCH  47  71
BRANCH  59  82
ATOM     82  C   UNL     1      10.093  12.314   8.384  1.00  0.00     0.023 A 
ATOM     83  C   UNL     1       9.477  13.575   8.447  1.00  0.00     0.031 A 
ATOM     84  C   UNL     1      11.442  12.219   8.776  1.00  0.00     0.131 A 
ATOM     85  C   UNL     1      10.230  14.701   8.811  1.00  0.00     0.055 A 
ATOM     86  C   UNL     1      12.159  13.328   9.224  1.00  0.00     0.041 A 
ATOM     87  F   UNL     1      12.087  11.043   8.730  1.00  0.00    -0.206 F 
ATOM     88  C   UNL     1      11.559  14.583   9.224  1.00  0.00     0.022 A 
BRANCH  85  89
ATOM     89  S   UNL     1       9.493  16.344   8.591  1.00  0.00     0.124 S 
ATOM     90  O   UNL     1       9.124  16.322   7.179  1.00  0.00    -0.237 OA
ATOM     91  O   UNL     1       8.385  16.319   9.540  1.00  0.00    -0.237 OA
ATOM     92  O   UNL     1      10.582  17.256   8.933  1.00  0.00    -0.744 OA
ENDBRANCH  85  89
ENDBRANCH  59  82
ENDBRANCH  33  34
ENDBRANCH  26  28
ENDBRANCH  25  26
ENDBRANCH  24  25
ENDBRANCH  23  24
ENDBRANCH  22  23
ENDBRANCH   1  22
TORSDOF 21
