REMARK SMILES [NH3+]C[C@H]1CC[C@@H](C(=O)Nc2ccc(C(=O)OCCOCCOC(=O)c3ccc(-c4c5nc(c(-c6cc(S(=O)(=O)[O-])ccc6F)c6ccc([nH]6)c(-c6cc(S(=O)(=O)[O-])ccc6F)c6nc(c(-c7cc(S(=O)(=O)[O-])ccc7F)c7ccc4[nH]7)C=C6)C=C5)cc3)cc2Br)CC1
REMARK SMILES IDX 18 1 17 2 16 3 14 4 15 5 13 6 10 7 11 8 89 9 12 10 88 11
REMARK SMILES IDX 90 12 9 13 7 14 8 15 6 17 3 18 4 19 92 20 5 21 91 22 2 23
REMARK SMILES IDX 1 24 19 28 20 29 21 30 22 31 23 32 24 33 25 34 26 35 87 36
REMARK SMILES IDX 27 37 86 38 28 39 29 40 30 41 80 42 31 43 85 44 79 45 81 46
REMARK SMILES IDX 32 47 84 48 78 49 77 50 33 52 65 53 45 54 64 55 46 56 49 57
REMARK SMILES IDX 63 58 82 59 47 60 48 61 62 63 83 64 50 65 34 66 35 67 43 68
REMARK SMILES IDX 36 69 42 70 44 71 41 72 37 73 38 74 39 75 40 76 66 77 67 78
REMARK SMILES IDX 75 79 68 80 74 81 76 82 73 83 69 84 70 85 71 86 72 87 51 88
REMARK SMILES IDX 52 89 60 90 53 91 59 92 61 93 58 94 54 95 55 96 56 97 57 98
REMARK H PARENT 9 16 1 25 1 26 1 27 81 51 49 62
REMARK Flexibility Score: inf
ROOT
ATOM      1  C   UNL     1      -3.151   3.989   0.384  1.00  0.00     0.202 C 
ENDROOT
BRANCH   1   2
ATOM      2  C   UNL     1      -2.396   3.838  -0.935  1.00  0.00     0.261 C 
BRANCH   2   3
ATOM      3  O   UNL     1      -1.611   2.647  -0.905  1.00  0.00    -0.460 OA
BRANCH   3   4
ATOM      4  C   UNL     1      -0.301   2.865  -0.677  1.00  0.00     0.338 C 
ATOM      5  O   UNL     1       0.309   3.918  -0.715  1.00  0.00    -0.246 OA
BRANCH   4   6
ATOM      6  C   UNL     1       0.327   1.583  -0.348  1.00  0.00     0.061 A 
ATOM      7  C   UNL     1       2.191  -1.479  -0.893  1.00  0.00     0.055 A 
ATOM      8  C   UNL     1       3.082   0.103  -0.668  1.00  0.00     0.028 A 
ATOM      9  C   UNL     1       0.363  -1.528  -0.769  1.00  0.00     0.042 A 
ATOM     10  C   UNL     1       2.151   1.631  -0.343  1.00  0.00     0.018 A 
ATOM     11  C   UNL     1      -0.598   0.006  -0.520  1.00  0.00     0.033 A 
ATOM     12  Br  UNL     1      -0.526  -3.182  -0.427  1.00  0.00    -0.049 Br
BRANCH   7  13
ATOM     13  N   UNL     1       2.958  -2.636  -1.124  1.00  0.00    -0.325 N 
ATOM     14  C   UNL     1       3.542  -3.134  -2.260  1.00  0.00     0.227 C 
ATOM     15  O   UNL     1       4.466  -3.939  -2.054  1.00  0.00    -0.274 OA
ATOM     16  H   UNL     1       3.100  -3.191  -0.323  1.00  0.00     0.169 HD
BRANCH  14  17
ATOM     17  C   UNL     1       3.216  -2.802  -3.742  1.00  0.00     0.079 C 
ATOM     18  C   UNL     1       1.601  -0.563  -3.187  1.00  0.00     0.044 C 
ATOM     19  C   UNL     1       3.070  -0.313  -3.610  1.00  0.00     0.010 C 
ATOM     20  C   UNL     1       0.898  -1.882  -3.580  1.00  0.00     0.010 C 
ATOM     21  C   UNL     1       3.757  -1.480  -4.260  1.00  0.00     0.014 C 
ATOM     22  C   UNL     1       1.779  -2.925  -4.212  1.00  0.00     0.014 C 
BRANCH  18  23
ATOM     23  C   UNL     1       1.193   0.200  -1.740  1.00  0.00     0.262 C 
BRANCH  23  24
ATOM     24  N   UNL     1       1.281  -0.082   0.304  1.00  0.00    -0.357 N 
ATOM     25  H   UNL     1       0.875   0.725   0.777  1.00  0.00     0.344 HD
ATOM     26  H   UNL     1       2.254  -0.190   0.591  1.00  0.00     0.344 HD
ATOM     27  H   UNL     1       0.757  -0.921   0.555  1.00  0.00     0.344 HD
ENDBRANCH  23  24
ENDBRANCH  18  23
ENDBRANCH  14  17
ENDBRANCH   7  13
ENDBRANCH   4   6
ENDBRANCH   3   4
ENDBRANCH   2   3
ENDBRANCH   1   2
BRANCH   1  28
ATOM     28  O   UNL     1      -2.414   4.091   1.601  1.00  0.00    -0.374 OA
BRANCH  28  29
ATOM     29  C   UNL     1      -1.751   2.949   2.136  1.00  0.00     0.202 C 
BRANCH  29  30
ATOM     30  C   UNL     1      -2.539   1.734   2.647  1.00  0.00     0.261 C 
BRANCH  30  31
ATOM     31  O   UNL     1      -3.469   1.185   1.705  1.00  0.00    -0.460 OA
BRANCH  31  32
ATOM     32  C   UNL     1      -4.751   1.562   1.944  1.00  0.00     0.338 C 
ATOM     33  O   UNL     1      -5.147   2.276   2.849  1.00  0.00    -0.246 OA
BRANCH  32  34
ATOM     34  C   UNL     1      -5.612   1.163   0.819  1.00  0.00     0.060 A 
ATOM     35  C   UNL     1      -6.300   2.182   0.147  1.00  0.00     0.016 A 
ATOM     36  C   UNL     1      -5.825  -0.178   0.502  1.00  0.00     0.016 A 
ATOM     37  C   UNL     1      -7.250   1.862  -0.813  1.00  0.00     0.010 A 
ATOM     38  C   UNL     1      -6.796  -0.499  -0.450  1.00  0.00     0.010 A 
ATOM     39  C   UNL     1      -7.540   0.519  -1.076  1.00  0.00    -0.014 A 
BRANCH  39  40
ATOM     40  C   UNL     1      -8.752   0.194  -1.860  1.00  0.00     0.031 A 
ATOM     41  C   UNL     1      -9.989  -0.242  -1.125  1.00  0.00     0.074 A 
ATOM     42  C   UNL     1      -8.764   0.342  -3.195  1.00  0.00     0.049 A 
ATOM     43  N   UNL     1     -11.144  -0.628  -1.598  1.00  0.00    -0.248 NA
ATOM     44  C   UNL     1      -9.906  -0.246   0.344  1.00  0.00     0.031 C 
ATOM     45  C   UNL     1      -7.643   0.830  -3.997  1.00  0.00     0.029 A 
ATOM     46  N   UNL     1      -9.753   0.095  -4.111  1.00  0.00    -0.354 N 
ATOM     47  C   UNL     1     -11.923  -0.936  -0.487  1.00  0.00     0.074 A 
ATOM     48  C   UNL     1     -11.093  -0.726   0.680  1.00  0.00     0.031 C 
ATOM     49  C   UNL     1      -8.005   0.837  -5.290  1.00  0.00     0.029 A 
ATOM     50  C   UNL     1      -9.362   0.306  -5.411  1.00  0.00     0.049 A 
ATOM     51  H   UNL     1     -10.657  -0.204  -3.861  1.00  0.00     0.167 HD
ATOM     52  C   UNL     1     -13.214  -1.349  -0.450  1.00  0.00     0.034 A 
ATOM     53  C   UNL     1     -10.013   0.061  -6.566  1.00  0.00     0.034 A 
ATOM     54  C   UNL     1     -14.015  -1.558  -1.631  1.00  0.00     0.049 A 
ATOM     55  C   UNL     1     -11.413  -0.500  -6.505  1.00  0.00     0.074 A 
ATOM     56  C   UNL     1     -15.335  -1.964  -1.716  1.00  0.00     0.029 A 
ATOM     57  N   UNL     1     -13.567  -1.394  -2.937  1.00  0.00    -0.354 N 
ATOM     58  N   UNL     1     -12.141  -0.796  -5.452  1.00  0.00    -0.248 NA
ATOM     59  C   UNL     1     -12.080  -0.753  -7.788  1.00  0.00     0.031 C 
ATOM     60  C   UNL     1     -15.654  -2.134  -3.067  1.00  0.00     0.029 A 
ATOM     61  C   UNL     1     -14.570  -1.734  -3.832  1.00  0.00     0.049 A 
ATOM     62  H   UNL     1     -12.668  -1.082  -3.190  1.00  0.00     0.167 HD
ATOM     63  C   UNL     1     -13.366  -1.238  -5.948  1.00  0.00     0.074 A 
ATOM     64  C   UNL     1     -13.278  -1.158  -7.392  1.00  0.00     0.031 C 
ATOM     65  C   UNL     1     -14.465  -1.660  -5.272  1.00  0.00     0.034 A 
BRANCH  52  66
ATOM     66  C   UNL     1     -13.806  -1.665   0.904  1.00  0.00     0.023 A 
ATOM     67  C   UNL     1     -13.940  -0.689   1.906  1.00  0.00     0.031 A 
ATOM     68  C   UNL     1     -14.209  -2.978   1.209  1.00  0.00     0.131 A 
ATOM     69  C   UNL     1     -14.388  -1.055   3.185  1.00  0.00     0.055 A 
ATOM     70  C   UNL     1     -14.740  -3.316   2.454  1.00  0.00     0.041 A 
ATOM     71  F   UNL     1     -14.079  -3.961   0.304  1.00  0.00    -0.206 F 
ATOM     72  C   UNL     1     -14.816  -2.356   3.458  1.00  0.00     0.022 A 
BRANCH  69  73
ATOM     73  S   UNL     1     -14.244   0.152   4.532  1.00  0.00     0.124 S 
ATOM     74  O   UNL     1     -12.816   0.456   4.504  1.00  0.00    -0.237 OA
ATOM     75  O   UNL     1     -15.134   1.221   4.093  1.00  0.00    -0.237 OA
ATOM     76  O   UNL     1     -14.692  -0.591   5.708  1.00  0.00    -0.744 OA
ENDBRANCH  69  73
ENDBRANCH  52  66
BRANCH  53  77
ATOM     77  C   UNL     1      -9.336   0.298  -7.872  1.00  0.00     0.023 A 
ATOM     78  C   UNL     1      -9.833   1.235  -8.790  1.00  0.00     0.031 A 
ATOM     79  C   UNL     1      -8.196  -0.443  -8.238  1.00  0.00     0.131 A 
ATOM     80  C   UNL     1      -9.220   1.377 -10.045  1.00  0.00     0.055 A 
ATOM     81  C   UNL     1      -7.554  -0.254  -9.462  1.00  0.00     0.041 A 
ATOM     82  F   UNL     1      -7.680  -1.355  -7.399  1.00  0.00    -0.206 F 
ATOM     83  C   UNL     1      -8.074   0.652 -10.380  1.00  0.00     0.022 A 
BRANCH  80  84
ATOM     84  S   UNL     1      -9.998   2.460 -11.273  1.00  0.00     0.124 S 
ATOM     85  O   UNL     1     -11.321   1.860 -11.400  1.00  0.00    -0.237 OA
ATOM     86  O   UNL     1      -9.943   3.758 -10.609  1.00  0.00    -0.237 OA
ATOM     87  O   UNL     1      -9.133   2.323 -12.443  1.00  0.00    -0.744 OA
ENDBRANCH  80  84
ENDBRANCH  53  77
BRANCH  65  88
ATOM     88  C   UNL     1     -15.686  -2.017  -6.089  1.00  0.00     0.023 A 
ATOM     89  C   UNL     1     -15.698  -3.107  -6.976  1.00  0.00     0.031 A 
ATOM     90  C   UNL     1     -16.859  -1.249  -5.972  1.00  0.00     0.131 A 
ATOM     91  C   UNL     1     -16.839  -3.365  -7.751  1.00  0.00     0.055 A 
ATOM     92  C   UNL     1     -18.015  -1.555  -6.691  1.00  0.00     0.041 A 
ATOM     93  F   UNL     1     -16.905  -0.192  -5.145  1.00  0.00    -0.206 F 
ATOM     94  C   UNL     1     -18.005  -2.610  -7.598  1.00  0.00     0.022 A 
BRANCH  91  95
ATOM     95  S   UNL     1     -16.747  -4.637  -9.041  1.00  0.00     0.124 S 
ATOM     96  O   UNL     1     -15.644  -4.152  -9.864  1.00  0.00    -0.237 OA
ATOM     97  O   UNL     1     -16.484  -5.847  -8.270  1.00  0.00    -0.237 OA
ATOM     98  O   UNL     1     -18.064  -4.579  -9.673  1.00  0.00    -0.744 OA
ENDBRANCH  91  95
ENDBRANCH  65  88
ENDBRANCH  39  40
ENDBRANCH  32  34
ENDBRANCH  31  32
ENDBRANCH  30  31
ENDBRANCH  29  30
ENDBRANCH  28  29
ENDBRANCH   1  28
TORSDOF 21
