REMARK SMILES Cc1c(C(=O)OCCOCCOC(=O)c2ccc(-c3c4nc(c(-c5cc(S(=O)(=O)[O-])ccc5F)c5ccc([nH]5)c(-c5cc(S(=O)(=O)[O-])ccc5F)c5nc(c(-c6cc(S(=O)(=O)[O-])ccc6F)c6ccc3[nH]6)C=C5)C=C4)cc2)sc2ncnc(NCc3cn4c(n3)SCC4)c12
REMARK SMILES IDX 9 1 8 2 7 3 6 4 4 5 5 6 3 7 1 8 2 9 94 10 78 11 79 12 83 13
REMARK SMILES IDX 80 14 82 15 81 16 84 17 85 19 86 20 87 21 90 22 88 23 89 24
REMARK SMILES IDX 93 25 91 26 92 27 10 28 11 29 12 30 13 31 14 32 15 33 16 34
REMARK SMILES IDX 77 35 17 36 76 37 18 38 19 39 20 40 70 41 21 42 75 43 69 44
REMARK SMILES IDX 71 45 22 46 74 47 68 48 67 49 23 51 55 52 35 53 54 54 36 55
REMARK SMILES IDX 39 56 53 57 72 58 37 59 38 60 52 62 73 63 40 64 24 65 25 66
REMARK SMILES IDX 33 67 26 68 32 69 34 70 31 71 27 72 28 73 29 74 30 75 56 76
REMARK SMILES IDX 57 77 65 78 58 79 64 80 66 81 63 82 59 83 60 84 61 85 62 86
REMARK SMILES IDX 41 87 42 88 50 89 43 90 49 91 51 92 48 93 44 94 45 95 46 96
REMARK SMILES IDX 47 97
REMARK H PARENT 84 18 71 50 39 61
REMARK Flexibility Score: inf
ROOT
ATOM      1  O   UNL     1      -3.361   1.354  -0.367  1.00  0.00    -0.374 OA
ENDROOT
BRANCH   1   2
ATOM      2  C   UNL     1      -4.353   0.623  -1.090  1.00  0.00     0.202 C 
BRANCH   2   3
ATOM      3  C   UNL     1      -3.873  -0.235  -2.264  1.00  0.00     0.261 C 
BRANCH   3   4
ATOM      4  O   UNL     1      -2.960  -1.258  -1.841  1.00  0.00    -0.459 OA
BRANCH   4   5
ATOM      5  C   UNL     1      -1.694  -1.140  -2.339  1.00  0.00     0.348 C 
ATOM      6  O   UNL     1      -1.356  -0.365  -3.219  1.00  0.00    -0.245 OA
BRANCH   5   7
ATOM      7  C   UNL     1      -0.764  -1.925  -1.548  1.00  0.00     0.118 A 
ATOM      8  C   UNL     1       0.680   0.007  -0.855  1.00  0.00     0.047 C 
ATOM      9  C   UNL     1       0.390  -1.458  -0.923  1.00  0.00    -0.012 A 
ATOM     10  C   UNL     1       1.203  -2.554  -0.394  1.00  0.00     0.058 A 
ATOM     11  S   UNL     1      -1.014  -3.580  -1.310  1.00  0.00    -0.108 S 
ATOM     12  C   UNL     1       0.496  -3.748  -0.547  1.00  0.00     0.129 A 
ATOM     13  C   UNL     1       2.493  -2.706   0.191  1.00  0.00     0.138 A 
ATOM     14  N   UNL     1       0.881  -4.984  -0.193  1.00  0.00    -0.225 NA
ATOM     15  N   UNL     1       2.899  -3.958   0.533  1.00  0.00    -0.219 NA
ATOM     16  C   UNL     1       2.090  -5.003   0.346  1.00  0.00     0.225 A 
BRANCH  13  17
ATOM     17  N   UNL     1       3.507  -1.813   0.416  1.00  0.00    -0.364 N 
ATOM     18  H   UNL     1       4.395  -2.230   0.495  1.00  0.00     0.162 HD
BRANCH  17  19
ATOM     19  C   UNL     1       3.519  -0.383   0.558  1.00  0.00     0.172 C 
BRANCH  19  20
ATOM     20  C   UNL     1       3.140   0.197   1.887  1.00  0.00     0.079 A 
ATOM     21  C   UNL     1       3.608   1.378   2.454  1.00  0.00     0.113 A 
ATOM     22  N   UNL     1       2.364  -0.512   2.797  1.00  0.00    -0.226 NA
ATOM     23  N   UNL     1       3.196   1.308   3.741  1.00  0.00    -0.325 N 
ATOM     24  C   UNL     1       2.451   0.181   3.897  1.00  0.00     0.168 A 
ATOM     25  C   UNL     1       3.689   1.931   4.952  1.00  0.00     0.135 C 
ATOM     26  S   UNL     1       2.254  -0.249   5.554  1.00  0.00    -0.086 SA
ATOM     27  C   UNL     1       3.686   0.817   6.002  1.00  0.00     0.100 C 
ENDBRANCH  19  20
ENDBRANCH  17  19
ENDBRANCH  13  17
ENDBRANCH   5   7
ENDBRANCH   4   5
ENDBRANCH   3   4
ENDBRANCH   2   3
ENDBRANCH   1   2
BRANCH   1  28
ATOM     28  C   UNL     1      -2.496   0.648   0.518  1.00  0.00     0.202 C 
BRANCH  28  29
ATOM     29  C   UNL     1      -3.059   0.073   1.806  1.00  0.00     0.261 C 
BRANCH  29  30
ATOM     30  O   UNL     1      -4.033  -0.931   1.565  1.00  0.00    -0.460 OA
BRANCH  30  31
ATOM     31  C   UNL     1      -5.297  -0.513   1.807  1.00  0.00     0.338 C 
ATOM     32  O   UNL     1      -5.708   0.632   1.774  1.00  0.00    -0.246 OA
BRANCH  31  33
ATOM     33  C   UNL     1      -6.082  -1.655   2.275  1.00  0.00     0.060 A 
ATOM     34  C   UNL     1      -7.441  -1.432   2.501  1.00  0.00     0.016 A 
ATOM     35  C   UNL     1      -5.433  -2.819   2.715  1.00  0.00     0.016 A 
ATOM     36  C   UNL     1      -8.116  -2.308   3.321  1.00  0.00     0.010 A 
ATOM     37  C   UNL     1      -6.104  -3.682   3.546  1.00  0.00     0.010 A 
ATOM     38  C   UNL     1      -7.420  -3.383   3.891  1.00  0.00    -0.014 A 
BRANCH  38  39
ATOM     39  C   UNL     1      -8.174  -4.348   4.667  1.00  0.00     0.031 A 
ATOM     40  C   UNL     1      -9.075  -5.118   3.780  1.00  0.00     0.074 A 
ATOM     41  C   UNL     1      -7.970  -4.566   5.982  1.00  0.00     0.049 A 
ATOM     42  N   UNL     1     -10.352  -4.976   3.665  1.00  0.00    -0.248 NA
ATOM     43  C   UNL     1      -8.476  -5.937   2.707  1.00  0.00     0.031 C 
ATOM     44  C   UNL     1      -6.925  -3.977   6.824  1.00  0.00     0.029 A 
ATOM     45  N   UNL     1      -8.590  -5.430   6.838  1.00  0.00    -0.354 N 
ATOM     46  C   UNL     1     -10.735  -5.951   2.753  1.00  0.00     0.074 A 
ATOM     47  C   UNL     1      -9.557  -6.290   2.008  1.00  0.00     0.031 C 
ATOM     48  C   UNL     1      -6.836  -4.668   7.984  1.00  0.00     0.029 A 
ATOM     49  C   UNL     1      -7.895  -5.664   8.028  1.00  0.00     0.049 A 
ATOM     50  H   UNL     1      -9.455  -5.854   6.634  1.00  0.00     0.167 HD
ATOM     51  C   UNL     1     -11.859  -6.678   2.993  1.00  0.00     0.034 A 
ATOM     52  C   UNL     1      -8.159  -6.627   8.957  1.00  0.00     0.034 A 
ATOM     53  C   UNL     1     -12.686  -6.017   3.973  1.00  0.00     0.049 A 
ATOM     54  C   UNL     1      -9.597  -6.955   8.801  1.00  0.00     0.074 A 
ATOM     55  C   UNL     1     -13.460  -4.878   4.024  1.00  0.00     0.029 A 
ATOM     56  N   UNL     1     -12.385  -6.369   5.263  1.00  0.00    -0.354 N 
ATOM     57  N   UNL     1     -10.554  -6.094   9.027  1.00  0.00    -0.248 NA
ATOM     58  C   UNL     1      -9.972  -8.111   7.995  1.00  0.00     0.031 C 
ATOM     59  C   UNL     1     -13.467  -4.468   5.390  1.00  0.00     0.029 A 
ATOM     60  C   UNL     1     -12.759  -5.399   6.150  1.00  0.00     0.049 A 
ATOM     61  H   UNL     1     -11.952  -7.215   5.519  1.00  0.00     0.167 HD
ATOM     62  C   UNL     1     -11.502  -6.372   8.062  1.00  0.00     0.074 A 
ATOM     63  C   UNL     1     -11.171  -7.705   7.568  1.00  0.00     0.031 C 
ATOM     64  C   UNL     1     -12.257  -5.377   7.512  1.00  0.00     0.034 A 
BRANCH  51  65
ATOM     65  C   UNL     1     -11.943  -8.181   2.802  1.00  0.00     0.023 A 
ATOM     66  C   UNL     1     -13.192  -8.795   3.017  1.00  0.00     0.031 A 
ATOM     67  C   UNL     1     -10.832  -9.056   2.732  1.00  0.00     0.131 A 
ATOM     68  C   UNL     1     -13.290 -10.188   3.187  1.00  0.00     0.055 A 
ATOM     69  C   UNL     1     -10.942 -10.442   2.850  1.00  0.00     0.041 A 
ATOM     70  F   UNL     1      -9.569  -8.625   2.651  1.00  0.00    -0.206 F 
ATOM     71  C   UNL     1     -12.174 -11.016   3.098  1.00  0.00     0.022 A 
BRANCH  68  72
ATOM     72  S   UNL     1     -14.894 -10.905   3.626  1.00  0.00     0.124 S 
ATOM     73  O   UNL     1     -15.151 -10.294   4.924  1.00  0.00    -0.237 OA
ATOM     74  O   UNL     1     -15.737 -10.458   2.522  1.00  0.00    -0.237 OA
ATOM     75  O   UNL     1     -14.624 -12.342   3.653  1.00  0.00    -0.744 OA
ENDBRANCH  68  72
ENDBRANCH  51  65
BRANCH  52  76
ATOM     76  C   UNL     1      -7.201  -7.494   9.721  1.00  0.00     0.023 A 
ATOM     77  C   UNL     1      -7.631  -8.405  10.720  1.00  0.00     0.031 A 
ATOM     78  C   UNL     1      -5.864  -7.638   9.289  1.00  0.00     0.131 A 
ATOM     79  C   UNL     1      -6.756  -9.410  11.210  1.00  0.00     0.055 A 
ATOM     80  C   UNL     1      -5.008  -8.632   9.774  1.00  0.00     0.041 A 
ATOM     81  F   UNL     1      -5.358  -6.872   8.311  1.00  0.00    -0.206 F 
ATOM     82  C   UNL     1      -5.455  -9.534  10.724  1.00  0.00     0.022 A 
BRANCH  79  83
ATOM     83  S   UNL     1      -7.333 -10.665  12.406  1.00  0.00     0.124 S 
ATOM     84  O   UNL     1      -7.305  -9.925  13.662  1.00  0.00    -0.237 OA
ATOM     85  O   UNL     1      -8.650 -11.017  11.890  1.00  0.00    -0.237 OA
ATOM     86  O   UNL     1      -6.330 -11.726  12.294  1.00  0.00    -0.744 OA
ENDBRANCH  79  83
ENDBRANCH  52  76
BRANCH  64  87
ATOM     87  C   UNL     1     -12.555  -4.150   8.330  1.00  0.00     0.023 A 
ATOM     88  C   UNL     1     -11.651  -3.117   8.652  1.00  0.00     0.031 A 
ATOM     89  C   UNL     1     -13.911  -3.976   8.664  1.00  0.00     0.131 A 
ATOM     90  C   UNL     1     -12.138  -1.943   9.268  1.00  0.00     0.055 A 
ATOM     91  C   UNL     1     -14.389  -2.808   9.245  1.00  0.00     0.041 A 
ATOM     92  F   UNL     1     -14.810  -4.929   8.364  1.00  0.00    -0.206 F 
ATOM     93  C   UNL     1     -13.503  -1.784   9.547  1.00  0.00     0.022 A 
BRANCH  90  94
ATOM     94  S   UNL     1     -11.013  -0.570   9.686  1.00  0.00     0.124 S 
ATOM     95  O   UNL     1     -10.085  -1.181  10.632  1.00  0.00    -0.237 OA
ATOM     96  O   UNL     1     -10.457  -0.201   8.388  1.00  0.00    -0.237 OA
ATOM     97  O   UNL     1     -11.901   0.437  10.271  1.00  0.00    -0.744 OA
ENDBRANCH  90  94
ENDBRANCH  64  87
ENDBRANCH  38  39
ENDBRANCH  31  33
ENDBRANCH  30  31
ENDBRANCH  29  30
ENDBRANCH  28  29
ENDBRANCH   1  28
TORSDOF 20
