REMARK SMILES O=C(OCCOCCOC(=O)c1cc(=O)[nH]c2ccc(C(F)(F)F)cc12)c1ccc(-c2c3nc(c(-c4cc(S(=O)(=O)[O-])ccc4F)c4ccc([nH]4)c(-c4cc(S(=O)(=O)[O-])ccc4F)c4nc(c(-c5cc(S(=O)(=O)[O-])ccc5F)c5ccc2[nH]5)C=C4)C=C3)cc1
REMARK SMILES IDX 5 1 4 2 3 3 2 4 1 5 27 6 28 7 89 8 29 9 88 10 30 11 31 12
REMARK SMILES IDX 32 13 82 14 33 15 87 16 81 17 83 18 34 19 86 20 80 21 79 22
REMARK SMILES IDX 35 24 67 25 47 26 66 27 48 28 51 29 65 30 84 31 49 32 50 33
REMARK SMILES IDX 64 35 85 36 52 37 36 38 37 39 45 40 38 41 44 42 46 43 43 44
REMARK SMILES IDX 39 45 40 46 41 47 42 48 68 49 69 50 77 51 70 52 76 53 78 54
REMARK SMILES IDX 75 55 71 56 72 57 73 58 74 59 53 60 54 61 62 62 55 63 61 64
REMARK SMILES IDX 63 65 60 66 56 67 57 68 58 69 59 70 6 71 7 72 8 73 9 74
REMARK SMILES IDX 10 75 11 76 12 77 13 78 26 79 14 80 17 81 25 82 15 83 16 84
REMARK SMILES IDX 18 85 20 86 19 88 21 89 22 90 23 91 24 92
REMARK H PARENT 83 23 51 34 16 87
REMARK Flexibility Score: inf
ROOT
ATOM      1  C   UNL     1       4.133   1.548   0.085  1.00  0.00     0.202 C 
ENDROOT
BRANCH   1   2
ATOM      2  C   UNL     1       3.641   0.768  -1.132  1.00  0.00     0.261 C 
BRANCH   2   3
ATOM      3  O   UNL     1       2.265   0.393  -0.961  1.00  0.00    -0.460 OA
BRANCH   3   4
ATOM      4  C   UNL     1       1.787  -0.871  -0.846  1.00  0.00     0.338 C 
ATOM      5  O   UNL     1       0.576  -1.062  -0.916  1.00  0.00    -0.246 OA
BRANCH   4   6
ATOM      6  C   UNL     1       2.682  -2.043  -0.630  1.00  0.00     0.060 A 
ATOM      7  C   UNL     1       3.845  -1.989   0.139  1.00  0.00     0.016 A 
ATOM      8  C   UNL     1       2.277  -3.285  -1.138  1.00  0.00     0.016 A 
ATOM      9  C   UNL     1       4.638  -3.106   0.335  1.00  0.00     0.010 A 
ATOM     10  C   UNL     1       3.032  -4.435  -0.881  1.00  0.00     0.010 A 
ATOM     11  C   UNL     1       4.220  -4.343  -0.143  1.00  0.00    -0.014 A 
BRANCH  11  12
ATOM     12  C   UNL     1       5.081  -5.511   0.123  1.00  0.00     0.031 A 
ATOM     13  C   UNL     1       5.860  -6.102  -1.008  1.00  0.00     0.074 A 
ATOM     14  C   UNL     1       5.239  -5.933   1.392  1.00  0.00     0.049 A 
ATOM     15  N   UNL     1       6.608  -7.170  -1.028  1.00  0.00    -0.248 NA
ATOM     16  C   UNL     1       5.790  -5.384  -2.290  1.00  0.00     0.031 C 
ATOM     17  C   UNL     1       4.613  -5.316   2.566  1.00  0.00     0.029 A 
ATOM     18  N   UNL     1       5.993  -6.947   1.917  1.00  0.00    -0.354 N 
ATOM     19  C   UNL     1       7.073  -7.276  -2.334  1.00  0.00     0.074 A 
ATOM     20  C   UNL     1       6.516  -6.164  -3.075  1.00  0.00     0.031 C 
ATOM     21  C   UNL     1       5.038  -5.943   3.673  1.00  0.00     0.029 A 
ATOM     22  C   UNL     1       5.885  -7.063   3.284  1.00  0.00     0.049 A 
ATOM     23  H   UNL     1       6.559  -7.537   1.369  1.00  0.00     0.167 HD
ATOM     24  C   UNL     1       7.882  -8.230  -2.854  1.00  0.00     0.034 A 
ATOM     25  C   UNL     1       6.377  -8.002   4.114  1.00  0.00     0.034 A 
ATOM     26  C   UNL     1       8.396  -9.325  -2.069  1.00  0.00     0.049 A 
ATOM     27  C   UNL     1       7.185  -9.113   3.493  1.00  0.00     0.074 A 
ATOM     28  C   UNL     1       9.145 -10.413  -2.476  1.00  0.00     0.029 A 
ATOM     29  N   UNL     1       8.207  -9.464  -0.696  1.00  0.00    -0.354 N 
ATOM     30  N   UNL     1       7.534  -9.274   2.235  1.00  0.00    -0.248 NA
ATOM     31  C   UNL     1       7.650 -10.175   4.390  1.00  0.00     0.031 C 
ATOM     32  C   UNL     1       9.356 -11.237  -1.363  1.00  0.00     0.029 A 
ATOM     33  C   UNL     1       8.803 -10.629  -0.244  1.00  0.00     0.049 A 
ATOM     34  H   UNL     1       7.718  -8.825  -0.128  1.00  0.00     0.167 HD
ATOM     35  C   UNL     1       8.270 -10.451   2.192  1.00  0.00     0.074 A 
ATOM     36  C   UNL     1       8.337 -10.942   3.556  1.00  0.00     0.031 C 
ATOM     37  C   UNL     1       8.835 -11.081   1.129  1.00  0.00     0.034 A 
BRANCH  24  38
ATOM     38  C   UNL     1       8.135  -8.168  -4.341  1.00  0.00     0.023 A 
ATOM     39  C   UNL     1       8.820  -7.093  -4.937  1.00  0.00     0.031 A 
ATOM     40  C   UNL     1       7.580  -9.144  -5.188  1.00  0.00     0.131 A 
ATOM     41  C   UNL     1       8.850  -6.973  -6.336  1.00  0.00     0.055 A 
ATOM     42  C   UNL     1       7.687  -9.062  -6.577  1.00  0.00     0.041 A 
ATOM     43  F   UNL     1       6.888 -10.175  -4.680  1.00  0.00    -0.206 F 
ATOM     44  C   UNL     1       8.308  -7.962  -7.160  1.00  0.00     0.022 A 
BRANCH  41  45
ATOM     45  S   UNL     1       9.450  -5.421  -7.064  1.00  0.00     0.124 S 
ATOM     46  O   UNL     1       8.515  -4.450  -6.498  1.00  0.00    -0.237 OA
ATOM     47  O   UNL     1      10.820  -5.350  -6.572  1.00  0.00    -0.237 OA
ATOM     48  O   UNL     1       9.313  -5.640  -8.502  1.00  0.00    -0.744 OA
ENDBRANCH  41  45
ENDBRANCH  24  38
BRANCH  25  49
ATOM     49  C   UNL     1       6.050  -7.988   5.572  1.00  0.00     0.023 A 
ATOM     50  C   UNL     1       7.055  -7.920   6.551  1.00  0.00     0.031 A 
ATOM     51  C   UNL     1       4.716  -8.087   6.014  1.00  0.00     0.131 A 
ATOM     52  C   UNL     1       6.715  -7.989   7.913  1.00  0.00     0.055 A 
ATOM     53  C   UNL     1       4.378  -8.095   7.368  1.00  0.00     0.041 A 
ATOM     54  F   UNL     1       3.710  -8.166   5.128  1.00  0.00    -0.206 F 
ATOM     55  C   UNL     1       5.383  -8.059   8.328  1.00  0.00     0.022 A 
BRANCH  52  56
ATOM     56  S   UNL     1       8.046  -8.081   9.143  1.00  0.00     0.124 S 
ATOM     57  O   UNL     1       8.793  -9.248   8.687  1.00  0.00    -0.237 OA
ATOM     58  O   UNL     1       8.704  -6.790   8.975  1.00  0.00    -0.237 OA
ATOM     59  O   UNL     1       7.331  -8.254  10.406  1.00  0.00    -0.744 OA
ENDBRANCH  52  56
ENDBRANCH  25  49
BRANCH  37  60
ATOM     60  C   UNL     1       9.599 -12.343   1.430  1.00  0.00     0.023 A 
ATOM     61  C   UNL     1       8.946 -13.513   1.851  1.00  0.00     0.031 A 
ATOM     62  C   UNL     1      10.998 -12.366   1.302  1.00  0.00     0.131 A 
ATOM     63  C   UNL     1       9.700 -14.646   2.184  1.00  0.00     0.055 A 
ATOM     64  C   UNL     1      11.737 -13.515   1.577  1.00  0.00     0.041 A 
ATOM     65  F   UNL     1      11.666 -11.271   0.904  1.00  0.00    -0.206 F 
ATOM     66  C   UNL     1      11.090 -14.660   2.033  1.00  0.00     0.022 A 
BRANCH  63  67
ATOM     67  S   UNL     1       8.847 -16.076   2.901  1.00  0.00     0.124 S 
ATOM     68  O   UNL     1       8.253 -15.502   4.104  1.00  0.00    -0.237 OA
ATOM     69  O   UNL     1       7.913 -16.446   1.843  1.00  0.00    -0.237 OA
ATOM     70  O   UNL     1       9.925 -17.035   3.137  1.00  0.00    -0.744 OA
ENDBRANCH  63  67
ENDBRANCH  37  60
ENDBRANCH  11  12
ENDBRANCH   4   6
ENDBRANCH   3   4
ENDBRANCH   2   3
ENDBRANCH   1   2
BRANCH   1  71
ATOM     71  O   UNL     1       3.986   0.882   1.335  1.00  0.00    -0.374 OA
BRANCH  71  72
ATOM     72  C   UNL     1       2.714   1.020   1.974  1.00  0.00     0.202 C 
BRANCH  72  73
ATOM     73  C   UNL     1       2.952   1.383   3.442  1.00  0.00     0.261 C 
BRANCH  73  74
ATOM     74  O   UNL     1       3.603   2.667   3.482  1.00  0.00    -0.460 OA
BRANCH  74  75
ATOM     75  C   UNL     1       4.964   2.645   3.410  1.00  0.00     0.339 C 
ATOM     76  O   UNL     1       5.692   1.690   3.630  1.00  0.00    -0.246 OA
BRANCH  75  77
ATOM     77  C   UNL     1       5.432   3.950   2.874  1.00  0.00     0.074 A 
ATOM     78  C   UNL     1       4.838   5.044   3.382  1.00  0.00     0.088 A 
ATOM     79  C   UNL     1       6.420   4.085   1.780  1.00  0.00     0.013 A 
ATOM     80  C   UNL     1       5.121   6.390   2.856  1.00  0.00     0.249 A 
ATOM     81  C   UNL     1       6.651   5.368   1.258  1.00  0.00     0.049 A 
ATOM     82  C   UNL     1       7.071   3.001   1.171  1.00  0.00     0.024 A 
ATOM     83  O   UNL     1       4.558   7.376   3.319  1.00  0.00    -0.270 OA
ATOM     84  N   UNL     1       6.005   6.474   1.822  1.00  0.00    -0.322 N 
ATOM     85  C   UNL     1       7.486   5.568   0.158  1.00  0.00     0.027 A 
ATOM     86  C   UNL     1       7.865   3.178   0.018  1.00  0.00     0.056 A 
ATOM     87  H   UNL     1       6.201   7.364   1.450  1.00  0.00     0.170 HD
ATOM     88  C   UNL     1       8.074   4.474  -0.472  1.00  0.00     0.015 A 
BRANCH  86  89
ATOM     89  C   UNL     1       8.383   1.977  -0.747  1.00  0.00     0.416 C 
ATOM     90  F   UNL     1       8.896   1.009   0.054  1.00  0.00    -0.166 F 
ATOM     91  F   UNL     1       7.390   1.391  -1.474  1.00  0.00    -0.166 F 
ATOM     92  F   UNL     1       9.361   2.296  -1.639  1.00  0.00    -0.166 F 
ENDBRANCH  86  89
ENDBRANCH  75  77
ENDBRANCH  74  75
ENDBRANCH  73  74
ENDBRANCH  72  73
ENDBRANCH  71  72
ENDBRANCH   1  71
TORSDOF 18
