REMARK SMILES O=C(N[C@@H](Cc1c[nH]c2ccccc12)C(=O)N[C@@H](CS)C(=O)N[C@@H](CO)C(=O)OCCOCCOC(=O)c1ccc(-c2c3nc(c(-c4cc(S(=O)(=O)[O-])ccc4F)c4ccc([nH]4)c(-c4cc(S(=O)(=O)[O-])ccc4F)c4nc(c(-c5cc(S(=O)(=O)[O-])ccc5F)c5ccc2[nH]5)C=C4)C=C3)cc1)c1ccc(F)cc1
REMARK SMILES IDX 30 1 29 2 27 3 28 4 24 5 23 6 21 7 22 8 18 10 17 11 15 12
REMARK SMILES IDX 16 13 4 15 3 16 1 17 2 18 101 20 102 21 107 22 103 23 106 24
REMARK SMILES IDX 104 25 105 26 5 27 6 28 7 29 14 30 8 31 9 32 13 33 10 35
REMARK SMILES IDX 12 36 11 37 19 38 20 39 25 41 26 42 31 44 32 45 33 46 34 47
REMARK SMILES IDX 35 48 36 49 37 50 38 51 39 52 100 53 40 54 99 55 41 56 42 57
REMARK SMILES IDX 43 58 93 59 44 60 98 61 92 62 94 63 45 64 97 65 91 66 90 67
REMARK SMILES IDX 46 69 78 70 58 71 77 72 59 73 62 74 76 75 95 76 60 77 61 78
REMARK SMILES IDX 75 80 96 81 63 82 47 83 48 84 56 85 49 86 55 87 57 88 54 89
REMARK SMILES IDX 50 90 51 91 52 92 53 93 79 94 80 95 88 96 81 97 87 98 89 99
REMARK SMILES IDX 86 100 82 101 83 102 84 103 85 104 64 105 65 106 73 107
REMARK SMILES IDX 66 108 72 109 74 110 71 111 67 112 68 113 69 114 70 115
REMARK H PARENT 23 9 17 14 3 19 8 34 20 40 26 43 94 68 62 79
REMARK Flexibility Score: inf
ROOT
ATOM      1  C   UNL     1       3.931  -6.774  -8.060  1.00  0.00     0.261 C 
ENDROOT
BRANCH   1   2
ATOM      2  O   UNL     1       4.649  -6.214  -6.943  1.00  0.00    -0.462 OA
BRANCH   2   3
ATOM      3  C   UNL     1       5.259  -5.019  -7.193  1.00  0.00     0.331 C 
ATOM      4  O   UNL     1       5.328  -4.487  -8.296  1.00  0.00    -0.250 OA
BRANCH   3   5
ATOM      5  C   UNL     1       5.838  -4.355  -5.934  1.00  0.00     0.218 C 
BRANCH   5   6
ATOM      6  N   UNL     1       5.577  -5.007  -4.645  1.00  0.00    -0.339 N 
ATOM      7  C   UNL     1       5.514  -4.406  -3.425  1.00  0.00     0.244 C 
ATOM      8  O   UNL     1       6.202  -4.908  -2.528  1.00  0.00    -0.273 OA
ATOM      9  H   UNL     1       5.432  -5.981  -4.665  1.00  0.00     0.164 HD
BRANCH   7  10
ATOM     10  C   UNL     1       4.667  -3.132  -3.133  1.00  0.00     0.181 C 
BRANCH  10  11
ATOM     11  N   UNL     1       5.415  -1.915  -2.840  1.00  0.00    -0.342 N 
ATOM     12  C   UNL     1       5.369  -1.058  -1.786  1.00  0.00     0.243 C 
ATOM     13  O   UNL     1       5.982   0.006  -1.973  1.00  0.00    -0.273 OA
ATOM     14  H   UNL     1       6.072  -1.670  -3.531  1.00  0.00     0.164 HD
BRANCH  12  15
ATOM     15  C   UNL     1       4.521  -1.212  -0.477  1.00  0.00     0.176 C 
BRANCH  15  16
ATOM     16  N   UNL     1       3.217  -0.571  -0.580  1.00  0.00    -0.340 N 
ATOM     17  O   UNL     1       1.443   0.677  -0.027  1.00  0.00    -0.269 OA
ATOM     18  C   UNL     1       2.659   0.507   0.052  1.00  0.00     0.251 C 
ATOM     19  H   UNL     1       2.618  -0.999  -1.234  1.00  0.00     0.164 HD
BRANCH  18  20
ATOM     20  C   UNL     1       3.459   1.476   0.831  1.00  0.00     0.040 A 
ATOM     21  C   UNL     1       4.575   2.112   0.277  1.00  0.00     0.017 A 
ATOM     22  C   UNL     1       2.994   1.857   2.099  1.00  0.00     0.017 A 
ATOM     23  C   UNL     1       5.263   3.079   1.018  1.00  0.00     0.040 A 
ATOM     24  C   UNL     1       3.683   2.823   2.836  1.00  0.00     0.040 A 
ATOM     25  C   UNL     1       4.816   3.418   2.292  1.00  0.00     0.123 A 
ATOM     26  F   UNL     1       5.479   4.342   3.000  1.00  0.00    -0.207 F 
ENDBRANCH  18  20
ENDBRANCH  15  16
BRANCH  15  27
ATOM     27  C   UNL     1       4.518  -2.522   0.327  1.00  0.00     0.072 C 
BRANCH  27  28
ATOM     28  C   UNL     1       3.671  -3.752   0.033  1.00  0.00    -0.020 A 
ATOM     29  C   UNL     1       4.174  -5.000   0.380  1.00  0.00     0.087 A 
ATOM     30  C   UNL     1       2.379  -4.019  -0.590  1.00  0.00     0.003 A 
ATOM     31  N   UNL     1       3.333  -5.975  -0.056  1.00  0.00    -0.361 N 
ATOM     32  C   UNL     1       2.260  -5.414  -0.696  1.00  0.00     0.046 A 
ATOM     33  C   UNL     1       1.302  -3.278  -1.136  1.00  0.00     0.010 A 
ATOM     34  H   UNL     1       3.474  -6.941   0.070  1.00  0.00     0.166 HD
ATOM     35  C   UNL     1       1.202  -6.064  -1.348  1.00  0.00     0.026 A 
ATOM     36  C   UNL     1       0.275  -3.908  -1.860  1.00  0.00     0.001 A 
ATOM     37  C   UNL     1       0.232  -5.287  -1.971  1.00  0.00     0.002 A 
ENDBRANCH  27  28
ENDBRANCH  15  27
ENDBRANCH  12  15
ENDBRANCH  10  11
BRANCH  10  38
ATOM     38  C   UNL     1       3.367  -2.894  -3.912  1.00  0.00     0.101 C 
BRANCH  38  39
ATOM     39  S   UNL     1       3.425  -1.843  -5.397  1.00  0.00    -0.177 SA
ATOM     40  H   UNL     1       3.754  -0.572  -5.040  1.00  0.00     0.102 HD
ENDBRANCH  38  39
ENDBRANCH  10  38
ENDBRANCH   7  10
ENDBRANCH   5   6
BRANCH   5  41
ATOM     41  C   UNL     1       7.348  -4.168  -6.138  1.00  0.00     0.193 C 
BRANCH  41  42
ATOM     42  O   UNL     1       8.043  -5.403  -5.992  1.00  0.00    -0.394 OA
ATOM     43  H   UNL     1       7.903  -5.749  -5.097  1.00  0.00     0.210 HD
ENDBRANCH  41  42
ENDBRANCH   5  41
ENDBRANCH   3   5
ENDBRANCH   2   3
ENDBRANCH   1   2
BRANCH   1  44
ATOM     44  C   UNL     1       2.560  -7.343  -7.671  1.00  0.00     0.202 C 
BRANCH  44  45
ATOM     45  O   UNL     1       1.651  -6.466  -7.008  1.00  0.00    -0.374 OA
BRANCH  45  46
ATOM     46  C   UNL     1       2.016  -6.005  -5.713  1.00  0.00     0.202 C 
BRANCH  46  47
ATOM     47  C   UNL     1       2.083  -7.032  -4.576  1.00  0.00     0.261 C 
BRANCH  47  48
ATOM     48  O   UNL     1       2.954  -8.141  -4.835  1.00  0.00    -0.460 OA
BRANCH  48  49
ATOM     49  C   UNL     1       2.362  -9.358  -4.766  1.00  0.00     0.338 C 
ATOM     50  O   UNL     1       1.208  -9.608  -4.435  1.00  0.00    -0.246 OA
BRANCH  49  51
ATOM     51  C   UNL     1       3.286 -10.373  -5.287  1.00  0.00     0.060 A 
ATOM     52  C   UNL     1       3.009 -10.954  -6.529  1.00  0.00     0.016 A 
ATOM     53  C   UNL     1       4.388 -10.781  -4.533  1.00  0.00     0.016 A 
ATOM     54  C   UNL     1       3.843 -11.952  -7.027  1.00  0.00     0.010 A 
ATOM     55  C   UNL     1       5.215 -11.791  -5.029  1.00  0.00     0.010 A 
ATOM     56  C   UNL     1       4.939 -12.390  -6.271  1.00  0.00    -0.014 A 
BRANCH  56  57
ATOM     57  C   UNL     1       5.743 -13.539  -6.747  1.00  0.00     0.031 A 
ATOM     58  C   UNL     1       5.475 -14.905  -6.185  1.00  0.00     0.074 A 
ATOM     59  C   UNL     1       6.696 -13.352  -7.676  1.00  0.00     0.049 A 
ATOM     60  N   UNL     1       6.064 -16.041  -6.449  1.00  0.00    -0.248 NA
ATOM     61  C   UNL     1       4.402 -14.997  -5.185  1.00  0.00     0.031 C 
ATOM     62  C   UNL     1       7.025 -12.068  -8.294  1.00  0.00     0.029 A 
ATOM     63  N   UNL     1       7.568 -14.238  -8.254  1.00  0.00    -0.354 N 
ATOM     64  C   UNL     1       5.436 -16.988  -5.647  1.00  0.00     0.074 A 
ATOM     65  C   UNL     1       4.448 -16.280  -4.860  1.00  0.00     0.031 C 
ATOM     66  C   UNL     1       8.041 -12.246  -9.155  1.00  0.00     0.029 A 
ATOM     67  C   UNL     1       8.453 -13.648  -9.125  1.00  0.00     0.049 A 
ATOM     68  H   UNL     1       7.562 -15.204  -8.063  1.00  0.00     0.167 HD
ATOM     69  C   UNL     1       5.662 -18.324  -5.583  1.00  0.00     0.034 A 
ATOM     70  C   UNL     1       9.493 -14.175  -9.800  1.00  0.00     0.034 A 
ATOM     71  C   UNL     1       6.671 -19.000  -6.365  1.00  0.00     0.049 A 
ATOM     72  C   UNL     1       9.771 -15.650  -9.667  1.00  0.00     0.074 A 
ATOM     73  C   UNL     1       6.963 -20.351  -6.417  1.00  0.00     0.029 A 
ATOM     74  N   UNL     1       7.574 -18.368  -7.214  1.00  0.00    -0.354 N 
ATOM     75  N   UNL     1       9.139 -16.547  -8.944  1.00  0.00    -0.248 NA
ATOM     76  C   UNL     1      10.892 -16.186 -10.447  1.00  0.00     0.031 C 
ATOM     77  C   UNL     1       8.088 -20.526  -7.231  1.00  0.00     0.029 A 
ATOM     78  C   UNL     1       8.452 -19.295  -7.755  1.00  0.00     0.049 A 
ATOM     79  H   UNL     1       7.587 -17.402  -7.404  1.00  0.00     0.167 HD
ATOM     80  C   UNL     1       9.779 -17.758  -9.193  1.00  0.00     0.074 A 
ATOM     81  C   UNL     1      10.832 -17.477 -10.150  1.00  0.00     0.031 C 
ATOM     82  C   UNL     1       9.520 -18.990  -8.683  1.00  0.00     0.034 A 
BRANCH  69  83
ATOM     83  C   UNL     1       4.845 -19.115  -4.588  1.00  0.00     0.023 A 
ATOM     84  C   UNL     1       3.444 -19.204  -4.679  1.00  0.00     0.031 A 
ATOM     85  C   UNL     1       5.471 -19.743  -3.496  1.00  0.00     0.131 A 
ATOM     86  C   UNL     1       2.712 -19.824  -3.654  1.00  0.00     0.055 A 
ATOM     87  C   UNL     1       4.743 -20.432  -2.524  1.00  0.00     0.041 A 
ATOM     88  F   UNL     1       6.803 -19.675  -3.340  1.00  0.00    -0.206 F 
ATOM     89  C   UNL     1       3.353 -20.459  -2.589  1.00  0.00     0.022 A 
BRANCH  86  90
ATOM     90  S   UNL     1       0.906 -19.638  -3.644  1.00  0.00     0.124 S 
ATOM     91  O   UNL     1       0.759 -18.184  -3.663  1.00  0.00    -0.237 OA
ATOM     92  O   UNL     1       0.511 -20.337  -4.861  1.00  0.00    -0.237 OA
ATOM     93  O   UNL     1       0.503 -20.280  -2.395  1.00  0.00    -0.744 OA
ENDBRANCH  86  90
ENDBRANCH  69  83
BRANCH  70  94
ATOM     94  C   UNL     1      10.372 -13.293 -10.619  1.00  0.00     0.023 A 
ATOM     95  C   UNL     1      10.433 -13.408 -12.016  1.00  0.00     0.031 A 
ATOM     96  C   UNL     1      11.174 -12.315 -10.000  1.00  0.00     0.131 A 
ATOM     97  C   UNL     1      11.296 -12.575 -12.747  1.00  0.00     0.055 A 
ATOM     98  C   UNL     1      11.997 -11.461 -10.735  1.00  0.00     0.041 A 
ATOM     99  F   UNL     1      11.150 -12.163  -8.666  1.00  0.00    -0.206 F 
ATOM    100  C   UNL     1      12.067 -11.594 -12.118  1.00  0.00     0.022 A 
BRANCH  97 101
ATOM    101  S   UNL     1      11.434 -12.822 -14.539  1.00  0.00     0.124 S 
ATOM    102  O   UNL     1      11.912 -14.198 -14.614  1.00  0.00    -0.237 OA
ATOM    103  O   UNL     1      10.063 -12.594 -14.983  1.00  0.00    -0.237 OA
ATOM    104  O   UNL     1      12.397 -11.803 -14.950  1.00  0.00    -0.744 OA
ENDBRANCH  97 101
ENDBRANCH  70  94
BRANCH  82 105
ATOM    105  C   UNL     1      10.388 -20.125  -9.169  1.00  0.00     0.023 A 
ATOM    106  C   UNL     1      11.757 -20.193  -8.854  1.00  0.00     0.031 A 
ATOM    107  C   UNL     1       9.842 -21.148  -9.965  1.00  0.00     0.131 A 
ATOM    108  C   UNL     1      12.545 -21.228  -9.379  1.00  0.00     0.055 A 
ATOM    109  C   UNL     1      10.617 -22.209 -10.433  1.00  0.00     0.041 A 
ATOM    110  F   UNL     1       8.541 -21.132 -10.299  1.00  0.00    -0.206 F 
ATOM    111  C   UNL     1      11.980 -22.247 -10.151  1.00  0.00     0.022 A 
BRANCH 108 112
ATOM    112  S   UNL     1      14.339 -21.177  -9.117  1.00  0.00     0.124 S 
ATOM    113  O   UNL     1      14.697 -19.901  -9.729  1.00  0.00    -0.237 OA
ATOM    114  O   UNL     1      14.445 -21.239  -7.663  1.00  0.00    -0.237 OA
ATOM    115  O   UNL     1      14.823 -22.361  -9.825  1.00  0.00    -0.744 OA
ENDBRANCH 108 112
ENDBRANCH  82 105
ENDBRANCH  56  57
ENDBRANCH  49  51
ENDBRANCH  48  49
ENDBRANCH  47  48
ENDBRANCH  46  47
ENDBRANCH  45  46
ENDBRANCH  44  45
ENDBRANCH   1  44
TORSDOF 29
