REMARK SMILES O=C1NC(=O)/C(=C/c2ccc(OCc3cn(-c4ccc(C(=O)OCCOCCOC(=O)c5ccc(-c6c7nc(c(-c8cc(S(=O)(=O)[O-])ccc8F)c8ccc([nH]8)c(-c8cc(S(=O)(=O)[O-])ccc8F)c8nc(c(-c9cc(S(=O)(=O)[O-])ccc9F)c9ccc6[nH]9)C=C8)C=C7)cc5)cc4)nn3)cc2)S1
REMARK SMILES IDX 25 1 24 2 23 3 21 4 22 5 20 6 17 7 18 8 96 9 19 10 95 11
REMARK SMILES IDX 16 12 14 13 15 14 98 15 97 16 13 17 12 18 11 19 8 20 9 21
REMARK SMILES IDX 100 22 10 23 99 24 7 25 1 26 2 27 3 28 101 29 4 30 6 32 5 33
REMARK SMILES IDX 26 34 27 35 28 36 29 37 30 38 31 39 32 40 33 41 94 42 34 43
REMARK SMILES IDX 93 44 35 45 36 46 37 47 87 48 38 49 92 50 86 51 88 52 39 53
REMARK SMILES IDX 91 54 85 55 84 56 40 58 72 59 52 60 71 61 53 62 56 63 70 64
REMARK SMILES IDX 89 65 54 66 55 67 69 69 90 70 57 71 41 72 42 73 50 74 43 75
REMARK SMILES IDX 49 76 51 77 48 78 44 79 45 80 46 81 47 82 73 83 74 84 82 85
REMARK SMILES IDX 75 86 81 87 83 88 80 89 76 90 77 91 78 92 79 93 58 94 59 95
REMARK SMILES IDX 67 96 60 97 66 98 68 99 65 100 61 101 62 102 63 103 64 104
REMARK H PARENT 3 31 88 57 56 68
REMARK Flexibility Score: inf
ROOT
ATOM      1  C   UNL     1     -10.645   9.284   0.269  1.00  0.00     0.202 C 
ENDROOT
BRANCH   1   2
ATOM      2  C   UNL     1      -9.589  10.368   0.487  1.00  0.00     0.261 C 
BRANCH   2   3
ATOM      3  O   UNL     1      -8.252   9.898   0.269  1.00  0.00    -0.460 OA
BRANCH   3   4
ATOM      4  C   UNL     1      -7.541   9.726   1.407  1.00  0.00     0.338 C 
ATOM      5  O   UNL     1      -7.895   9.978   2.547  1.00  0.00    -0.246 OA
BRANCH   4   6
ATOM      6  C   UNL     1      -6.280   9.021   1.118  1.00  0.00     0.060 A 
ATOM      7  C   UNL     1      -3.765   7.872   0.915  1.00  0.00     0.066 A 
ATOM      8  C   UNL     1      -4.674   7.381   1.863  1.00  0.00     0.029 A 
ATOM      9  C   UNL     1      -4.153   8.857  -0.004  1.00  0.00     0.029 A 
ATOM     10  C   UNL     1      -5.918   7.984   1.986  1.00  0.00     0.018 A 
ATOM     11  C   UNL     1      -5.431   9.416   0.082  1.00  0.00     0.018 A 
BRANCH   7  12
ATOM     12  N   UNL     1      -2.425   7.437   0.993  1.00  0.00    -0.220 N 
ATOM     13  C   UNL     1      -0.250   7.380   1.162  1.00  0.00     0.120 A 
ATOM     14  C   UNL     1      -1.287   8.140   0.661  1.00  0.00     0.144 A 
ATOM     15  N   UNL     1      -0.774   6.256   1.740  1.00  0.00    -0.131 NA
ATOM     16  N   UNL     1      -2.088   6.301   1.640  1.00  0.00    -0.062 NA
BRANCH  13  17
ATOM     17  C   UNL     1       1.211   7.670   1.266  1.00  0.00     0.289 C 
BRANCH  17  18
ATOM     18  O   UNL     1       2.044   7.008   0.300  1.00  0.00    -0.487 OA
BRANCH  18  19
ATOM     19  C   UNL     1       2.146   5.644   0.363  1.00  0.00     0.119 A 
ATOM     20  C   UNL     1       2.180   2.844   0.128  1.00  0.00    -0.024 A 
ATOM     21  C   UNL     1       2.689   3.641  -0.899  1.00  0.00     0.012 A 
ATOM     22  C   UNL     1       1.742   3.453   1.306  1.00  0.00     0.012 A 
ATOM     23  C   UNL     1       2.666   5.036  -0.781  1.00  0.00     0.047 A 
ATOM     24  C   UNL     1       1.754   4.843   1.433  1.00  0.00     0.047 A 
BRANCH  20  25
ATOM     25  C   UNL     1       2.119   1.387  -0.013  1.00  0.00     0.029 C 
ATOM     26  O   UNL     1      -2.448  -0.735   0.129  1.00  0.00    -0.261 OA
ATOM     27  C   UNL     1      -1.263  -0.442   0.015  1.00  0.00     0.290 C 
ATOM     28  N   UNL     1      -0.240  -1.323  -0.081  1.00  0.00    -0.282 N 
ATOM     29  S   UNL     1      -0.642   1.194   0.020  1.00  0.00    -0.022 SA
ATOM     30  C   UNL     1       1.032  -0.831  -0.090  1.00  0.00     0.265 C 
ATOM     31  H   UNL     1      -0.409  -2.291  -0.141  1.00  0.00     0.174 HD
ATOM     32  C   UNL     1       0.996   0.655  -0.037  1.00  0.00     0.083 C 
ATOM     33  O   UNL     1       2.044  -1.512  -0.091  1.00  0.00    -0.268 OA
ENDBRANCH  20  25
ENDBRANCH  18  19
ENDBRANCH  17  18
ENDBRANCH  13  17
ENDBRANCH   7  12
ENDBRANCH   4   6
ENDBRANCH   3   4
ENDBRANCH   2   3
ENDBRANCH   1   2
BRANCH   1  34
ATOM     34  O   UNL     1     -10.620   8.116   1.087  1.00  0.00    -0.374 OA
BRANCH  34  35
ATOM     35  C   UNL     1      -9.575   7.158   0.953  1.00  0.00     0.202 C 
BRANCH  35  36
ATOM     36  C   UNL     1      -9.469   6.330  -0.319  1.00  0.00     0.261 C 
BRANCH  36  37
ATOM     37  O   UNL     1      -9.360   7.145  -1.471  1.00  0.00    -0.460 OA
BRANCH  37  38
ATOM     38  C   UNL     1     -10.529   7.287  -2.139  1.00  0.00     0.338 C 
ATOM     39  O   UNL     1     -11.649   7.045  -1.723  1.00  0.00    -0.246 OA
BRANCH  38  40
ATOM     40  C   UNL     1     -10.225   7.651  -3.523  1.00  0.00     0.060 A 
ATOM     41  C   UNL     1     -11.310   7.601  -4.398  1.00  0.00     0.016 A 
ATOM     42  C   UNL     1      -8.896   7.582  -3.961  1.00  0.00     0.016 A 
ATOM     43  C   UNL     1     -11.074   7.147  -5.670  1.00  0.00     0.010 A 
ATOM     44  C   UNL     1      -8.666   7.101  -5.221  1.00  0.00     0.010 A 
ATOM     45  C   UNL     1      -9.766   6.788  -6.017  1.00  0.00    -0.014 A 
BRANCH  45  46
ATOM     46  C   UNL     1      -9.527   6.249  -7.335  1.00  0.00     0.031 A 
ATOM     47  C   UNL     1      -9.620   7.330  -8.340  1.00  0.00     0.074 A 
ATOM     48  C   UNL     1      -9.153   4.973  -7.549  1.00  0.00     0.049 A 
ATOM     49  N   UNL     1     -10.615   7.574  -9.125  1.00  0.00    -0.248 NA
ATOM     50  C   UNL     1      -8.662   8.449  -8.230  1.00  0.00     0.031 C 
ATOM     51  C   UNL     1      -8.842   3.931  -6.568  1.00  0.00     0.029 A 
ATOM     52  N   UNL     1      -8.888   4.353  -8.729  1.00  0.00    -0.354 N 
ATOM     53  C   UNL     1     -10.234   8.708  -9.830  1.00  0.00     0.074 A 
ATOM     54  C   UNL     1      -9.243   9.350  -9.021  1.00  0.00     0.031 C 
ATOM     55  C   UNL     1      -8.214   2.901  -7.187  1.00  0.00     0.029 A 
ATOM     56  C   UNL     1      -8.187   3.150  -8.620  1.00  0.00     0.049 A 
ATOM     57  H   UNL     1      -9.169   4.724  -9.596  1.00  0.00     0.167 HD
ATOM     58  C   UNL     1     -10.470   8.788 -11.168  1.00  0.00     0.034 A 
ATOM     59  C   UNL     1      -7.579   2.475  -9.641  1.00  0.00     0.034 A 
ATOM     60  C   UNL     1     -11.508   7.846 -11.549  1.00  0.00     0.049 A 
ATOM     61  C   UNL     1      -8.226   2.953 -10.895  1.00  0.00     0.074 A 
ATOM     62  C   UNL     1     -12.817   7.642 -11.151  1.00  0.00     0.029 A 
ATOM     63  N   UNL     1     -11.120   6.669 -12.157  1.00  0.00    -0.354 N 
ATOM     64  N   UNL     1      -9.483   2.723 -11.171  1.00  0.00    -0.248 NA
ATOM     65  C   UNL     1      -7.659   4.129 -11.543  1.00  0.00     0.031 C 
ATOM     66  C   UNL     1     -12.971   6.224 -11.095  1.00  0.00     0.029 A 
ATOM     67  C   UNL     1     -11.797   5.631 -11.564  1.00  0.00     0.049 A 
ATOM     68  H   UNL     1     -10.469   6.587 -12.890  1.00  0.00     0.167 HD
ATOM     69  C   UNL     1      -9.975   3.929 -11.651  1.00  0.00     0.074 A 
ATOM     70  C   UNL     1      -8.787   4.740 -11.922  1.00  0.00     0.031 C 
ATOM     71  C   UNL     1     -11.289   4.272 -11.487  1.00  0.00     0.034 A 
BRANCH  58  72
ATOM     72  C   UNL     1      -9.455   9.329 -12.161  1.00  0.00     0.023 A 
ATOM     73  C   UNL     1      -9.786   9.176 -13.518  1.00  0.00     0.031 A 
ATOM     74  C   UNL     1      -8.109   9.688 -11.904  1.00  0.00     0.131 A 
ATOM     75  C   UNL     1      -8.794   9.197 -14.510  1.00  0.00     0.055 A 
ATOM     76  C   UNL     1      -7.136   9.764 -12.903  1.00  0.00     0.041 A 
ATOM     77  F   UNL     1      -7.623   9.930 -10.684  1.00  0.00    -0.206 F 
ATOM     78  C   UNL     1      -7.466   9.475 -14.212  1.00  0.00     0.022 A 
BRANCH  75  79
ATOM     79  S   UNL     1      -9.256   8.654 -16.170  1.00  0.00     0.124 S 
ATOM     80  O   UNL     1      -9.830   7.343 -15.891  1.00  0.00    -0.237 OA
ATOM     81  O   UNL     1     -10.193   9.698 -16.572  1.00  0.00    -0.237 OA
ATOM     82  O   UNL     1      -7.983   8.645 -16.886  1.00  0.00    -0.744 OA
ENDBRANCH  75  79
ENDBRANCH  58  72
BRANCH  59  83
ATOM     83  C   UNL     1      -6.245   1.789  -9.618  1.00  0.00     0.023 A 
ATOM     84  C   UNL     1      -5.810   0.867 -10.606  1.00  0.00     0.031 A 
ATOM     85  C   UNL     1      -5.256   2.244  -8.716  1.00  0.00     0.131 A 
ATOM     86  C   UNL     1      -4.453   0.447 -10.652  1.00  0.00     0.055 A 
ATOM     87  C   UNL     1      -3.921   1.831  -8.771  1.00  0.00     0.041 A 
ATOM     88  F   UNL     1      -5.532   3.180  -7.796  1.00  0.00    -0.206 F 
ATOM     89  C   UNL     1      -3.512   0.938  -9.745  1.00  0.00     0.022 A 
BRANCH  86  90
ATOM     90  S   UNL     1      -3.851  -0.706 -11.939  1.00  0.00     0.124 S 
ATOM     91  O   UNL     1      -4.547  -1.942 -11.603  1.00  0.00    -0.237 OA
ATOM     92  O   UNL     1      -4.259  -0.045 -13.173  1.00  0.00    -0.237 OA
ATOM     93  O   UNL     1      -2.404  -0.743 -11.719  1.00  0.00    -0.744 OA
ENDBRANCH  86  90
ENDBRANCH  59  83
BRANCH  71  94
ATOM     94  C   UNL     1     -12.265   3.200 -11.035  1.00  0.00     0.023 A 
ATOM     95  C   UNL     1     -12.185   2.465  -9.827  1.00  0.00     0.031 A 
ATOM     96  C   UNL     1     -13.402   3.007 -11.838  1.00  0.00     0.131 A 
ATOM     97  C   UNL     1     -13.222   1.572  -9.476  1.00  0.00     0.055 A 
ATOM     98  C   UNL     1     -14.434   2.145 -11.475  1.00  0.00     0.041 A 
ATOM     99  F   UNL     1     -13.548   3.691 -12.985  1.00  0.00    -0.206 F 
ATOM    100  C   UNL     1     -14.345   1.419 -10.295  1.00  0.00     0.022 A 
BRANCH  97 101
ATOM    101  S   UNL     1     -13.124   0.565  -7.957  1.00  0.00     0.124 S 
ATOM    102  O   UNL     1     -11.778   0.007  -8.006  1.00  0.00    -0.237 OA
ATOM    103  O   UNL     1     -13.371   1.551  -6.909  1.00  0.00    -0.237 OA
ATOM    104  O   UNL     1     -14.197  -0.417  -8.130  1.00  0.00    -0.744 OA
ENDBRANCH  97 101
ENDBRANCH  71  94
ENDBRANCH  45  46
ENDBRANCH  38  40
ENDBRANCH  37  38
ENDBRANCH  36  37
ENDBRANCH  35  36
ENDBRANCH  34  35
ENDBRANCH   1  34
TORSDOF 22
