REMARK SMILES O=C(OCCOCCOC(=O)[C@H]1CS[C@H](c2nc3ccccc3s2)[NH2+]1)c1ccc(-c2c3nc(c(-c4cc(S(=O)(=O)[O-])ccc4F)c4ccc([nH]4)c(-c4cc(S(=O)(=O)[O-])ccc4F)c4nc(c(-c5cc(S(=O)(=O)[O-])ccc5F)c5ccc2[nH]5)C=C4)C=C3)cc1
REMARK SMILES IDX 5 1 4 2 3 3 2 4 1 5 26 6 27 7 88 8 28 9 87 10 29 11 30 12
REMARK SMILES IDX 31 13 81 14 32 15 86 16 80 17 82 18 33 19 85 20 79 21 78 22
REMARK SMILES IDX 34 24 66 25 46 26 65 27 47 28 50 29 64 30 83 31 48 32 49 33
REMARK SMILES IDX 63 35 84 36 51 37 35 38 36 39 44 40 37 41 43 42 45 43 42 44
REMARK SMILES IDX 38 45 39 46 40 47 41 48 67 49 68 50 76 51 69 52 75 53 77 54
REMARK SMILES IDX 74 55 70 56 71 57 72 58 73 59 52 60 53 61 61 62 54 63 60 64
REMARK SMILES IDX 62 65 59 66 55 67 56 68 57 69 58 70 6 71 7 72 8 73 9 74
REMARK SMILES IDX 10 75 11 76 12 77 13 78 25 79 14 80 15 81 16 84 17 85 24 86
REMARK SMILES IDX 18 87 23 88 19 89 22 90 20 91 21 92
REMARK H PARENT 82 23 50 34 25 82 25 83
REMARK Flexibility Score: inf
ROOT
ATOM      1  C   UNL     1       4.354   1.254  -1.173  1.00  0.00     0.202 C 
ENDROOT
BRANCH   1   2
ATOM      2  C   UNL     1       4.037  -0.227  -1.433  1.00  0.00     0.261 C 
BRANCH   2   3
ATOM      3  O   UNL     1       2.653  -0.516  -1.159  1.00  0.00    -0.460 OA
BRANCH   3   4
ATOM      4  C   UNL     1       2.132  -1.186  -0.102  1.00  0.00     0.338 C 
ATOM      5  O   UNL     1       0.925  -1.419  -0.088  1.00  0.00    -0.246 OA
BRANCH   4   6
ATOM      6  C   UNL     1       2.952  -1.629   1.066  1.00  0.00     0.060 A 
ATOM      7  C   UNL     1       4.150  -1.029   1.452  1.00  0.00     0.016 A 
ATOM      8  C   UNL     1       2.443  -2.661   1.873  1.00  0.00     0.016 A 
ATOM      9  C   UNL     1       4.887  -1.504   2.519  1.00  0.00     0.010 A 
ATOM     10  C   UNL     1       3.144  -3.098   3.004  1.00  0.00     0.010 A 
ATOM     11  C   UNL     1       4.385  -2.532   3.310  1.00  0.00    -0.014 A 
BRANCH  11  12
ATOM     12  C   UNL     1       5.266  -3.019   4.387  1.00  0.00     0.031 A 
ATOM     13  C   UNL     1       5.991  -4.312   4.183  1.00  0.00     0.074 A 
ATOM     14  C   UNL     1       5.558  -2.188   5.406  1.00  0.00     0.049 A 
ATOM     15  N   UNL     1       6.863  -4.900   4.954  1.00  0.00    -0.248 NA
ATOM     16  C   UNL     1       5.712  -5.028   2.927  1.00  0.00     0.031 C 
ATOM     17  C   UNL     1       4.985  -0.848   5.584  1.00  0.00     0.029 A 
ATOM     18  N   UNL     1       6.443  -2.308   6.441  1.00  0.00    -0.354 N 
ATOM     19  C   UNL     1       7.238  -6.056   4.280  1.00  0.00     0.074 A 
ATOM     20  C   UNL     1       6.475  -6.101   3.052  1.00  0.00     0.031 C 
ATOM     21  C   UNL     1       5.567  -0.258   6.639  1.00  0.00     0.029 A 
ATOM     22  C   UNL     1       6.487  -1.202   7.260  1.00  0.00     0.049 A 
ATOM     23  H   UNL     1       6.996  -3.109   6.588  1.00  0.00     0.167 HD
ATOM     24  C   UNL     1       8.142  -6.989   4.662  1.00  0.00     0.034 A 
ATOM     25  C   UNL     1       7.170  -0.999   8.403  1.00  0.00     0.034 A 
ATOM     26  C   UNL     1       8.854  -6.915   5.913  1.00  0.00     0.049 A 
ATOM     27  C   UNL     1       8.074  -2.113   8.869  1.00  0.00     0.074 A 
ATOM     28  C   UNL     1       9.694  -7.846   6.493  1.00  0.00     0.029 A 
ATOM     29  N   UNL     1       8.802  -5.829   6.782  1.00  0.00    -0.354 N 
ATOM     30  N   UNL     1       8.343  -3.258   8.279  1.00  0.00    -0.248 NA
ATOM     31  C   UNL     1       8.762  -1.916  10.148  1.00  0.00     0.031 C 
ATOM     32  C   UNL     1      10.104  -7.346   7.736  1.00  0.00     0.029 A 
ATOM     33  C   UNL     1       9.581  -6.072   7.900  1.00  0.00     0.049 A 
ATOM     34  H   UNL     1       8.285  -5.005   6.624  1.00  0.00     0.167 HD
ATOM     35  C   UNL     1       9.239  -3.915   9.113  1.00  0.00     0.074 A 
ATOM     36  C   UNL     1       9.494  -3.017  10.225  1.00  0.00     0.031 C 
ATOM     37  C   UNL     1       9.794  -5.149   8.991  1.00  0.00     0.034 A 
BRANCH  24  38
ATOM     38  C   UNL     1       8.309  -8.183   3.755  1.00  0.00     0.023 A 
ATOM     39  C   UNL     1       8.829  -8.058   2.454  1.00  0.00     0.031 A 
ATOM     40  C   UNL     1       7.843  -9.446   4.159  1.00  0.00     0.131 A 
ATOM     41  C   UNL     1       8.795  -9.155   1.578  1.00  0.00     0.055 A 
ATOM     42  C   UNL     1       7.885 -10.553   3.309  1.00  0.00     0.041 A 
ATOM     43  F   UNL     1       7.303  -9.618   5.376  1.00  0.00    -0.206 F 
ATOM     44  C   UNL     1       8.348 -10.408   2.004  1.00  0.00     0.022 A 
BRANCH  41  45
ATOM     45  S   UNL     1       9.194  -8.884  -0.172  1.00  0.00     0.124 S 
ATOM     46  O   UNL     1       8.162  -7.927  -0.565  1.00  0.00    -0.237 OA
ATOM     47  O   UNL     1      10.556  -8.366  -0.111  1.00  0.00    -0.237 OA
ATOM     48  O   UNL     1       9.059 -10.214  -0.764  1.00  0.00    -0.744 OA
ENDBRANCH  41  45
ENDBRANCH  24  38
BRANCH  25  49
ATOM     49  C   UNL     1       6.962   0.238   9.216  1.00  0.00     0.023 A 
ATOM     50  C   UNL     1       8.025   1.084   9.569  1.00  0.00     0.031 A 
ATOM     51  C   UNL     1       5.684   0.555   9.719  1.00  0.00     0.131 A 
ATOM     52  C   UNL     1       7.802   2.168  10.436  1.00  0.00     0.055 A 
ATOM     53  C   UNL     1       5.455   1.672  10.524  1.00  0.00     0.041 A 
ATOM     54  F   UNL     1       4.626  -0.220   9.430  1.00  0.00    -0.206 F 
ATOM     55  C   UNL     1       6.523   2.476  10.902  1.00  0.00     0.022 A 
BRANCH  52  56
ATOM     56  S   UNL     1       9.232   3.103  11.050  1.00  0.00     0.124 S 
ATOM     57  O   UNL     1      10.069   2.042  11.598  1.00  0.00    -0.237 OA
ATOM     58  O   UNL     1       9.720   3.743   9.833  1.00  0.00    -0.237 OA
ATOM     59  O   UNL     1       8.647   4.009  12.037  1.00  0.00    -0.744 OA
ENDBRANCH  52  56
ENDBRANCH  25  49
BRANCH  37  60
ATOM     60  C   UNL     1      10.746  -5.561  10.083  1.00  0.00     0.023 A 
ATOM     61  C   UNL     1      10.300  -5.781  11.397  1.00  0.00     0.031 A 
ATOM     62  C   UNL     1      12.117  -5.706   9.810  1.00  0.00     0.131 A 
ATOM     63  C   UNL     1      11.228  -6.066  12.407  1.00  0.00     0.055 A 
ATOM     64  C   UNL     1      13.027  -6.057  10.807  1.00  0.00     0.041 A 
ATOM     65  F   UNL     1      12.592  -5.506   8.570  1.00  0.00    -0.206 F 
ATOM     66  C   UNL     1      12.586  -6.222  12.117  1.00  0.00     0.022 A 
BRANCH  63  67
ATOM     67  S   UNL     1      10.649  -6.119  14.124  1.00  0.00     0.124 S 
ATOM     68  O   UNL     1      10.070  -4.790  14.290  1.00  0.00    -0.237 OA
ATOM     69  O   UNL     1       9.702  -7.228  14.099  1.00  0.00    -0.237 OA
ATOM     70  O   UNL     1      11.870  -6.363  14.889  1.00  0.00    -0.744 OA
ENDBRANCH  63  67
ENDBRANCH  37  60
ENDBRANCH  11  12
ENDBRANCH   4   6
ENDBRANCH   3   4
ENDBRANCH   2   3
ENDBRANCH   1   2
BRANCH   1  71
ATOM     71  O   UNL     1       4.020   1.775   0.119  1.00  0.00    -0.374 OA
BRANCH  71  72
ATOM     72  C   UNL     1       2.627   1.996   0.375  1.00  0.00     0.202 C 
BRANCH  72  73
ATOM     73  C   UNL     1       2.428   3.338   1.086  1.00  0.00     0.261 C 
BRANCH  73  74
ATOM     74  O   UNL     1       2.741   4.375   0.145  1.00  0.00    -0.459 OA
BRANCH  74  75
ATOM     75  C   UNL     1       4.071   4.667   0.105  1.00  0.00     0.365 C 
ATOM     76  O   UNL     1       4.828   4.694   1.069  1.00  0.00    -0.245 OA
BRANCH  75  77
ATOM     77  C   UNL     1       4.519   4.812  -1.349  1.00  0.00     0.304 C 
ATOM     78  C   UNL     1       4.127   6.172  -1.897  1.00  0.00     0.153 C 
ATOM     79  N   UNL     1       5.983   4.530  -1.442  1.00  0.00    -0.317 N 
ATOM     80  S   UNL     1       5.631   7.130  -1.705  1.00  0.00    -0.085 SA
ATOM     81  C   UNL     1       6.665   5.672  -2.064  1.00  0.00     0.303 C 
ATOM     82  H   UNL     1       6.132   3.695  -2.009  1.00  0.00     0.348 HD
ATOM     83  H   UNL     1       6.360   4.379  -0.506  1.00  0.00     0.348 HD
BRANCH  81  84
ATOM     84  C   UNL     1       6.868   5.504  -3.569  1.00  0.00     0.163 A 
ATOM     85  N   UNL     1       7.057   6.507  -4.407  1.00  0.00    -0.234 NA
ATOM     86  S   UNL     1       6.882   3.942  -4.311  1.00  0.00    -0.112 S 
ATOM     87  C   UNL     1       7.131   6.049  -5.706  1.00  0.00     0.082 A 
ATOM     88  C   UNL     1       7.038   4.667  -5.861  1.00  0.00     0.055 A 
ATOM     89  C   UNL     1       7.276   6.856  -6.850  1.00  0.00     0.030 A 
ATOM     90  C   UNL     1       7.075   4.061  -7.128  1.00  0.00     0.021 A 
ATOM     91  C   UNL     1       7.309   6.266  -8.116  1.00  0.00     0.002 A 
ATOM     92  C   UNL     1       7.207   4.884  -8.251  1.00  0.00     0.002 A 
ENDBRANCH  81  84
ENDBRANCH  75  77
ENDBRANCH  74  75
ENDBRANCH  73  74
ENDBRANCH  72  73
ENDBRANCH  71  72
ENDBRANCH   1  71
TORSDOF 18
