REMARK SMILES COc1cc2ccccc2cc1C(=O)Nc1cc(C(=O)OCCOCCOC(=O)c2ccc(-c3c4nc(c(-c5cc(S(=O)(=O)[O-])ccc5F)c5ccc([nH]5)c(-c5cc(S(=O)(=O)[O-])ccc5F)c5nc(c(-c6cc(S(=O)(=O)[O-])ccc6F)c6ccc3[nH]6)C=C5)C=C4)cc2)ccc1C
REMARK SMILES IDX 24 1 23 2 22 3 21 4 19 5 20 6 18 7 16 8 17 9 95 10 94 11
REMARK SMILES IDX 96 12 93 13 15 14 13 15 14 16 12 18 3 19 4 20 5 21 11 22
REMARK SMILES IDX 6 23 10 24 7 25 9 26 8 27 2 28 1 29 25 30 26 31 27 32 28 33
REMARK SMILES IDX 29 34 30 35 31 36 92 37 32 38 91 39 33 40 34 41 35 42 85 43
REMARK SMILES IDX 36 44 90 45 84 46 86 47 37 48 89 49 83 50 82 51 38 53 70 54
REMARK SMILES IDX 50 55 69 56 51 57 54 58 68 59 87 60 52 61 53 62 67 64 88 65
REMARK SMILES IDX 55 66 39 67 40 68 48 69 41 70 47 71 49 72 46 73 42 74 43 75
REMARK SMILES IDX 44 76 45 77 71 78 72 79 80 80 73 81 79 82 81 83 78 84 74 85
REMARK SMILES IDX 75 86 76 87 77 88 56 89 57 90 65 91 58 92 64 93 66 94 63 95
REMARK SMILES IDX 59 96 60 97 61 98 62 99
REMARK H PARENT 15 17 86 52 54 63
REMARK Flexibility Score: inf
ROOT
ATOM      1  O   UNL     1      -1.622   4.006   4.365  1.00  0.00    -0.374 OA
ENDROOT
BRANCH   1   2
ATOM      2  C   UNL     1      -0.370   3.585   4.902  1.00  0.00     0.202 C 
BRANCH   2   3
ATOM      3  C   UNL     1      -0.281   2.179   4.446  1.00  0.00     0.261 C 
BRANCH   3   4
ATOM      4  O   UNL     1      -0.075   2.207   3.048  1.00  0.00    -0.460 OA
BRANCH   4   5
ATOM      5  C   UNL     1      -1.101   2.082   2.187  1.00  0.00     0.338 C 
ATOM      6  O   UNL     1      -2.303   2.174   2.341  1.00  0.00    -0.246 OA
BRANCH   5   7
ATOM      7  C   UNL     1      -0.397   1.819   0.932  1.00  0.00     0.062 A 
ATOM      8  C   UNL     1       1.602   0.979  -0.125  1.00  0.00     0.045 A 
ATOM      9  C   UNL     1       0.821   1.123   0.991  1.00  0.00     0.042 A 
ATOM     10  C   UNL     1       1.238   1.687  -1.283  1.00  0.00    -0.027 A 
ATOM     11  C   UNL     1      -0.038   2.298  -1.358  1.00  0.00     0.006 A 
ATOM     12  C   UNL     1       2.101   1.742  -2.504  1.00  0.00     0.046 C 
ATOM     13  C   UNL     1      -0.883   2.332  -0.257  1.00  0.00     0.016 A 
BRANCH   8  14
ATOM     14  N   UNL     1       2.736   0.157  -0.059  1.00  0.00    -0.322 N 
ATOM     15  C   UNL     1       2.952  -1.079   0.549  1.00  0.00     0.259 C 
ATOM     16  O   UNL     1       4.124  -1.480   0.555  1.00  0.00    -0.269 OA
ATOM     17  H   UNL     1       3.523   0.518  -0.527  1.00  0.00     0.170 HD
BRANCH  15  18
ATOM     18  C   UNL     1       1.891  -1.995   1.142  1.00  0.00     0.082 A 
ATOM     19  C   UNL     1       0.518  -2.055   0.773  1.00  0.00     0.132 A 
ATOM     20  C   UNL     1      -0.488  -2.603   1.613  1.00  0.00     0.056 A 
ATOM     21  C   UNL     1      -0.221  -2.993   2.939  1.00  0.00    -0.015 A 
ATOM     22  C   UNL     1       2.372  -2.789   2.227  1.00  0.00     0.026 A 
ATOM     23  C   UNL     1      -1.405  -3.248   4.380  1.00  0.00     0.009 A 
ATOM     24  C   UNL     1       1.513  -3.301   3.207  1.00  0.00    -0.017 A 
ATOM     25  C   UNL     1      -0.807  -3.831   5.994  1.00  0.00     0.001 A 
ATOM     26  C   UNL     1       2.069  -3.954   4.794  1.00  0.00     0.009 A 
ATOM     27  C   UNL     1       0.946  -4.174   6.197  1.00  0.00     0.001 A 
BRANCH  19  28
ATOM     28  O   UNL     1      -0.060  -1.384  -0.281  1.00  0.00    -0.496 OA
ATOM     29  C   UNL     1       0.467  -1.658  -1.564  1.00  0.00     0.278 C 
ENDBRANCH  19  28
ENDBRANCH  15  18
ENDBRANCH   8  14
ENDBRANCH   5   7
ENDBRANCH   4   5
ENDBRANCH   3   4
ENDBRANCH   2   3
ENDBRANCH   1   2
BRANCH   1  30
ATOM     30  C   UNL     1      -1.620   5.278   3.769  1.00  0.00     0.202 C 
BRANCH  30  31
ATOM     31  C   UNL     1      -1.447   6.314   4.875  1.00  0.00     0.261 C 
BRANCH  31  32
ATOM     32  O   UNL     1      -2.458   6.088   5.898  1.00  0.00    -0.460 OA
BRANCH  32  33
ATOM     33  C   UNL     1      -2.060   5.347   6.979  1.00  0.00     0.338 C 
ATOM     34  O   UNL     1      -1.089   5.605   7.673  1.00  0.00    -0.246 OA
BRANCH  33  35
ATOM     35  C   UNL     1      -2.828   4.053   7.080  1.00  0.00     0.060 A 
ATOM     36  C   UNL     1      -2.332   3.008   7.890  1.00  0.00     0.016 A 
ATOM     37  C   UNL     1      -3.760   3.759   6.090  1.00  0.00     0.016 A 
ATOM     38  C   UNL     1      -2.631   1.665   7.592  1.00  0.00     0.010 A 
ATOM     39  C   UNL     1      -3.933   2.434   5.717  1.00  0.00     0.010 A 
ATOM     40  C   UNL     1      -3.373   1.369   6.450  1.00  0.00    -0.014 A 
BRANCH  40  41
ATOM     41  C   UNL     1      -3.465   0.020   5.850  1.00  0.00     0.031 A 
ATOM     42  C   UNL     1      -4.721  -0.477   5.220  1.00  0.00     0.074 A 
ATOM     43  C   UNL     1      -2.354  -0.510   5.306  1.00  0.00     0.049 A 
ATOM     44  N   UNL     1      -4.858  -1.554   4.509  1.00  0.00    -0.248 NA
ATOM     45  C   UNL     1      -5.967   0.226   5.457  1.00  0.00     0.031 C 
ATOM     46  C   UNL     1      -2.190  -0.500   3.854  1.00  0.00     0.029 A 
ATOM     47  N   UNL     1      -1.067  -0.704   5.786  1.00  0.00    -0.354 N 
ATOM     48  C   UNL     1      -6.171  -1.614   4.075  1.00  0.00     0.074 A 
ATOM     49  C   UNL     1      -6.811  -0.498   4.730  1.00  0.00     0.031 C 
ATOM     50  C   UNL     1      -0.888  -0.683   3.614  1.00  0.00     0.029 A 
ATOM     51  C   UNL     1      -0.181  -1.201   4.779  1.00  0.00     0.049 A 
ATOM     52  H   UNL     1      -0.794  -0.521   6.714  1.00  0.00     0.167 HD
ATOM     53  C   UNL     1      -6.587  -2.556   3.175  1.00  0.00     0.034 A 
ATOM     54  C   UNL     1       0.471  -2.501   4.929  1.00  0.00     0.034 A 
ATOM     55  C   UNL     1      -5.473  -3.441   2.739  1.00  0.00     0.049 A 
ATOM     56  C   UNL     1       0.128  -4.536   4.279  1.00  0.00     0.074 A 
ATOM     57  C   UNL     1      -4.737  -3.534   1.569  1.00  0.00     0.029 A 
ATOM     58  N   UNL     1      -4.830  -4.297   3.638  1.00  0.00    -0.354 N 
ATOM     59  N   UNL     1      -0.761  -5.042   3.271  1.00  0.00    -0.248 NA
ATOM     60  C   UNL     1       0.439  -6.053   4.861  1.00  0.00     0.031 C 
ATOM     61  C   UNL     1      -3.658  -4.452   1.776  1.00  0.00     0.029 A 
ATOM     62  C   UNL     1      -3.730  -4.960   3.063  1.00  0.00     0.049 A 
ATOM     63  H   UNL     1      -5.116  -4.423   4.572  1.00  0.00     0.167 HD
ATOM     64  C   UNL     1      -1.578  -6.022   3.803  1.00  0.00     0.074 A 
ATOM     65  C   UNL     1      -0.621  -6.810   4.528  1.00  0.00     0.031 C 
ATOM     66  C   UNL     1      -2.969  -5.976   3.836  1.00  0.00     0.034 A 
BRANCH  53  67
ATOM     67  C   UNL     1      -7.992  -2.598   2.517  1.00  0.00     0.023 A 
ATOM     68  C   UNL     1      -8.219  -3.497   1.451  1.00  0.00     0.031 A 
ATOM     69  C   UNL     1      -9.132  -1.813   2.837  1.00  0.00     0.131 A 
ATOM     70  C   UNL     1      -9.450  -3.534   0.746  1.00  0.00     0.055 A 
ATOM     71  C   UNL     1     -10.338  -1.822   2.117  1.00  0.00     0.041 A 
ATOM     72  F   UNL     1      -9.212  -1.023   3.905  1.00  0.00    -0.206 F 
ATOM     73  C   UNL     1     -10.504  -2.684   1.059  1.00  0.00     0.022 A 
BRANCH  70  74
ATOM     74  S   UNL     1      -9.671  -4.714  -0.612  1.00  0.00     0.124 S 
ATOM     75  O   UNL     1      -8.638  -4.293  -1.552  1.00  0.00    -0.237 OA
ATOM     76  O   UNL     1      -9.467  -5.994   0.055  1.00  0.00    -0.237 OA
ATOM     77  O   UNL     1     -11.043  -4.467  -1.059  1.00  0.00    -0.744 OA
ENDBRANCH  70  74
ENDBRANCH  53  67
BRANCH  54  78
ATOM     78  C   UNL     1       1.590  -1.746   5.999  1.00  0.00     0.023 A 
ATOM     79  C   UNL     1       2.502  -0.832   5.383  1.00  0.00     0.031 A 
ATOM     80  C   UNL     1       1.183  -1.418   7.326  1.00  0.00     0.131 A 
ATOM     81  C   UNL     1       2.748   0.432   5.960  1.00  0.00     0.055 A 
ATOM     82  C   UNL     1       1.433  -0.154   7.885  1.00  0.00     0.041 A 
ATOM     83  F   UNL     1       0.321  -2.192   8.005  1.00  0.00    -0.206 F 
ATOM     84  C   UNL     1       2.164   0.793   7.178  1.00  0.00     0.022 A 
BRANCH  81  85
ATOM     85  S   UNL     1       3.538   1.749   4.965  1.00  0.00     0.124 S 
ATOM     86  O   UNL     1       4.937   1.622   5.353  1.00  0.00    -0.237 OA
ATOM     87  O   UNL     1       3.213   1.367   3.595  1.00  0.00    -0.237 OA
ATOM     88  O   UNL     1       2.863   2.961   5.433  1.00  0.00    -0.744 OA
ENDBRANCH  81  85
ENDBRANCH  54  78
BRANCH  66  89
ATOM     89  C   UNL     1      -3.753  -6.950   4.697  1.00  0.00     0.023 A 
ATOM     90  C   UNL     1      -3.204  -7.519   5.849  1.00  0.00     0.031 A 
ATOM     91  C   UNL     1      -5.066  -7.357   4.374  1.00  0.00     0.131 A 
ATOM     92  C   UNL     1      -3.794  -8.642   6.436  1.00  0.00     0.055 A 
ATOM     93  C   UNL     1      -5.737  -8.361   5.080  1.00  0.00     0.041 A 
ATOM     94  F   UNL     1      -5.738  -6.814   3.349  1.00  0.00    -0.206 F 
ATOM     95  C   UNL     1      -5.070  -9.061   6.076  1.00  0.00     0.022 A 
BRANCH  92  96
ATOM     96  S   UNL     1      -2.721  -9.675   7.465  1.00  0.00     0.124 S 
ATOM     97  O   UNL     1      -1.641  -9.998   6.535  1.00  0.00    -0.237 OA
ATOM     98  O   UNL     1      -2.364  -8.773   8.555  1.00  0.00    -0.237 OA
ATOM     99  O   UNL     1      -3.577 -10.799   7.834  1.00  0.00    -0.744 OA
ENDBRANCH  92  96
ENDBRANCH  66  89
ENDBRANCH  40  41
ENDBRANCH  33  35
ENDBRANCH  32  33
ENDBRANCH  31  32
ENDBRANCH  30  31
ENDBRANCH   1  30
TORSDOF 20
