REMARK SMILES C[C@H]([NH2+][C@@H](C)Cc1cccs1)[C@@H](C)C(=O)OCCOCCOC(=O)c1ccc(-c2c3nc(c(-c4cc(S(=O)(=O)[O-])ccc4F)c4ccc([nH]4)c(-c4cc(S(=O)(=O)[O-])ccc4F)c4nc(c(-c5cc(S(=O)(=O)[O-])ccc5F)c5ccc2[nH]5)C=C4)C=C3)cc1
REMARK SMILES IDX 18 1 17 2 16 3 14 4 15 5 12 6 13 7 2 8 1 9 3 10 4 13 5 14
REMARK SMILES IDX 6 15 7 16 8 17 11 18 9 19 10 20 19 21 20 22 21 23 22 24
REMARK SMILES IDX 23 25 24 26 25 27 26 28 87 29 27 30 86 31 28 32 29 33 30 34
REMARK SMILES IDX 80 35 31 36 85 37 79 38 81 39 32 40 84 41 78 42 77 43 33 45
REMARK SMILES IDX 65 46 45 47 64 48 46 49 49 50 63 51 82 52 47 53 48 54 62 56
REMARK SMILES IDX 83 57 50 58 34 59 35 60 43 61 36 62 42 63 44 64 41 65 37 66
REMARK SMILES IDX 38 67 39 68 40 69 66 70 67 71 75 72 68 73 74 74 76 75 73 76
REMARK SMILES IDX 69 77 70 78 71 79 72 80 51 81 52 82 60 83 53 84 59 85 61 86
REMARK SMILES IDX 58 87 54 88 55 89 56 90 57 91
REMARK H PARENT 3 11 3 12 81 44 49 55
REMARK Flexibility Score: inf
ROOT
ATOM      1  C   UNL     1      -2.310   3.305  -4.567  1.00  0.00     0.202 C 
ENDROOT
BRANCH   1   2
ATOM      2  C   UNL     1      -2.597   3.350  -3.060  1.00  0.00     0.261 C 
BRANCH   2   3
ATOM      3  O   UNL     1      -1.692   2.577  -2.242  1.00  0.00    -0.463 OA
BRANCH   3   4
ATOM      4  C   UNL     1      -2.243   1.506  -1.604  1.00  0.00     0.314 C 
ATOM      5  O   UNL     1      -3.382   1.091  -1.794  1.00  0.00    -0.252 OA
BRANCH   4   6
ATOM      6  C   UNL     1      -1.336   0.897  -0.542  1.00  0.00     0.154 C 
ATOM      7  C   UNL     1      -1.392   1.804   0.689  1.00  0.00     0.026 C 
BRANCH   6   8
ATOM      8  C   UNL     1       0.105   0.569  -1.022  1.00  0.00     0.193 C 
ATOM      9  C   UNL     1       0.068  -0.436  -2.182  1.00  0.00     0.076 C 
BRANCH   8  10
ATOM     10  N   UNL     1       0.855  -0.025   0.098  1.00  0.00    -0.341 N 
ATOM     11  H   UNL     1       0.709  -1.034   0.067  1.00  0.00     0.346 HD
ATOM     12  H   UNL     1       0.494   0.434   0.934  1.00  0.00     0.346 HD
BRANCH  10  13
ATOM     13  C   UNL     1       2.309   0.213   0.125  1.00  0.00     0.184 C 
ATOM     14  C   UNL     1       2.741  -0.208   1.543  1.00  0.00     0.075 C 
BRANCH  13  15
ATOM     15  C   UNL     1       3.175  -0.595  -0.879  1.00  0.00     0.111 C 
BRANCH  15  16
ATOM     16  C   UNL     1       3.380   0.002  -2.247  1.00  0.00     0.010 A 
ATOM     17  C   UNL     1       3.242  -0.631  -3.470  1.00  0.00     0.015 A 
ATOM     18  S   UNL     1       3.986   1.593  -2.445  1.00  0.00    -0.149 S 
ATOM     19  C   UNL     1       3.594   0.206  -4.566  1.00  0.00     0.012 A 
ATOM     20  C   UNL     1       4.025   1.443  -4.146  1.00  0.00     0.065 A 
ENDBRANCH  15  16
ENDBRANCH  13  15
ENDBRANCH  10  13
ENDBRANCH   8  10
ENDBRANCH   6   8
ENDBRANCH   4   6
ENDBRANCH   3   4
ENDBRANCH   2   3
ENDBRANCH   1   2
BRANCH   1  21
ATOM     21  O   UNL     1      -2.446   2.034  -5.204  1.00  0.00    -0.374 OA
BRANCH  21  22
ATOM     22  C   UNL     1      -1.391   1.101  -4.981  1.00  0.00     0.202 C 
BRANCH  22  23
ATOM     23  C   UNL     1      -0.070   1.419  -5.683  1.00  0.00     0.261 C 
BRANCH  23  24
ATOM     24  O   UNL     1       0.542   2.587  -5.109  1.00  0.00    -0.460 OA
BRANCH  24  25
ATOM     25  C   UNL     1       1.205   3.349  -6.008  1.00  0.00     0.338 C 
ATOM     26  O   UNL     1       1.507   3.034  -7.152  1.00  0.00    -0.246 OA
BRANCH  25  27
ATOM     27  C   UNL     1       1.383   4.712  -5.484  1.00  0.00     0.060 A 
ATOM     28  C   UNL     1       0.614   5.736  -6.047  1.00  0.00     0.016 A 
ATOM     29  C   UNL     1       2.383   5.003  -4.555  1.00  0.00     0.016 A 
ATOM     30  C   UNL     1       0.893   7.066  -5.732  1.00  0.00     0.010 A 
ATOM     31  C   UNL     1       2.665   6.338  -4.245  1.00  0.00     0.010 A 
ATOM     32  C   UNL     1       1.951   7.377  -4.867  1.00  0.00    -0.014 A 
BRANCH  32  33
ATOM     33  C   UNL     1       2.398   8.786  -4.732  1.00  0.00     0.031 A 
ATOM     34  C   UNL     1       3.561   9.268  -5.559  1.00  0.00     0.074 A 
ATOM     35  C   UNL     1       1.756   9.631  -3.907  1.00  0.00     0.049 A 
ATOM     36  N   UNL     1       4.104  10.457  -5.617  1.00  0.00    -0.248 NA
ATOM     37  C   UNL     1       4.197   8.273  -6.437  1.00  0.00     0.031 C 
ATOM     38  C   UNL     1       0.606   9.282  -3.074  1.00  0.00     0.029 A 
ATOM     39  N   UNL     1       1.982  10.956  -3.632  1.00  0.00    -0.354 N 
ATOM     40  C   UNL     1       5.138  10.359  -6.543  1.00  0.00     0.074 A 
ATOM     41  C   UNL     1       5.172   8.981  -6.987  1.00  0.00     0.031 C 
ATOM     42  C   UNL     1       0.230  10.367  -2.375  1.00  0.00     0.029 A 
ATOM     43  C   UNL     1       1.127  11.477  -2.690  1.00  0.00     0.049 A 
ATOM     44  H   UNL     1       2.689  11.484  -4.068  1.00  0.00     0.167 HD
ATOM     45  C   UNL     1       5.972  11.330  -6.990  1.00  0.00     0.034 A 
ATOM     46  C   UNL     1       1.084  12.705  -2.135  1.00  0.00     0.034 A 
ATOM     47  C   UNL     1       5.939  12.695  -6.523  1.00  0.00     0.049 A 
ATOM     48  C   UNL     1       2.071  13.751  -2.592  1.00  0.00     0.074 A 
ATOM     49  C   UNL     1       6.722  13.765  -6.922  1.00  0.00     0.029 A 
ATOM     50  N   UNL     1       5.088  13.176  -5.536  1.00  0.00    -0.354 N 
ATOM     51  N   UNL     1       3.022  13.653  -3.493  1.00  0.00    -0.248 NA
ATOM     52  C   UNL     1       1.971  15.076  -1.966  1.00  0.00     0.031 C 
ATOM     53  C   UNL     1       6.391  14.872  -6.132  1.00  0.00     0.029 A 
ATOM     54  C   UNL     1       5.351  14.515  -5.289  1.00  0.00     0.049 A 
ATOM     55  H   UNL     1       4.397  12.644  -5.078  1.00  0.00     0.167 HD
ATOM     56  C   UNL     1       3.613  14.912  -3.560  1.00  0.00     0.074 A 
ATOM     57  C   UNL     1       2.903  15.754  -2.620  1.00  0.00     0.031 C 
ATOM     58  C   UNL     1       4.645  15.337  -4.334  1.00  0.00     0.034 A 
BRANCH  45  59
ATOM     59  C   UNL     1       7.019  10.933  -8.005  1.00  0.00     0.023 A 
ATOM     60  C   UNL     1       6.670  10.493  -9.294  1.00  0.00     0.031 A 
ATOM     61  C   UNL     1       8.384  10.976  -7.671  1.00  0.00     0.131 A 
ATOM     62  C   UNL     1       7.668  10.054 -10.179  1.00  0.00     0.055 A 
ATOM     63  C   UNL     1       9.377  10.606  -8.581  1.00  0.00     0.041 A 
ATOM     64  F   UNL     1       8.776  11.368  -6.449  1.00  0.00    -0.206 F 
ATOM     65  C   UNL     1       9.021  10.129  -9.839  1.00  0.00     0.022 A 
BRANCH  62  66
ATOM     66  S   UNL     1       7.167   9.263 -11.732  1.00  0.00     0.124 S 
ATOM     67  O   UNL     1       6.370   8.139 -11.248  1.00  0.00    -0.237 OA
ATOM     68  O   UNL     1       6.429  10.327 -12.404  1.00  0.00    -0.237 OA
ATOM     69  O   UNL     1       8.436   8.895 -12.355  1.00  0.00    -0.744 OA
ENDBRANCH  62  66
ENDBRANCH  45  59
BRANCH  46  70
ATOM     70  C   UNL     1       0.095  13.012  -1.062  1.00  0.00     0.023 A 
ATOM     71  C   UNL     1      -0.917  13.964  -1.255  1.00  0.00     0.031 A 
ATOM     72  C   UNL     1       0.182  12.384   0.193  1.00  0.00     0.131 A 
ATOM     73  C   UNL     1      -1.779  14.292  -0.196  1.00  0.00     0.055 A 
ATOM     74  C   UNL     1      -0.707  12.678   1.228  1.00  0.00     0.041 A 
ATOM     75  F   UNL     1       1.132  11.465   0.429  1.00  0.00    -0.206 F 
ATOM     76  C   UNL     1      -1.688  13.647   1.040  1.00  0.00     0.022 A 
BRANCH  73  77
ATOM     77  S   UNL     1      -2.975  15.634  -0.432  1.00  0.00     0.124 S 
ATOM     78  O   UNL     1      -2.105  16.752  -0.778  1.00  0.00    -0.237 OA
ATOM     79  O   UNL     1      -3.807  15.110  -1.510  1.00  0.00    -0.237 OA
ATOM     80  O   UNL     1      -3.635  15.735   0.868  1.00  0.00    -0.744 OA
ENDBRANCH  73  77
ENDBRANCH  46  70
BRANCH  58  81
ATOM     81  C   UNL     1       5.036  16.790  -4.214  1.00  0.00     0.023 A 
ATOM     82  C   UNL     1       5.620  17.304  -3.043  1.00  0.00     0.031 A 
ATOM     83  C   UNL     1       4.805  17.675  -5.282  1.00  0.00     0.131 A 
ATOM     84  C   UNL     1       5.902  18.675  -2.947  1.00  0.00     0.055 A 
ATOM     85  C   UNL     1       5.140  19.027  -5.202  1.00  0.00     0.041 A 
ATOM     86  F   UNL     1       4.249  17.238  -6.423  1.00  0.00    -0.206 F 
ATOM     87  C   UNL     1       5.680  19.537  -4.024  1.00  0.00     0.022 A 
BRANCH  84  88
ATOM     88  S   UNL     1       6.485  19.337  -1.361  1.00  0.00     0.124 S 
ATOM     89  O   UNL     1       5.392  18.979  -0.463  1.00  0.00    -0.237 OA
ATOM     90  O   UNL     1       7.737  18.614  -1.162  1.00  0.00    -0.237 OA
ATOM     91  O   UNL     1       6.631  20.768  -1.619  1.00  0.00    -0.744 OA
ENDBRANCH  84  88
ENDBRANCH  58  81
ENDBRANCH  32  33
ENDBRANCH  25  27
ENDBRANCH  24  25
ENDBRANCH  23  24
ENDBRANCH  22  23
ENDBRANCH  21  22
ENDBRANCH   1  21
TORSDOF 22
