REMARK SMILES Cc1ccc([C@H]2NC(=O)N(C)C3=C2C(=O)N(c2cccc(C(=O)OCCOCCOC(=O)c4ccc(-c5c6nc(c(-c7cc(S(=O)(=O)[O-])ccc7F)c7ccc([nH]7)c(-c7cc(S(=O)(=O)[O-])ccc7F)c7nc(c(-c8cc(S(=O)(=O)[O-])ccc8F)c8ccc5[nH]8)C=C7)C=C6)cc4)c2)C3)cc1
REMARK SMILES IDX 28 1 27 2 26 3 25 4 24 5 22 6 23 7 21 8 17 9 18 10 96 11
REMARK SMILES IDX 19 12 20 13 16 14 6 15 7 16 13 17 8 18 12 20 14 21 9 22
REMARK SMILES IDX 10 23 97 24 15 25 11 26 5 27 1 28 2 29 3 30 99 31 4 32 98 33
REMARK SMILES IDX 29 34 30 35 31 36 32 37 33 38 34 39 95 40 35 41 94 42 36 43
REMARK SMILES IDX 37 44 38 45 88 46 39 47 93 48 87 49 89 50 40 51 92 52 86 53
REMARK SMILES IDX 85 54 41 56 73 57 53 58 72 59 54 60 57 61 71 62 90 63 55 64
REMARK SMILES IDX 56 65 70 67 91 68 58 69 42 70 43 71 51 72 44 73 50 74 52 75
REMARK SMILES IDX 49 76 45 77 46 78 47 79 48 80 74 81 75 82 83 83 76 84 82 85
REMARK SMILES IDX 84 86 81 87 77 88 78 89 79 90 80 91 59 92 60 93 68 94 61 95
REMARK SMILES IDX 67 96 69 97 66 98 62 99 63 100 64 101 65 102
REMARK H PARENT 7 19 89 55 57 66
REMARK Flexibility Score: inf
ROOT
ATOM      1  C   UNL     1      -8.468   4.384   6.806  1.00  0.00     0.202 C 
ENDROOT
BRANCH   1   2
ATOM      2  O   UNL     1      -8.003   3.157   7.325  1.00  0.00    -0.374 OA
BRANCH   2   3
ATOM      3  C   UNL     1      -7.194   3.260   8.496  1.00  0.00     0.202 C 
BRANCH   3   4
ATOM      4  C   UNL     1      -6.947   1.849   8.935  1.00  0.00     0.261 C 
BRANCH   4   5
ATOM      5  O   UNL     1      -5.843   1.266   8.245  1.00  0.00    -0.460 OA
BRANCH   5   6
ATOM      6  C   UNL     1      -6.062   0.774   6.998  1.00  0.00     0.338 C 
ATOM      7  O   UNL     1      -7.104   0.570   6.441  1.00  0.00    -0.246 OA
BRANCH   6   8
ATOM      8  C   UNL     1      -4.736   0.707   6.350  1.00  0.00     0.062 A 
ATOM      9  C   UNL     1      -3.519   1.007   4.299  1.00  0.00     0.045 A 
ATOM     10  C   UNL     1      -2.315   0.885   4.999  1.00  0.00     0.026 A 
ATOM     11  C   UNL     1      -4.729   0.900   4.974  1.00  0.00     0.042 A 
ATOM     12  C   UNL     1      -2.325   0.682   6.380  1.00  0.00     0.003 A 
ATOM     13  C   UNL     1      -3.538   0.583   7.056  1.00  0.00     0.016 A 
BRANCH   9  14
ATOM     14  N   UNL     1      -3.535   1.218   2.917  1.00  0.00    -0.303 N 
ATOM     15  C   UNL     1      -3.274  -0.075  -0.511  1.00  0.00     0.152 C 
ATOM     16  N   UNL     1      -3.775   0.732  -1.620  1.00  0.00    -0.327 N 
ATOM     17  C   UNL     1      -3.415   0.721   0.712  1.00  0.00     0.066 C 
ATOM     18  C   UNL     1      -4.627   1.802  -1.530  1.00  0.00     0.322 C 
ATOM     19  H   UNL     1      -3.471   0.483  -2.522  1.00  0.00     0.166 HD
ATOM     20  C   UNL     1      -4.251   1.747   0.847  1.00  0.00     0.053 C 
ATOM     21  C   UNL     1      -2.832   0.430   2.018  1.00  0.00     0.258 C 
ATOM     22  O   UNL     1      -5.072   2.303  -2.560  1.00  0.00    -0.248 OA
ATOM     23  N   UNL     1      -4.897   2.276  -0.247  1.00  0.00    -0.299 N 
ATOM     24  C   UNL     1      -4.453   2.126   2.269  1.00  0.00     0.180 C 
ATOM     25  O   UNL     1      -1.955  -0.392   2.204  1.00  0.00    -0.269 OA
ATOM     26  C   UNL     1      -5.818   3.389  -0.078  1.00  0.00     0.155 C 
BRANCH  15  27
ATOM     27  C   UNL     1      -3.992  -1.426  -0.483  1.00  0.00    -0.021 A 
ATOM     28  C   UNL     1      -5.922  -5.317  -0.509  1.00  0.00     0.044 C 
ATOM     29  C   UNL     1      -5.261  -3.967  -0.502  1.00  0.00    -0.051 A 
ATOM     30  C   UNL     1      -4.324  -3.630  -1.484  1.00  0.00     0.004 A 
ATOM     31  C   UNL     1      -5.569  -3.030   0.483  1.00  0.00     0.004 A 
ATOM     32  C   UNL     1      -3.696  -2.378  -1.473  1.00  0.00     0.006 A 
ATOM     33  C   UNL     1      -4.951  -1.774   0.488  1.00  0.00     0.006 A 
ENDBRANCH  15  27
ENDBRANCH   9  14
ENDBRANCH   6   8
ENDBRANCH   5   6
ENDBRANCH   4   5
ENDBRANCH   3   4
ENDBRANCH   2   3
ENDBRANCH   1   2
BRANCH   1  34
ATOM     34  C   UNL     1      -9.376   5.150   7.778  1.00  0.00     0.261 C 
BRANCH  34  35
ATOM     35  O   UNL     1     -10.545   4.363   8.089  1.00  0.00    -0.460 OA
BRANCH  35  36
ATOM     36  C   UNL     1     -10.569   3.799   9.330  1.00  0.00     0.338 C 
ATOM     37  O   UNL     1     -10.457   4.408  10.380  1.00  0.00    -0.246 OA
BRANCH  36  38
ATOM     38  C   UNL     1     -10.593   2.312   9.207  1.00  0.00     0.060 A 
ATOM     39  C   UNL     1     -10.301   1.494  10.318  1.00  0.00     0.016 A 
ATOM     40  C   UNL     1     -10.631   1.759   7.930  1.00  0.00     0.016 A 
ATOM     41  C   UNL     1      -9.929   0.152  10.130  1.00  0.00     0.010 A 
ATOM     42  C   UNL     1     -10.164   0.477   7.745  1.00  0.00     0.010 A 
ATOM     43  C   UNL     1      -9.805  -0.338   8.829  1.00  0.00    -0.014 A 
BRANCH  43  44
ATOM     44  C   UNL     1      -9.194  -1.610   8.437  1.00  0.00     0.031 A 
ATOM     45  C   UNL     1     -10.003  -2.601   7.696  1.00  0.00     0.074 A 
ATOM     46  C   UNL     1      -7.855  -1.794   8.509  1.00  0.00     0.049 A 
ATOM     47  N   UNL     1      -9.726  -3.859   7.656  1.00  0.00    -0.248 NA
ATOM     48  C   UNL     1     -11.218  -2.266   6.955  1.00  0.00     0.031 C 
ATOM     49  C   UNL     1      -7.032  -2.708   7.719  1.00  0.00     0.029 A 
ATOM     50  N   UNL     1      -6.940  -1.179   9.352  1.00  0.00    -0.354 N 
ATOM     51  C   UNL     1     -10.479  -4.410   6.647  1.00  0.00     0.074 A 
ATOM     52  C   UNL     1     -11.460  -3.409   6.311  1.00  0.00     0.031 C 
ATOM     53  C   UNL     1      -5.782  -2.730   8.214  1.00  0.00     0.029 A 
ATOM     54  C   UNL     1      -5.766  -1.931   9.428  1.00  0.00     0.049 A 
ATOM     55  H   UNL     1      -7.097  -0.333   9.830  1.00  0.00     0.167 HD
ATOM     56  C   UNL     1     -10.089  -5.583   6.076  1.00  0.00     0.034 A 
ATOM     57  C   UNL     1      -5.267  -2.271  10.646  1.00  0.00     0.034 A 
ATOM     58  C   UNL     1      -8.791  -6.019   6.605  1.00  0.00     0.049 A 
ATOM     59  C   UNL     1      -5.482  -3.753  10.838  1.00  0.00     0.074 A 
ATOM     60  C   UNL     1      -7.509  -5.970   6.080  1.00  0.00     0.029 A 
ATOM     61  N   UNL     1      -8.641  -6.282   7.966  1.00  0.00    -0.354 N 
ATOM     62  N   UNL     1      -6.255  -4.454  10.052  1.00  0.00    -0.248 NA
ATOM     63  C   UNL     1      -4.828  -4.579  11.844  1.00  0.00     0.031 C 
ATOM     64  C   UNL     1      -6.588  -6.152   7.148  1.00  0.00     0.029 A 
ATOM     65  C   UNL     1      -7.304  -6.352   8.317  1.00  0.00     0.049 A 
ATOM     66  H   UNL     1      -9.388  -6.404   8.595  1.00  0.00     0.167 HD
ATOM     67  C   UNL     1      -6.194  -5.771  10.376  1.00  0.00     0.074 A 
ATOM     68  C   UNL     1      -5.292  -5.802  11.518  1.00  0.00     0.031 C 
ATOM     69  C   UNL     1      -6.899  -6.708   9.675  1.00  0.00     0.034 A 
BRANCH  56  70
ATOM     70  C   UNL     1     -10.719  -6.134   4.814  1.00  0.00     0.023 A 
ATOM     71  C   UNL     1      -9.957  -6.939   3.945  1.00  0.00     0.031 A 
ATOM     72  C   UNL     1     -12.052  -5.908   4.409  1.00  0.00     0.131 A 
ATOM     73  C   UNL     1     -10.471  -7.379   2.711  1.00  0.00     0.055 A 
ATOM     74  C   UNL     1     -12.541  -6.280   3.150  1.00  0.00     0.041 A 
ATOM     75  F   UNL     1     -12.957  -5.371   5.240  1.00  0.00    -0.206 F 
ATOM     76  C   UNL     1     -11.744  -7.013   2.286  1.00  0.00     0.022 A 
BRANCH  73  77
ATOM     77  S   UNL     1      -9.470  -8.494   1.690  1.00  0.00     0.124 S 
ATOM     78  O   UNL     1      -8.333  -7.651   1.335  1.00  0.00    -0.237 OA
ATOM     79  O   UNL     1      -9.198  -9.595   2.607  1.00  0.00    -0.237 OA
ATOM     80  O   UNL     1     -10.361  -8.827   0.579  1.00  0.00    -0.744 OA
ENDBRANCH  73  77
ENDBRANCH  56  70
BRANCH  57  81
ATOM     81  C   UNL     1      -5.393  -1.151  11.638  1.00  0.00     0.023 A 
ATOM     82  C   UNL     1      -4.593   0.004  11.414  1.00  0.00     0.031 A 
ATOM     83  C   UNL     1      -6.529  -0.995  12.447  1.00  0.00     0.131 A 
ATOM     84  C   UNL     1      -4.992   1.267  11.893  1.00  0.00     0.055 A 
ATOM     85  C   UNL     1      -6.916   0.264  12.936  1.00  0.00     0.041 A 
ATOM     86  F   UNL     1      -7.362  -2.025  12.658  1.00  0.00    -0.206 F 
ATOM     87  C   UNL     1      -6.165   1.403  12.640  1.00  0.00     0.022 A 
BRANCH  84  88
ATOM     88  S   UNL     1      -4.191   2.788  11.252  1.00  0.00     0.124 S 
ATOM     89  O   UNL     1      -3.278   3.139  12.332  1.00  0.00    -0.237 OA
ATOM     90  O   UNL     1      -3.561   2.342  10.013  1.00  0.00    -0.237 OA
ATOM     91  O   UNL     1      -5.321   3.698  11.059  1.00  0.00    -0.744 OA
ENDBRANCH  84  88
ENDBRANCH  57  81
BRANCH  69  92
ATOM     92  C   UNL     1      -7.192  -8.091  10.184  1.00  0.00     0.023 A 
ATOM     93  C   UNL     1      -7.062  -8.424  11.536  1.00  0.00     0.031 A 
ATOM     94  C   UNL     1      -7.727  -9.096   9.345  1.00  0.00     0.131 A 
ATOM     95  C   UNL     1      -7.341  -9.718  11.991  1.00  0.00     0.055 A 
ATOM     96  C   UNL     1      -8.113 -10.349   9.823  1.00  0.00     0.041 A 
ATOM     97  F   UNL     1      -7.913  -8.903   8.032  1.00  0.00    -0.206 F 
ATOM     98  C   UNL     1      -7.899 -10.677  11.153  1.00  0.00     0.022 A 
BRANCH  95  99
ATOM     99  S   UNL     1      -6.855 -10.125  13.683  1.00  0.00     0.124 S 
ATOM    100  O   UNL     1      -5.407  -9.936  13.628  1.00  0.00    -0.237 OA
ATOM    101  O   UNL     1      -7.590  -9.140  14.470  1.00  0.00    -0.237 OA
ATOM    102  O   UNL     1      -7.295 -11.508  13.843  1.00  0.00    -0.744 OA
ENDBRANCH  95  99
ENDBRANCH  69  92
ENDBRANCH  43  44
ENDBRANCH  36  38
ENDBRANCH  35  36
ENDBRANCH  34  35
ENDBRANCH   1  34
TORSDOF 19
