REMARK SMILES Nc1c(CC(=O)OCCOCCOC(=O)c2ccc(-c3c4nc(c(-c5cc(S(=O)(=O)[O-])ccc5F)c5ccc([nH]5)c(-c5cc(S(=O)(=O)[O-])ccc5F)c5nc(c(-c6cc(S(=O)(=O)[O-])ccc6F)c6ccc3[nH]6)C=C5)C=C4)cc2)cccc1C(=O)c1ccc(Br)cc1
REMARK SMILES IDX 10 1 9 2 8 3 7 4 5 5 6 6 4 7 3 8 2 9 82 10 79 11 81 12 80 13
REMARK SMILES IDX 1 14 83 17 84 18 85 19 86 20 91 21 87 22 90 23 88 24 89 25
REMARK SMILES IDX 11 26 12 27 13 28 14 29 15 30 16 31 17 32 78 33 18 34 77 35
REMARK SMILES IDX 19 36 20 37 21 38 71 39 22 40 76 41 70 42 72 43 23 44 75 45
REMARK SMILES IDX 69 46 68 47 24 49 56 50 36 51 55 52 37 53 40 54 54 55 73 56
REMARK SMILES IDX 38 57 39 58 53 60 74 61 41 62 25 63 26 64 34 65 27 66 33 67
REMARK SMILES IDX 35 68 32 69 28 70 29 71 30 72 31 73 57 74 58 75 66 76 59 77
REMARK SMILES IDX 65 78 67 79 64 80 60 81 61 82 62 83 63 84 42 85 43 86 51 87
REMARK SMILES IDX 44 88 50 89 52 90 49 91 45 92 46 93 47 94 48 95
REMARK H PARENT 1 15 1 16 72 48 40 59
REMARK Flexibility Score: inf
ROOT
ATOM      1  O   UNL     1      -1.274  -4.790   2.589  1.00  0.00    -0.374 OA
ENDROOT
BRANCH   1   2
ATOM      2  C   UNL     1      -0.330  -4.229   3.505  1.00  0.00     0.202 C 
BRANCH   2   3
ATOM      3  C   UNL     1       1.077  -3.986   2.949  1.00  0.00     0.261 C 
BRANCH   3   4
ATOM      4  O   UNL     1       1.048  -3.043   1.861  1.00  0.00    -0.463 OA
BRANCH   4   5
ATOM      5  C   UNL     1       1.680  -3.430   0.726  1.00  0.00     0.310 C 
ATOM      6  O   UNL     1       2.410  -4.413   0.635  1.00  0.00    -0.252 OA
BRANCH   5   7
ATOM      7  C   UNL     1       1.354  -2.587  -0.483  1.00  0.00     0.160 C 
BRANCH   7   8
ATOM      8  C   UNL     1       0.611  -1.277  -0.294  1.00  0.00    -0.013 A 
ATOM      9  C   UNL     1       1.259  -0.109   0.168  1.00  0.00     0.047 A 
ATOM     10  C   UNL     1       0.566   1.124   0.050  1.00  0.00     0.046 A 
ATOM     11  C   UNL     1      -0.749  -1.225  -0.663  1.00  0.00     0.006 A 
ATOM     12  C   UNL     1      -0.798   1.143  -0.292  1.00  0.00     0.014 A 
ATOM     13  C   UNL     1      -1.460  -0.032  -0.622  1.00  0.00     0.001 A 
BRANCH   9  14
ATOM     14  N   UNL     1       2.591  -0.189   0.581  1.00  0.00    -0.398 N 
ATOM     15  H   UNL     1       3.034  -1.066   0.648  1.00  0.00     0.156 HD
ATOM     16  H   UNL     1       3.088   0.631   0.804  1.00  0.00     0.156 HD
ENDBRANCH   9  14
BRANCH  10  17
ATOM     17  C   UNL     1       1.185   2.469   0.256  1.00  0.00     0.195 C 
ATOM     18  O   UNL     1       0.503   3.412   0.653  1.00  0.00    -0.289 OA
BRANCH  17  19
ATOM     19  C   UNL     1       2.613   2.722  -0.036  1.00  0.00     0.023 A 
ATOM     20  C   UNL     1       3.369   3.408   0.922  1.00  0.00     0.013 A 
ATOM     21  C   UNL     1       3.218   2.243  -1.204  1.00  0.00     0.013 A 
ATOM     22  C   UNL     1       4.746   3.550   0.746  1.00  0.00     0.016 A 
ATOM     23  C   UNL     1       4.596   2.388  -1.378  1.00  0.00     0.016 A 
ATOM     24  C   UNL     1       5.354   3.026  -0.395  1.00  0.00     0.018 A 
ATOM     25  Br  UNL     1       7.228   3.163  -0.603  1.00  0.00    -0.051 Br
ENDBRANCH  17  19
ENDBRANCH  10  17
ENDBRANCH   7   8
ENDBRANCH   5   7
ENDBRANCH   4   5
ENDBRANCH   3   4
ENDBRANCH   2   3
ENDBRANCH   1   2
BRANCH   1  26
ATOM     26  C   UNL     1      -1.812  -3.920   1.595  1.00  0.00     0.202 C 
BRANCH  26  27
ATOM     27  C   UNL     1      -2.874  -2.911   2.048  1.00  0.00     0.261 C 
BRANCH  27  28
ATOM     28  O   UNL     1      -2.379  -1.984   3.029  1.00  0.00    -0.460 OA
BRANCH  28  29
ATOM     29  C   UNL     1      -2.949  -2.120   4.250  1.00  0.00     0.338 C 
ATOM     30  O   UNL     1      -3.878  -2.867   4.540  1.00  0.00    -0.246 OA
BRANCH  29  31
ATOM     31  C   UNL     1      -2.199  -1.379   5.282  1.00  0.00     0.060 A 
ATOM     32  C   UNL     1      -1.924  -2.068   6.469  1.00  0.00     0.016 A 
ATOM     33  C   UNL     1      -1.860  -0.029   5.153  1.00  0.00     0.016 A 
ATOM     34  C   UNL     1      -1.397  -1.391   7.564  1.00  0.00     0.010 A 
ATOM     35  C   UNL     1      -1.329   0.652   6.259  1.00  0.00     0.010 A 
ATOM     36  C   UNL     1      -1.148  -0.015   7.485  1.00  0.00    -0.014 A 
BRANCH  36  37
ATOM     37  C   UNL     1      -0.888   0.720   8.751  1.00  0.00     0.031 A 
ATOM     38  C   UNL     1      -2.029   1.448   9.415  1.00  0.00     0.074 A 
ATOM     39  C   UNL     1       0.309   0.639   9.359  1.00  0.00     0.049 A 
ATOM     40  N   UNL     1      -2.066   2.059  10.571  1.00  0.00    -0.248 NA
ATOM     41  C   UNL     1      -3.299   1.488   8.674  1.00  0.00     0.031 C 
ATOM     42  C   UNL     1       1.474  -0.071   8.833  1.00  0.00     0.029 A 
ATOM     43  N   UNL     1       0.737   1.142  10.562  1.00  0.00    -0.354 N 
ATOM     44  C   UNL     1      -3.363   2.548  10.702  1.00  0.00     0.074 A 
ATOM     45  C   UNL     1      -4.064   2.205   9.482  1.00  0.00     0.031 C 
ATOM     46  C   UNL     1       2.483   0.033   9.715  1.00  0.00     0.029 A 
ATOM     47  C   UNL     1       2.045   0.834  10.856  1.00  0.00     0.049 A 
ATOM     48  H   UNL     1       0.162   1.673  11.159  1.00  0.00     0.167 HD
ATOM     49  C   UNL     1      -3.924   3.206  11.747  1.00  0.00     0.034 A 
ATOM     50  C   UNL     1       2.801   1.165  11.923  1.00  0.00     0.034 A 
ATOM     51  C   UNL     1      -3.209   3.553  12.952  1.00  0.00     0.049 A 
ATOM     52  C   UNL     1       2.175   1.958  13.044  1.00  0.00     0.074 A 
ATOM     53  C   UNL     1      -3.679   4.212  14.075  1.00  0.00     0.029 A 
ATOM     54  N   UNL     1      -1.867   3.280  13.187  1.00  0.00    -0.354 N 
ATOM     55  N   UNL     1       0.942   2.396  13.162  1.00  0.00    -0.248 NA
ATOM     56  C   UNL     1       3.042   2.287  14.183  1.00  0.00     0.031 C 
ATOM     57  C   UNL     1      -2.607   4.398  14.956  1.00  0.00     0.029 A 
ATOM     58  C   UNL     1      -1.484   3.787  14.420  1.00  0.00     0.049 A 
ATOM     59  H   UNL     1      -1.274   2.796  12.567  1.00  0.00     0.167 HD
ATOM     60  C   UNL     1       0.881   3.030  14.401  1.00  0.00     0.074 A 
ATOM     61  C   UNL     1       2.194   2.895  14.999  1.00  0.00     0.031 C 
ATOM     62  C   UNL     1      -0.164   3.665  14.993  1.00  0.00     0.034 A 
BRANCH  49  63
ATOM     63  C   UNL     1      -5.365   3.636  11.600  1.00  0.00     0.023 A 
ATOM     64  C   UNL     1      -6.410   2.702  11.478  1.00  0.00     0.031 A 
ATOM     65  C   UNL     1      -5.694   5.002  11.542  1.00  0.00     0.131 A 
ATOM     66  C   UNL     1      -7.720   3.143  11.233  1.00  0.00     0.055 A 
ATOM     67  C   UNL     1      -7.011   5.436  11.376  1.00  0.00     0.041 A 
ATOM     68  F   UNL     1      -4.738   5.939  11.630  1.00  0.00    -0.206 F 
ATOM     69  C   UNL     1      -8.031   4.505  11.205  1.00  0.00     0.022 A 
BRANCH  66  70
ATOM     70  S   UNL     1      -8.987   1.916  10.811  1.00  0.00     0.124 S 
ATOM     71  O   UNL     1      -8.412   1.294   9.621  1.00  0.00    -0.237 OA
ATOM     72  O   UNL     1      -9.034   1.085  12.008  1.00  0.00    -0.237 OA
ATOM     73  O   UNL     1     -10.180   2.724  10.566  1.00  0.00    -0.744 OA
ENDBRANCH  66  70
ENDBRANCH  49  63
BRANCH  50  74
ATOM     74  C   UNL     1       4.240   0.776  11.977  1.00  0.00     0.023 A 
ATOM     75  C   UNL     1       4.728  -0.093  12.966  1.00  0.00     0.031 A 
ATOM     76  C   UNL     1       5.162   1.320  11.064  1.00  0.00     0.131 A 
ATOM     77  C   UNL     1       6.105  -0.358  13.046  1.00  0.00     0.055 A 
ATOM     78  C   UNL     1       6.523   1.014  11.117  1.00  0.00     0.041 A 
ATOM     79  F   UNL     1       4.749   2.157  10.099  1.00  0.00    -0.206 F 
ATOM     80  C   UNL     1       7.003   0.180  12.121  1.00  0.00     0.022 A 
BRANCH  77  81
ATOM     81  S   UNL     1       6.721  -1.357  14.430  1.00  0.00     0.124 S 
ATOM     82  O   UNL     1       6.266  -0.585  15.580  1.00  0.00    -0.237 OA
ATOM     83  O   UNL     1       6.049  -2.632  14.204  1.00  0.00    -0.237 OA
ATOM     84  O   UNL     1       8.168  -1.372  14.220  1.00  0.00    -0.744 OA
ENDBRANCH  77  81
ENDBRANCH  50  74
BRANCH  62  85
ATOM     85  C   UNL     1       0.076   4.233  16.372  1.00  0.00     0.023 A 
ATOM     86  C   UNL     1       0.977   5.292  16.587  1.00  0.00     0.031 A 
ATOM     87  C   UNL     1      -0.581   3.688  17.489  1.00  0.00     0.131 A 
ATOM     88  C   UNL     1       1.248   5.725  17.894  1.00  0.00     0.055 A 
ATOM     89  C   UNL     1      -0.355   4.167  18.781  1.00  0.00     0.041 A 
ATOM     90  F   UNL     1      -1.450   2.675  17.345  1.00  0.00    -0.206 F 
ATOM     91  C   UNL     1       0.576   5.180  18.991  1.00  0.00     0.022 A 
BRANCH  88  92
ATOM     92  S   UNL     1       2.577   6.933  18.152  1.00  0.00     0.124 S 
ATOM     93  O   UNL     1       3.720   6.263  17.539  1.00  0.00    -0.237 OA
ATOM     94  O   UNL     1       2.072   8.106  17.446  1.00  0.00    -0.237 OA
ATOM     95  O   UNL     1       2.643   7.065  19.606  1.00  0.00    -0.744 OA
ENDBRANCH  88  92
ENDBRANCH  62  85
ENDBRANCH  36  37
ENDBRANCH  29  31
ENDBRANCH  28  29
ENDBRANCH  27  28
ENDBRANCH  26  27
ENDBRANCH   1  26
TORSDOF 21
