REMARK SMILES [NH3+][C@@H](Cc1c[nH]c2ccccc12)C(=O)N[C@@H](CS)C(=O)N[C@@H](CO)C(=O)OCCOCCOC(=O)c1ccc(-c2c3nc(c(-c4cc(S(=O)(=O)[O-])ccc4F)c4ccc([nH]4)c(-c4cc(S(=O)(=O)[O-])ccc4F)c4nc(c(-c5cc(S(=O)(=O)[O-])ccc5F)c5ccc2[nH]5)C=C4)C=C3)cc1
REMARK SMILES IDX 28 1 27 2 25 3 26 4 22 5 21 6 19 7 20 8 16 10 15 11 13 12
REMARK SMILES IDX 14 13 2 15 1 16 3 20 4 21 5 22 12 23 6 24 7 25 11 26 8 28
REMARK SMILES IDX 10 29 9 30 17 31 18 32 23 34 24 35 29 37 30 38 31 39 32 40
REMARK SMILES IDX 33 41 34 42 35 43 36 44 37 45 98 46 38 47 97 48 39 49 40 50
REMARK SMILES IDX 41 51 91 52 42 53 96 54 90 55 92 56 43 57 95 58 89 59 88 60
REMARK SMILES IDX 44 62 76 63 56 64 75 65 57 66 60 67 74 68 93 69 58 70 59 71
REMARK SMILES IDX 73 73 94 74 61 75 45 76 46 77 54 78 47 79 53 80 55 81 52 82
REMARK SMILES IDX 48 83 49 84 50 85 51 86 77 87 78 88 86 89 79 90 85 91 87 92
REMARK SMILES IDX 84 93 80 94 81 95 82 96 83 97 62 98 63 99 71 100 64 101
REMARK SMILES IDX 70 102 72 103 69 104 65 105 66 106 67 107 68 108
REMARK H PARENT 21 9 15 14 1 17 1 18 1 19 6 27 18 33 24 36 92 61 60 72
REMARK Flexibility Score: inf
ROOT
ATOM      1  C   UNL     1      -6.248   4.094  -3.882  1.00  0.00     0.261 C 
ENDROOT
BRANCH   1   2
ATOM      2  O   UNL     1      -5.500   3.988  -2.661  1.00  0.00    -0.462 OA
BRANCH   2   3
ATOM      3  C   UNL     1      -5.825   2.939  -1.856  1.00  0.00     0.331 C 
ATOM      4  O   UNL     1      -6.799   2.210  -2.006  1.00  0.00    -0.250 OA
BRANCH   3   5
ATOM      5  C   UNL     1      -4.822   2.764  -0.709  1.00  0.00     0.218 C 
BRANCH   5   6
ATOM      6  N   UNL     1      -3.594   3.555  -0.850  1.00  0.00    -0.339 N 
ATOM      7  C   UNL     1      -2.381   3.232  -0.335  1.00  0.00     0.244 C 
ATOM      8  O   UNL     1      -1.864   4.062   0.417  1.00  0.00    -0.273 OA
ATOM      9  H   UNL     1      -3.656   4.393  -1.364  1.00  0.00     0.164 HD
BRANCH   7  10
ATOM     10  C   UNL     1      -1.722   1.853  -0.574  1.00  0.00     0.181 C 
BRANCH  10  11
ATOM     11  N   UNL     1      -1.855   0.946   0.549  1.00  0.00    -0.338 N 
ATOM     12  C   UNL     1      -0.894   0.513   1.419  1.00  0.00     0.279 C 
ATOM     13  O   UNL     1      -1.313  -0.025   2.453  1.00  0.00    -0.268 OA
ATOM     14  H   UNL     1      -2.760   0.594   0.707  1.00  0.00     0.164 HD
BRANCH  12  15
ATOM     15  C   UNL     1       0.643   0.583   1.143  1.00  0.00     0.275 C 
BRANCH  15  16
ATOM     16  N   UNL     1       1.012  -0.279  -0.001  1.00  0.00    -0.347 N 
ATOM     17  H   UNL     1       2.017  -0.217  -0.162  1.00  0.00     0.345 HD
ATOM     18  H   UNL     1       0.514   0.032  -0.835  1.00  0.00     0.345 HD
ATOM     19  H   UNL     1       0.759  -1.245   0.206  1.00  0.00     0.345 HD
ENDBRANCH  15  16
BRANCH  15  20
ATOM     20  C   UNL     1       1.359   1.950   1.255  1.00  0.00     0.113 C 
BRANCH  20  21
ATOM     21  C   UNL     1       1.454   2.886   0.071  1.00  0.00    -0.016 A 
ATOM     22  C   UNL     1       1.615   2.610  -1.278  1.00  0.00     0.087 A 
ATOM     23  C   UNL     1       1.412   4.324   0.169  1.00  0.00     0.003 A 
ATOM     24  N   UNL     1       1.460   3.778  -1.984  1.00  0.00    -0.361 N 
ATOM     25  C   UNL     1       1.333   4.839  -1.124  1.00  0.00     0.046 A 
ATOM     26  C   UNL     1       1.395   5.233   1.249  1.00  0.00     0.010 A 
ATOM     27  H   UNL     1       1.444   3.844  -2.966  1.00  0.00     0.166 HD
ATOM     28  C   UNL     1       1.159   6.202  -1.393  1.00  0.00     0.026 A 
ATOM     29  C   UNL     1       1.274   6.605   0.998  1.00  0.00     0.001 A 
ATOM     30  C   UNL     1       1.135   7.078  -0.304  1.00  0.00     0.002 A 
ENDBRANCH  20  21
ENDBRANCH  15  20
ENDBRANCH  12  15
ENDBRANCH  10  11
BRANCH  10  31
ATOM     31  C   UNL     1      -1.798   1.224  -1.970  1.00  0.00     0.101 C 
BRANCH  31  32
ATOM     32  S   UNL     1      -3.228   0.184  -2.375  1.00  0.00    -0.177 SA
ATOM     33  H   UNL     1      -3.218  -0.926  -1.589  1.00  0.00     0.102 HD
ENDBRANCH  31  32
ENDBRANCH  10  31
ENDBRANCH   7  10
ENDBRANCH   5   6
BRANCH   5  34
ATOM     34  C   UNL     1      -5.522   3.118   0.609  1.00  0.00     0.193 C 
BRANCH  34  35
ATOM     35  O   UNL     1      -5.710   4.527   0.727  1.00  0.00    -0.394 OA
ATOM     36  H   UNL     1      -4.847   4.969   0.716  1.00  0.00     0.210 HD
ENDBRANCH  34  35
ENDBRANCH   5  34
ENDBRANCH   3   5
ENDBRANCH   2   3
ENDBRANCH   1   2
BRANCH   1  37
ATOM     37  C   UNL     1      -5.343   4.539  -5.035  1.00  0.00     0.202 C 
BRANCH  37  38
ATOM     38  O   UNL     1      -4.274   3.661  -5.393  1.00  0.00    -0.374 OA
BRANCH  38  39
ATOM     39  C   UNL     1      -3.195   3.532  -4.475  1.00  0.00     0.202 C 
BRANCH  39  40
ATOM     40  C   UNL     1      -2.181   4.682  -4.382  1.00  0.00     0.261 C 
BRANCH  40  41
ATOM     41  O   UNL     1      -2.770   5.946  -4.048  1.00  0.00    -0.460 OA
BRANCH  41  42
ATOM     42  C   UNL     1      -2.820   6.827  -5.076  1.00  0.00     0.338 C 
ATOM     43  O   UNL     1      -2.365   6.666  -6.205  1.00  0.00    -0.246 OA
BRANCH  42  44
ATOM     44  C   UNL     1      -3.664   7.974  -4.715  1.00  0.00     0.060 A 
ATOM     45  C   UNL     1      -4.802   8.219  -5.495  1.00  0.00     0.016 A 
ATOM     46  C   UNL     1      -3.314   8.837  -3.674  1.00  0.00     0.016 A 
ATOM     47  C   UNL     1      -5.582   9.346  -5.254  1.00  0.00     0.010 A 
ATOM     48  C   UNL     1      -4.090   9.977  -3.444  1.00  0.00     0.010 A 
ATOM     49  C   UNL     1      -5.211  10.250  -4.250  1.00  0.00    -0.014 A 
BRANCH  49  50
ATOM     50  C   UNL     1      -5.915  11.551  -4.147  1.00  0.00     0.031 A 
ATOM     51  C   UNL     1      -5.277  12.771  -4.754  1.00  0.00     0.074 A 
ATOM     52  C   UNL     1      -7.119  11.633  -3.551  1.00  0.00     0.049 A 
ATOM     53  N   UNL     1      -5.688  14.011  -4.752  1.00  0.00    -0.248 NA
ATOM     54  C   UNL     1      -4.001  12.559  -5.456  1.00  0.00     0.031 C 
ATOM     55  C   UNL     1      -7.849  10.507  -2.972  1.00  0.00     0.029 A 
ATOM     56  N   UNL     1      -7.935  12.713  -3.330  1.00  0.00    -0.354 N 
ATOM     57  C   UNL     1      -4.720  14.732  -5.442  1.00  0.00     0.074 A 
ATOM     58  C   UNL     1      -3.686  13.793  -5.820  1.00  0.00     0.031 C 
ATOM     59  C   UNL     1      -9.002  10.958  -2.449  1.00  0.00     0.029 A 
ATOM     60  C   UNL     1      -9.073  12.408  -2.619  1.00  0.00     0.049 A 
ATOM     61  H   UNL     1      -7.727  13.621  -3.649  1.00  0.00     0.167 HD
ATOM     62  C   UNL     1      -4.701  16.056  -5.737  1.00  0.00     0.034 A 
ATOM     63  C   UNL     1     -10.042  13.212  -2.138  1.00  0.00     0.034 A 
ATOM     64  C   UNL     1      -5.740  16.976  -5.344  1.00  0.00     0.049 A 
ATOM     65  C   UNL     1      -9.959  14.696  -2.411  1.00  0.00     0.074 A 
ATOM     66  C   UNL     1      -5.834  18.332  -5.606  1.00  0.00     0.029 A 
ATOM     67  N   UNL     1      -6.859  16.640  -4.592  1.00  0.00    -0.354 N 
ATOM     68  N   UNL     1      -9.046  15.364  -3.078  1.00  0.00    -0.248 NA
ATOM     69  C   UNL     1     -11.042  15.531  -1.876  1.00  0.00     0.031 C 
ATOM     70  C   UNL     1      -6.965  18.828  -4.948  1.00  0.00     0.029 A 
ATOM     71  C   UNL     1      -7.627  17.768  -4.349  1.00  0.00     0.049 A 
ATOM     72  H   UNL     1      -7.075  15.732  -4.277  1.00  0.00     0.167 HD
ATOM     73  C   UNL     1      -9.465  16.693  -3.070  1.00  0.00     0.074 A 
ATOM     74  C   UNL     1     -10.718  16.727  -2.345  1.00  0.00     0.031 C 
ATOM     75  C   UNL     1      -8.872  17.786  -3.617  1.00  0.00     0.034 A 
BRANCH  62  76
ATOM     76  C   UNL     1      -3.494  16.591  -6.470  1.00  0.00     0.023 A 
ATOM     77  C   UNL     1      -3.179  16.189  -7.780  1.00  0.00     0.031 A 
ATOM     78  C   UNL     1      -2.636  17.509  -5.838  1.00  0.00     0.131 A 
ATOM     79  C   UNL     1      -2.005  16.656  -8.391  1.00  0.00     0.055 A 
ATOM     80  C   UNL     1      -1.512  18.029  -6.481  1.00  0.00     0.041 A 
ATOM     81  F   UNL     1      -2.872  17.909  -4.579  1.00  0.00    -0.206 F 
ATOM     82  C   UNL     1      -1.183  17.594  -7.761  1.00  0.00     0.022 A 
BRANCH  79  83
ATOM     83  S   UNL     1      -1.495  15.921  -9.969  1.00  0.00     0.124 S 
ATOM     84  O   UNL     1      -1.369  14.510  -9.611  1.00  0.00    -0.237 OA
ATOM     85  O   UNL     1      -2.606  16.260 -10.850  1.00  0.00    -0.237 OA
ATOM     86  O   UNL     1      -0.233  16.594 -10.269  1.00  0.00    -0.744 OA
ENDBRANCH  79  83
ENDBRANCH  62  76
BRANCH  63  87
ATOM     87  C   UNL     1     -11.149  12.652  -1.308  1.00  0.00     0.023 A 
ATOM     88  C   UNL     1     -12.489  12.745  -1.719  1.00  0.00     0.031 A 
ATOM     89  C   UNL     1     -10.885  12.070  -0.054  1.00  0.00     0.131 A 
ATOM     90  C   UNL     1     -13.515  12.312  -0.863  1.00  0.00     0.055 A 
ATOM     91  C   UNL     1     -11.905  11.587   0.767  1.00  0.00     0.041 A 
ATOM     92  F   UNL     1      -9.623  11.960   0.391  1.00  0.00    -0.206 F 
ATOM     93  C   UNL     1     -13.231  11.721   0.370  1.00  0.00     0.022 A 
BRANCH  90  94
ATOM     94  S   UNL     1     -15.236  12.628  -1.342  1.00  0.00     0.124 S 
ATOM     95  O   UNL     1     -15.235  14.076  -1.513  1.00  0.00    -0.237 OA
ATOM     96  O   UNL     1     -15.359  11.838  -2.563  1.00  0.00    -0.237 OA
ATOM     97  O   UNL     1     -16.003  12.134  -0.201  1.00  0.00    -0.744 OA
ENDBRANCH  90  94
ENDBRANCH  63  87
BRANCH  75  98
ATOM     98  C   UNL     1      -9.605  19.101  -3.495  1.00  0.00     0.023 A 
ATOM     99  C   UNL     1      -9.802  19.730  -2.253  1.00  0.00     0.031 A 
ATOM    100  C   UNL     1     -10.117  19.731  -4.644  1.00  0.00     0.131 A 
ATOM    101  C   UNL     1     -10.542  20.921  -2.183  1.00  0.00     0.055 A 
ATOM    102  C   UNL     1     -10.796  20.948  -4.575  1.00  0.00     0.041 A 
ATOM    103  F   UNL     1      -9.961  19.175  -5.856  1.00  0.00    -0.206 F 
ATOM    104  C   UNL     1     -11.023  21.543  -3.338  1.00  0.00     0.022 A 
BRANCH 101 105
ATOM    105  S   UNL     1     -10.949  21.599  -0.551  1.00  0.00     0.124 S 
ATOM    106  O   UNL     1     -11.677  20.493   0.064  1.00  0.00    -0.237 OA
ATOM    107  O   UNL     1      -9.631  21.882   0.007  1.00  0.00    -0.237 OA
ATOM    108  O   UNL     1     -11.757  22.777  -0.861  1.00  0.00    -0.744 OA
ENDBRANCH 101 105
ENDBRANCH  75  98
ENDBRANCH  49  50
ENDBRANCH  42  44
ENDBRANCH  41  42
ENDBRANCH  40  41
ENDBRANCH  39  40
ENDBRANCH  38  39
ENDBRANCH  37  38
ENDBRANCH   1  37
TORSDOF 28
