REMARK SMILES C[C@H](c1ccncc1)[N@H+]1[C@@H]2CC[C@H]1C[C@H](CC(=O)OCCOCCOC(=O)c1ccc(-c3c4nc(c(-c5cc(S(=O)(=O)[O-])ccc5F)c5ccc([nH]5)c(-c5cc(S(=O)(=O)[O-])ccc5F)c5nc(c(-c6cc(S(=O)(=O)[O-])ccc6F)c6ccc3[nH]6)C=C5)C=C4)cc1)C2
REMARK SMILES IDX 22 1 21 2 20 3 19 4 17 5 18 6 16 7 15 8 9 9 10 10 13 11
REMARK SMILES IDX 11 13 91 14 12 15 14 16 2 17 1 18 3 19 4 20 8 21 5 22 7 23
REMARK SMILES IDX 6 24 23 25 24 26 25 27 26 28 27 29 28 30 29 31 90 32 30 33
REMARK SMILES IDX 89 34 31 35 32 36 33 37 83 38 34 39 88 40 82 41 84 42 35 43
REMARK SMILES IDX 87 44 81 45 80 46 36 48 68 49 48 50 67 51 49 52 52 53 66 54
REMARK SMILES IDX 85 55 50 56 51 57 65 59 86 60 53 61 37 62 38 63 46 64 39 65
REMARK SMILES IDX 45 66 47 67 44 68 40 69 41 70 42 71 43 72 69 73 70 74 78 75
REMARK SMILES IDX 71 76 77 77 79 78 76 79 72 80 73 81 74 82 75 83 54 84 55 85
REMARK SMILES IDX 63 86 56 87 62 88 64 89 61 90 57 91 58 92 59 93 60 94
REMARK H PARENT 9 12 84 47 52 58
REMARK Flexibility Score: inf
ROOT
ATOM      1  O   UNL     1      -1.581  -2.890  -7.338  1.00  0.00    -0.374 OA
ENDROOT
BRANCH   1   2
ATOM      2  C   UNL     1      -0.765  -3.921  -6.778  1.00  0.00     0.202 C 
BRANCH   2   3
ATOM      3  C   UNL     1       0.620  -3.492  -6.289  1.00  0.00     0.261 C 
BRANCH   3   4
ATOM      4  O   UNL     1       0.501  -2.748  -5.062  1.00  0.00    -0.463 OA
BRANCH   4   5
ATOM      5  C   UNL     1       0.967  -1.479  -5.085  1.00  0.00     0.306 C 
ATOM      6  O   UNL     1       1.590  -0.969  -6.009  1.00  0.00    -0.252 OA
BRANCH   5   7
ATOM      7  C   UNL     1       0.667  -0.726  -3.812  1.00  0.00     0.126 C 
BRANCH   7   8
ATOM      8  C   UNL     1      -0.635  -1.058  -3.043  1.00  0.00     0.012 C 
ATOM      9  N   UNL     1      -0.829  -1.234  -0.096  1.00  0.00    -0.324 N 
ATOM     10  C   UNL     1      -1.556  -0.155  -0.777  1.00  0.00     0.185 C 
ATOM     11  C   UNL     1      -1.203  -2.415  -0.897  1.00  0.00     0.185 C 
ATOM     12  H   UNL     1      -1.098  -1.284   0.886  1.00  0.00     0.349 HD
ATOM     13  C   UNL     1      -2.960  -0.753  -0.861  1.00  0.00     0.071 C 
ATOM     14  C   UNL     1      -1.002   0.162  -2.167  1.00  0.00     0.069 C 
ATOM     15  C   UNL     1      -2.724  -2.249  -1.021  1.00  0.00     0.071 C 
ATOM     16  C   UNL     1      -0.536  -2.405  -2.285  1.00  0.00     0.069 C 
BRANCH   9  17
ATOM     17  C   UNL     1       0.623  -1.072   0.141  1.00  0.00     0.212 C 
ATOM     18  C   UNL     1       1.070  -2.033   1.253  1.00  0.00     0.081 C 
BRANCH  17  19
ATOM     19  C   UNL     1       1.032   0.360   0.468  1.00  0.00     0.012 A 
ATOM     20  C   UNL     1       0.522   1.042   1.575  1.00  0.00     0.030 A 
ATOM     21  C   UNL     1       1.850   1.069  -0.424  1.00  0.00     0.030 A 
ATOM     22  C   UNL     1       0.789   2.397   1.697  1.00  0.00     0.111 A 
ATOM     23  C   UNL     1       2.044   2.425  -0.224  1.00  0.00     0.111 A 
ATOM     24  N   UNL     1       1.527   3.109   0.816  1.00  0.00    -0.265 NA
ENDBRANCH  17  19
ENDBRANCH   9  17
ENDBRANCH   7   8
ENDBRANCH   5   7
ENDBRANCH   4   5
ENDBRANCH   3   4
ENDBRANCH   2   3
ENDBRANCH   1   2
BRANCH   1  25
ATOM     25  C   UNL     1      -2.178  -1.961  -6.437  1.00  0.00     0.202 C 
BRANCH  25  26
ATOM     26  C   UNL     1      -3.421  -2.433  -5.668  1.00  0.00     0.261 C 
BRANCH  26  27
ATOM     27  O   UNL     1      -3.167  -3.567  -4.821  1.00  0.00    -0.460 OA
BRANCH  27  28
ATOM     28  C   UNL     1      -3.670  -4.734  -5.294  1.00  0.00     0.338 C 
ATOM     29  O   UNL     1      -4.355  -4.876  -6.302  1.00  0.00    -0.246 OA
BRANCH  28  30
ATOM     30  C   UNL     1      -3.132  -5.885  -4.545  1.00  0.00     0.060 A 
ATOM     31  C   UNL     1      -2.594  -6.936  -5.299  1.00  0.00     0.016 A 
ATOM     32  C   UNL     1      -3.226  -5.989  -3.155  1.00  0.00     0.016 A 
ATOM     33  C   UNL     1      -2.212  -8.121  -4.676  1.00  0.00     0.010 A 
ATOM     34  C   UNL     1      -2.844  -7.185  -2.530  1.00  0.00     0.010 A 
ATOM     35  C   UNL     1      -2.378  -8.273  -3.294  1.00  0.00    -0.014 A 
BRANCH  35  36
ATOM     36  C   UNL     1      -2.234  -9.630  -2.702  1.00  0.00     0.031 A 
ATOM     37  C   UNL     1      -3.477 -10.431  -2.411  1.00  0.00     0.074 A 
ATOM     38  C   UNL     1      -1.020 -10.175  -2.505  1.00  0.00     0.049 A 
ATOM     39  N   UNL     1      -3.593 -11.639  -1.922  1.00  0.00    -0.248 NA
ATOM     40  C   UNL     1      -4.760  -9.779  -2.715  1.00  0.00     0.031 C 
ATOM     41  C   UNL     1       0.255  -9.522  -2.799  1.00  0.00     0.029 A 
ATOM     42  N   UNL     1      -0.661 -11.408  -2.018  1.00  0.00    -0.354 N 
ATOM     43  C   UNL     1      -4.960 -11.893  -1.858  1.00  0.00     0.074 A 
ATOM     44  C   UNL     1      -5.630 -10.695  -2.317  1.00  0.00     0.031 C 
ATOM     45  C   UNL     1       1.257 -10.363  -2.487  1.00  0.00     0.029 A 
ATOM     46  C   UNL     1       0.699 -11.598  -1.939  1.00  0.00     0.049 A 
ATOM     47  H   UNL     1      -1.317 -12.092  -1.750  1.00  0.00     0.167 HD
ATOM     48  C   UNL     1      -5.598 -13.025  -1.468  1.00  0.00     0.034 A 
ATOM     49  C   UNL     1       1.411 -12.640  -1.463  1.00  0.00     0.034 A 
ATOM     50  C   UNL     1      -4.918 -14.212  -1.007  1.00  0.00     0.049 A 
ATOM     51  C   UNL     1       0.678 -13.857  -0.950  1.00  0.00     0.074 A 
ATOM     52  C   UNL     1      -5.467 -15.415  -0.596  1.00  0.00     0.029 A 
ATOM     53  N   UNL     1      -3.541 -14.345  -0.885  1.00  0.00    -0.354 N 
ATOM     54  N   UNL     1      -0.615 -14.085  -0.899  1.00  0.00    -0.248 NA
ATOM     55  C   UNL     1       1.502 -14.963  -0.442  1.00  0.00     0.031 C 
ATOM     56  C   UNL     1      -4.430 -16.244  -0.157  1.00  0.00     0.029 A 
ATOM     57  C   UNL     1      -3.225 -15.594  -0.373  1.00  0.00     0.049 A 
ATOM     58  H   UNL     1      -2.884 -13.652  -1.127  1.00  0.00     0.167 HD
ATOM     59  C   UNL     1      -0.754 -15.374  -0.387  1.00  0.00     0.074 A 
ATOM     60  C   UNL     1       0.585 -15.875  -0.156  1.00  0.00     0.031 C 
ATOM     61  C   UNL     1      -1.886 -16.082  -0.139  1.00  0.00     0.034 A 
BRANCH  48  62
ATOM     62  C   UNL     1      -7.108 -13.007  -1.472  1.00  0.00     0.023 A 
ATOM     63  C   UNL     1      -7.847 -12.861  -2.660  1.00  0.00     0.031 A 
ATOM     64  C   UNL     1      -7.821 -13.108  -0.263  1.00  0.00     0.131 A 
ATOM     65  C   UNL     1      -9.245 -12.748  -2.606  1.00  0.00     0.055 A 
ATOM     66  C   UNL     1      -9.216 -13.077  -0.225  1.00  0.00     0.041 A 
ATOM     67  F   UNL     1      -7.170 -13.224   0.905  1.00  0.00    -0.206 F 
ATOM     68  C   UNL     1      -9.936 -12.881  -1.399  1.00  0.00     0.022 A 
BRANCH  65  69
ATOM     69  S   UNL     1     -10.137 -12.279  -4.114  1.00  0.00     0.124 S 
ATOM     70  O   UNL     1      -9.507 -11.003  -4.444  1.00  0.00    -0.237 OA
ATOM     71  O   UNL     1      -9.842 -13.389  -5.013  1.00  0.00    -0.237 OA
ATOM     72  O   UNL     1     -11.527 -12.183  -3.674  1.00  0.00    -0.744 OA
ENDBRANCH  65  69
ENDBRANCH  48  62
BRANCH  49  73
ATOM     73  C   UNL     1       2.900 -12.574  -1.407  1.00  0.00     0.023 A 
ATOM     74  C   UNL     1       3.700 -13.467  -2.138  1.00  0.00     0.031 A 
ATOM     75  C   UNL     1       3.546 -11.647  -0.569  1.00  0.00     0.131 A 
ATOM     76  C   UNL     1       5.095 -13.445  -1.982  1.00  0.00     0.055 A 
ATOM     77  C   UNL     1       4.936 -11.593  -0.459  1.00  0.00     0.041 A 
ATOM     78  F   UNL     1       2.830 -10.771   0.154  1.00  0.00    -0.206 F 
ATOM     79  C   UNL     1       5.719 -12.506  -1.158  1.00  0.00     0.022 A 
BRANCH  76  80
ATOM     80  S   UNL     1       6.083 -14.725  -2.805  1.00  0.00     0.124 S 
ATOM     81  O   UNL     1       5.511 -15.945  -2.248  1.00  0.00    -0.237 OA
ATOM     82  O   UNL     1       5.800 -14.466  -4.213  1.00  0.00    -0.237 OA
ATOM     83  O   UNL     1       7.449 -14.425  -2.381  1.00  0.00    -0.744 OA
ENDBRANCH  76  80
ENDBRANCH  49  73
BRANCH  61  84
ATOM     84  C   UNL     1      -1.720 -17.499   0.360  1.00  0.00     0.023 A 
ATOM     85  C   UNL     1      -1.173 -17.785   1.623  1.00  0.00     0.031 A 
ATOM     86  C   UNL     1      -2.112 -18.581  -0.450  1.00  0.00     0.131 A 
ATOM     87  C   UNL     1      -0.982 -19.119   2.017  1.00  0.00     0.055 A 
ATOM     88  C   UNL     1      -1.976 -19.904  -0.028  1.00  0.00     0.041 A 
ATOM     89  F   UNL     1      -2.638 -18.368  -1.667  1.00  0.00    -0.206 F 
ATOM     90  C   UNL     1      -1.396 -20.180   1.206  1.00  0.00     0.022 A 
BRANCH  87  91
ATOM     91  S   UNL     1      -0.097 -19.454   3.565  1.00  0.00     0.124 S 
ATOM     92  O   UNL     1       1.177 -18.780   3.338  1.00  0.00    -0.237 OA
ATOM     93  O   UNL     1      -0.972 -18.845   4.562  1.00  0.00    -0.237 OA
ATOM     94  O   UNL     1      -0.027 -20.913   3.611  1.00  0.00    -0.744 OA
ENDBRANCH  87  91
ENDBRANCH  61  84
ENDBRANCH  35  36
ENDBRANCH  28  30
ENDBRANCH  27  28
ENDBRANCH  26  27
ENDBRANCH  25  26
ENDBRANCH   1  25
TORSDOF 20
