REMARK SMILES O=C(OCCOCCOC(=O)c1cc(Br)cn(Cc2cccc(F)c2)c1=O)c1ccc(-c2c3nc(c(-c4cc(S(=O)(=O)[O-])ccc4F)c4ccc([nH]4)c(-c4cc(S(=O)(=O)[O-])ccc4F)c4nc(c(-c5cc(S(=O)(=O)[O-])ccc5F)c5ccc2[nH]5)C=C4)C=C3)cc1
REMARK SMILES IDX 5 1 4 2 3 3 2 4 1 5 28 6 29 7 90 8 30 9 89 10 31 11 32 12
REMARK SMILES IDX 33 13 83 14 34 15 88 16 82 17 84 18 35 19 87 20 81 21 80 22
REMARK SMILES IDX 36 24 68 25 48 26 67 27 49 28 52 29 66 30 85 31 50 32 51 33
REMARK SMILES IDX 65 35 86 36 53 37 37 38 38 39 46 40 39 41 45 42 47 43 44 44
REMARK SMILES IDX 40 45 41 46 42 47 43 48 69 49 70 50 78 51 71 52 77 53 79 54
REMARK SMILES IDX 76 55 72 56 73 57 74 58 75 59 54 60 55 61 63 62 56 63 62 64
REMARK SMILES IDX 64 65 61 66 57 67 58 68 59 69 60 70 6 71 7 72 8 73 9 74
REMARK SMILES IDX 10 75 11 76 12 77 13 78 26 79 14 80 17 81 27 82 15 83 16 84
REMARK SMILES IDX 18 85 19 86 20 87 25 88 21 89 23 90 22 91 24 92
REMARK H PARENT 84 23 52 34
REMARK Flexibility Score: inf
ROOT
ATOM      1  C   UNL     1       4.389   0.744  -1.441  1.00  0.00     0.202 C 
ENDROOT
BRANCH   1   2
ATOM      2  C   UNL     1       4.169  -0.752  -1.220  1.00  0.00     0.261 C 
BRANCH   2   3
ATOM      3  O   UNL     1       2.805  -1.025  -0.881  1.00  0.00    -0.460 OA
BRANCH   3   4
ATOM      4  C   UNL     1       2.233  -1.155   0.337  1.00  0.00     0.338 C 
ATOM      5  O   UNL     1       1.034  -1.439   0.360  1.00  0.00    -0.246 OA
BRANCH   4   6
ATOM      6  C   UNL     1       2.922  -0.933   1.656  1.00  0.00     0.060 A 
ATOM      7  C   UNL     1       2.155  -1.221   2.803  1.00  0.00     0.016 A 
ATOM      8  C   UNL     1       4.201  -0.407   1.860  1.00  0.00     0.016 A 
ATOM      9  C   UNL     1       2.640  -0.969   4.090  1.00  0.00     0.010 A 
ATOM     10  C   UNL     1       4.697  -0.159   3.139  1.00  0.00     0.010 A 
ATOM     11  C   UNL     1       3.917  -0.431   4.259  1.00  0.00    -0.014 A 
BRANCH  11  12
ATOM     12  C   UNL     1       4.520  -0.270   5.593  1.00  0.00     0.031 A 
ATOM     13  C   UNL     1       4.645   1.080   6.225  1.00  0.00     0.074 A 
ATOM     14  C   UNL     1       5.070  -1.363   6.149  1.00  0.00     0.049 A 
ATOM     15  N   UNL     1       5.112   1.388   7.404  1.00  0.00    -0.248 NA
ATOM     16  C   UNL     1       4.210   2.237   5.426  1.00  0.00     0.031 C 
ATOM     17  C   UNL     1       5.091  -2.687   5.523  1.00  0.00     0.029 A 
ATOM     18  N   UNL     1       5.740  -1.537   7.328  1.00  0.00    -0.354 N 
ATOM     19  C   UNL     1       5.008   2.771   7.505  1.00  0.00     0.074 A 
ATOM     20  C   UNL     1       4.490   3.248   6.241  1.00  0.00     0.031 C 
ATOM     21  C   UNL     1       5.749  -3.537   6.321  1.00  0.00     0.029 A 
ATOM     22  C   UNL     1       6.197  -2.820   7.511  1.00  0.00     0.049 A 
ATOM     23  H   UNL     1       5.881  -0.814   7.981  1.00  0.00     0.167 HD
ATOM     24  C   UNL     1       5.305   3.550   8.572  1.00  0.00     0.034 A 
ATOM     25  C   UNL     1       6.889  -3.359   8.533  1.00  0.00     0.034 A 
ATOM     26  C   UNL     1       5.847   3.019   9.799  1.00  0.00     0.049 A 
ATOM     27  C   UNL     1       7.157  -2.491   9.732  1.00  0.00     0.074 A 
ATOM     28  C   UNL     1       6.102   3.685  10.984  1.00  0.00     0.029 A 
ATOM     29  N   UNL     1       6.232   1.697   9.993  1.00  0.00    -0.354 N 
ATOM     30  N   UNL     1       6.894  -1.213   9.892  1.00  0.00    -0.248 NA
ATOM     31  C   UNL     1       7.769  -3.128  10.902  1.00  0.00     0.031 C 
ATOM     32  C   UNL     1       6.704   2.786  11.866  1.00  0.00     0.029 A 
ATOM     33  C   UNL     1       6.752   1.536  11.266  1.00  0.00     0.049 A 
ATOM     34  H   UNL     1       6.147   0.981   9.324  1.00  0.00     0.167 HD
ATOM     35  C   UNL     1       7.287  -0.897  11.186  1.00  0.00     0.074 A 
ATOM     36  C   UNL     1       7.782  -2.127  11.774  1.00  0.00     0.031 C 
ATOM     37  C   UNL     1       7.244   0.298  11.829  1.00  0.00     0.034 A 
BRANCH  24  38
ATOM     38  C   UNL     1       5.023   5.034   8.503  1.00  0.00     0.023 A 
ATOM     39  C   UNL     1       6.058   5.968   8.702  1.00  0.00     0.031 A 
ATOM     40  C   UNL     1       3.707   5.522   8.394  1.00  0.00     0.131 A 
ATOM     41  C   UNL     1       5.756   7.332   8.824  1.00  0.00     0.055 A 
ATOM     42  C   UNL     1       3.417   6.886   8.472  1.00  0.00     0.041 A 
ATOM     43  F   UNL     1       2.678   4.677   8.216  1.00  0.00    -0.206 F 
ATOM     44  C   UNL     1       4.442   7.796   8.702  1.00  0.00     0.022 A 
BRANCH  41  45
ATOM     45  S   UNL     1       7.041   8.552   9.217  1.00  0.00     0.124 S 
ATOM     46  O   UNL     1       6.925   9.483   8.096  1.00  0.00    -0.237 OA
ATOM     47  O   UNL     1       6.586   9.069  10.505  1.00  0.00    -0.237 OA
ATOM     48  O   UNL     1       8.271   7.770   9.249  1.00  0.00    -0.744 OA
ENDBRANCH  41  45
ENDBRANCH  24  38
BRANCH  25  49
ATOM     49  C   UNL     1       7.226  -4.810   8.471  1.00  0.00     0.023 A 
ATOM     50  C   UNL     1       8.073  -5.311   7.463  1.00  0.00     0.031 A 
ATOM     51  C   UNL     1       6.553  -5.732   9.289  1.00  0.00     0.131 A 
ATOM     52  C   UNL     1       8.159  -6.693   7.249  1.00  0.00     0.055 A 
ATOM     53  C   UNL     1       6.697  -7.110   9.116  1.00  0.00     0.041 A 
ATOM     54  F   UNL     1       5.713  -5.303  10.243  1.00  0.00    -0.206 F 
ATOM     55  C   UNL     1       7.486  -7.596   8.078  1.00  0.00     0.022 A 
BRANCH  52  56
ATOM     56  S   UNL     1       9.002  -7.358   5.785  1.00  0.00     0.124 S 
ATOM     57  O   UNL     1      10.081  -8.139   6.383  1.00  0.00    -0.237 OA
ATOM     58  O   UNL     1       7.938  -8.134   5.151  1.00  0.00    -0.237 OA
ATOM     59  O   UNL     1       9.415  -6.165   5.052  1.00  0.00    -0.744 OA
ENDBRANCH  52  56
ENDBRANCH  25  49
BRANCH  37  60
ATOM     60  C   UNL     1       7.759   0.361  13.245  1.00  0.00     0.023 A 
ATOM     61  C   UNL     1       6.888   0.712  14.294  1.00  0.00     0.031 A 
ATOM     62  C   UNL     1       9.129   0.232  13.528  1.00  0.00     0.131 A 
ATOM     63  C   UNL     1       7.404   0.966  15.569  1.00  0.00     0.055 A 
ATOM     64  C   UNL     1       9.631   0.438  14.813  1.00  0.00     0.041 A 
ATOM     65  F   UNL     1       9.999  -0.090  12.557  1.00  0.00    -0.206 F 
ATOM     66  C   UNL     1       8.769   0.822  15.837  1.00  0.00     0.022 A 
BRANCH  63  67
ATOM     67  S   UNL     1       6.340   1.585  16.902  1.00  0.00     0.124 S 
ATOM     68  O   UNL     1       6.460   0.523  17.899  1.00  0.00    -0.237 OA
ATOM     69  O   UNL     1       6.988   2.845  17.253  1.00  0.00    -0.237 OA
ATOM     70  O   UNL     1       5.027   1.706  16.279  1.00  0.00    -0.744 OA
ENDBRANCH  63  67
ENDBRANCH  37  60
ENDBRANCH  11  12
ENDBRANCH   4   6
ENDBRANCH   3   4
ENDBRANCH   2   3
ENDBRANCH   1   2
BRANCH   1  71
ATOM     71  O   UNL     1       4.114   1.562  -0.305  1.00  0.00    -0.374 OA
BRANCH  71  72
ATOM     72  C   UNL     1       2.786   2.097  -0.229  1.00  0.00     0.202 C 
BRANCH  72  73
ATOM     73  C   UNL     1       2.843   3.626  -0.211  1.00  0.00     0.261 C 
BRANCH  73  74
ATOM     74  O   UNL     1       3.347   4.066  -1.480  1.00  0.00    -0.459 OA
BRANCH  74  75
ATOM     75  C   UNL     1       4.688   4.258  -1.543  1.00  0.00     0.343 C 
ATOM     76  O   UNL     1       5.462   4.379  -0.605  1.00  0.00    -0.246 OA
BRANCH  75  77
ATOM     77  C   UNL     1       5.109   4.011  -2.929  1.00  0.00     0.126 A 
ATOM     78  C   UNL     1       6.113   3.133  -3.108  1.00  0.00     0.038 A 
ATOM     79  C   UNL     1       4.399   4.589  -4.099  1.00  0.00     0.265 A 
ATOM     80  C   UNL     1       6.437   2.636  -4.421  1.00  0.00     0.035 A 
ATOM     81  N   UNL     1       4.828   4.125  -5.349  1.00  0.00    -0.309 N 
ATOM     82  O   UNL     1       3.538   5.454  -3.962  1.00  0.00    -0.268 OA
ATOM     83  Br  UNL     1       7.725   1.302  -4.574  1.00  0.00    -0.049 Br
ATOM     84  C   UNL     1       5.788   3.132  -5.483  1.00  0.00     0.105 A 
BRANCH  81  85
ATOM     85  C   UNL     1       4.401   4.865  -6.535  1.00  0.00     0.161 C 
BRANCH  85  86
ATOM     86  C   UNL     1       5.421   5.949  -6.823  1.00  0.00    -0.025 A 
ATOM     87  C   UNL     1       6.578   5.657  -7.565  1.00  0.00     0.006 A 
ATOM     88  C   UNL     1       5.310   7.202  -6.204  1.00  0.00     0.044 A 
ATOM     89  C   UNL     1       7.615   6.588  -7.660  1.00  0.00     0.003 A 
ATOM     90  C   UNL     1       6.345   8.124  -6.314  1.00  0.00     0.123 A 
ATOM     91  C   UNL     1       7.499   7.824  -7.028  1.00  0.00     0.039 A 
ATOM     92  F   UNL     1       6.241   9.310  -5.700  1.00  0.00    -0.207 F 
ENDBRANCH  85  86
ENDBRANCH  81  85
ENDBRANCH  75  77
ENDBRANCH  74  75
ENDBRANCH  73  74
ENDBRANCH  72  73
ENDBRANCH  71  72
ENDBRANCH   1  71
TORSDOF 19
