REMARK SMILES Cc1ccc2[nH]cc([C@@H](C(=O)OCCOCCOC(=O)c3ccc(-c4c5nc(c(-c6cc(S(=O)(=O)[O-])ccc6F)c6ccc([nH]6)c(-c6cc(S(=O)(=O)[O-])ccc6F)c6nc(c(-c7cc(S(=O)(=O)[O-])ccc7F)c7ccc4[nH]7)C=C6)C=C5)cc3)[NH+]3CCN(c4ccc(F)cc4)CC3)c2c1
REMARK SMILES IDX 16 1 15 2 14 3 13 4 12 5 10 6 11 7 9 8 8 9 1 10 2 11 3 12
REMARK SMILES IDX 98 13 4 14 97 15 5 16 6 17 7 18 84 20 85 21 96 22 86 24
REMARK SMILES IDX 95 25 87 26 88 27 89 28 94 29 90 30 93 31 91 32 92 33 17 34
REMARK SMILES IDX 18 35 19 36 20 37 21 38 22 39 83 40 23 41 82 42 24 43 25 44
REMARK SMILES IDX 26 45 76 46 27 47 81 48 75 49 77 50 28 51 80 52 74 53 73 54
REMARK SMILES IDX 29 56 61 57 41 58 60 59 42 60 45 61 59 62 78 63 43 64 44 65
REMARK SMILES IDX 58 67 79 68 46 69 30 70 31 71 39 72 32 73 38 74 40 75 37 76
REMARK SMILES IDX 33 77 34 78 35 79 36 80 62 81 63 82 71 83 64 84 70 85 72 86
REMARK SMILES IDX 69 87 65 88 66 89 67 90 68 91 47 92 48 93 56 94 49 95 55 96
REMARK SMILES IDX 57 97 54 98 50 99 51 100 52 101 53 102
REMARK H PARENT 6 19 84 23 77 55 45 66
REMARK Flexibility Score: inf
ROOT
ATOM      1  C   UNL     1      -5.296  -2.627   2.144  1.00  0.00     0.202 C 
ENDROOT
BRANCH   1   2
ATOM      2  O   UNL     1      -5.201  -3.565   3.212  1.00  0.00    -0.374 OA
BRANCH   2   3
ATOM      3  C   UNL     1      -4.003  -3.550   3.990  1.00  0.00     0.202 C 
BRANCH   3   4
ATOM      4  C   UNL     1      -2.728  -4.050   3.302  1.00  0.00     0.261 C 
BRANCH   4   5
ATOM      5  O   UNL     1      -2.253  -3.177   2.253  1.00  0.00    -0.459 OA
BRANCH   5   6
ATOM      6  C   UNL     1      -2.216  -3.724   1.003  1.00  0.00     0.370 C 
ATOM      7  O   UNL     1      -2.611  -4.864   0.757  1.00  0.00    -0.245 OA
BRANCH   6   8
ATOM      8  C   UNL     1      -1.581  -2.820  -0.077  1.00  0.00     0.328 C 
BRANCH   8   9
ATOM      9  C   UNL     1      -1.348  -1.361   0.240  1.00  0.00     0.046 A 
ATOM     10  C   UNL     1       3.741  -0.757  -0.080  1.00  0.00     0.044 C 
ATOM     11  C   UNL     1       2.333  -0.246   0.022  1.00  0.00    -0.050 A 
ATOM     12  C   UNL     1       2.071   1.121   0.127  1.00  0.00     0.005 A 
ATOM     13  C   UNL     1       1.267  -1.162   0.043  1.00  0.00     0.014 A 
ATOM     14  C   UNL     1       0.768   1.600   0.299  1.00  0.00     0.027 A 
ATOM     15  C   UNL     1      -0.059  -0.709   0.215  1.00  0.00     0.009 A 
ATOM     16  C   UNL     1      -0.267   0.661   0.368  1.00  0.00     0.046 A 
ATOM     17  N   UNL     1      -1.610   0.838   0.590  1.00  0.00    -0.361 N 
ATOM     18  C   UNL     1      -2.257  -0.369   0.562  1.00  0.00     0.094 A 
ATOM     19  H   UNL     1      -2.045   1.708   0.746  1.00  0.00     0.166 HD
ENDBRANCH   8   9
BRANCH   8  20
ATOM     20  N   UNL     1      -2.235  -3.030  -1.394  1.00  0.00    -0.316 N 
ATOM     21  C   UNL     1      -3.668  -2.752  -1.537  1.00  0.00     0.284 C 
ATOM     22  C   UNL     1      -1.475  -2.610  -2.575  1.00  0.00     0.284 C 
ATOM     23  H   UNL     1      -2.206  -4.049  -1.366  1.00  0.00     0.349 HD
ATOM     24  C   UNL     1      -4.073  -1.380  -2.127  1.00  0.00     0.178 C 
ATOM     25  C   UNL     1      -1.799  -1.202  -3.121  1.00  0.00     0.178 C 
ATOM     26  N   UNL     1      -3.252  -1.023  -3.290  1.00  0.00    -0.360 N 
BRANCH  26  27
ATOM     27  C   UNL     1      -3.612   0.128  -3.989  1.00  0.00     0.037 A 
ATOM     28  C   UNL     1      -3.803   1.368  -3.361  1.00  0.00     0.029 A 
ATOM     29  C   UNL     1      -3.762   0.053  -5.380  1.00  0.00     0.029 A 
ATOM     30  C   UNL     1      -4.153   2.499  -4.102  1.00  0.00     0.041 A 
ATOM     31  C   UNL     1      -4.116   1.179  -6.125  1.00  0.00     0.041 A 
ATOM     32  C   UNL     1      -4.309   2.392  -5.478  1.00  0.00     0.123 A 
ATOM     33  F   UNL     1      -4.648   3.475  -6.191  1.00  0.00    -0.207 F 
ENDBRANCH  26  27
ENDBRANCH   8  20
ENDBRANCH   6   8
ENDBRANCH   5   6
ENDBRANCH   4   5
ENDBRANCH   3   4
ENDBRANCH   2   3
ENDBRANCH   1   2
BRANCH   1  34
ATOM     34  C   UNL     1      -5.503  -1.165   2.547  1.00  0.00     0.261 C 
BRANCH  34  35
ATOM     35  O   UNL     1      -4.376  -0.667   3.288  1.00  0.00    -0.460 OA
BRANCH  35  36
ATOM     36  C   UNL     1      -4.714   0.016   4.406  1.00  0.00     0.338 C 
ATOM     37  O   UNL     1      -5.828   0.429   4.700  1.00  0.00    -0.246 OA
BRANCH  36  38
ATOM     38  C   UNL     1      -3.583   0.051   5.347  1.00  0.00     0.060 A 
ATOM     39  C   UNL     1      -3.720  -0.671   6.538  1.00  0.00     0.016 A 
ATOM     40  C   UNL     1      -2.474   0.873   5.136  1.00  0.00     0.016 A 
ATOM     41  C   UNL     1      -2.783  -0.517   7.556  1.00  0.00     0.010 A 
ATOM     42  C   UNL     1      -1.537   1.033   6.166  1.00  0.00     0.010 A 
ATOM     43  C   UNL     1      -1.715   0.378   7.399  1.00  0.00    -0.014 A 
BRANCH  43  44
ATOM     44  C   UNL     1      -0.924   0.753   8.600  1.00  0.00     0.031 A 
ATOM     45  C   UNL     1      -1.293   2.009   9.347  1.00  0.00     0.074 A 
ATOM     46  C   UNL     1       0.041  -0.056   9.074  1.00  0.00     0.049 A 
ATOM     47  N   UNL     1      -0.799   2.492  10.459  1.00  0.00    -0.248 NA
ATOM     48  C   UNL     1      -2.366   2.826   8.761  1.00  0.00     0.031 C 
ATOM     49  C   UNL     1       0.458  -1.317   8.463  1.00  0.00     0.029 A 
ATOM     50  N   UNL     1       0.835   0.058  10.188  1.00  0.00    -0.354 N 
ATOM     51  C   UNL     1      -1.507   3.663  10.712  1.00  0.00     0.074 A 
ATOM     52  C   UNL     1      -2.431   3.839   9.611  1.00  0.00     0.031 C 
ATOM     53  C   UNL     1       1.431  -1.863   9.214  1.00  0.00     0.029 A 
ATOM     54  C   UNL     1       1.722  -0.980  10.343  1.00  0.00     0.049 A 
ATOM     55  H   UNL     1       0.774   0.813  10.817  1.00  0.00     0.167 HD
ATOM     56  C   UNL     1      -1.408   4.505  11.770  1.00  0.00     0.034 A 
ATOM     57  C   UNL     1       2.667  -1.190  11.283  1.00  0.00     0.034 A 
ATOM     58  C   UNL     1      -0.471   4.329  12.854  1.00  0.00     0.049 A 
ATOM     59  C   UNL     1       2.812  -0.198  12.412  1.00  0.00     0.074 A 
ATOM     60  C   UNL     1      -0.288   5.120  13.975  1.00  0.00     0.029 A 
ATOM     61  N   UNL     1       0.451   3.294  12.947  1.00  0.00    -0.354 N 
ATOM     62  N   UNL     1       2.126   0.897  12.646  1.00  0.00    -0.248 NA
ATOM     63  C   UNL     1       3.851  -0.481  13.412  1.00  0.00     0.031 C 
ATOM     64  C   UNL     1       0.787   4.604  14.707  1.00  0.00     0.029 A 
ATOM     65  C   UNL     1       1.226   3.445  14.088  1.00  0.00     0.049 A 
ATOM     66  H   UNL     1       0.541   2.559  12.298  1.00  0.00     0.167 HD
ATOM     67  C   UNL     1       2.630   1.414  13.838  1.00  0.00     0.074 A 
ATOM     68  C   UNL     1       3.666   0.503  14.279  1.00  0.00     0.031 C 
ATOM     69  C   UNL     1       2.267   2.537  14.511  1.00  0.00     0.034 A 
BRANCH  56  70
ATOM     70  C   UNL     1      -2.303   5.722  11.771  1.00  0.00     0.023 A 
ATOM     71  C   UNL     1      -3.703   5.613  11.847  1.00  0.00     0.031 A 
ATOM     72  C   UNL     1      -1.749   7.009  11.657  1.00  0.00     0.131 A 
ATOM     73  C   UNL     1      -4.502   6.762  11.739  1.00  0.00     0.055 A 
ATOM     74  C   UNL     1      -2.546   8.155  11.627  1.00  0.00     0.041 A 
ATOM     75  F   UNL     1      -0.420   7.175  11.556  1.00  0.00    -0.206 F 
ATOM     76  C   UNL     1      -3.932   8.034  11.654  1.00  0.00     0.022 A 
BRANCH  73  77
ATOM     77  S   UNL     1      -6.297   6.560  11.567  1.00  0.00     0.124 S 
ATOM     78  O   UNL     1      -6.387   5.736  10.364  1.00  0.00    -0.237 OA
ATOM     79  O   UNL     1      -6.662   5.907  12.819  1.00  0.00    -0.237 OA
ATOM     80  O   UNL     1      -6.783   7.930  11.412  1.00  0.00    -0.744 OA
ENDBRANCH  73  77
ENDBRANCH  56  70
BRANCH  57  81
ATOM     81  C   UNL     1       3.576  -2.368  11.188  1.00  0.00     0.023 A 
ATOM     82  C   UNL     1       3.578  -3.373  12.168  1.00  0.00     0.031 A 
ATOM     83  C   UNL     1       4.504  -2.472  10.135  1.00  0.00     0.131 A 
ATOM     84  C   UNL     1       4.519  -4.414  12.100  1.00  0.00     0.055 A 
ATOM     85  C   UNL     1       5.403  -3.535  10.045  1.00  0.00     0.041 A 
ATOM     86  F   UNL     1       4.545  -1.537   9.172  1.00  0.00    -0.206 F 
ATOM     87  C   UNL     1       5.423  -4.508  11.039  1.00  0.00     0.022 A 
BRANCH  84  88
ATOM     88  S   UNL     1       4.603  -5.603  13.468  1.00  0.00     0.124 S 
ATOM     89  O   UNL     1       4.869  -4.730  14.605  1.00  0.00    -0.237 OA
ATOM     90  O   UNL     1       3.277  -6.211  13.421  1.00  0.00    -0.237 OA
ATOM     91  O   UNL     1       5.704  -6.485  13.085  1.00  0.00    -0.744 OA
ENDBRANCH  84  88
ENDBRANCH  57  81
BRANCH  69  92
ATOM     92  C   UNL     1       2.970   2.812  15.819  1.00  0.00     0.023 A 
ATOM     93  C   UNL     1       4.341   3.121  15.874  1.00  0.00     0.031 A 
ATOM     94  C   UNL     1       2.260   2.743  17.031  1.00  0.00     0.131 A 
ATOM     95  C   UNL     1       4.971   3.288  17.117  1.00  0.00     0.055 A 
ATOM     96  C   UNL     1       2.879   2.971  18.261  1.00  0.00     0.041 A 
ATOM     97  F   UNL     1       0.949   2.451  17.039  1.00  0.00    -0.206 F 
ATOM     98  C   UNL     1       4.245   3.230  18.310  1.00  0.00     0.022 A 
BRANCH  95  99
ATOM     99  S   UNL     1       6.774   3.483  17.161  1.00  0.00     0.124 S 
ATOM    100  O   UNL     1       7.227   2.278  16.474  1.00  0.00    -0.237 OA
ATOM    101  O   UNL     1       6.970   4.738  16.443  1.00  0.00    -0.237 OA
ATOM    102  O   UNL     1       7.079   3.533  18.590  1.00  0.00    -0.744 OA
ENDBRANCH  95  99
ENDBRANCH  69  92
ENDBRANCH  43  44
ENDBRANCH  36  38
ENDBRANCH  35  36
ENDBRANCH  34  35
ENDBRANCH   1  34
TORSDOF 20
