REMARK SMILES NS(=O)(=O)c1ccc(-c2coc(=O)n2-c2ccc(C(=O)OCCOCCOC(=O)c3ccc(-c4c5nc(c(-c6cc(S(=O)(=O)[O-])ccc6F)c6ccc([nH]6)c(-c6cc(S(=O)(=O)[O-])ccc6F)c6nc(c(-c7cc(S(=O)(=O)[O-])ccc7F)c7ccc4[nH]7)C=C6)C=C5)cc3)cc2)cc1
REMARK SMILES IDX 23 1 22 2 21 3 19 4 20 5 18 6 15 7 16 8 94 9 17 10 93 11
REMARK SMILES IDX 14 12 9 13 10 14 11 15 12 16 13 17 8 18 5 19 6 20 96 21 7 22
REMARK SMILES IDX 95 23 2 24 3 25 4 26 1 27 24 30 25 31 26 32 27 33 28 34
REMARK SMILES IDX 29 35 30 36 31 37 92 38 32 39 91 40 33 41 34 42 35 43 85 44
REMARK SMILES IDX 36 45 90 46 84 47 86 48 37 49 89 50 83 51 82 52 38 54 70 55
REMARK SMILES IDX 50 56 69 57 51 58 54 59 68 60 87 61 52 62 53 63 67 65 88 66
REMARK SMILES IDX 55 67 39 68 40 69 48 70 41 71 47 72 49 73 46 74 42 75 43 76
REMARK SMILES IDX 44 77 45 78 71 79 72 80 80 81 73 82 79 83 81 84 78 85 74 86
REMARK SMILES IDX 75 87 76 88 77 89 56 90 57 91 65 92 58 93 64 94 66 95 63 96
REMARK SMILES IDX 59 97 60 98 61 99 62 100
REMARK H PARENT 1 28 1 29 86 53 54 64
REMARK Flexibility Score: inf
ROOT
ATOM      1  C   UNL     1       7.542  -6.022  -1.544  1.00  0.00     0.202 C 
ENDROOT
BRANCH   1   2
ATOM      2  C   UNL     1       6.566  -4.856  -1.385  1.00  0.00     0.261 C 
BRANCH   2   3
ATOM      3  O   UNL     1       6.038  -4.755  -0.055  1.00  0.00    -0.460 OA
BRANCH   3   4
ATOM      4  C   UNL     1       4.745  -5.136   0.062  1.00  0.00     0.338 C 
ATOM      5  O   UNL     1       3.987  -5.472  -0.833  1.00  0.00    -0.246 OA
BRANCH   4   6
ATOM      6  C   UNL     1       4.375  -5.244   1.486  1.00  0.00     0.060 A 
ATOM      7  C   UNL     1       3.283  -5.347   4.040  1.00  0.00     0.053 A 
ATOM      8  C   UNL     1       3.095  -6.425   3.173  1.00  0.00     0.028 A 
ATOM      9  C   UNL     1       4.125  -4.285   3.668  1.00  0.00     0.028 A 
ATOM     10  C   UNL     1       3.611  -6.353   1.881  1.00  0.00     0.018 A 
ATOM     11  C   UNL     1       4.695  -4.241   2.397  1.00  0.00     0.018 A 
BRANCH   7  12
ATOM     12  N   UNL     1       2.474  -5.225   5.186  1.00  0.00    -0.242 N 
ATOM     13  C   UNL     1       1.669  -4.168   5.510  1.00  0.00     0.095 A 
ATOM     14  C   UNL     1       1.090  -4.489   6.661  1.00  0.00     0.228 A 
ATOM     15  O   UNL     1       1.444  -5.746   7.149  1.00  0.00    -0.415 OA
ATOM     16  C   UNL     1       2.297  -6.215   6.147  1.00  0.00     0.424 A 
ATOM     17  O   UNL     1       2.787  -7.335   6.171  1.00  0.00    -0.223 OA
BRANCH  13  18
ATOM     18  C   UNL     1       1.346  -3.043   4.630  1.00  0.00     0.002 A 
ATOM     19  C   UNL     1       0.764  -0.927   2.885  1.00  0.00     0.082 A 
ATOM     20  C   UNL     1       0.582  -2.240   2.453  1.00  0.00     0.022 A 
ATOM     21  C   UNL     1       1.226  -0.661   4.178  1.00  0.00     0.022 A 
ATOM     22  C   UNL     1       0.866  -3.290   3.328  1.00  0.00     0.012 A 
ATOM     23  C   UNL     1       1.512  -1.719   5.049  1.00  0.00     0.012 A 
BRANCH  19  24
ATOM     24  S   UNL     1       0.414   0.410   1.782  1.00  0.00     0.238 S 
ATOM     25  O   UNL     1       1.128   1.589   2.229  1.00  0.00    -0.207 OA
ATOM     26  O   UNL     1      -0.997   0.416   1.502  1.00  0.00    -0.207 OA
BRANCH  24  27
ATOM     27  N   UNL     1       1.181  -0.051   0.360  1.00  0.00    -0.225 NA
ATOM     28  H   UNL     1       1.037   0.666  -0.351  1.00  0.00     0.137 HD
ATOM     29  H   UNL     1       0.792  -0.936   0.035  1.00  0.00     0.137 HD
ENDBRANCH  24  27
ENDBRANCH  19  24
ENDBRANCH  13  18
ENDBRANCH   7  12
ENDBRANCH   4   6
ENDBRANCH   3   4
ENDBRANCH   2   3
ENDBRANCH   1   2
BRANCH   1  30
ATOM     30  O   UNL     1       7.060  -7.348  -1.331  1.00  0.00    -0.374 OA
BRANCH  30  31
ATOM     31  C   UNL     1       6.716  -7.785  -0.020  1.00  0.00     0.202 C 
BRANCH  31  32
ATOM     32  C   UNL     1       7.808  -7.952   1.025  1.00  0.00     0.261 C 
BRANCH  32  33
ATOM     33  O   UNL     1       8.546  -6.760   1.226  1.00  0.00    -0.460 OA
BRANCH  33  34
ATOM     34  C   UNL     1       9.747  -6.760   0.601  1.00  0.00     0.338 C 
ATOM     35  O   UNL     1      10.094  -7.470  -0.327  1.00  0.00    -0.246 OA
BRANCH  34  36
ATOM     36  C   UNL     1      10.640  -5.854   1.323  1.00  0.00     0.060 A 
ATOM     37  C   UNL     1      11.966  -5.822   0.888  1.00  0.00     0.016 A 
ATOM     38  C   UNL     1      10.249  -5.379   2.583  1.00  0.00     0.016 A 
ATOM     39  C   UNL     1      12.943  -5.567   1.821  1.00  0.00     0.010 A 
ATOM     40  C   UNL     1      11.224  -5.162   3.518  1.00  0.00     0.010 A 
ATOM     41  C   UNL     1      12.553  -5.355   3.147  1.00  0.00    -0.014 A 
BRANCH  41  42
ATOM     42  C   UNL     1      13.571  -5.169   4.154  1.00  0.00     0.031 A 
ATOM     43  C   UNL     1      14.141  -3.808   4.067  1.00  0.00     0.074 A 
ATOM     44  C   UNL     1      13.808  -6.083   5.115  1.00  0.00     0.049 A 
ATOM     45  N   UNL     1      15.279  -3.469   3.557  1.00  0.00    -0.248 NA
ATOM     46  C   UNL     1      13.224  -2.669   4.279  1.00  0.00     0.031 C 
ATOM     47  C   UNL     1      13.097  -7.337   5.375  1.00  0.00     0.029 A 
ATOM     48  N   UNL     1      14.699  -6.033   6.139  1.00  0.00    -0.354 N 
ATOM     49  C   UNL     1      15.324  -2.087   3.692  1.00  0.00     0.074 A 
ATOM     50  C   UNL     1      13.960  -1.666   3.803  1.00  0.00     0.031 C 
ATOM     51  C   UNL     1      13.431  -7.797   6.605  1.00  0.00     0.029 A 
ATOM     52  C   UNL     1      14.462  -6.942   7.170  1.00  0.00     0.049 A 
ATOM     53  H   UNL     1      15.455  -5.402   6.152  1.00  0.00     0.167 HD
ATOM     54  C   UNL     1      16.469  -1.477   4.104  1.00  0.00     0.034 A 
ATOM     55  C   UNL     1      15.031  -6.928   8.412  1.00  0.00     0.034 A 
ATOM     56  C   UNL     1      17.605  -2.361   3.911  1.00  0.00     0.049 A 
ATOM     57  C   UNL     1      16.271  -6.113   8.291  1.00  0.00     0.074 A 
ATOM     58  C   UNL     1      18.144  -3.016   2.819  1.00  0.00     0.029 A 
ATOM     59  N   UNL     1      18.114  -3.010   5.018  1.00  0.00    -0.354 N 
ATOM     60  N   UNL     1      17.292  -6.483   7.564  1.00  0.00    -0.248 NA
ATOM     61  C   UNL     1      16.164  -4.676   8.512  1.00  0.00     0.031 C 
ATOM     62  C   UNL     1      18.540  -4.295   3.311  1.00  0.00     0.029 A 
ATOM     63  C   UNL     1      18.323  -4.327   4.690  1.00  0.00     0.049 A 
ATOM     64  H   UNL     1      18.296  -2.598   5.893  1.00  0.00     0.167 HD
ATOM     65  C   UNL     1      17.688  -5.340   6.883  1.00  0.00     0.074 A 
ATOM     66  C   UNL     1      17.007  -4.239   7.568  1.00  0.00     0.031 C 
ATOM     67  C   UNL     1      18.270  -5.419   5.647  1.00  0.00     0.034 A 
BRANCH  54  68
ATOM     68  C   UNL     1      16.495  -0.329   5.102  1.00  0.00     0.023 A 
ATOM     69  C   UNL     1      17.768   0.064   5.547  1.00  0.00     0.031 A 
ATOM     70  C   UNL     1      15.409   0.183   5.854  1.00  0.00     0.131 A 
ATOM     71  C   UNL     1      17.931   0.747   6.761  1.00  0.00     0.055 A 
ATOM     72  C   UNL     1      15.575   0.915   7.033  1.00  0.00     0.041 A 
ATOM     73  F   UNL     1      14.126  -0.031   5.550  1.00  0.00    -0.206 F 
ATOM     74  C   UNL     1      16.842   1.163   7.519  1.00  0.00     0.022 A 
BRANCH  71  75
ATOM     75  S   UNL     1      19.605   0.894   7.423  1.00  0.00     0.124 S 
ATOM     76  O   UNL     1      20.030  -0.501   7.430  1.00  0.00    -0.237 OA
ATOM     77  O   UNL     1      20.238   1.758   6.432  1.00  0.00    -0.237 OA
ATOM     78  O   UNL     1      19.396   1.496   8.736  1.00  0.00    -0.744 OA
ENDBRANCH  71  75
ENDBRANCH  54  68
BRANCH  55  79
ATOM     79  C   UNL     1      14.364  -7.229   9.721  1.00  0.00     0.023 A 
ATOM     80  C   UNL     1      15.063  -7.514  10.920  1.00  0.00     0.031 A 
ATOM     81  C   UNL     1      12.975  -6.996   9.852  1.00  0.00     0.131 A 
ATOM     82  C   UNL     1      14.373  -7.564  12.162  1.00  0.00     0.055 A 
ATOM     83  C   UNL     1      12.303  -7.044  11.076  1.00  0.00     0.041 A 
ATOM     84  F   UNL     1      12.230  -6.626   8.799  1.00  0.00    -0.206 F 
ATOM     85  C   UNL     1      13.000  -7.320  12.238  1.00  0.00     0.022 A 
BRANCH  82  86
ATOM     86  S   UNL     1      15.256  -7.885  13.731  1.00  0.00     0.124 S 
ATOM     87  O   UNL     1      15.732  -9.251  13.550  1.00  0.00    -0.237 OA
ATOM     88  O   UNL     1      16.271  -6.838  13.741  1.00  0.00    -0.237 OA
ATOM     89  O   UNL     1      14.215  -7.732  14.749  1.00  0.00    -0.744 OA
ENDBRANCH  82  86
ENDBRANCH  55  79
BRANCH  67  90
ATOM     90  C   UNL     1      18.738  -6.779   5.160  1.00  0.00     0.023 A 
ATOM     91  C   UNL     1      17.912  -7.913   4.969  1.00  0.00     0.031 A 
ATOM     92  C   UNL     1      20.081  -6.878   4.755  1.00  0.00     0.131 A 
ATOM     93  C   UNL     1      18.449  -9.088   4.401  1.00  0.00     0.055 A 
ATOM     94  C   UNL     1      20.600  -8.032   4.173  1.00  0.00     0.041 A 
ATOM     95  F   UNL     1      20.909  -5.829   4.885  1.00  0.00    -0.206 F 
ATOM     96  C   UNL     1      19.787  -9.145   3.998  1.00  0.00     0.022 A 
BRANCH  93  97
ATOM     97  S   UNL     1      17.421 -10.581   4.187  1.00  0.00     0.124 S 
ATOM     98  O   UNL     1      16.792 -10.749   5.492  1.00  0.00    -0.237 OA
ATOM     99  O   UNL     1      16.533 -10.199   3.093  1.00  0.00    -0.237 OA
ATOM    100  O   UNL     1      18.395 -11.619   3.842  1.00  0.00    -0.744 OA
ENDBRANCH  93  97
ENDBRANCH  67  90
ENDBRANCH  41  42
ENDBRANCH  34  36
ENDBRANCH  33  34
ENDBRANCH  32  33
ENDBRANCH  31  32
ENDBRANCH  30  31
ENDBRANCH   1  30
TORSDOF 21
