REMARK SMILES Cc1noc(C[N@H+]2CCC[C@@H](c3ccc(C(=O)OCCOCCOC(=O)c4ccc(-c5c6nc(c(-c7cc(S(=O)(=O)[O-])ccc7F)c7ccc([nH]7)c(-c7cc(S(=O)(=O)[O-])ccc7F)c7nc(c(-c8cc(S(=O)(=O)[O-])ccc8F)c8ccc5[nH]8)C=C7)C=C6)cc4)cc3)C2)n1
REMARK SMILES IDX 21 1 20 2 19 3 18 4 16 5 17 6 15 7 12 8 13 9 91 10 14 11
REMARK SMILES IDX 90 12 11 13 7 14 8 15 92 16 9 18 10 19 6 20 5 21 1 22 2 23
REMARK SMILES IDX 3 24 93 25 4 26 22 27 23 28 24 29 25 30 26 31 27 32 28 33
REMARK SMILES IDX 89 34 29 35 88 36 30 37 31 38 32 39 82 40 33 41 87 42 81 43
REMARK SMILES IDX 83 44 34 45 86 46 80 47 79 48 35 50 67 51 47 52 66 53 48 54
REMARK SMILES IDX 51 55 65 56 84 57 49 58 50 59 64 61 85 62 52 63 36 64 37 65
REMARK SMILES IDX 45 66 38 67 44 68 46 69 43 70 39 71 40 72 41 73 42 74 68 75
REMARK SMILES IDX 69 76 77 77 70 78 76 79 78 80 75 81 71 82 72 83 73 84 74 85
REMARK SMILES IDX 53 86 54 87 62 88 55 89 61 90 63 91 60 92 56 93 57 94 58 95
REMARK SMILES IDX 59 96
REMARK H PARENT 7 17 83 49 51 60
REMARK Flexibility Score: inf
ROOT
ATOM      1  O   UNL     1      -6.331   7.224  -3.736  1.00  0.00    -0.374 OA
ENDROOT
BRANCH   1   2
ATOM      2  C   UNL     1      -6.179   8.477  -3.069  1.00  0.00     0.202 C 
BRANCH   2   3
ATOM      3  C   UNL     1      -5.428   8.465  -1.734  1.00  0.00     0.261 C 
BRANCH   3   4
ATOM      4  O   UNL     1      -4.089   7.969  -1.885  1.00  0.00    -0.460 OA
BRANCH   4   5
ATOM      5  C   UNL     1      -3.889   6.736  -1.364  1.00  0.00     0.338 C 
ATOM      6  O   UNL     1      -4.667   6.093  -0.675  1.00  0.00    -0.246 OA
BRANCH   5   7
ATOM      7  C   UNL     1      -2.633   6.154  -1.885  1.00  0.00     0.060 A 
ATOM      8  C   UNL     1      -0.270   4.850  -2.650  1.00  0.00    -0.039 A 
ATOM      9  C   UNL     1      -1.477   4.139  -2.538  1.00  0.00     0.005 A 
ATOM     10  C   UNL     1      -0.288   6.244  -2.474  1.00  0.00     0.005 A 
ATOM     11  C   UNL     1      -2.643   4.781  -2.139  1.00  0.00     0.016 A 
ATOM     12  C   UNL     1      -1.470   6.899  -2.101  1.00  0.00     0.016 A 
BRANCH   8  13
ATOM     13  C   UNL     1       1.053   4.098  -2.766  1.00  0.00     0.074 C 
ATOM     14  N   UNL     1       2.374   2.339  -1.463  1.00  0.00    -0.327 N 
ATOM     15  C   UNL     1       2.368   1.471  -2.647  1.00  0.00     0.262 C 
ATOM     16  C   UNL     1       1.235   3.273  -1.467  1.00  0.00     0.270 C 
ATOM     17  H   UNL     1       3.233   2.886  -1.506  1.00  0.00     0.348 HD
ATOM     18  C   UNL     1       2.357   2.292  -3.938  1.00  0.00     0.062 C 
ATOM     19  C   UNL     1       1.128   3.196  -4.007  1.00  0.00     0.020 C 
BRANCH  14  20
ATOM     20  C   UNL     1       2.390   1.546  -0.199  1.00  0.00     0.364 C 
BRANCH  20  21
ATOM     21  C   UNL     1       1.192   0.674   0.038  1.00  0.00     0.281 A 
ATOM     22  C   UNL     1      -2.187  -0.246   0.212  1.00  0.00     0.093 C 
ATOM     23  C   UNL     1      -0.714  -0.173   0.175  1.00  0.00     0.169 A 
ATOM     24  N   UNL     1       0.066  -1.229  -0.091  1.00  0.00    -0.063 NA
ATOM     25  N   UNL     1      -0.050   1.014   0.313  1.00  0.00    -0.191 NA
ATOM     26  O   UNL     1       1.344  -0.666  -0.182  1.00  0.00    -0.333 OA
ENDBRANCH  20  21
ENDBRANCH  14  20
ENDBRANCH   8  13
ENDBRANCH   5   7
ENDBRANCH   4   5
ENDBRANCH   3   4
ENDBRANCH   2   3
ENDBRANCH   1   2
BRANCH   1  27
ATOM     27  C   UNL     1      -5.219   6.746  -4.494  1.00  0.00     0.202 C 
BRANCH  27  28
ATOM     28  C   UNL     1      -4.949   7.413  -5.849  1.00  0.00     0.261 C 
BRANCH  28  29
ATOM     29  O   UNL     1      -4.505   8.774  -5.709  1.00  0.00    -0.460 OA
BRANCH  29  30
ATOM     30  C   UNL     1      -5.396   9.709  -6.119  1.00  0.00     0.338 C 
ATOM     31  O   UNL     1      -6.482   9.508  -6.647  1.00  0.00    -0.246 OA
BRANCH  30  32
ATOM     32  C   UNL     1      -4.968  11.040  -5.650  1.00  0.00     0.060 A 
ATOM     33  C   UNL     1      -5.877  11.786  -4.887  1.00  0.00     0.016 A 
ATOM     34  C   UNL     1      -3.722  11.570  -5.987  1.00  0.00     0.016 A 
ATOM     35  C   UNL     1      -5.556  13.081  -4.487  1.00  0.00     0.010 A 
ATOM     36  C   UNL     1      -3.406  12.875  -5.594  1.00  0.00     0.010 A 
ATOM     37  C   UNL     1      -4.332  13.646  -4.866  1.00  0.00    -0.014 A 
BRANCH  37  38
ATOM     38  C   UNL     1      -4.078  15.087  -4.624  1.00  0.00     0.031 A 
ATOM     39  C   UNL     1      -4.255  16.058  -5.758  1.00  0.00     0.074 A 
ATOM     40  C   UNL     1      -3.714  15.527  -3.407  1.00  0.00     0.049 A 
ATOM     41  N   UNL     1      -4.041  17.348  -5.792  1.00  0.00    -0.248 NA
ATOM     42  C   UNL     1      -4.735  15.490  -7.026  1.00  0.00     0.031 C 
ATOM     43  C   UNL     1      -3.568  14.690  -2.217  1.00  0.00     0.029 A 
ATOM     44  N   UNL     1      -3.400  16.790  -2.972  1.00  0.00    -0.354 N 
ATOM     45  C   UNL     1      -4.358  17.749  -7.086  1.00  0.00     0.074 A 
ATOM     46  C   UNL     1      -4.730  16.553  -7.814  1.00  0.00     0.031 C 
ATOM     47  C   UNL     1      -3.196  15.465  -1.184  1.00  0.00     0.029 A 
ATOM     48  C   UNL     1      -3.031  16.841  -1.649  1.00  0.00     0.049 A 
ATOM     49  H   UNL     1      -3.435  17.584  -3.553  1.00  0.00     0.167 HD
ATOM     50  C   UNL     1      -4.352  19.000  -7.613  1.00  0.00     0.034 A 
ATOM     51  C   UNL     1      -2.589  17.877  -0.908  1.00  0.00     0.034 A 
ATOM     52  C   UNL     1      -3.955  20.176  -6.878  1.00  0.00     0.049 A 
ATOM     53  C   UNL     1      -2.457  19.236  -1.552  1.00  0.00     0.074 A 
ATOM     54  C   UNL     1      -3.922  21.493  -7.304  1.00  0.00     0.029 A 
ATOM     55  N   UNL     1      -3.499  20.177  -5.564  1.00  0.00    -0.354 N 
ATOM     56  N   UNL     1      -2.763  19.607  -2.774  1.00  0.00    -0.248 NA
ATOM     57  C   UNL     1      -1.914  20.313  -0.714  1.00  0.00     0.031 C 
ATOM     58  C   UNL     1      -3.370  22.273  -6.281  1.00  0.00     0.029 A 
ATOM     59  C   UNL     1      -3.136  21.461  -5.183  1.00  0.00     0.049 A 
ATOM     60  H   UNL     1      -3.441  19.381  -4.988  1.00  0.00     0.167 HD
ATOM     61  C   UNL     1      -2.479  20.970  -2.839  1.00  0.00     0.074 A 
ATOM     62  C   UNL     1      -1.987  21.353  -1.532  1.00  0.00     0.031 C 
ATOM     63  C   UNL     1      -2.622  21.828  -3.883  1.00  0.00     0.034 A 
BRANCH  50  64
ATOM     64  C   UNL     1      -4.729  19.131  -9.071  1.00  0.00     0.023 A 
ATOM     65  C   UNL     1      -5.998  18.751  -9.544  1.00  0.00     0.031 A 
ATOM     66  C   UNL     1      -3.785  19.576 -10.014  1.00  0.00     0.131 A 
ATOM     67  C   UNL     1      -6.253  18.724 -10.923  1.00  0.00     0.055 A 
ATOM     68  C   UNL     1      -4.078  19.637 -11.378  1.00  0.00     0.041 A 
ATOM     69  F   UNL     1      -2.549  19.931  -9.630  1.00  0.00    -0.206 F 
ATOM     70  C   UNL     1      -5.311  19.189 -11.843  1.00  0.00     0.022 A 
BRANCH  67  71
ATOM     71  S   UNL     1      -7.757  17.893 -11.507  1.00  0.00     0.124 S 
ATOM     72  O   UNL     1      -7.612  16.567 -10.908  1.00  0.00    -0.237 OA
ATOM     73  O   UNL     1      -8.815  18.732 -10.956  1.00  0.00    -0.237 OA
ATOM     74  O   UNL     1      -7.625  17.927 -12.962  1.00  0.00    -0.744 OA
ENDBRANCH  67  71
ENDBRANCH  50  64
BRANCH  51  75
ATOM     75  C   UNL     1      -2.210  17.675   0.519  1.00  0.00     0.023 A 
ATOM     76  C   UNL     1      -2.916  18.315   1.548  1.00  0.00     0.031 A 
ATOM     77  C   UNL     1      -1.110  16.873   0.872  1.00  0.00     0.131 A 
ATOM     78  C   UNL     1      -2.495  18.172   2.879  1.00  0.00     0.055 A 
ATOM     79  C   UNL     1      -0.725  16.694   2.202  1.00  0.00     0.041 A 
ATOM     80  F   UNL     1      -0.397  16.241  -0.074  1.00  0.00    -0.206 F 
ATOM     81  C   UNL     1      -1.413  17.354   3.214  1.00  0.00     0.022 A 
BRANCH  78  82
ATOM     82  S   UNL     1      -3.343  19.130   4.165  1.00  0.00     0.124 S 
ATOM     83  O   UNL     1      -3.099  20.498   3.724  1.00  0.00    -0.237 OA
ATOM     84  O   UNL     1      -4.715  18.651   4.045  1.00  0.00    -0.237 OA
ATOM     85  O   UNL     1      -2.653  18.736   5.392  1.00  0.00    -0.744 OA
ENDBRANCH  78  82
ENDBRANCH  51  75
BRANCH  63  86
ATOM     86  C   UNL     1      -2.271  23.276  -3.635  1.00  0.00     0.023 A 
ATOM     87  C   UNL     1      -0.950  23.686  -3.378  1.00  0.00     0.031 A 
ATOM     88  C   UNL     1      -3.275  24.261  -3.647  1.00  0.00     0.131 A 
ATOM     89  C   UNL     1      -0.677  25.033  -3.094  1.00  0.00     0.055 A 
ATOM     90  C   UNL     1      -2.989  25.609  -3.426  1.00  0.00     0.041 A 
ATOM     91  F   UNL     1      -4.555  23.929  -3.882  1.00  0.00    -0.206 F 
ATOM     92  C   UNL     1      -1.685  26.000  -3.135  1.00  0.00     0.022 A 
BRANCH  89  93
ATOM     93  S   UNL     1       1.002  25.495  -2.584  1.00  0.00     0.124 S 
ATOM     94  O   UNL     1       1.187  24.685  -1.384  1.00  0.00    -0.237 OA
ATOM     95  O   UNL     1       1.799  25.109  -3.743  1.00  0.00    -0.237 OA
ATOM     96  O   UNL     1       0.906  26.935  -2.351  1.00  0.00    -0.744 OA
ENDBRANCH  89  93
ENDBRANCH  63  86
ENDBRANCH  37  38
ENDBRANCH  30  32
ENDBRANCH  29  30
ENDBRANCH  28  29
ENDBRANCH  27  28
ENDBRANCH   1  27
TORSDOF 20
