REMARK SMILES CCC[C@H](CNC(=O)N1CCN2C(=O)NC[C@H]2C1)C(=O)OCCOCCOC(=O)c1ccc(-c2c3nc(c(-c4cc(S(=O)(=O)[O-])ccc4F)c4ccc([nH]4)c(-c4cc(S(=O)(=O)[O-])ccc4F)c4nc(c(-c5cc(S(=O)(=O)[O-])ccc5F)c5ccc2[nH]5)C=C4)C=C3)cc1
REMARK SMILES IDX 24 1 23 2 22 3 21 4 19 5 20 6 4 7 3 8 2 9 1 10 5 11 6 12
REMARK SMILES IDX 7 13 8 15 9 16 10 17 18 18 11 19 17 20 12 21 16 22 13 23
REMARK SMILES IDX 15 24 14 25 25 27 26 28 27 29 28 30 29 31 30 32 31 33 92 34
REMARK SMILES IDX 32 35 91 36 33 37 34 38 35 39 85 40 36 41 90 42 84 43 86 44
REMARK SMILES IDX 37 45 89 46 83 47 82 48 38 50 70 51 50 52 69 53 51 54 54 55
REMARK SMILES IDX 68 56 87 57 52 58 53 59 67 61 88 62 55 63 39 64 40 65 48 66
REMARK SMILES IDX 41 67 47 68 49 69 46 70 42 71 43 72 44 73 45 74 71 75 72 76
REMARK SMILES IDX 80 77 73 78 79 79 81 80 78 81 74 82 75 83 76 84 77 85 56 86
REMARK SMILES IDX 57 87 65 88 58 89 64 90 66 91 63 92 59 93 60 94 61 95 62 96
REMARK H PARENT 6 14 15 26 86 49 54 60
REMARK Flexibility Score: inf
ROOT
ATOM      1  O   UNL     1       3.454   5.670  -1.290  1.00  0.00    -0.374 OA
ENDROOT
BRANCH   1   2
ATOM      2  C   UNL     1       2.437   6.543  -0.807  1.00  0.00     0.202 C 
BRANCH   2   3
ATOM      3  C   UNL     1       0.985   6.216  -1.156  1.00  0.00     0.261 C 
BRANCH   3   4
ATOM      4  O   UNL     1       0.514   5.007  -0.539  1.00  0.00    -0.463 OA
BRANCH   4   5
ATOM      5  C   UNL     1       0.502   3.906  -1.337  1.00  0.00     0.310 C 
ATOM      6  O   UNL     1       0.971   3.844  -2.467  1.00  0.00    -0.252 OA
BRANCH   5   7
ATOM      7  C   UNL     1      -0.172   2.733  -0.662  1.00  0.00     0.118 C 
BRANCH   7   8
ATOM      8  C   UNL     1      -1.708   2.873  -0.598  1.00  0.00     0.017 C 
BRANCH   8   9
ATOM      9  C   UNL     1      -2.392   4.072  -1.276  1.00  0.00    -0.002 C 
ATOM     10  C   UNL     1      -2.294   4.142  -2.793  1.00  0.00     0.004 C 
ENDBRANCH   8   9
ENDBRANCH   7   8
BRANCH   7  11
ATOM     11  C   UNL     1       0.523   2.457   0.695  1.00  0.00     0.133 C 
BRANCH  11  12
ATOM     12  N   UNL     1      -0.097   1.393   1.477  1.00  0.00    -0.337 N 
ATOM     13  C   UNL     1       0.203   0.080   1.585  1.00  0.00     0.317 C 
ATOM     14  H   UNL     1      -0.866   1.681   2.020  1.00  0.00     0.165 HD
ATOM     15  O   UNL     1      -0.719  -0.696   1.837  1.00  0.00    -0.249 OA
BRANCH  13  16
ATOM     16  N   UNL     1       1.472  -0.351   1.351  1.00  0.00    -0.321 N 
ATOM     17  C   UNL     1       2.701   0.288   1.867  1.00  0.00     0.143 C 
ATOM     18  C   UNL     1       1.665  -1.731   0.889  1.00  0.00     0.148 C 
ATOM     19  C   UNL     1       3.872   0.212   0.863  1.00  0.00     0.143 C 
ATOM     20  C   UNL     1       2.669  -1.701  -0.255  1.00  0.00     0.125 C 
ATOM     21  N   UNL     1       3.906  -1.063   0.162  1.00  0.00    -0.317 N 
ATOM     22  C   UNL     1       3.136  -3.050  -0.780  1.00  0.00     0.144 C 
ATOM     23  C   UNL     1       4.995  -1.670  -0.431  1.00  0.00     0.317 C 
ATOM     24  N   UNL     1       4.535  -2.824  -1.052  1.00  0.00    -0.336 N 
ATOM     25  O   UNL     1       6.154  -1.290  -0.428  1.00  0.00    -0.249 OA
ATOM     26  H   UNL     1       5.093  -3.414  -1.608  1.00  0.00     0.165 HD
ENDBRANCH  13  16
ENDBRANCH  11  12
ENDBRANCH   7  11
ENDBRANCH   5   7
ENDBRANCH   4   5
ENDBRANCH   3   4
ENDBRANCH   2   3
ENDBRANCH   1   2
BRANCH   1  27
ATOM     27  C   UNL     1       3.633   4.408  -0.656  1.00  0.00     0.202 C 
BRANCH  27  28
ATOM     28  C   UNL     1       4.287   4.365   0.729  1.00  0.00     0.261 C 
BRANCH  28  29
ATOM     29  O   UNL     1       3.570   5.117   1.720  1.00  0.00    -0.460 OA
BRANCH  29  30
ATOM     30  C   UNL     1       4.171   6.296   2.024  1.00  0.00     0.338 C 
ATOM     31  O   UNL     1       5.229   6.709   1.579  1.00  0.00    -0.246 OA
BRANCH  30  32
ATOM     32  C   UNL     1       3.287   7.147   2.840  1.00  0.00     0.060 A 
ATOM     33  C   UNL     1       3.112   8.464   2.398  1.00  0.00     0.016 A 
ATOM     34  C   UNL     1       2.748   6.724   4.056  1.00  0.00     0.016 A 
ATOM     35  C   UNL     1       2.483   9.391   3.217  1.00  0.00     0.010 A 
ATOM     36  C   UNL     1       2.110   7.661   4.879  1.00  0.00     0.010 A 
ATOM     37  C   UNL     1       2.029   9.009   4.487  1.00  0.00    -0.014 A 
BRANCH  37  38
ATOM     38  C   UNL     1       1.637  10.080   5.436  1.00  0.00     0.031 A 
ATOM     39  C   UNL     1       2.598  10.485   6.523  1.00  0.00     0.074 A 
ATOM     40  C   UNL     1       0.491  10.761   5.251  1.00  0.00     0.049 A 
ATOM     41  N   UNL     1       2.500  11.450   7.401  1.00  0.00    -0.248 NA
ATOM     42  C   UNL     1       3.836   9.698   6.632  1.00  0.00     0.031 C 
ATOM     43  C   UNL     1      -0.488  10.485   4.199  1.00  0.00     0.029 A 
ATOM     44  N   UNL     1      -0.030  11.836   5.923  1.00  0.00    -0.354 N 
ATOM     45  C   UNL     1       3.661  11.387   8.167  1.00  0.00     0.074 A 
ATOM     46  C   UNL     1       4.422  10.256   7.680  1.00  0.00     0.031 C 
ATOM     47  C   UNL     1      -1.483  11.383   4.284  1.00  0.00     0.029 A 
ATOM     48  C   UNL     1      -1.233  12.270   5.418  1.00  0.00     0.049 A 
ATOM     49  H   UNL     1       0.415  12.258   6.693  1.00  0.00     0.167 HD
ATOM     50  C   UNL     1       4.061  12.206   9.172  1.00  0.00     0.034 A 
ATOM     51  C   UNL     1      -2.045  13.263   5.831  1.00  0.00     0.034 A 
ATOM     52  C   UNL     1       3.281  13.325   9.648  1.00  0.00     0.049 A 
ATOM     53  C   UNL     1      -1.614  14.114   7.000  1.00  0.00     0.074 A 
ATOM     54  C   UNL     1       3.588  14.223  10.655  1.00  0.00     0.029 A 
ATOM     55  N   UNL     1       2.034  13.694   9.157  1.00  0.00    -0.354 N 
ATOM     56  N   UNL     1      -0.512  14.046   7.713  1.00  0.00    -0.248 NA
ATOM     57  C   UNL     1      -2.528  15.187   7.405  1.00  0.00     0.031 C 
ATOM     58  C   UNL     1       2.494  15.077  10.831  1.00  0.00     0.029 A 
ATOM     59  C   UNL     1       1.544  14.782   9.866  1.00  0.00     0.049 A 
ATOM     60  H   UNL     1       1.566  13.248   8.415  1.00  0.00     0.167 HD
ATOM     61  C   UNL     1      -0.587  15.094   8.628  1.00  0.00     0.074 A 
ATOM     62  C   UNL     1      -1.830  15.787   8.357  1.00  0.00     0.031 C 
ATOM     63  C   UNL     1       0.293  15.456   9.598  1.00  0.00     0.034 A 
BRANCH  50  64
ATOM     64  C   UNL     1       5.370  11.883   9.857  1.00  0.00     0.023 A 
ATOM     65  C   UNL     1       6.598  11.904   9.170  1.00  0.00     0.031 A 
ATOM     66  C   UNL     1       5.387  11.522  11.216  1.00  0.00     0.131 A 
ATOM     67  C   UNL     1       7.774  11.502   9.823  1.00  0.00     0.055 A 
ATOM     68  C   UNL     1       6.573  11.208  11.883  1.00  0.00     0.041 A 
ATOM     69  F   UNL     1       4.246  11.457  11.920  1.00  0.00    -0.206 F 
ATOM     70  C   UNL     1       7.774  11.181  11.183  1.00  0.00     0.022 A 
BRANCH  67  71
ATOM     71  S   UNL     1       9.275  11.253   8.835  1.00  0.00     0.124 S 
ATOM     72  O   UNL     1       8.825  10.263   7.860  1.00  0.00    -0.237 OA
ATOM     73  O   UNL     1       9.536  12.590   8.316  1.00  0.00    -0.237 OA
ATOM     74  O   UNL     1      10.248  10.759   9.809  1.00  0.00    -0.744 OA
ENDBRANCH  67  71
ENDBRANCH  50  64
BRANCH  51  75
ATOM     75  C   UNL     1      -3.356  13.495   5.157  1.00  0.00     0.023 A 
ATOM     76  C   UNL     1      -3.645  14.708   4.514  1.00  0.00     0.031 A 
ATOM     77  C   UNL     1      -4.364  12.514   5.195  1.00  0.00     0.131 A 
ATOM     78  C   UNL     1      -4.924  14.930   3.981  1.00  0.00     0.055 A 
ATOM     79  C   UNL     1      -5.614  12.715   4.608  1.00  0.00     0.041 A 
ATOM     80  F   UNL     1      -4.144  11.335   5.799  1.00  0.00    -0.206 F 
ATOM     81  C   UNL     1      -5.905  13.936   4.009  1.00  0.00     0.022 A 
BRANCH  78  82
ATOM     82  S   UNL     1      -5.323  16.577   3.334  1.00  0.00     0.124 S 
ATOM     83  O   UNL     1      -5.071  17.421   4.496  1.00  0.00    -0.237 OA
ATOM     84  O   UNL     1      -4.378  16.704   2.230  1.00  0.00    -0.237 OA
ATOM     85  O   UNL     1      -6.725  16.456   2.941  1.00  0.00    -0.744 OA
ENDBRANCH  78  82
ENDBRANCH  51  75
BRANCH  63  86
ATOM     86  C   UNL     1      -0.044  16.693  10.401  1.00  0.00     0.023 A 
ATOM     87  C   UNL     1      -1.194  16.767  11.206  1.00  0.00     0.031 A 
ATOM     88  C   UNL     1       0.776  17.833  10.322  1.00  0.00     0.131 A 
ATOM     89  C   UNL     1      -1.541  17.980  11.822  1.00  0.00     0.055 A 
ATOM     90  C   UNL     1       0.471  19.011  11.006  1.00  0.00     0.041 A 
ATOM     91  F   UNL     1       1.888  17.827   9.568  1.00  0.00    -0.206 F 
ATOM     92  C   UNL     1      -0.706  19.096  11.744  1.00  0.00     0.022 A 
BRANCH  89  93
ATOM     93  S   UNL     1      -3.175  18.122  12.598  1.00  0.00     0.124 S 
ATOM     94  O   UNL     1      -4.063  17.739  11.505  1.00  0.00    -0.237 OA
ATOM     95  O   UNL     1      -3.079  17.173  13.703  1.00  0.00    -0.237 OA
ATOM     96  O   UNL     1      -3.246  19.528  12.992  1.00  0.00    -0.744 OA
ENDBRANCH  89  93
ENDBRANCH  63  86
ENDBRANCH  37  38
ENDBRANCH  30  32
ENDBRANCH  29  30
ENDBRANCH  28  29
ENDBRANCH  27  28
ENDBRANCH   1  27
TORSDOF 22
