REMARK SMILES O=C(OCCOCCOC(=O)c1ccc(-c2c3nc(c(-c4cc(S(=O)(=O)[O-])ccc4F)c4ccc([nH]4)c(-c4cc(S(=O)(=O)[O-])ccc4F)c4nc(c(-c5cc(S(=O)(=O)[O-])ccc5F)c5ccc2[nH]5)C=C4)C=C3)cc1)C1=Cc2cc(Cl)c(Cl)c(Cl)c2O[C@@H]1C(F)(F)F
REMARK SMILES IDX 7 1 6 2 5 3 4 4 3 5 2 6 1 7 75 8 76 9 87 10 77 11 86 12
REMARK SMILES IDX 78 13 85 14 79 15 83 16 80 17 81 18 84 19 82 20 88 21 89 22
REMARK SMILES IDX 90 23 91 24 8 25 9 26 10 27 11 28 12 29 13 30 74 31 14 32
REMARK SMILES IDX 73 33 15 34 16 35 17 36 67 37 18 38 72 39 66 40 68 41 19 42
REMARK SMILES IDX 71 43 65 44 64 45 20 47 52 48 32 49 51 50 33 51 36 52 50 53
REMARK SMILES IDX 69 54 34 55 35 56 49 58 70 59 37 60 21 61 22 62 30 63 23 64
REMARK SMILES IDX 29 65 31 66 28 67 24 68 25 69 26 70 27 71 53 72 54 73 62 74
REMARK SMILES IDX 55 75 61 76 63 77 60 78 56 79 57 80 58 81 59 82 38 83 39 84
REMARK SMILES IDX 47 85 40 86 46 87 48 88 45 89 41 90 42 91 43 92 44 93
REMARK H PARENT 68 46 36 57
REMARK Flexibility Score: inf
ROOT
ATOM      1  C   UNL     1       2.794  -2.054   2.251  1.00  0.00     0.202 C 
ENDROOT
BRANCH   1   2
ATOM      2  O   UNL     1       3.962  -2.033   1.417  1.00  0.00    -0.374 OA
BRANCH   2   3
ATOM      3  C   UNL     1       4.426  -1.179   0.150  1.00  0.00     0.202 C 
BRANCH   3   4
ATOM      4  C   UNL     1       3.603   0.578  -0.830  1.00  0.00     0.261 C 
BRANCH   4   5
ATOM      5  O   UNL     1       2.646   0.600  -2.032  1.00  0.00    -0.460 OA
BRANCH   5   6
ATOM      6  C   UNL     1       2.788  -0.465  -2.824  1.00  0.00     0.338 C 
ATOM      7  O   UNL     1       2.140  -0.800  -3.782  1.00  0.00    -0.246 OA
BRANCH   6   8
ATOM      8  C   UNL     1       3.659  -1.198  -1.930  1.00  0.00     0.087 C 
ATOM      9  C   UNL     1       5.053  -0.703  -1.989  1.00  0.00     0.027 C 
ATOM     10  C   UNL     1       2.508  -1.069  -0.381  1.00  0.00     0.316 C 
ATOM     11  C   UNL     1       5.817   0.292  -0.683  1.00  0.00     0.020 A 
ATOM     12  O   UNL     1       3.275   0.061   0.987  1.00  0.00    -0.474 OA
ATOM     13  C   UNL     1       7.061   0.811  -0.903  1.00  0.00     0.034 A 
ATOM     14  C   UNL     1       4.934   0.792   0.724  1.00  0.00     0.148 A 
ATOM     15  C   UNL     1       7.472   1.796   0.011  1.00  0.00     0.062 A 
ATOM     16  C   UNL     1       5.328   1.902   1.430  1.00  0.00     0.103 A 
ATOM     17  Cl  UNL     1       9.102   2.368  -0.260  1.00  0.00    -0.083 Cl
ATOM     18  C   UNL     1       6.631   2.372   1.067  1.00  0.00     0.082 A 
ATOM     19  Cl  UNL     1       4.196   2.831   2.318  1.00  0.00    -0.079 Cl
ATOM     20  Cl  UNL     1       7.260   3.806   1.833  1.00  0.00    -0.081 Cl
BRANCH  10  21
ATOM     21  C   UNL     1       2.039  -2.594  -0.380  1.00  0.00     0.430 C 
ATOM     22  F   UNL     1       1.143  -2.942   0.559  1.00  0.00    -0.167 F 
ATOM     23  F   UNL     1       1.386  -2.808  -1.565  1.00  0.00    -0.167 F 
ATOM     24  F   UNL     1       3.044  -3.499  -0.388  1.00  0.00    -0.167 F 
ENDBRANCH  10  21
ENDBRANCH   6   8
ENDBRANCH   5   6
ENDBRANCH   4   5
ENDBRANCH   3   4
ENDBRANCH   2   3
ENDBRANCH   1   2
BRANCH   1  25
ATOM     25  C   UNL     1       2.937  -1.785   3.740  1.00  0.00     0.261 C 
BRANCH  25  26
ATOM     26  O   UNL     1       3.486  -0.514   4.012  1.00  0.00    -0.460 OA
BRANCH  26  27
ATOM     27  C   UNL     1       4.825  -0.543   4.181  1.00  0.00     0.338 C 
ATOM     28  O   UNL     1       5.585  -1.462   3.935  1.00  0.00    -0.246 OA
BRANCH  27  29
ATOM     29  C   UNL     1       5.242   0.764   4.704  1.00  0.00     0.060 A 
ATOM     30  C   UNL     1       6.562   1.153   4.473  1.00  0.00     0.016 A 
ATOM     31  C   UNL     1       4.343   1.603   5.385  1.00  0.00     0.016 A 
ATOM     32  C   UNL     1       6.989   2.392   4.925  1.00  0.00     0.010 A 
ATOM     33  C   UNL     1       4.766   2.851   5.821  1.00  0.00     0.010 A 
ATOM     34  C   UNL     1       6.098   3.230   5.614  1.00  0.00    -0.014 A 
BRANCH  34  35
ATOM     35  C   UNL     1       6.665   4.355   6.372  1.00  0.00     0.031 A 
ATOM     36  C   UNL     1       7.085   4.062   7.778  1.00  0.00     0.074 A 
ATOM     37  C   UNL     1       6.877   5.550   5.799  1.00  0.00     0.049 A 
ATOM     38  N   UNL     1       7.723   4.819   8.625  1.00  0.00    -0.248 NA
ATOM     39  C   UNL     1       6.734   2.728   8.298  1.00  0.00     0.031 C 
ATOM     40  C   UNL     1       6.504   5.906   4.435  1.00  0.00     0.029 A 
ATOM     41  N   UNL     1       7.487   6.674   6.285  1.00  0.00    -0.354 N 
ATOM     42  C   UNL     1       7.861   4.049   9.772  1.00  0.00     0.074 A 
ATOM     43  C   UNL     1       7.194   2.791   9.533  1.00  0.00     0.031 C 
ATOM     44  C   UNL     1       6.955   7.143   4.165  1.00  0.00     0.029 A 
ATOM     45  C   UNL     1       7.582   7.691   5.364  1.00  0.00     0.049 A 
ATOM     46  H   UNL     1       7.825   6.748   7.207  1.00  0.00     0.167 HD
ATOM     47  C   UNL     1       8.501   4.370  10.918  1.00  0.00     0.034 A 
ATOM     48  C   UNL     1       8.108   8.924   5.495  1.00  0.00     0.034 A 
ATOM     49  C   UNL     1       9.109   5.654  11.140  1.00  0.00     0.049 A 
ATOM     50  C   UNL     1       8.719   9.294   6.827  1.00  0.00     0.074 A 
ATOM     51  C   UNL     1       9.765   6.112  12.265  1.00  0.00     0.029 A 
ATOM     52  N   UNL     1       9.109   6.699  10.222  1.00  0.00    -0.354 N 
ATOM     53  N   UNL     1       8.862   8.558   7.909  1.00  0.00    -0.248 NA
ATOM     54  C   UNL     1       9.246  10.656   6.954  1.00  0.00     0.031 C 
ATOM     55  C   UNL     1      10.070   7.462  12.068  1.00  0.00     0.029 A 
ATOM     56  C   UNL     1       9.717   7.814  10.773  1.00  0.00     0.049 A 
ATOM     57  H   UNL     1       8.731   6.653   9.313  1.00  0.00     0.167 HD
ATOM     58  C   UNL     1       9.544   9.356   8.825  1.00  0.00     0.074 A 
ATOM     59  C   UNL     1       9.786  10.622   8.162  1.00  0.00     0.031 C 
ATOM     60  C   UNL     1       9.946   9.068  10.091  1.00  0.00     0.034 A 
BRANCH  47  61
ATOM     61  C   UNL     1       8.476   3.344  12.021  1.00  0.00     0.023 A 
ATOM     62  C   UNL     1       9.050   2.069  11.865  1.00  0.00     0.031 A 
ATOM     63  C   UNL     1       7.792   3.618  13.217  1.00  0.00     0.131 A 
ATOM     64  C   UNL     1       8.853   1.091  12.851  1.00  0.00     0.055 A 
ATOM     65  C   UNL     1       7.685   2.671  14.236  1.00  0.00     0.041 A 
ATOM     66  F   UNL     1       7.186   4.801  13.403  1.00  0.00    -0.206 F 
ATOM     67  C   UNL     1       8.202   1.393  14.049  1.00  0.00     0.022 A 
BRANCH  64  68
ATOM     68  S   UNL     1       9.292  -0.627  12.467  1.00  0.00     0.124 S 
ATOM     69  O   UNL     1       8.472  -0.884  11.285  1.00  0.00    -0.237 OA
ATOM     70  O   UNL     1      10.730  -0.544  12.241  1.00  0.00    -0.237 OA
ATOM     71  O   UNL     1       8.889  -1.360  13.666  1.00  0.00    -0.744 OA
ENDBRANCH  64  68
ENDBRANCH  47  61
BRANCH  48  72
ATOM     72  C   UNL     1       8.060   9.908   4.373  1.00  0.00     0.023 A 
ATOM     73  C   UNL     1       9.235  10.465   3.841  1.00  0.00     0.031 A 
ATOM     74  C   UNL     1       6.831  10.370   3.870  1.00  0.00     0.131 A 
ATOM     75  C   UNL     1       9.154  11.495   2.889  1.00  0.00     0.055 A 
ATOM     76  C   UNL     1       6.757  11.345   2.874  1.00  0.00     0.041 A 
ATOM     77  F   UNL     1       5.674   9.882   4.346  1.00  0.00    -0.206 F 
ATOM     78  C   UNL     1       7.924  11.926   2.390  1.00  0.00     0.022 A 
BRANCH  75  79
ATOM     79  S   UNL     1      10.678  12.352   2.401  1.00  0.00     0.124 S 
ATOM     80  O   UNL     1      11.163  12.845   3.685  1.00  0.00    -0.237 OA
ATOM     81  O   UNL     1      11.451  11.275   1.792  1.00  0.00    -0.237 OA
ATOM     82  O   UNL     1      10.208  13.380   1.474  1.00  0.00    -0.744 OA
ENDBRANCH  75  79
ENDBRANCH  48  72
BRANCH  60  83
ATOM     83  C   UNL     1      10.764  10.116  10.809  1.00  0.00     0.023 A 
ATOM     84  C   UNL     1      10.255  11.388  11.116  1.00  0.00     0.031 A 
ATOM     85  C   UNL     1      12.093   9.831  11.177  1.00  0.00     0.131 A 
ATOM     86  C   UNL     1      11.093  12.354  11.691  1.00  0.00     0.055 A 
ATOM     87  C   UNL     1      12.893  10.765  11.833  1.00  0.00     0.041 A 
ATOM     88  F   UNL     1      12.638   8.634  10.905  1.00  0.00    -0.206 F 
ATOM     89  C   UNL     1      12.400  12.043  12.075  1.00  0.00     0.022 A 
BRANCH  86  90
ATOM     90  S   UNL     1      10.502  14.065  11.793  1.00  0.00     0.124 S 
ATOM     91  O   UNL     1      10.147  14.345  10.405  1.00  0.00    -0.237 OA
ATOM     92  O   UNL     1       9.387  13.955  12.727  1.00  0.00    -0.237 OA
ATOM     93  O   UNL     1      11.663  14.799  12.296  1.00  0.00    -0.744 OA
ENDBRANCH  86  90
ENDBRANCH  60  83
ENDBRANCH  34  35
ENDBRANCH  27  29
ENDBRANCH  26  27
ENDBRANCH  25  26
ENDBRANCH   1  25
TORSDOF 18
