REMARK SMILES COc1cc2c(cc1OC)[C@H](c1cccc([N+](=O)[O-])c1)N(C(=O)CCC(=O)OCCOCCOC(=O)c1ccc(-c3c4nc(c(-c5cc(S(=O)(=O)[O-])ccc5F)c5ccc([nH]5)c(-c5cc(S(=O)(=O)[O-])ccc5F)c5nc(c(-c6cc(S(=O)(=O)[O-])ccc6F)c6ccc3[nH]6)C=C5)C=C4)cc1)CC2
REMARK SMILES IDX 30 1 29 2 28 3 26 4 27 5 25 6 24 7 22 8 23 9 21 10 3 11 4 12
REMARK SMILES IDX 8 13 5 14 7 15 6 16 101 17 11 18 100 19 2 20 1 21 9 22 10 23
REMARK SMILES IDX 12 24 13 25 20 26 14 27 16 28 15 29 17 30 18 31 19 32 31 33
REMARK SMILES IDX 32 34 33 35 34 36 35 37 36 38 37 39 38 40 99 41 39 42 98 43
REMARK SMILES IDX 40 44 41 45 42 46 92 47 43 48 97 49 91 50 93 51 44 52 96 53
REMARK SMILES IDX 90 54 89 55 45 57 77 58 57 59 76 60 58 61 61 62 75 63 94 64
REMARK SMILES IDX 59 65 60 66 74 68 95 69 62 70 46 71 47 72 55 73 48 74 54 75
REMARK SMILES IDX 56 76 53 77 49 78 50 79 51 80 52 81 78 82 79 83 87 84 80 85
REMARK SMILES IDX 86 86 88 87 85 88 81 89 82 90 83 91 84 92 63 93 64 94 72 95
REMARK SMILES IDX 65 96 71 97 73 98 70 99 66 100 67 101 68 102 69 103
REMARK H PARENT 93 56 61 67
REMARK Flexibility Score: inf
ROOT
ATOM      1  C   UNL     1      -1.758  -1.645   6.411  1.00  0.00     0.202 C 
ENDROOT
BRANCH   1   2
ATOM      2  C   UNL     1      -0.644  -0.900   7.166  1.00  0.00     0.261 C 
BRANCH   2   3
ATOM      3  O   UNL     1       0.540  -1.695   7.388  1.00  0.00    -0.463 OA
BRANCH   3   4
ATOM      4  C   UNL     1       0.711  -2.274   8.605  1.00  0.00     0.306 C 
ATOM      5  O   UNL     1      -0.101  -2.255   9.519  1.00  0.00    -0.252 OA
BRANCH   4   6
ATOM      6  C   UNL     1       2.053  -2.973   8.691  1.00  0.00     0.132 C 
BRANCH   6   7
ATOM      7  C   UNL     1       1.999  -4.442   8.280  1.00  0.00     0.112 C 
BRANCH   7   8
ATOM      8  C   UNL     1       2.863  -4.708   7.048  1.00  0.00     0.223 C 
ATOM      9  O   UNL     1       4.069  -4.914   7.185  1.00  0.00    -0.275 OA
BRANCH   8  10
ATOM     10  N   UNL     1       2.248  -4.685   5.812  1.00  0.00    -0.331 N 
ATOM     11  C   UNL     1       2.157  -1.016   2.664  1.00  0.00     0.161 A 
ATOM     12  C   UNL     1       1.144  -1.821   3.158  1.00  0.00     0.054 A 
ATOM     13  C   UNL     1       3.495  -1.445   2.713  1.00  0.00     0.161 A 
ATOM     14  C   UNL     1       1.472  -3.066   3.689  1.00  0.00    -0.037 A 
ATOM     15  C   UNL     1       3.812  -2.705   3.266  1.00  0.00     0.057 A 
ATOM     16  C   UNL     1       2.799  -3.531   3.768  1.00  0.00    -0.014 A 
ATOM     17  C   UNL     1       0.427  -3.961   4.253  1.00  0.00     0.057 C 
ATOM     18  C   UNL     1       3.039  -4.844   4.555  1.00  0.00     0.146 C 
ATOM     19  C   UNL     1       0.822  -4.404   5.645  1.00  0.00     0.125 C 
BRANCH  11  20
ATOM     20  O   UNL     1       1.799   0.226   2.202  1.00  0.00    -0.493 OA
ATOM     21  C   UNL     1       1.575   0.199   0.790  1.00  0.00     0.278 C 
ENDBRANCH  11  20
BRANCH  13  22
ATOM     22  O   UNL     1       4.406  -0.553   2.215  1.00  0.00    -0.493 OA
ATOM     23  C   UNL     1       5.723  -1.029   1.990  1.00  0.00     0.278 C 
ENDBRANCH  13  22
BRANCH  18  24
ATOM     24  C   UNL     1       2.628  -6.149   3.821  1.00  0.00    -0.014 A 
ATOM     25  C   UNL     1       2.999  -6.395   2.490  1.00  0.00     0.007 A 
ATOM     26  C   UNL     1       1.821  -7.124   4.454  1.00  0.00     0.091 A 
ATOM     27  C   UNL     1       2.533  -7.531   1.805  1.00  0.00     0.007 A 
ATOM     28  C   UNL     1       1.281  -8.205   3.741  1.00  0.00     0.269 A 
ATOM     29  C   UNL     1       1.652  -8.427   2.417  1.00  0.00     0.085 A 
BRANCH  28  30
ATOM     30  N   UNL     1       0.241  -9.032   4.370  1.00  0.00     0.062 N 
ATOM     31  O   UNL     1      -0.195 -10.003   3.737  1.00  0.00    -0.258 OA
ATOM     32  O   UNL     1      -0.173  -8.684   5.488  1.00  0.00    -0.258 OA
ENDBRANCH  28  30
ENDBRANCH  18  24
ENDBRANCH   8  10
ENDBRANCH   7   8
ENDBRANCH   6   7
ENDBRANCH   4   6
ENDBRANCH   3   4
ENDBRANCH   2   3
ENDBRANCH   1   2
BRANCH   1  33
ATOM     33  O   UNL     1      -2.588  -2.434   7.261  1.00  0.00    -0.374 OA
BRANCH  33  34
ATOM     34  C   UNL     1      -2.363  -3.845   7.231  1.00  0.00     0.202 C 
BRANCH  34  35
ATOM     35  C   UNL     1      -3.163  -4.595   6.145  1.00  0.00     0.261 C 
BRANCH  35  36
ATOM     36  O   UNL     1      -2.459  -4.709   4.882  1.00  0.00    -0.460 OA
BRANCH  36  37
ATOM     37  C   UNL     1      -3.119  -4.298   3.756  1.00  0.00     0.338 C 
ATOM     38  O   UNL     1      -4.195  -3.740   3.722  1.00  0.00    -0.246 OA
BRANCH  37  39
ATOM     39  C   UNL     1      -2.263  -4.509   2.545  1.00  0.00     0.060 A 
ATOM     40  C   UNL     1      -2.061  -3.444   1.657  1.00  0.00     0.016 A 
ATOM     41  C   UNL     1      -1.599  -5.715   2.309  1.00  0.00     0.016 A 
ATOM     42  C   UNL     1      -1.173  -3.568   0.566  1.00  0.00     0.010 A 
ATOM     43  C   UNL     1      -0.689  -5.819   1.236  1.00  0.00     0.010 A 
ATOM     44  C   UNL     1      -0.460  -4.756   0.338  1.00  0.00    -0.014 A 
BRANCH  44  45
ATOM     45  C   UNL     1       0.421  -4.932  -0.878  1.00  0.00     0.031 A 
ATOM     46  C   UNL     1       0.074  -5.974  -1.911  1.00  0.00     0.074 A 
ATOM     47  C   UNL     1       1.550  -4.218  -1.096  1.00  0.00     0.049 A 
ATOM     48  N   UNL     1       0.694  -6.273  -3.028  1.00  0.00    -0.248 NA
ATOM     49  C   UNL     1      -1.092  -6.817  -1.628  1.00  0.00     0.031 C 
ATOM     50  C   UNL     1       2.104  -3.236  -0.181  1.00  0.00     0.029 A 
ATOM     51  N   UNL     1       2.447  -4.213  -2.147  1.00  0.00    -0.354 N 
ATOM     52  C   UNL     1      -0.012  -7.334  -3.579  1.00  0.00     0.074 A 
ATOM     53  C   UNL     1      -1.026  -7.699  -2.611  1.00  0.00     0.031 C 
ATOM     54  C   UNL     1       3.227  -2.711  -0.702  1.00  0.00     0.029 A 
ATOM     55  C   UNL     1       3.494  -3.327  -1.996  1.00  0.00     0.049 A 
ATOM     56  H   UNL     1       2.347  -4.793  -2.937  1.00  0.00     0.167 HD
ATOM     57  C   UNL     1       0.115  -7.919  -4.797  1.00  0.00     0.034 A 
ATOM     58  C   UNL     1       4.547  -3.029  -2.789  1.00  0.00     0.034 A 
ATOM     59  C   UNL     1       1.094  -7.561  -5.790  1.00  0.00     0.049 A 
ATOM     60  C   UNL     1       4.695  -3.704  -4.131  1.00  0.00     0.074 A 
ATOM     61  C   UNL     1       1.224  -8.043  -7.082  1.00  0.00     0.029 A 
ATOM     62  N   UNL     1       2.118  -6.645  -5.606  1.00  0.00    -0.354 N 
ATOM     63  N   UNL     1       3.939  -4.625  -4.676  1.00  0.00    -0.248 NA
ATOM     64  C   UNL     1       5.827  -3.282  -4.973  1.00  0.00     0.031 C 
ATOM     65  C   UNL     1       2.356  -7.458  -7.661  1.00  0.00     0.029 A 
ATOM     66  C   UNL     1       2.899  -6.568  -6.751  1.00  0.00     0.049 A 
ATOM     67  H   UNL     1       2.270  -6.125  -4.784  1.00  0.00     0.167 HD
ATOM     68  C   UNL     1       4.478  -4.855  -5.941  1.00  0.00     0.074 A 
ATOM     69  C   UNL     1       5.623  -3.983  -6.077  1.00  0.00     0.031 C 
ATOM     70  C   UNL     1       4.042  -5.702  -6.905  1.00  0.00     0.034 A 
BRANCH  57  71
ATOM     71  C   UNL     1      -0.874  -9.011  -5.112  1.00  0.00     0.023 A 
ATOM     72  C   UNL     1      -2.251  -8.735  -5.168  1.00  0.00     0.031 A 
ATOM     73  C   UNL     1      -0.456 -10.342  -5.263  1.00  0.00     0.131 A 
ATOM     74  C   UNL     1      -3.169  -9.788  -5.237  1.00  0.00     0.055 A 
ATOM     75  C   UNL     1      -1.375 -11.378  -5.438  1.00  0.00     0.041 A 
ATOM     76  F   UNL     1       0.846 -10.661  -5.204  1.00  0.00    -0.206 F 
ATOM     77  C   UNL     1      -2.741 -11.107  -5.400  1.00  0.00     0.022 A 
BRANCH  74  78
ATOM     78  S   UNL     1      -4.913  -9.421  -4.906  1.00  0.00     0.124 S 
ATOM     79  O   UNL     1      -4.846  -8.907  -3.539  1.00  0.00    -0.237 OA
ATOM     80  O   UNL     1      -5.232  -8.444  -5.940  1.00  0.00    -0.237 OA
ATOM     81  O   UNL     1      -5.568 -10.719  -5.047  1.00  0.00    -0.744 OA
ENDBRANCH  74  78
ENDBRANCH  57  71
BRANCH  58  82
ATOM     82  C   UNL     1       5.596  -2.054  -2.359  1.00  0.00     0.023 A 
ATOM     83  C   UNL     1       5.764  -0.821  -3.013  1.00  0.00     0.031 A 
ATOM     84  C   UNL     1       6.532  -2.408  -1.373  1.00  0.00     0.131 A 
ATOM     85  C   UNL     1       6.876  -0.015  -2.715  1.00  0.00     0.055 A 
ATOM     86  C   UNL     1       7.613  -1.583  -1.050  1.00  0.00     0.041 A 
ATOM     87  F   UNL     1       6.414  -3.570  -0.712  1.00  0.00    -0.206 F 
ATOM     88  C   UNL     1       7.795  -0.383  -1.731  1.00  0.00     0.022 A 
BRANCH  85  89
ATOM     89  S   UNL     1       7.167   1.477  -3.708  1.00  0.00     0.124 S 
ATOM     90  O   UNL     1       7.340   0.913  -5.042  1.00  0.00    -0.237 OA
ATOM     91  O   UNL     1       5.939   2.234  -3.485  1.00  0.00    -0.237 OA
ATOM     92  O   UNL     1       8.369   2.054  -3.111  1.00  0.00    -0.744 OA
ENDBRANCH  85  89
ENDBRANCH  58  82
BRANCH  70  93
ATOM     93  C   UNL     1       4.761  -5.678  -8.231  1.00  0.00     0.023 A 
ATOM     94  C   UNL     1       6.081  -6.140  -8.377  1.00  0.00     0.031 A 
ATOM     95  C   UNL     1       4.109  -5.172  -9.370  1.00  0.00     0.131 A 
ATOM     96  C   UNL     1       6.721  -6.047  -9.623  1.00  0.00     0.055 A 
ATOM     97  C   UNL     1       4.733  -5.129 -10.618  1.00  0.00     0.041 A 
ATOM     98  F   UNL     1       2.850  -4.712  -9.288  1.00  0.00    -0.206 F 
ATOM     99  C   UNL     1       6.050  -5.559 -10.748  1.00  0.00     0.022 A 
BRANCH  96 100
ATOM    100  S   UNL     1       8.470  -6.513  -9.747  1.00  0.00     0.124 S 
ATOM    101  O   UNL     1       9.101  -5.571  -8.829  1.00  0.00    -0.237 OA
ATOM    102  O   UNL     1       8.454  -7.908  -9.317  1.00  0.00    -0.237 OA
ATOM    103  O   UNL     1       8.782  -6.307 -11.161  1.00  0.00    -0.744 OA
ENDBRANCH  96 100
ENDBRANCH  70  93
ENDBRANCH  44  45
ENDBRANCH  37  39
ENDBRANCH  36  37
ENDBRANCH  35  36
ENDBRANCH  34  35
ENDBRANCH  33  34
ENDBRANCH   1  33
TORSDOF 24
