REMARK SMILES COc1ccccc1NC(=O)N[C@@](C)(C(=O)OCCOCCOC(=O)c1ccc(-c2c3nc(c(-c4cc(S(=O)(=O)[O-])ccc4F)c4ccc([nH]4)c(-c4cc(S(=O)(=O)[O-])ccc4F)c4nc(c(-c5cc(S(=O)(=O)[O-])ccc5F)c5ccc2[nH]5)C=C4)C=C3)cc1)C(F)(F)F
REMARK SMILES IDX 20 1 19 2 18 3 17 4 15 5 16 6 13 7 14 8 12 9 9 10 10 11
REMARK SMILES IDX 11 13 8 15 3 16 4 17 5 18 7 19 6 20 2 21 1 22 89 23 90 24
REMARK SMILES IDX 91 25 92 26 21 27 22 28 23 29 24 30 25 31 26 32 27 33 88 34
REMARK SMILES IDX 28 35 87 36 29 37 30 38 31 39 81 40 32 41 86 42 80 43 82 44
REMARK SMILES IDX 33 45 85 46 79 47 78 48 34 50 66 51 46 52 65 53 47 54 50 55
REMARK SMILES IDX 64 56 83 57 48 58 49 59 63 61 84 62 51 63 35 64 36 65 44 66
REMARK SMILES IDX 37 67 43 68 45 69 42 70 38 71 39 72 40 73 41 74 67 75 68 76
REMARK SMILES IDX 76 77 69 78 75 79 77 80 74 81 70 82 71 83 72 84 73 85 52 86
REMARK SMILES IDX 53 87 61 88 54 89 60 90 62 91 59 92 55 93 56 94 57 95 58 96
REMARK H PARENT 9 12 12 14 82 49 50 60
REMARK Flexibility Score: inf
ROOT
ATOM      1  O   UNL     1       5.283   6.422   0.773  1.00  0.00    -0.374 OA
ENDROOT
BRANCH   1   2
ATOM      2  C   UNL     1       6.275   6.780   1.729  1.00  0.00     0.202 C 
BRANCH   2   3
ATOM      3  C   UNL     1       6.194   6.165   3.133  1.00  0.00     0.261 C 
BRANCH   3   4
ATOM      4  O   UNL     1       5.995   4.736   3.127  1.00  0.00    -0.461 OA
BRANCH   4   5
ATOM      5  C   UNL     1       5.278   4.322   4.210  1.00  0.00     0.341 C 
ATOM      6  O   UNL     1       5.286   4.924   5.282  1.00  0.00    -0.249 OA
BRANCH   5   7
ATOM      7  C   UNL     1       4.231   3.239   3.874  1.00  0.00     0.232 C 
ATOM      8  C   UNL     1       3.978   2.547   5.227  1.00  0.00     0.058 C 
BRANCH   7   9
ATOM      9  N   UNL     1       4.697   2.165   2.938  1.00  0.00    -0.314 N 
ATOM     10  N   UNL     1       2.866   0.819   2.110  1.00  0.00    -0.305 N 
ATOM     11  C   UNL     1       4.160   1.093   2.340  1.00  0.00     0.320 C 
ATOM     12  H   UNL     1       2.764  -0.021   1.608  1.00  0.00     0.172 HD
ATOM     13  O   UNL     1       4.969   0.296   1.845  1.00  0.00    -0.248 OA
ATOM     14  H   UNL     1       5.647   2.275   2.702  1.00  0.00     0.166 HD
BRANCH  10  15
ATOM     15  C   UNL     1       1.619   1.399   2.389  1.00  0.00     0.085 A 
ATOM     16  C   UNL     1       0.755   1.690   1.315  1.00  0.00     0.142 A 
ATOM     17  C   UNL     1      -0.362   2.509   1.504  1.00  0.00     0.048 A 
ATOM     18  C   UNL     1      -0.705   2.924   2.788  1.00  0.00     0.004 A 
ATOM     19  C   UNL     1       1.175   1.680   3.675  1.00  0.00     0.030 A 
ATOM     20  C   UNL     1       0.025   2.454   3.876  1.00  0.00     0.002 A 
BRANCH  16  21
ATOM     21  O   UNL     1       1.045   1.318   0.027  1.00  0.00    -0.495 OA
ATOM     22  C   UNL     1       0.819  -0.079  -0.178  1.00  0.00     0.278 C 
ENDBRANCH  16  21
ENDBRANCH  10  15
ENDBRANCH   7   9
BRANCH   7  23
ATOM     23  C   UNL     1       3.095   4.163   3.345  1.00  0.00     0.422 C 
ATOM     24  F   UNL     1       2.654   3.779   2.125  1.00  0.00    -0.168 F 
ATOM     25  F   UNL     1       2.044   4.211   4.190  1.00  0.00    -0.168 F 
ATOM     26  F   UNL     1       3.454   5.457   3.164  1.00  0.00    -0.168 F 
ENDBRANCH   7  23
ENDBRANCH   5   7
ENDBRANCH   4   5
ENDBRANCH   3   4
ENDBRANCH   2   3
ENDBRANCH   1   2
BRANCH   1  27
ATOM     27  C   UNL     1       5.140   5.050   0.416  1.00  0.00     0.202 C 
BRANCH  27  28
ATOM     28  C   UNL     1       6.325   4.303  -0.214  1.00  0.00     0.261 C 
BRANCH  28  29
ATOM     29  O   UNL     1       7.490   4.250   0.628  1.00  0.00    -0.460 OA
BRANCH  29  30
ATOM     30  C   UNL     1       8.544   4.972   0.178  1.00  0.00     0.338 C 
ATOM     31  O   UNL     1       8.604   5.618  -0.861  1.00  0.00    -0.246 OA
BRANCH  30  32
ATOM     32  C   UNL     1       9.573   5.071   1.226  1.00  0.00     0.060 A 
ATOM     33  C   UNL     1       9.917   6.350   1.686  1.00  0.00     0.016 A 
ATOM     34  C   UNL     1      10.262   3.944   1.674  1.00  0.00     0.016 A 
ATOM     35  C   UNL     1      10.979   6.513   2.567  1.00  0.00     0.010 A 
ATOM     36  C   UNL     1      11.346   4.111   2.542  1.00  0.00     0.010 A 
ATOM     37  C   UNL     1      11.730   5.400   2.959  1.00  0.00    -0.014 A 
BRANCH  37  38
ATOM     38  C   UNL     1      13.023   5.622   3.644  1.00  0.00     0.031 A 
ATOM     39  C   UNL     1      14.286   5.574   2.828  1.00  0.00     0.074 A 
ATOM     40  C   UNL     1      13.060   5.932   4.952  1.00  0.00     0.049 A 
ATOM     41  N   UNL     1      15.528   5.706   3.210  1.00  0.00    -0.248 NA
ATOM     42  C   UNL     1      14.120   5.345   1.383  1.00  0.00     0.031 C 
ATOM     43  C   UNL     1      11.888   6.079   5.814  1.00  0.00     0.029 A 
ATOM     44  N   UNL     1      14.122   6.181   5.781  1.00  0.00    -0.354 N 
ATOM     45  C   UNL     1      16.294   5.569   2.057  1.00  0.00     0.074 A 
ATOM     46  C   UNL     1      15.377   5.308   0.970  1.00  0.00     0.031 C 
ATOM     47  C   UNL     1      12.298   6.386   7.057  1.00  0.00     0.029 A 
ATOM     48  C   UNL     1      13.759   6.409   7.087  1.00  0.00     0.049 A 
ATOM     49  H   UNL     1      15.057   6.195   5.471  1.00  0.00     0.167 HD
ATOM     50  C   UNL     1      17.640   5.661   1.923  1.00  0.00     0.034 A 
ATOM     51  C   UNL     1      14.523   6.584   8.184  1.00  0.00     0.034 A 
ATOM     52  C   UNL     1      18.533   5.913   3.028  1.00  0.00     0.049 A 
ATOM     53  C   UNL     1      16.026   6.578   8.026  1.00  0.00     0.074 A 
ATOM     54  C   UNL     1      19.912   6.029   3.013  1.00  0.00     0.029 A 
ATOM     55  N   UNL     1      18.136   6.077   4.350  1.00  0.00    -0.354 N 
ATOM     56  N   UNL     1      16.743   6.438   6.934  1.00  0.00    -0.248 NA
ATOM     57  C   UNL     1      16.820   6.762   9.247  1.00  0.00     0.031 C 
ATOM     58  C   UNL     1      20.352   6.178   4.332  1.00  0.00     0.029 A 
ATOM     59  C   UNL     1      19.245   6.253   5.162  1.00  0.00     0.049 A 
ATOM     60  H   UNL     1      17.202   6.069   4.663  1.00  0.00     0.167 HD
ATOM     61  C   UNL     1      18.072   6.554   7.334  1.00  0.00     0.074 A 
ATOM     62  C   UNL     1      18.053   6.789   8.763  1.00  0.00     0.031 C 
ATOM     63  C   UNL     1      19.206   6.478   6.590  1.00  0.00     0.034 A 
BRANCH  50  64
ATOM     64  C   UNL     1      18.222   5.424   0.550  1.00  0.00     0.023 A 
ATOM     65  C   UNL     1      17.937   6.269  -0.538  1.00  0.00     0.031 A 
ATOM     66  C   UNL     1      19.059   4.317   0.319  1.00  0.00     0.131 A 
ATOM     67  C   UNL     1      18.427   5.956  -1.815  1.00  0.00     0.055 A 
ATOM     68  C   UNL     1      19.610   4.058  -0.937  1.00  0.00     0.041 A 
ATOM     69  F   UNL     1      19.345   3.459   1.311  1.00  0.00    -0.206 F 
ATOM     70  C   UNL     1      19.284   4.871  -2.017  1.00  0.00     0.022 A 
BRANCH  67  71
ATOM     71  S   UNL     1      17.812   6.900  -3.237  1.00  0.00     0.124 S 
ATOM     72  O   UNL     1      16.373   6.667  -3.146  1.00  0.00    -0.237 OA
ATOM     73  O   UNL     1      18.261   8.254  -2.934  1.00  0.00    -0.237 OA
ATOM     74  O   UNL     1      18.468   6.266  -4.379  1.00  0.00    -0.744 OA
ENDBRANCH  67  71
ENDBRANCH  50  64
BRANCH  51  75
ATOM     75  C   UNL     1      13.896   6.730   9.529  1.00  0.00     0.023 A 
ATOM     76  C   UNL     1      14.084   7.889  10.298  1.00  0.00     0.031 A 
ATOM     77  C   UNL     1      13.145   5.681  10.093  1.00  0.00     0.131 A 
ATOM     78  C   UNL     1      13.574   7.951  11.605  1.00  0.00     0.055 A 
ATOM     79  C   UNL     1      12.587   5.774  11.369  1.00  0.00     0.041 A 
ATOM     80  F   UNL     1      12.938   4.547   9.405  1.00  0.00    -0.206 F 
ATOM     81  C   UNL     1      12.814   6.909  12.139  1.00  0.00     0.022 A 
BRANCH  78  82
ATOM     82  S   UNL     1      14.011   9.376  12.639  1.00  0.00     0.124 S 
ATOM     83  O   UNL     1      15.468   9.319  12.620  1.00  0.00    -0.237 OA
ATOM     84  O   UNL     1      13.402  10.480  11.905  1.00  0.00    -0.237 OA
ATOM     85  O   UNL     1      13.390   9.067  13.925  1.00  0.00    -0.744 OA
ENDBRANCH  78  82
ENDBRANCH  51  75
BRANCH  63  86
ATOM     86  C   UNL     1      20.516   6.707   7.306  1.00  0.00     0.023 A 
ATOM     87  C   UNL     1      20.988   5.824   8.293  1.00  0.00     0.031 A 
ATOM     88  C   UNL     1      21.299   7.835   7.000  1.00  0.00     0.131 A 
ATOM     89  C   UNL     1      22.175   6.116   8.981  1.00  0.00     0.055 A 
ATOM     90  C   UNL     1      22.516   8.081   7.637  1.00  0.00     0.041 A 
ATOM     91  F   UNL     1      20.897   8.715   6.069  1.00  0.00    -0.206 F 
ATOM     92  C   UNL     1      22.953   7.227   8.645  1.00  0.00     0.022 A 
BRANCH  89  93
ATOM     93  S   UNL     1      22.637   5.080  10.396  1.00  0.00     0.124 S 
ATOM     94  O   UNL     1      21.472   5.216  11.264  1.00  0.00    -0.237 OA
ATOM     95  O   UNL     1      22.824   3.772   9.779  1.00  0.00    -0.237 OA
ATOM     96  O   UNL     1      23.859   5.708  10.897  1.00  0.00    -0.744 OA
ENDBRANCH  89  93
ENDBRANCH  63  86
ENDBRANCH  37  38
ENDBRANCH  30  32
ENDBRANCH  29  30
ENDBRANCH  28  29
ENDBRANCH  27  28
ENDBRANCH   1  27
TORSDOF 21
