REMARK SMILES Cc1cc([N+](=O)[O-])ccc1-c1ccc(/C=C/C(=O)Nc2ccc(O)c(C(=O)OCCOCCOC(=O)c3ccc(-c4c5nc(c(-c6cc(S(=O)(=O)[O-])ccc6F)c6ccc([nH]6)c(-c6cc(S(=O)(=O)[O-])ccc6F)c6nc(c(-c7cc(S(=O)(=O)[O-])ccc7F)c7ccc4[nH]7)C=C6)C=C5)cc3)c2)o1
REMARK SMILES IDX 30 1 29 2 28 3 26 4 27 5 25 6 20 7 21 8 100 9 22 10 23 11
REMARK SMILES IDX 19 12 17 13 18 14 16 16 15 17 14 18 11 19 12 20 101 21 13 22
REMARK SMILES IDX 10 23 1 24 2 25 3 26 4 27 9 28 8 29 5 30 6 31 7 32 24 33
REMARK SMILES IDX 31 35 32 36 33 37 34 38 35 39 36 40 37 41 38 42 99 43 39 44
REMARK SMILES IDX 98 45 40 46 41 47 42 48 92 49 43 50 97 51 91 52 93 53 44 54
REMARK SMILES IDX 96 55 90 56 89 57 45 59 77 60 57 61 76 62 58 63 61 64 75 65
REMARK SMILES IDX 94 66 59 67 60 68 74 70 95 71 62 72 46 73 47 74 55 75 48 76
REMARK SMILES IDX 54 77 56 78 53 79 49 80 50 81 51 82 52 83 78 84 79 85 87 86
REMARK SMILES IDX 80 87 86 88 88 89 85 90 81 91 82 92 83 93 84 94 63 95 64 96
REMARK SMILES IDX 72 97 65 98 71 99 73 100 70 101 66 102 67 103 68 104 69 105
REMARK H PARENT 19 15 24 34 93 58 61 69
REMARK Flexibility Score: inf
ROOT
ATOM      1  C   UNL     1       6.878   9.735  -1.844  1.00  0.00     0.202 C 
ENDROOT
BRANCH   1   2
ATOM      2  C   UNL     1       7.274   8.285  -1.990  1.00  0.00     0.261 C 
BRANCH   2   3
ATOM      3  O   UNL     1       6.265   7.408  -1.463  1.00  0.00    -0.460 OA
BRANCH   3   4
ATOM      4  C   UNL     1       5.983   7.538  -0.143  1.00  0.00     0.342 C 
ATOM      5  O   UNL     1       6.760   7.646   0.781  1.00  0.00    -0.246 OA
BRANCH   4   6
ATOM      6  C   UNL     1       4.522   7.707   0.006  1.00  0.00     0.103 A 
ATOM      7  C   UNL     1       2.695   8.084   1.534  1.00  0.00     0.042 A 
ATOM      8  C   UNL     1       1.792   8.034   0.468  1.00  0.00     0.030 A 
ATOM      9  C   UNL     1       4.064   8.018   1.298  1.00  0.00     0.045 A 
ATOM     10  C   UNL     1       2.251   7.796  -0.822  1.00  0.00     0.049 A 
ATOM     11  C   UNL     1       3.607   7.586  -1.048  1.00  0.00     0.130 A 
BRANCH   7  12
ATOM     12  N   UNL     1       2.245   7.992   2.860  1.00  0.00    -0.322 N 
ATOM     13  C   UNL     1       1.374   7.039   3.348  1.00  0.00     0.248 C 
ATOM     14  O   UNL     1       0.860   7.157   4.457  1.00  0.00    -0.270 OA
ATOM     15  H   UNL     1       2.580   8.663   3.497  1.00  0.00     0.170 HD
BRANCH  13  16
ATOM     16  C   UNL     1       1.072   5.842   2.507  1.00  0.00     0.075 C 
ATOM     17  C   UNL     1       2.054   5.189   1.865  1.00  0.00     0.053 C 
BRANCH  17  18
ATOM     18  C   UNL     1       1.786   4.203   0.884  1.00  0.00     0.127 A 
ATOM     19  C   UNL     1       0.992   2.375  -0.067  1.00  0.00     0.135 A 
ATOM     20  C   UNL     1       1.861   2.918  -0.982  1.00  0.00     0.051 A 
ATOM     21  O   UNL     1       0.877   3.182   1.023  1.00  0.00    -0.457 OA
ATOM     22  C   UNL     1       2.394   4.066  -0.360  1.00  0.00     0.051 A 
BRANCH  19  23
ATOM     23  C   UNL     1       0.272   1.120  -0.003  1.00  0.00     0.021 A 
ATOM     24  C   UNL     1       2.460  -0.228   0.051  1.00  0.00     0.045 C 
ATOM     25  C   UNL     1       0.955  -0.116   0.030  1.00  0.00    -0.033 A 
ATOM     26  C   UNL     1       0.211  -1.308   0.038  1.00  0.00     0.089 A 
ATOM     27  C   UNL     1      -1.189  -1.266   0.039  1.00  0.00     0.269 A 
ATOM     28  C   UNL     1      -1.132   1.145   0.021  1.00  0.00     0.019 A 
ATOM     29  C   UNL     1      -1.866  -0.041   0.041  1.00  0.00     0.086 A 
BRANCH  27  30
ATOM     30  N   UNL     1      -1.954  -2.518   0.032  1.00  0.00     0.062 N 
ATOM     31  O   UNL     1      -1.324  -3.585   0.015  1.00  0.00    -0.258 OA
ATOM     32  O   UNL     1      -3.192  -2.438   0.030  1.00  0.00    -0.258 OA
ENDBRANCH  27  30
ENDBRANCH  19  23
ENDBRANCH  17  18
ENDBRANCH  13  16
ENDBRANCH   7  12
BRANCH  11  33
ATOM     33  O   UNL     1       3.906   7.232  -2.333  1.00  0.00    -0.507 OA
ATOM     34  H   UNL     1       3.225   7.176  -2.975  1.00  0.00     0.293 HD
ENDBRANCH  11  33
ENDBRANCH   4   6
ENDBRANCH   3   4
ENDBRANCH   2   3
ENDBRANCH   1   2
BRANCH   1  35
ATOM     35  O   UNL     1       7.054  10.051  -0.468  1.00  0.00    -0.374 OA
BRANCH  35  36
ATOM     36  C   UNL     1       6.625  11.323  -0.040  1.00  0.00     0.202 C 
BRANCH  36  37
ATOM     37  C   UNL     1       7.379  12.460  -0.734  1.00  0.00     0.261 C 
BRANCH  37  38
ATOM     38  O   UNL     1       8.777  12.445  -0.363  1.00  0.00    -0.460 OA
BRANCH  38  39
ATOM     39  C   UNL     1       9.623  11.851  -1.254  1.00  0.00     0.338 C 
ATOM     40  O   UNL     1       9.831  12.253  -2.386  1.00  0.00    -0.246 OA
BRANCH  39  41
ATOM     41  C   UNL     1      10.146  10.568  -0.697  1.00  0.00     0.060 A 
ATOM     42  C   UNL     1      10.776   9.619  -1.527  1.00  0.00     0.016 A 
ATOM     43  C   UNL     1       9.743  10.205   0.582  1.00  0.00     0.016 A 
ATOM     44  C   UNL     1      10.858   8.270  -1.132  1.00  0.00     0.010 A 
ATOM     45  C   UNL     1       9.699   8.867   0.898  1.00  0.00     0.010 A 
ATOM     46  C   UNL     1      10.239   7.880   0.051  1.00  0.00    -0.014 A 
BRANCH  46  47
ATOM     47  C   UNL     1      10.000   6.515   0.542  1.00  0.00     0.031 A 
ATOM     48  C   UNL     1      10.472   6.209   1.921  1.00  0.00     0.074 A 
ATOM     49  C   UNL     1       9.014   5.744   0.010  1.00  0.00     0.049 A 
ATOM     50  N   UNL     1      10.221   5.114   2.542  1.00  0.00    -0.248 NA
ATOM     51  C   UNL     1      11.298   7.117   2.724  1.00  0.00     0.031 C 
ATOM     52  C   UNL     1       8.091   4.873   0.746  1.00  0.00     0.029 A 
ATOM     53  N   UNL     1       8.634   5.546  -1.320  1.00  0.00    -0.354 N 
ATOM     54  C   UNL     1      10.479   5.318   3.875  1.00  0.00     0.074 A 
ATOM     55  C   UNL     1      11.280   6.513   3.917  1.00  0.00     0.031 C 
ATOM     56  C   UNL     1       7.426   4.085  -0.111  1.00  0.00     0.029 A 
ATOM     57  C   UNL     1       8.033   4.268  -1.409  1.00  0.00     0.049 A 
ATOM     58  H   UNL     1       8.761   6.181  -2.061  1.00  0.00     0.167 HD
ATOM     59  C   UNL     1       9.867   4.502   4.775  1.00  0.00     0.034 A 
ATOM     60  C   UNL     1       8.543   3.302  -2.227  1.00  0.00     0.034 A 
ATOM     61  C   UNL     1       9.149   3.416   4.096  1.00  0.00     0.049 A 
ATOM     62  C   UNL     1       9.023   2.107  -1.435  1.00  0.00     0.074 A 
ATOM     63  C   UNL     1       7.826   3.072   3.891  1.00  0.00     0.029 A 
ATOM     64  N   UNL     1       9.886   2.576   3.286  1.00  0.00    -0.354 N 
ATOM     65  N   UNL     1       8.895   2.021  -0.140  1.00  0.00    -0.248 NA
ATOM     66  C   UNL     1       9.738   0.962  -1.985  1.00  0.00     0.031 C 
ATOM     67  C   UNL     1       7.795   2.022   2.917  1.00  0.00     0.029 A 
ATOM     68  C   UNL     1       9.099   1.703   2.577  1.00  0.00     0.049 A 
ATOM     69  H   UNL     1      10.868   2.601   3.223  1.00  0.00     0.167 HD
ATOM     70  C   UNL     1       9.602   0.960   0.339  1.00  0.00     0.074 A 
ATOM     71  C   UNL     1      10.095   0.304  -0.864  1.00  0.00     0.031 C 
ATOM     72  C   UNL     1       9.762   0.762   1.682  1.00  0.00     0.034 A 
BRANCH  59  73
ATOM     73  C   UNL     1       9.794   4.671   6.272  1.00  0.00     0.023 A 
ATOM     74  C   UNL     1       9.148   3.650   7.003  1.00  0.00     0.031 A 
ATOM     75  C   UNL     1      10.229   5.771   7.036  1.00  0.00     0.131 A 
ATOM     76  C   UNL     1       8.930   3.751   8.385  1.00  0.00     0.055 A 
ATOM     77  C   UNL     1      10.054   5.851   8.426  1.00  0.00     0.041 A 
ATOM     78  F   UNL     1      10.806   6.847   6.490  1.00  0.00    -0.206 F 
ATOM     79  C   UNL     1       9.391   4.843   9.108  1.00  0.00     0.022 A 
BRANCH  76  80
ATOM     80  S   UNL     1       7.980   2.446   9.203  1.00  0.00     0.124 S 
ATOM     81  O   UNL     1       6.689   2.543   8.530  1.00  0.00    -0.237 OA
ATOM     82  O   UNL     1       8.774   1.258   8.914  1.00  0.00    -0.237 OA
ATOM     83  O   UNL     1       7.977   2.862  10.605  1.00  0.00    -0.744 OA
ENDBRANCH  76  80
ENDBRANCH  59  73
BRANCH  60  84
ATOM     84  C   UNL     1       9.157   3.923  -3.445  1.00  0.00     0.023 A 
ATOM     85  C   UNL     1       8.255   4.568  -4.327  1.00  0.00     0.031 A 
ATOM     86  C   UNL     1      10.471   4.415  -3.371  1.00  0.00     0.131 A 
ATOM     87  C   UNL     1       8.605   5.798  -4.909  1.00  0.00     0.055 A 
ATOM     88  C   UNL     1      10.822   5.625  -3.985  1.00  0.00     0.041 A 
ATOM     89  F   UNL     1      11.362   3.851  -2.542  1.00  0.00    -0.206 F 
ATOM     90  C   UNL     1       9.873   6.349  -4.709  1.00  0.00     0.022 A 
BRANCH  87  91
ATOM     91  S   UNL     1       7.286   6.803  -5.669  1.00  0.00     0.124 S 
ATOM     92  O   UNL     1       7.100   6.146  -6.956  1.00  0.00    -0.237 OA
ATOM     93  O   UNL     1       6.191   6.661  -4.709  1.00  0.00    -0.237 OA
ATOM     94  O   UNL     1       7.867   8.144  -5.719  1.00  0.00    -0.744 OA
ENDBRANCH  87  91
ENDBRANCH  60  84
BRANCH  72  95
ATOM     95  C   UNL     1      10.626  -0.327   2.257  1.00  0.00     0.023 A 
ATOM     96  C   UNL     1      10.671  -1.590   1.665  1.00  0.00     0.031 A 
ATOM     97  C   UNL     1      11.402  -0.159   3.430  1.00  0.00     0.131 A 
ATOM     98  C   UNL     1      11.540  -2.575   2.152  1.00  0.00     0.055 A 
ATOM     99  C   UNL     1      12.172  -1.182   3.984  1.00  0.00     0.041 A 
ATOM    100  F   UNL     1      11.506   1.019   4.062  1.00  0.00    -0.206 F 
ATOM    101  C   UNL     1      12.267  -2.396   3.328  1.00  0.00     0.022 A 
BRANCH  98 102
ATOM    102  S   UNL     1      11.798  -4.042   1.131  1.00  0.00     0.124 S 
ATOM    103  O   UNL     1      10.439  -4.531   0.926  1.00  0.00    -0.237 OA
ATOM    104  O   UNL     1      12.445  -3.466  -0.046  1.00  0.00    -0.237 OA
ATOM    105  O   UNL     1      12.652  -4.891   1.957  1.00  0.00    -0.744 OA
ENDBRANCH  98 102
ENDBRANCH  72  95
ENDBRANCH  46  47
ENDBRANCH  39  41
ENDBRANCH  38  39
ENDBRANCH  37  38
ENDBRANCH  36  37
ENDBRANCH  35  36
ENDBRANCH   1  35
TORSDOF 23
