REMARK SMILES Cc1ccc(S(=O)(=O)Nc2ccccn2)cc1C(=O)OCCOCCOC(=O)c1ccc(-c2c3nc(c(-c4cc(S(=O)(=O)[O-])ccc4F)c4ccc([nH]4)c(-c4cc(S(=O)(=O)[O-])ccc4F)c4nc(c(-c5cc(S(=O)(=O)[O-])ccc5F)c5ccc2[nH]5)C=C4)C=C3)cc1
REMARK SMILES IDX 23 1 22 2 21 3 20 4 18 5 19 6 17 7 1 8 2 9 3 10 4 11 16 12
REMARK SMILES IDX 5 13 6 14 7 15 8 16 9 17 10 19 11 20 15 21 12 22 14 23 13 24
REMARK SMILES IDX 24 25 25 26 26 27 27 28 28 29 29 30 30 31 91 32 31 33 90 34
REMARK SMILES IDX 32 35 33 36 34 37 84 38 35 39 89 40 83 41 85 42 36 43 88 44
REMARK SMILES IDX 82 45 81 46 37 48 69 49 49 50 68 51 50 52 53 53 67 54 86 55
REMARK SMILES IDX 51 56 52 57 66 59 87 60 54 61 38 62 39 63 47 64 40 65 46 66
REMARK SMILES IDX 48 67 45 68 41 69 42 70 43 71 44 72 70 73 71 74 79 75 72 76
REMARK SMILES IDX 78 77 80 78 77 79 73 80 74 81 75 82 76 83 55 84 56 85 64 86
REMARK SMILES IDX 57 87 63 88 65 89 62 90 58 91 59 92 60 93 61 94
REMARK H PARENT 9 18 85 47 53 58
REMARK Flexibility Score: inf
ROOT
ATOM      1  O   UNL     1       1.269   2.894  -2.425  1.00  0.00    -0.374 OA
ENDROOT
BRANCH   1   2
ATOM      2  C   UNL     1       2.518   2.207  -2.411  1.00  0.00     0.202 C 
BRANCH   2   3
ATOM      3  C   UNL     1       2.819   2.131  -0.961  1.00  0.00     0.261 C 
BRANCH   3   4
ATOM      4  O   UNL     1       1.938   1.191  -0.324  1.00  0.00    -0.460 OA
BRANCH   4   5
ATOM      5  C   UNL     1       0.780   1.561   0.255  1.00  0.00     0.338 C 
ATOM      6  O   UNL     1       0.390   2.690   0.469  1.00  0.00    -0.246 OA
BRANCH   5   7
ATOM      7  C   UNL     1      -0.068   0.345   0.408  1.00  0.00     0.064 A 
ATOM      8  C   UNL     1       1.796  -1.466   0.351  1.00  0.00     0.045 C 
ATOM      9  C   UNL     1       0.370  -0.985   0.239  1.00  0.00    -0.036 A 
ATOM     10  C   UNL     1      -0.600  -1.967  -0.021  1.00  0.00     0.006 A 
ATOM     11  C   UNL     1      -1.951  -1.635  -0.130  1.00  0.00     0.022 A 
ATOM     12  C   UNL     1      -1.442   0.637   0.475  1.00  0.00     0.038 A 
ATOM     13  C   UNL     1      -2.374  -0.325   0.115  1.00  0.00     0.088 A 
BRANCH  13  14
ATOM     14  S   UNL     1      -4.068   0.065  -0.260  1.00  0.00     0.263 S 
ATOM     15  O   UNL     1      -4.178   0.026  -1.705  1.00  0.00    -0.201 OA
ATOM     16  O   UNL     1      -4.873  -0.824   0.555  1.00  0.00    -0.201 OA
BRANCH  14  17
ATOM     17  N   UNL     1      -4.429   1.597   0.258  1.00  0.00    -0.263 N 
ATOM     18  H   UNL     1      -5.190   1.704   0.873  1.00  0.00     0.182 HD
BRANCH  17  19
ATOM     19  C   UNL     1      -3.728   2.751  -0.117  1.00  0.00     0.139 A 
ATOM     20  C   UNL     1      -3.193   3.027  -1.363  1.00  0.00     0.048 A 
ATOM     21  N   UNL     1      -3.653   3.586   0.935  1.00  0.00    -0.239 NA
ATOM     22  C   UNL     1      -2.485   4.220  -1.510  1.00  0.00     0.005 A 
ATOM     23  C   UNL     1      -2.937   4.719   0.772  1.00  0.00     0.113 A 
ATOM     24  C   UNL     1      -2.343   5.077  -0.423  1.00  0.00     0.020 A 
ENDBRANCH  17  19
ENDBRANCH  14  17
ENDBRANCH  13  14
ENDBRANCH   5   7
ENDBRANCH   4   5
ENDBRANCH   3   4
ENDBRANCH   2   3
ENDBRANCH   1   2
BRANCH   1  25
ATOM     25  C   UNL     1       0.623   2.900  -3.668  1.00  0.00     0.202 C 
BRANCH  25  26
ATOM     26  C   UNL     1       1.376   3.755  -4.687  1.00  0.00     0.261 C 
BRANCH  26  27
ATOM     27  O   UNL     1       1.586   5.083  -4.155  1.00  0.00    -0.460 OA
BRANCH  27  28
ATOM     28  C   UNL     1       2.853   5.370  -3.731  1.00  0.00     0.338 C 
ATOM     29  O   UNL     1       3.859   5.264  -4.413  1.00  0.00    -0.246 OA
BRANCH  28  30
ATOM     30  C   UNL     1       2.845   5.687  -2.270  1.00  0.00     0.060 A 
ATOM     31  C   UNL     1       4.032   5.633  -1.507  1.00  0.00     0.016 A 
ATOM     32  C   UNL     1       1.616   5.775  -1.623  1.00  0.00     0.016 A 
ATOM     33  C   UNL     1       3.973   5.523  -0.104  1.00  0.00     0.010 A 
ATOM     34  C   UNL     1       1.563   5.583  -0.259  1.00  0.00     0.010 A 
ATOM     35  C   UNL     1       2.727   5.421   0.512  1.00  0.00    -0.014 A 
BRANCH  35  36
ATOM     36  C   UNL     1       2.454   5.026   1.902  1.00  0.00     0.031 A 
ATOM     37  C   UNL     1       1.678   5.964   2.742  1.00  0.00     0.074 A 
ATOM     38  C   UNL     1       2.567   3.727   2.283  1.00  0.00     0.049 A 
ATOM     39  N   UNL     1       1.388   5.739   3.970  1.00  0.00    -0.248 NA
ATOM     40  C   UNL     1       1.171   7.261   2.287  1.00  0.00     0.031 C 
ATOM     41  C   UNL     1       1.839   2.995   3.325  1.00  0.00     0.029 A 
ATOM     42  N   UNL     1       3.381   2.730   1.748  1.00  0.00    -0.354 N 
ATOM     43  C   UNL     1       0.412   6.622   4.352  1.00  0.00     0.074 A 
ATOM     44  C   UNL     1       0.416   7.632   3.327  1.00  0.00     0.031 C 
ATOM     45  C   UNL     1       2.426   1.800   3.540  1.00  0.00     0.029 A 
ATOM     46  C   UNL     1       3.629   1.757   2.722  1.00  0.00     0.049 A 
ATOM     47  H   UNL     1       3.727   2.713   0.826  1.00  0.00     0.167 HD
ATOM     48  C   UNL     1      -0.346   6.292   5.434  1.00  0.00     0.034 A 
ATOM     49  C   UNL     1       4.907   1.497   3.100  1.00  0.00     0.034 A 
ATOM     50  C   UNL     1       0.219   5.109   6.108  1.00  0.00     0.049 A 
ATOM     51  C   UNL     1       5.011   2.016   4.515  1.00  0.00     0.074 A 
ATOM     52  C   UNL     1      -0.187   3.794   6.254  1.00  0.00     0.029 A 
ATOM     53  N   UNL     1       1.562   5.141   6.495  1.00  0.00    -0.354 N 
ATOM     54  N   UNL     1       4.223   2.953   4.984  1.00  0.00    -0.248 NA
ATOM     55  C   UNL     1       5.833   1.404   5.551  1.00  0.00     0.031 C 
ATOM     56  C   UNL     1       0.967   3.023   6.606  1.00  0.00     0.029 A 
ATOM     57  C   UNL     1       2.062   3.872   6.715  1.00  0.00     0.049 A 
ATOM     58  H   UNL     1       2.087   5.967   6.599  1.00  0.00     0.167 HD
ATOM     59  C   UNL     1       4.289   2.960   6.342  1.00  0.00     0.074 A 
ATOM     60  C   UNL     1       5.363   2.023   6.649  1.00  0.00     0.031 C 
ATOM     61  C   UNL     1       3.447   3.683   7.139  1.00  0.00     0.034 A 
BRANCH  48  62
ATOM     62  C   UNL     1      -1.671   6.918   5.824  1.00  0.00     0.023 A 
ATOM     63  C   UNL     1      -2.312   6.460   6.995  1.00  0.00     0.031 A 
ATOM     64  C   UNL     1      -2.398   7.880   5.087  1.00  0.00     0.131 A 
ATOM     65  C   UNL     1      -3.575   6.948   7.388  1.00  0.00     0.055 A 
ATOM     66  C   UNL     1      -3.629   8.406   5.507  1.00  0.00     0.041 A 
ATOM     67  F   UNL     1      -1.999   8.330   3.894  1.00  0.00    -0.206 F 
ATOM     68  C   UNL     1      -4.228   7.938   6.662  1.00  0.00     0.022 A 
BRANCH  65  69
ATOM     69  S   UNL     1      -4.381   6.237   8.848  1.00  0.00     0.124 S 
ATOM     70  O   UNL     1      -4.586   4.852   8.439  1.00  0.00    -0.237 OA
ATOM     71  O   UNL     1      -3.390   6.467   9.893  1.00  0.00    -0.237 OA
ATOM     72  O   UNL     1      -5.605   7.028   8.977  1.00  0.00    -0.744 OA
ENDBRANCH  65  69
ENDBRANCH  48  62
BRANCH  49  73
ATOM     73  C   UNL     1       5.860   1.609   1.935  1.00  0.00     0.023 A 
ATOM     74  C   UNL     1       5.778   0.625   0.903  1.00  0.00     0.031 A 
ATOM     75  C   UNL     1       6.452   2.835   1.591  1.00  0.00     0.131 A 
ATOM     76  C   UNL     1       6.172   0.921  -0.424  1.00  0.00     0.055 A 
ATOM     77  C   UNL     1       6.835   3.125   0.269  1.00  0.00     0.041 A 
ATOM     78  F   UNL     1       6.534   3.827   2.489  1.00  0.00    -0.206 F 
ATOM     79  C   UNL     1       6.665   2.186  -0.748  1.00  0.00     0.022 A 
BRANCH  76  80
ATOM     80  S   UNL     1       5.735  -0.220  -1.797  1.00  0.00     0.124 S 
ATOM     81  O   UNL     1       6.822  -1.188  -1.756  1.00  0.00    -0.237 OA
ATOM     82  O   UNL     1       4.422  -0.723  -1.406  1.00  0.00    -0.237 OA
ATOM     83  O   UNL     1       5.707   0.655  -2.968  1.00  0.00    -0.744 OA
ENDBRANCH  76  80
ENDBRANCH  49  73
BRANCH  61  84
ATOM     84  C   UNL     1       3.913   4.232   8.457  1.00  0.00     0.023 A 
ATOM     85  C   UNL     1       5.270   4.236   8.797  1.00  0.00     0.031 A 
ATOM     86  C   UNL     1       3.048   4.893   9.355  1.00  0.00     0.131 A 
ATOM     87  C   UNL     1       5.709   4.728  10.026  1.00  0.00     0.055 A 
ATOM     88  C   UNL     1       3.507   5.503  10.524  1.00  0.00     0.041 A 
ATOM     89  F   UNL     1       1.731   4.998   9.128  1.00  0.00    -0.206 F 
ATOM     90  C   UNL     1       4.843   5.395  10.884  1.00  0.00     0.022 A 
BRANCH  87  91
ATOM     91  S   UNL     1       7.405   4.333  10.502  1.00  0.00     0.124 S 
ATOM     92  O   UNL     1       7.380   2.872  10.496  1.00  0.00    -0.237 OA
ATOM     93  O   UNL     1       8.187   4.954   9.438  1.00  0.00    -0.237 OA
ATOM     94  O   UNL     1       7.541   4.947  11.820  1.00  0.00    -0.744 OA
ENDBRANCH  87  91
ENDBRANCH  61  84
ENDBRANCH  35  36
ENDBRANCH  28  30
ENDBRANCH  27  28
ENDBRANCH  26  27
ENDBRANCH  25  26
ENDBRANCH   1  25
TORSDOF 20
