REMARK SMILES CC(C)CCc1cc2c(cc1Cl)C=C(C(=O)OCCOCCOC(=O)c1ccc(-c3c4nc(c(-c5cc(S(=O)(=O)[O-])ccc5F)c5ccc([nH]5)c(-c5cc(S(=O)(=O)[O-])ccc5F)c5nc(c(-c6cc(S(=O)(=O)[O-])ccc6F)c6ccc3[nH]6)C=C5)C=C4)cc1)[C@@H](C(F)(F)F)O2
REMARK SMILES IDX 20 1 19 2 18 3 17 4 15 5 16 6 14 7 6 8 7 9 11 10 8 11 10 12
REMARK SMILES IDX 12 13 9 14 94 15 13 16 89 17 5 18 4 19 2 20 1 21 3 22 90 23
REMARK SMILES IDX 91 24 92 25 93 26 21 27 22 28 23 29 24 30 25 31 26 32 27 33
REMARK SMILES IDX 88 34 28 35 87 36 29 37 30 38 31 39 81 40 32 41 86 42 80 43
REMARK SMILES IDX 82 44 33 45 85 46 79 47 78 48 34 50 66 51 46 52 65 53 47 54
REMARK SMILES IDX 50 55 64 56 83 57 48 58 49 59 63 61 84 62 51 63 35 64 36 65
REMARK SMILES IDX 44 66 37 67 43 68 45 69 42 70 38 71 39 72 40 73 41 74 67 75
REMARK SMILES IDX 68 76 76 77 69 78 75 79 77 80 74 81 70 82 71 83 72 84 73 85
REMARK SMILES IDX 52 86 53 87 61 88 54 89 60 90 62 91 59 92 55 93 56 94 57 95
REMARK SMILES IDX 58 96
REMARK H PARENT 82 49 50 60
REMARK Flexibility Score: inf
ROOT
ATOM      1  O   UNL     1      -0.230  -8.569   7.607  1.00  0.00    -0.374 OA
ENDROOT
BRANCH   1   2
ATOM      2  C   UNL     1       0.951  -8.294   8.357  1.00  0.00     0.202 C 
BRANCH   2   3
ATOM      3  C   UNL     1       2.152  -7.709   7.607  1.00  0.00     0.261 C 
BRANCH   3   4
ATOM      4  O   UNL     1       1.814  -6.496   6.920  1.00  0.00    -0.460 OA
BRANCH   4   5
ATOM      5  C   UNL     1       1.772  -6.606   5.572  1.00  0.00     0.338 C 
ATOM      6  O   UNL     1       2.100  -7.572   4.902  1.00  0.00    -0.246 OA
BRANCH   5   7
ATOM      7  C   UNL     1       1.114  -5.415   5.002  1.00  0.00     0.087 C 
ATOM      8  C   UNL     1      -1.161  -2.240   1.857  1.00  0.00    -0.026 A 
ATOM      9  C   UNL     1      -0.525  -2.106   3.104  1.00  0.00     0.052 A 
ATOM     10  C   UNL     1      -1.452  -3.543   1.411  1.00  0.00     0.045 A 
ATOM     11  C   UNL     1      -0.061  -3.222   3.804  1.00  0.00     0.128 A 
ATOM     12  C   UNL     1      -1.023  -4.662   2.129  1.00  0.00     0.032 A 
ATOM     13  Cl  UNL     1      -2.336  -3.836  -0.049  1.00  0.00    -0.084 Cl
ATOM     14  C   UNL     1      -0.286  -4.500   3.303  1.00  0.00     0.019 A 
ATOM     15  O   UNL     1       0.610  -2.973   4.967  1.00  0.00    -0.475 OA
ATOM     16  C   UNL     1       0.291  -5.647   3.971  1.00  0.00     0.027 C 
ATOM     17  C   UNL     1       1.391  -4.048   5.566  1.00  0.00     0.316 C 
BRANCH   8  18
ATOM     18  C   UNL     1      -1.528  -1.036   1.011  1.00  0.00     0.037 C 
BRANCH  18  19
ATOM     19  C   UNL     1      -0.886   0.319   1.353  1.00  0.00     0.008 C 
BRANCH  19  20
ATOM     20  C   UNL     1       0.652   0.388   1.235  1.00  0.00    -0.017 C 
ATOM     21  C   UNL     1       1.145   0.188  -0.198  1.00  0.00     0.007 C 
ATOM     22  C   UNL     1       1.146   1.732   1.776  1.00  0.00     0.007 C 
ENDBRANCH  19  20
ENDBRANCH  18  19
ENDBRANCH   8  18
BRANCH  17  23
ATOM     23  C   UNL     1       2.881  -3.684   5.496  1.00  0.00     0.430 C 
ATOM     24  F   UNL     1       3.102  -2.421   5.928  1.00  0.00    -0.167 F 
ATOM     25  F   UNL     1       3.632  -4.502   6.270  1.00  0.00    -0.167 F 
ATOM     26  F   UNL     1       3.360  -3.770   4.233  1.00  0.00    -0.167 F 
ENDBRANCH  17  23
ENDBRANCH   5   7
ENDBRANCH   4   5
ENDBRANCH   3   4
ENDBRANCH   2   3
ENDBRANCH   1   2
BRANCH   1  27
ATOM     27  C   UNL     1      -1.063  -7.477   7.221  1.00  0.00     0.202 C 
BRANCH  27  28
ATOM     28  C   UNL     1      -1.885  -6.756   8.298  1.00  0.00     0.261 C 
BRANCH  28  29
ATOM     29  O   UNL     1      -1.073  -6.099   9.283  1.00  0.00    -0.460 OA
BRANCH  29  30
ATOM     30  C   UNL     1      -1.060  -6.702  10.500  1.00  0.00     0.338 C 
ATOM     31  O   UNL     1      -1.670  -7.710  10.824  1.00  0.00    -0.246 OA
BRANCH  30  32
ATOM     32  C   UNL     1      -0.024  -6.077  11.343  1.00  0.00     0.060 A 
ATOM     33  C   UNL     1       0.005  -4.698  11.550  1.00  0.00     0.016 A 
ATOM     34  C   UNL     1       0.919  -6.910  11.960  1.00  0.00     0.016 A 
ATOM     35  C   UNL     1       0.973  -4.156  12.399  1.00  0.00     0.010 A 
ATOM     36  C   UNL     1       1.880  -6.367  12.813  1.00  0.00     0.010 A 
ATOM     37  C   UNL     1       1.906  -4.986  13.052  1.00  0.00    -0.014 A 
BRANCH  37  38
ATOM     38  C   UNL     1       2.814  -4.413  14.078  1.00  0.00     0.031 A 
ATOM     39  C   UNL     1       4.286  -4.266  13.833  1.00  0.00     0.074 A 
ATOM     40  C   UNL     1       2.284  -4.027  15.255  1.00  0.00     0.049 A 
ATOM     41  N   UNL     1       5.184  -3.680  14.582  1.00  0.00    -0.248 NA
ATOM     42  C   UNL     1       4.824  -4.858  12.600  1.00  0.00     0.031 C 
ATOM     43  C   UNL     1       0.877  -4.181  15.622  1.00  0.00     0.029 A 
ATOM     44  N   UNL     1       2.850  -3.420  16.349  1.00  0.00    -0.354 N 
ATOM     45  C   UNL     1       6.390  -3.809  13.904  1.00  0.00     0.074 A 
ATOM     46  C   UNL     1       6.118  -4.585  12.713  1.00  0.00     0.031 C 
ATOM     47  C   UNL     1       0.679  -3.643  16.833  1.00  0.00     0.029 A 
ATOM     48  C   UNL     1       1.949  -3.138  17.350  1.00  0.00     0.049 A 
ATOM     49  H   UNL     1       3.809  -3.206  16.410  1.00  0.00     0.167 HD
ATOM     50  C   UNL     1       7.602  -3.304  14.240  1.00  0.00     0.034 A 
ATOM     51  C   UNL     1       2.118  -2.533  18.544  1.00  0.00     0.034 A 
ATOM     52  C   UNL     1       7.851  -2.546  15.442  1.00  0.00     0.049 A 
ATOM     53  C   UNL     1       3.479  -1.988  18.898  1.00  0.00     0.074 A 
ATOM     54  C   UNL     1       9.035  -1.953  15.846  1.00  0.00     0.029 A 
ATOM     55  N   UNL     1       6.918  -2.281  16.436  1.00  0.00    -0.354 N 
ATOM     56  N   UNL     1       4.585  -2.013  18.192  1.00  0.00    -0.248 NA
ATOM     57  C   UNL     1       3.615  -1.311  20.195  1.00  0.00     0.031 C 
ATOM     58  C   UNL     1       8.842  -1.407  17.114  1.00  0.00     0.029 A 
ATOM     59  C   UNL     1       7.510  -1.562  17.463  1.00  0.00     0.049 A 
ATOM     60  H   UNL     1       5.975  -2.562  16.414  1.00  0.00     0.167 HD
ATOM     61  C   UNL     1       5.535  -1.324  18.941  1.00  0.00     0.074 A 
ATOM     62  C   UNL     1       4.867  -0.876  20.144  1.00  0.00     0.031 C 
ATOM     63  C   UNL     1       6.841  -1.089  18.653  1.00  0.00     0.034 A 
BRANCH  50  64
ATOM     64  C   UNL     1       8.765  -3.512  13.298  1.00  0.00     0.023 A 
ATOM     65  C   UNL     1       9.925  -4.176  13.742  1.00  0.00     0.031 A 
ATOM     66  C   UNL     1       8.793  -2.909  12.027  1.00  0.00     0.131 A 
ATOM     67  C   UNL     1      11.076  -4.178  12.945  1.00  0.00     0.055 A 
ATOM     68  C   UNL     1       9.926  -2.959  11.214  1.00  0.00     0.041 A 
ATOM     69  F   UNL     1       7.717  -2.256  11.558  1.00  0.00    -0.206 F 
ATOM     70  C   UNL     1      11.081  -3.581  11.680  1.00  0.00     0.022 A 
BRANCH  67  71
ATOM     71  S   UNL     1      12.637  -4.874  13.552  1.00  0.00     0.124 S 
ATOM     72  O   UNL     1      12.922  -5.894  12.545  1.00  0.00    -0.237 OA
ATOM     73  O   UNL     1      13.519  -3.711  13.529  1.00  0.00    -0.237 OA
ATOM     74  O   UNL     1      12.301  -5.387  14.876  1.00  0.00    -0.744 OA
ENDBRANCH  67  71
ENDBRANCH  50  64
BRANCH  51  75
ATOM     75  C   UNL     1       0.935  -2.347  19.436  1.00  0.00     0.023 A 
ATOM     76  C   UNL     1       0.216  -3.455  19.919  1.00  0.00     0.031 A 
ATOM     77  C   UNL     1       0.441  -1.064  19.725  1.00  0.00     0.131 A 
ATOM     78  C   UNL     1      -0.993  -3.260  20.598  1.00  0.00     0.055 A 
ATOM     79  C   UNL     1      -0.721  -0.873  20.474  1.00  0.00     0.041 A 
ATOM     80  F   UNL     1       1.080   0.026  19.271  1.00  0.00    -0.206 F 
ATOM     81  C   UNL     1      -1.455  -1.976  20.898  1.00  0.00     0.022 A 
BRANCH  78  82
ATOM     82  S   UNL     1      -2.075  -4.664  20.987  1.00  0.00     0.124 S 
ATOM     83  O   UNL     1      -2.187  -4.570  22.439  1.00  0.00    -0.237 OA
ATOM     84  O   UNL     1      -3.282  -4.324  20.237  1.00  0.00    -0.237 OA
ATOM     85  O   UNL     1      -1.337  -5.817  20.484  1.00  0.00    -0.744 OA
ENDBRANCH  78  82
ENDBRANCH  51  75
BRANCH  63  86
ATOM     86  C   UNL     1       7.672  -0.280  19.626  1.00  0.00     0.023 A 
ATOM     87  C   UNL     1       8.286   0.913  19.194  1.00  0.00     0.031 A 
ATOM     88  C   UNL     1       7.989  -0.758  20.909  1.00  0.00     0.131 A 
ATOM     89  C   UNL     1       9.222   1.557  20.013  1.00  0.00     0.055 A 
ATOM     90  C   UNL     1       8.876  -0.078  21.747  1.00  0.00     0.041 A 
ATOM     91  F   UNL     1       7.447  -1.897  21.367  1.00  0.00    -0.206 F 
ATOM     92  C   UNL     1       9.511   1.075  21.293  1.00  0.00     0.022 A 
BRANCH  89  93
ATOM     93  S   UNL     1      10.179   2.974  19.407  1.00  0.00     0.124 S 
ATOM     94  O   UNL     1       9.785   4.026  20.341  1.00  0.00    -0.237 OA
ATOM     95  O   UNL     1      11.553   2.499  19.547  1.00  0.00    -0.237 OA
ATOM     96  O   UNL     1       9.714   3.154  18.036  1.00  0.00    -0.744 OA
ENDBRANCH  89  93
ENDBRANCH  63  86
ENDBRANCH  37  38
ENDBRANCH  30  32
ENDBRANCH  29  30
ENDBRANCH  28  29
ENDBRANCH  27  28
ENDBRANCH   1  27
TORSDOF 21
