REMARK SMILES O=C(OCCOCCOC(=O)[C@@H]1CSCN1C(=O)c1cccc(Cl)c1)c1ccc(-c2c3nc(c(-c4cc(S(=O)(=O)[O-])ccc4F)c4ccc([nH]4)c(-c4cc(S(=O)(=O)[O-])ccc4F)c4nc(c(-c5cc(S(=O)(=O)[O-])ccc5F)c5ccc2[nH]5)C=C4)C=C3)cc1
REMARK SMILES IDX 5 1 4 2 3 3 2 4 1 5 26 6 27 7 88 8 28 9 87 10 29 11 30 12
REMARK SMILES IDX 31 13 81 14 32 15 86 16 80 17 82 18 33 19 85 20 79 21 78 22
REMARK SMILES IDX 34 24 66 25 46 26 65 27 47 28 50 29 64 30 83 31 48 32 49 33
REMARK SMILES IDX 63 35 84 36 51 37 35 38 36 39 44 40 37 41 43 42 45 43 42 44
REMARK SMILES IDX 38 45 39 46 40 47 41 48 67 49 68 50 76 51 69 52 75 53 77 54
REMARK SMILES IDX 74 55 70 56 71 57 72 58 73 59 52 60 53 61 61 62 54 63 60 64
REMARK SMILES IDX 62 65 59 66 55 67 56 68 57 69 58 70 6 71 7 72 8 73 9 74
REMARK SMILES IDX 10 75 11 76 12 77 13 78 16 79 14 80 15 81 17 82 18 83 19 84
REMARK SMILES IDX 20 85 25 86 21 87 23 88 22 89 24 90
REMARK H PARENT 82 23 50 34
REMARK Flexibility Score: inf
ROOT
ATOM      1  C   UNL     1       7.568   0.835   4.226  1.00  0.00     0.202 C 
ENDROOT
BRANCH   1   2
ATOM      2  C   UNL     1       9.094   0.776   4.164  1.00  0.00     0.261 C 
BRANCH   2   3
ATOM      3  O   UNL     1       9.543  -0.546   4.485  1.00  0.00    -0.460 OA
BRANCH   3   4
ATOM      4  C   UNL     1       9.770  -1.016   5.736  1.00  0.00     0.338 C 
ATOM      5  O   UNL     1       9.887  -2.228   5.904  1.00  0.00    -0.246 OA
BRANCH   4   6
ATOM      6  C   UNL     1       9.967  -0.115   6.908  1.00  0.00     0.060 A 
ATOM      7  C   UNL     1       9.220   1.037   7.162  1.00  0.00     0.016 A 
ATOM      8  C   UNL     1      10.908  -0.517   7.867  1.00  0.00     0.016 A 
ATOM      9  C   UNL     1       9.389   1.779   8.308  1.00  0.00     0.010 A 
ATOM     10  C   UNL     1      11.068   0.209   9.049  1.00  0.00     0.010 A 
ATOM     11  C   UNL     1      10.289   1.350   9.269  1.00  0.00    -0.014 A 
BRANCH  11  12
ATOM     12  C   UNL     1      10.413   2.197  10.457  1.00  0.00     0.031 A 
ATOM     13  C   UNL     1      11.587   3.111  10.540  1.00  0.00     0.074 A 
ATOM     14  C   UNL     1       9.382   2.246  11.321  1.00  0.00     0.049 A 
ATOM     15  N   UNL     1      11.948   3.896  11.512  1.00  0.00    -0.248 NA
ATOM     16  C   UNL     1      12.467   3.159   9.358  1.00  0.00     0.031 C 
ATOM     17  C   UNL     1       8.123   1.504  11.174  1.00  0.00     0.029 A 
ATOM     18  N   UNL     1       9.204   2.971  12.465  1.00  0.00    -0.354 N 
ATOM     19  C   UNL     1      13.121   4.500  11.083  1.00  0.00     0.074 A 
ATOM     20  C   UNL     1      13.405   4.005   9.755  1.00  0.00     0.031 C 
ATOM     21  C   UNL     1       7.302   1.824  12.185  1.00  0.00     0.029 A 
ATOM     22  C   UNL     1       8.012   2.706  13.100  1.00  0.00     0.049 A 
ATOM     23  H   UNL     1       9.864   3.619  12.802  1.00  0.00     0.167 HD
ATOM     24  C   UNL     1      13.891   5.372  11.771  1.00  0.00     0.034 A 
ATOM     25  C   UNL     1       7.591   3.087  14.320  1.00  0.00     0.034 A 
ATOM     26  C   UNL     1      13.548   5.817  13.096  1.00  0.00     0.049 A 
ATOM     27  C   UNL     1       8.535   3.954  15.118  1.00  0.00     0.074 A 
ATOM     28  C   UNL     1      14.260   6.641  13.945  1.00  0.00     0.029 A 
ATOM     29  N   UNL     1      12.381   5.460  13.767  1.00  0.00    -0.354 N 
ATOM     30  N   UNL     1       9.695   4.459  14.753  1.00  0.00    -0.248 NA
ATOM     31  C   UNL     1       8.133   4.290  16.485  1.00  0.00     0.031 C 
ATOM     32  C   UNL     1      13.562   6.718  15.154  1.00  0.00     0.029 A 
ATOM     33  C   UNL     1      12.370   6.015  15.033  1.00  0.00     0.049 A 
ATOM     34  H   UNL     1      11.667   4.894  13.394  1.00  0.00     0.167 HD
ATOM     35  C   UNL     1      10.152   5.188  15.844  1.00  0.00     0.074 A 
ATOM     36  C   UNL     1       9.124   5.083  16.863  1.00  0.00     0.031 C 
ATOM     37  C   UNL     1      11.313   5.874  16.007  1.00  0.00     0.034 A 
BRANCH  24  38
ATOM     38  C   UNL     1      15.204   5.769  11.155  1.00  0.00     0.023 A 
ATOM     39  C   UNL     1      15.285   6.543   9.984  1.00  0.00     0.031 A 
ATOM     40  C   UNL     1      16.403   5.300  11.722  1.00  0.00     0.131 A 
ATOM     41  C   UNL     1      16.535   6.779   9.390  1.00  0.00     0.055 A 
ATOM     42  C   UNL     1      17.647   5.599  11.167  1.00  0.00     0.041 A 
ATOM     43  F   UNL     1      16.382   4.520  12.814  1.00  0.00    -0.206 F 
ATOM     44  C   UNL     1      17.718   6.335   9.988  1.00  0.00     0.022 A 
BRANCH  41  45
ATOM     45  S   UNL     1      16.591   7.568   7.758  1.00  0.00     0.124 S 
ATOM     46  O   UNL     1      15.889   6.588   6.933  1.00  0.00    -0.237 OA
ATOM     47  O   UNL     1      15.892   8.826   7.988  1.00  0.00    -0.237 OA
ATOM     48  O   UNL     1      18.022   7.691   7.484  1.00  0.00    -0.744 OA
ENDBRANCH  41  45
ENDBRANCH  24  38
BRANCH  25  49
ATOM     49  C   UNL     1       6.314   2.575  14.903  1.00  0.00     0.023 A 
ATOM     50  C   UNL     1       5.334   3.450  15.397  1.00  0.00     0.031 A 
ATOM     51  C   UNL     1       6.094   1.192  15.070  1.00  0.00     0.131 A 
ATOM     52  C   UNL     1       4.224   2.942  16.093  1.00  0.00     0.055 A 
ATOM     53  C   UNL     1       4.950   0.690  15.694  1.00  0.00     0.041 A 
ATOM     54  F   UNL     1       6.997   0.299  14.636  1.00  0.00    -0.206 F 
ATOM     55  C   UNL     1       4.018   1.568  16.231  1.00  0.00     0.022 A 
BRANCH  52  56
ATOM     56  S   UNL     1       3.135   4.109  16.954  1.00  0.00     0.124 S 
ATOM     57  O   UNL     1       4.087   4.861  17.764  1.00  0.00    -0.237 OA
ATOM     58  O   UNL     1       2.527   4.832  15.842  1.00  0.00    -0.237 OA
ATOM     59  O   UNL     1       2.229   3.240  17.703  1.00  0.00    -0.744 OA
ENDBRANCH  52  56
ENDBRANCH  25  49
BRANCH  37  60
ATOM     60  C   UNL     1      11.487   6.586  17.320  1.00  0.00     0.023 A 
ATOM     61  C   UNL     1      11.635   5.877  18.523  1.00  0.00     0.031 A 
ATOM     62  C   UNL     1      11.506   7.990  17.363  1.00  0.00     0.131 A 
ATOM     63  C   UNL     1      11.734   6.577  19.731  1.00  0.00     0.055 A 
ATOM     64  C   UNL     1      11.680   8.681  18.560  1.00  0.00     0.041 A 
ATOM     65  F   UNL     1      11.367   8.711  16.238  1.00  0.00    -0.206 F 
ATOM     66  C   UNL     1      11.780   7.974  19.755  1.00  0.00     0.022 A 
BRANCH  63  67
ATOM     67  S   UNL     1      11.700   5.637  21.280  1.00  0.00     0.124 S 
ATOM     68  O   UNL     1      10.412   4.957  21.192  1.00  0.00    -0.237 OA
ATOM     69  O   UNL     1      12.880   4.787  21.155  1.00  0.00    -0.237 OA
ATOM     70  O   UNL     1      11.788   6.672  22.309  1.00  0.00    -0.744 OA
ENDBRANCH  63  67
ENDBRANCH  37  60
ENDBRANCH  11  12
ENDBRANCH   4   6
ENDBRANCH   3   4
ENDBRANCH   2   3
ENDBRANCH   1   2
BRANCH   1  71
ATOM     71  O   UNL     1       7.021   0.411   5.470  1.00  0.00    -0.374 OA
BRANCH  71  72
ATOM     72  C   UNL     1       6.504  -0.913   5.538  1.00  0.00     0.202 C 
BRANCH  72  73
ATOM     73  C   UNL     1       4.981  -0.862   5.606  1.00  0.00     0.261 C 
BRANCH  73  74
ATOM     74  O   UNL     1       4.462  -0.240   4.415  1.00  0.00    -0.462 OA
BRANCH  74  75
ATOM     75  C   UNL     1       4.330   1.116   4.502  1.00  0.00     0.329 C 
ATOM     76  O   UNL     1       4.621   1.801   5.478  1.00  0.00    -0.250 OA
BRANCH  75  77
ATOM     77  C   UNL     1       3.786   1.694   3.190  1.00  0.00     0.206 C 
ATOM     78  C   UNL     1       4.903   2.053   2.216  1.00  0.00     0.108 C 
ATOM     79  N   UNL     1       3.056   2.905   3.562  1.00  0.00    -0.315 N 
ATOM     80  S   UNL     1       4.813   3.840   1.931  1.00  0.00    -0.138 SA
ATOM     81  C   UNL     1       3.829   4.120   3.416  1.00  0.00     0.191 C 
BRANCH  79  82
ATOM     82  C   UNL     1       1.884   2.740   4.275  1.00  0.00     0.255 C 
ATOM     83  O   UNL     1       1.351   1.652   4.452  1.00  0.00    -0.269 OA
BRANCH  82  84
ATOM     84  C   UNL     1       1.284   3.924   4.894  1.00  0.00     0.041 A 
ATOM     85  C   UNL     1       0.695   4.898   4.084  1.00  0.00     0.014 A 
ATOM     86  C   UNL     1       1.292   4.034   6.285  1.00  0.00     0.034 A 
ATOM     87  C   UNL     1       0.131   6.022   4.676  1.00  0.00     0.002 A 
ATOM     88  C   UNL     1       0.712   5.156   6.865  1.00  0.00     0.041 A 
ATOM     89  C   UNL     1       0.139   6.150   6.067  1.00  0.00     0.020 A 
ATOM     90  Cl  UNL     1       0.693   5.323   8.575  1.00  0.00    -0.084 Cl
ENDBRANCH  82  84
ENDBRANCH  79  82
ENDBRANCH  75  77
ENDBRANCH  74  75
ENDBRANCH  73  74
ENDBRANCH  72  73
ENDBRANCH  71  72
ENDBRANCH   1  71
TORSDOF 19
