REMARK SMILES COc1cccc(NC(=O)[C@@H]2[C@@H](C(=O)OCCOCCOC(=O)c3ccc(-c4c5nc(c(-c6cc(S(=O)(=O)[O-])ccc6F)c6ccc([nH]6)c(-c6cc(S(=O)(=O)[O-])ccc6F)c6nc(c(-c7cc(S(=O)(=O)[O-])ccc7F)c7ccc4[nH]7)C=C6)C=C5)cc3)[C@H]3C=C[C@@H]2C3)c1
REMARK SMILES IDX 18 1 17 2 16 3 15 4 13 5 14 6 12 7 11 8 90 9 87 10 89 11
REMARK SMILES IDX 91 12 88 13 9 14 8 15 10 17 7 18 3 19 4 20 92 21 5 22 6 23
REMARK SMILES IDX 2 24 1 25 19 26 20 27 21 28 22 29 23 30 24 31 25 32 86 33
REMARK SMILES IDX 26 34 85 35 27 36 28 37 29 38 79 39 30 40 84 41 78 42 80 43
REMARK SMILES IDX 31 44 83 45 77 46 76 47 32 49 64 50 44 51 63 52 45 53 48 54
REMARK SMILES IDX 62 55 81 56 46 57 47 58 61 60 82 61 49 62 33 63 34 64 42 65
REMARK SMILES IDX 35 66 41 67 43 68 40 69 36 70 37 71 38 72 39 73 65 74 66 75
REMARK SMILES IDX 74 76 67 77 73 78 75 79 72 80 68 81 69 82 70 83 71 84 50 85
REMARK SMILES IDX 51 86 59 87 52 88 58 89 60 90 57 91 53 92 54 93 55 94 56 95
REMARK H PARENT 8 16 80 48 48 59
REMARK Flexibility Score: inf
ROOT
ATOM      1  O   UNL     1       3.050   9.540  -2.108  1.00  0.00    -0.374 OA
ENDROOT
BRANCH   1   2
ATOM      2  C   UNL     1       1.770   9.764  -1.523  1.00  0.00     0.202 C 
BRANCH   2   3
ATOM      3  C   UNL     1       1.264   8.741  -0.504  1.00  0.00     0.261 C 
BRANCH   3   4
ATOM      4  O   UNL     1       2.131   8.626   0.635  1.00  0.00    -0.463 OA
BRANCH   4   5
ATOM      5  C   UNL     1       2.786   7.445   0.732  1.00  0.00     0.310 C 
ATOM      6  O   UNL     1       2.689   6.518  -0.065  1.00  0.00    -0.252 OA
BRANCH   5   7
ATOM      7  C   UNL     1       3.722   7.359   1.909  1.00  0.00     0.119 C 
ATOM      8  C   UNL     1       3.253   6.196   2.824  1.00  0.00     0.100 C 
ATOM      9  C   UNL     1       3.470   6.774   4.243  1.00  0.00     0.025 C 
ATOM     10  C   UNL     1       3.829   8.537   2.906  1.00  0.00     0.027 C 
ATOM     11  C   UNL     1       2.320   7.733   4.459  1.00  0.00    -0.027 C 
ATOM     12  C   UNL     1       4.578   7.815   4.038  1.00  0.00     0.017 C 
ATOM     13  C   UNL     1       2.524   8.777   3.640  1.00  0.00    -0.027 C 
BRANCH   8  14
ATOM     14  C   UNL     1       4.013   4.919   2.567  1.00  0.00     0.228 C 
ATOM     15  N   UNL     1       3.454   3.851   1.923  1.00  0.00    -0.326 N 
ATOM     16  H   UNL     1       4.110   3.141   1.738  1.00  0.00     0.169 HD
ATOM     17  O   UNL     1       5.211   4.838   2.865  1.00  0.00    -0.274 OA
BRANCH  15  18
ATOM     18  C   UNL     1       2.160   3.522   1.461  1.00  0.00     0.044 A 
ATOM     19  C   UNL     1       0.855   2.088  -0.012  1.00  0.00     0.120 A 
ATOM     20  C   UNL     1      -0.303   2.795   0.282  1.00  0.00     0.046 A 
ATOM     21  C   UNL     1       2.082   2.464   0.544  1.00  0.00     0.072 A 
ATOM     22  C   UNL     1      -0.252   3.803   1.233  1.00  0.00     0.006 A 
ATOM     23  C   UNL     1       0.963   4.126   1.852  1.00  0.00     0.026 A 
BRANCH  19  24
ATOM     24  O   UNL     1       0.748   1.040  -0.886  1.00  0.00    -0.497 OA
ATOM     25  C   UNL     1       1.092  -0.189  -0.246  1.00  0.00     0.278 C 
ENDBRANCH  19  24
ENDBRANCH  15  18
ENDBRANCH   8  14
ENDBRANCH   5   7
ENDBRANCH   4   5
ENDBRANCH   3   4
ENDBRANCH   2   3
ENDBRANCH   1   2
BRANCH   1  26
ATOM     26  C   UNL     1       4.209   9.698  -1.295  1.00  0.00     0.202 C 
BRANCH  26  27
ATOM     27  C   UNL     1       4.598  11.110  -0.838  1.00  0.00     0.261 C 
BRANCH  27  28
ATOM     28  O   UNL     1       3.584  11.772  -0.063  1.00  0.00    -0.460 OA
BRANCH  28  29
ATOM     29  C   UNL     1       2.991  12.811  -0.700  1.00  0.00     0.338 C 
ATOM     30  O   UNL     1       3.256  13.229  -1.823  1.00  0.00    -0.246 OA
BRANCH  29  31
ATOM     31  C   UNL     1       1.831  13.300   0.063  1.00  0.00     0.060 A 
ATOM     32  C   UNL     1       0.598  13.355  -0.601  1.00  0.00     0.016 A 
ATOM     33  C   UNL     1       1.962  13.800   1.360  1.00  0.00     0.016 A 
ATOM     34  C   UNL     1      -0.498  13.958   0.011  1.00  0.00     0.010 A 
ATOM     35  C   UNL     1       0.861  14.415   1.970  1.00  0.00     0.010 A 
ATOM     36  C   UNL     1      -0.362  14.530   1.283  1.00  0.00    -0.014 A 
BRANCH  36  37
ATOM     37  C   UNL     1      -1.460  15.377   1.813  1.00  0.00     0.031 A 
ATOM     38  C   UNL     1      -1.360  16.872   1.674  1.00  0.00     0.074 A 
ATOM     39  C   UNL     1      -2.554  14.816   2.359  1.00  0.00     0.049 A 
ATOM     40  N   UNL     1      -2.203  17.800   2.048  1.00  0.00    -0.248 NA
ATOM     41  C   UNL     1      -0.145  17.389   1.026  1.00  0.00     0.031 C 
ATOM     42  C   UNL     1      -2.781  13.379   2.504  1.00  0.00     0.029 A 
ATOM     43  N   UNL     1      -3.683  15.390   2.889  1.00  0.00    -0.354 N 
ATOM     44  C   UNL     1      -1.621  19.011   1.684  1.00  0.00     0.074 A 
ATOM     45  C   UNL     1      -0.337  18.697   1.093  1.00  0.00     0.031 C 
ATOM     46  C   UNL     1      -3.977  13.183   3.085  1.00  0.00     0.029 A 
ATOM     47  C   UNL     1      -4.585  14.478   3.384  1.00  0.00     0.049 A 
ATOM     48  H   UNL     1      -3.832  16.363   2.912  1.00  0.00     0.167 HD
ATOM     49  C   UNL     1      -2.117  20.265   1.823  1.00  0.00     0.034 A 
ATOM     50  C   UNL     1      -5.759  14.670   4.020  1.00  0.00     0.034 A 
ATOM     51  C   UNL     1      -3.397  20.561   2.420  1.00  0.00     0.049 A 
ATOM     52  C   UNL     1      -6.251  16.082   4.236  1.00  0.00     0.074 A 
ATOM     53  C   UNL     1      -4.007  21.792   2.587  1.00  0.00     0.029 A 
ATOM     54  N   UNL     1      -4.258  19.617   2.965  1.00  0.00    -0.354 N 
ATOM     55  N   UNL     1      -5.700  17.216   3.868  1.00  0.00    -0.248 NA
ATOM     56  C   UNL     1      -7.527  16.235   4.945  1.00  0.00     0.031 C 
ATOM     57  C   UNL     1      -5.199  21.600   3.295  1.00  0.00     0.029 A 
ATOM     58  C   UNL     1      -5.374  20.241   3.502  1.00  0.00     0.049 A 
ATOM     59  H   UNL     1      -4.100  18.645   2.968  1.00  0.00     0.167 HD
ATOM     60  C   UNL     1      -6.583  18.215   4.273  1.00  0.00     0.074 A 
ATOM     61  C   UNL     1      -7.705  17.547   4.899  1.00  0.00     0.031 C 
ATOM     62  C   UNL     1      -6.480  19.562   4.136  1.00  0.00     0.034 A 
BRANCH  49  63
ATOM     63  C   UNL     1      -1.244  21.411   1.370  1.00  0.00     0.023 A 
ATOM     64  C   UNL     1      -0.893  21.593   0.021  1.00  0.00     0.031 A 
ATOM     65  C   UNL     1      -0.736  22.325   2.311  1.00  0.00     0.131 A 
ATOM     66  C   UNL     1      -0.008  22.621  -0.340  1.00  0.00     0.055 A 
ATOM     67  C   UNL     1       0.084  23.391   1.935  1.00  0.00     0.041 A 
ATOM     68  F   UNL     1      -1.018  22.189   3.616  1.00  0.00    -0.206 F 
ATOM     69  C   UNL     1       0.464  23.535   0.605  1.00  0.00     0.022 A 
BRANCH  66  70
ATOM     70  S   UNL     1       0.625  22.668  -2.040  1.00  0.00     0.124 S 
ATOM     71  O   UNL     1       1.264  21.359  -2.153  1.00  0.00    -0.237 OA
ATOM     72  O   UNL     1      -0.590  22.856  -2.824  1.00  0.00    -0.237 OA
ATOM     73  O   UNL     1       1.545  23.803  -2.032  1.00  0.00    -0.744 OA
ENDBRANCH  66  70
ENDBRANCH  49  63
BRANCH  50  74
ATOM     74  C   UNL     1      -6.543  13.510   4.533  1.00  0.00     0.023 A 
ATOM     75  C   UNL     1      -7.830  13.231   4.048  1.00  0.00     0.031 A 
ATOM     76  C   UNL     1      -6.038  12.700   5.567  1.00  0.00     0.131 A 
ATOM     77  C   UNL     1      -8.589  12.203   4.630  1.00  0.00     0.055 A 
ATOM     78  C   UNL     1      -6.776  11.646   6.106  1.00  0.00     0.041 A 
ATOM     79  F   UNL     1      -4.813  12.924   6.068  1.00  0.00    -0.206 F 
ATOM     80  C   UNL     1      -8.066  11.401   5.647  1.00  0.00     0.022 A 
BRANCH  77  81
ATOM     81  S   UNL     1     -10.310  11.987   4.099  1.00  0.00     0.124 S 
ATOM     82  O   UNL     1     -10.877  13.300   4.387  1.00  0.00    -0.237 OA
ATOM     83  O   UNL     1     -10.151  11.651   2.688  1.00  0.00    -0.237 OA
ATOM     84  O   UNL     1     -10.793  10.898   4.946  1.00  0.00    -0.744 OA
ENDBRANCH  77  81
ENDBRANCH  50  74
BRANCH  62  85
ATOM     85  C   UNL     1      -7.638  20.392   4.638  1.00  0.00     0.023 A 
ATOM     86  C   UNL     1      -7.958  20.468   6.005  1.00  0.00     0.031 A 
ATOM     87  C   UNL     1      -8.447  21.099   3.730  1.00  0.00     0.131 A 
ATOM     88  C   UNL     1      -9.094  21.181   6.419  1.00  0.00     0.055 A 
ATOM     89  C   UNL     1      -9.539  21.858   4.154  1.00  0.00     0.041 A 
ATOM     90  F   UNL     1      -8.190  21.061   2.413  1.00  0.00    -0.206 F 
ATOM     91  C   UNL     1      -9.876  21.890   5.504  1.00  0.00     0.022 A 
BRANCH  88  92
ATOM     92  S   UNL     1      -9.595  21.085   8.160  1.00  0.00     0.124 S 
ATOM     93  O   UNL     1      -9.766  19.648   8.349  1.00  0.00    -0.237 OA
ATOM     94  O   UNL     1      -8.456  21.687   8.846  1.00  0.00    -0.237 OA
ATOM     95  O   UNL     1     -10.829  21.867   8.205  1.00  0.00    -0.744 OA
ENDBRANCH  88  92
ENDBRANCH  62  85
ENDBRANCH  36  37
ENDBRANCH  29  31
ENDBRANCH  28  29
ENDBRANCH  27  28
ENDBRANCH  26  27
ENDBRANCH   1  26
TORSDOF 20
