REMARK SMILES CC[C@@H](C)C(=O)Nc1cccc(C(=O)OCCOCCOC(=O)c2ccc(-c3c4nc(c(-c5cc(S(=O)(=O)[O-])ccc5F)c5ccc([nH]5)c(-c5cc(S(=O)(=O)[O-])ccc5F)c5nc(c(-c6cc(S(=O)(=O)[O-])ccc6F)c6ccc3[nH]6)C=C5)C=C4)cc2)c1
REMARK SMILES IDX 18 1 17 2 16 3 15 4 13 5 14 6 12 7 8 8 9 9 87 10 10 11 11 12
REMARK SMILES IDX 7 13 5 14 6 15 3 17 4 18 2 19 1 20 19 21 20 22 21 23 22 24
REMARK SMILES IDX 23 25 24 26 25 27 86 28 26 29 85 30 27 31 28 32 29 33 79 34
REMARK SMILES IDX 30 35 84 36 78 37 80 38 31 39 83 40 77 41 76 42 32 44 64 45
REMARK SMILES IDX 44 46 63 47 45 48 48 49 62 50 81 51 46 52 47 53 61 55 82 56
REMARK SMILES IDX 49 57 33 58 34 59 42 60 35 61 41 62 43 63 40 64 36 65 37 66
REMARK SMILES IDX 38 67 39 68 65 69 66 70 74 71 67 72 73 73 75 74 72 75 68 76
REMARK SMILES IDX 69 77 70 78 71 79 50 80 51 81 59 82 52 83 58 84 60 85 57 86
REMARK SMILES IDX 53 87 54 88 55 89 56 90
REMARK H PARENT 7 16 80 43 48 54
REMARK Flexibility Score: inf
ROOT
ATOM      1  O   UNL     1      -3.732  -2.214   2.547  1.00  0.00    -0.374 OA
ENDROOT
BRANCH   1   2
ATOM      2  C   UNL     1      -2.317  -2.388   2.471  1.00  0.00     0.202 C 
BRANCH   2   3
ATOM      3  C   UNL     1      -1.667  -2.204   1.096  1.00  0.00     0.261 C 
BRANCH   3   4
ATOM      4  O   UNL     1      -1.820  -0.861   0.612  1.00  0.00    -0.460 OA
BRANCH   4   5
ATOM      5  C   UNL     1      -2.636  -0.701  -0.461  1.00  0.00     0.338 C 
ATOM      6  O   UNL     1      -3.189  -1.583  -1.095  1.00  0.00    -0.246 OA
BRANCH   5   7
ATOM      7  C   UNL     1      -2.830   0.743  -0.755  1.00  0.00     0.062 A 
ATOM      8  C   UNL     1      -2.000   3.011  -0.724  1.00  0.00     0.042 A 
ATOM      9  C   UNL     1      -3.059   3.414  -1.537  1.00  0.00     0.026 A 
ATOM     10  C   UNL     1      -1.986   1.718  -0.224  1.00  0.00     0.041 A 
ATOM     11  C   UNL     1      -3.990   2.471  -1.984  1.00  0.00     0.003 A 
ATOM     12  C   UNL     1      -3.844   1.127  -1.635  1.00  0.00     0.016 A 
BRANCH   8  13
ATOM     13  N   UNL     1      -0.972   3.915  -0.442  1.00  0.00    -0.326 N 
ATOM     14  C   UNL     1       0.385   3.736  -0.367  1.00  0.00     0.227 C 
ATOM     15  O   UNL     1       1.041   4.699   0.050  1.00  0.00    -0.274 OA
ATOM     16  H   UNL     1      -1.274   4.836  -0.268  1.00  0.00     0.169 HD
BRANCH  14  17
ATOM     17  C   UNL     1       1.132   2.486  -0.890  1.00  0.00     0.075 C 
ATOM     18  C   UNL     1       0.678   2.049  -2.283  1.00  0.00     0.018 C 
BRANCH  17  19
ATOM     19  C   UNL     1       1.290   1.345   0.127  1.00  0.00     0.010 C 
ATOM     20  C   UNL     1       2.286   0.268  -0.280  1.00  0.00     0.005 C 
ENDBRANCH  17  19
ENDBRANCH  14  17
ENDBRANCH   8  13
ENDBRANCH   5   7
ENDBRANCH   4   5
ENDBRANCH   3   4
ENDBRANCH   2   3
ENDBRANCH   1   2
BRANCH   1  21
ATOM     21  C   UNL     1      -4.249  -0.889   2.474  1.00  0.00     0.202 C 
BRANCH  21  22
ATOM     22  C   UNL     1      -4.110   0.015   3.705  1.00  0.00     0.261 C 
BRANCH  22  23
ATOM     23  O   UNL     1      -2.757   0.184   4.153  1.00  0.00    -0.460 OA
BRANCH  23  24
ATOM     24  C   UNL     1      -2.464  -0.508   5.284  1.00  0.00     0.338 C 
ATOM     25  O   UNL     1      -3.223  -1.213   5.926  1.00  0.00    -0.246 OA
BRANCH  24  26
ATOM     26  C   UNL     1      -1.021  -0.427   5.579  1.00  0.00     0.060 A 
ATOM     27  C   UNL     1      -0.338  -1.632   5.789  1.00  0.00     0.016 A 
ATOM     28  C   UNL     1      -0.371   0.797   5.751  1.00  0.00     0.016 A 
ATOM     29  C   UNL     1       0.985  -1.616   6.224  1.00  0.00     0.010 A 
ATOM     30  C   UNL     1       0.956   0.810   6.195  1.00  0.00     0.010 A 
ATOM     31  C   UNL     1       1.629  -0.396   6.467  1.00  0.00    -0.014 A 
BRANCH  31  32
ATOM     32  C   UNL     1       2.950  -0.390   7.143  1.00  0.00     0.031 A 
ATOM     33  C   UNL     1       3.013  -0.122   8.623  1.00  0.00     0.074 A 
ATOM     34  C   UNL     1       4.074  -0.655   6.454  1.00  0.00     0.049 A 
ATOM     35  N   UNL     1       4.054  -0.044   9.411  1.00  0.00    -0.248 NA
ATOM     36  C   UNL     1       1.726   0.089   9.302  1.00  0.00     0.031 C 
ATOM     37  C   UNL     1       4.132  -0.973   5.028  1.00  0.00     0.029 A 
ATOM     38  N   UNL     1       5.383  -0.695   6.862  1.00  0.00    -0.354 N 
ATOM     39  C   UNL     1       3.551   0.226  10.679  1.00  0.00     0.074 A 
ATOM     40  C   UNL     1       2.114   0.338  10.543  1.00  0.00     0.031 C 
ATOM     41  C   UNL     1       5.414  -1.169   4.678  1.00  0.00     0.029 A 
ATOM     42  C   UNL     1       6.270  -0.954   5.844  1.00  0.00     0.049 A 
ATOM     43  H   UNL     1       5.661  -0.553   7.796  1.00  0.00     0.167 HD
ATOM     44  C   UNL     1       4.225   0.358  11.849  1.00  0.00     0.034 A 
ATOM     45  C   UNL     1       7.617  -0.989   5.848  1.00  0.00     0.034 A 
ATOM     46  C   UNL     1       5.660   0.260  11.964  1.00  0.00     0.049 A 
ATOM     47  C   UNL     1       8.353  -0.747   7.144  1.00  0.00     0.074 A 
ATOM     48  C   UNL     1       6.445   0.365  13.100  1.00  0.00     0.029 A 
ATOM     49  N   UNL     1       6.531   0.050  10.902  1.00  0.00    -0.354 N 
ATOM     50  N   UNL     1       7.866  -0.500   8.338  1.00  0.00    -0.248 NA
ATOM     51  C   UNL     1       9.820  -0.795   7.091  1.00  0.00     0.031 C 
ATOM     52  C   UNL     1       7.788   0.290  12.715  1.00  0.00     0.029 A 
ATOM     53  C   UNL     1       7.844   0.059  11.350  1.00  0.00     0.049 A 
ATOM     54  H   UNL     1       6.256  -0.085   9.966  1.00  0.00     0.167 HD
ATOM     55  C   UNL     1       8.969  -0.395   9.184  1.00  0.00     0.074 A 
ATOM     56  C   UNL     1      10.142  -0.615   8.363  1.00  0.00     0.031 C 
ATOM     57  C   UNL     1       9.007  -0.146  10.518  1.00  0.00     0.034 A 
BRANCH  44  58
ATOM     58  C   UNL     1       3.412   0.679  13.081  1.00  0.00     0.023 A 
ATOM     59  C   UNL     1       2.452  -0.214  13.590  1.00  0.00     0.031 A 
ATOM     60  C   UNL     1       3.571   1.915  13.734  1.00  0.00     0.131 A 
ATOM     61  C   UNL     1       1.637   0.171  14.666  1.00  0.00     0.055 A 
ATOM     62  C   UNL     1       2.812   2.259  14.855  1.00  0.00     0.041 A 
ATOM     63  F   UNL     1       4.455   2.818  13.283  1.00  0.00    -0.206 F 
ATOM     64  C   UNL     1       1.827   1.392  15.318  1.00  0.00     0.022 A 
BRANCH  61  65
ATOM     65  S   UNL     1       0.226  -0.881  15.107  1.00  0.00     0.124 S 
ATOM     66  O   UNL     1      -0.514  -0.924  13.848  1.00  0.00    -0.237 OA
ATOM     67  O   UNL     1       0.874  -2.124  15.510  1.00  0.00    -0.237 OA
ATOM     68  O   UNL     1      -0.431  -0.141  16.182  1.00  0.00    -0.744 OA
ENDBRANCH  61  65
ENDBRANCH  44  58
BRANCH  45  69
ATOM     69  C   UNL     1       8.367  -1.222   4.581  1.00  0.00     0.023 A 
ATOM     70  C   UNL     1       9.162  -2.365   4.405  1.00  0.00     0.031 A 
ATOM     71  C   UNL     1       8.333  -0.275   3.542  1.00  0.00     0.131 A 
ATOM     72  C   UNL     1       9.921  -2.514   3.234  1.00  0.00     0.055 A 
ATOM     73  C   UNL     1       9.051  -0.451   2.358  1.00  0.00     0.041 A 
ATOM     74  F   UNL     1       7.588   0.836   3.660  1.00  0.00    -0.206 F 
ATOM     75  C   UNL     1       9.861  -1.572   2.204  1.00  0.00     0.022 A 
BRANCH  72  76
ATOM     76  S   UNL     1      11.049  -3.929   3.103  1.00  0.00     0.124 S 
ATOM     77  O   UNL     1      11.927  -3.716   4.248  1.00  0.00    -0.237 OA
ATOM     78  O   UNL     1      10.131  -5.058   3.200  1.00  0.00    -0.237 OA
ATOM     79  O   UNL     1      11.673  -3.746   1.794  1.00  0.00    -0.744 OA
ENDBRANCH  72  76
ENDBRANCH  45  69
BRANCH  57  80
ATOM     80  C   UNL     1      10.366  -0.146  11.178  1.00  0.00     0.023 A 
ATOM     81  C   UNL     1      11.327   0.841  10.898  1.00  0.00     0.031 A 
ATOM     82  C   UNL     1      10.706  -1.158  12.093  1.00  0.00     0.131 A 
ATOM     83  C   UNL     1      12.600   0.765  11.486  1.00  0.00     0.055 A 
ATOM     84  C   UNL     1      11.952  -1.196  12.720  1.00  0.00     0.041 A 
ATOM     85  F   UNL     1       9.828  -2.128  12.397  1.00  0.00    -0.206 F 
ATOM     86  C   UNL     1      12.912  -0.238  12.407  1.00  0.00     0.022 A 
BRANCH  83  87
ATOM     87  S   UNL     1      13.876   1.943  10.962  1.00  0.00     0.124 S 
ATOM     88  O   UNL     1      13.953   1.690   9.527  1.00  0.00    -0.237 OA
ATOM     89  O   UNL     1      13.297   3.224  11.354  1.00  0.00    -0.237 OA
ATOM     90  O   UNL     1      15.053   1.537  11.727  1.00  0.00    -0.744 OA
ENDBRANCH  83  87
ENDBRANCH  57  80
ENDBRANCH  31  32
ENDBRANCH  24  26
ENDBRANCH  23  24
ENDBRANCH  22  23
ENDBRANCH  21  22
ENDBRANCH   1  21
TORSDOF 20
