REMARK SMILES CC1(C)NC(=O)N(CCC(=O)N2CCC[C@H]2C(=O)OCCOCCOC(=O)c2ccc(-c3c4nc(c(-c5cc(S(=O)(=O)[O-])ccc5F)c5ccc([nH]5)c(-c5cc(S(=O)(=O)[O-])ccc5F)c5nc(c(-c6cc(S(=O)(=O)[O-])ccc6F)c6ccc3[nH]6)C=C5)C=C4)cc2)C1=O
REMARK SMILES IDX 21 1 20 2 19 3 17 4 18 5 16 6 12 7 13 8 14 9 15 10 10 11
REMARK SMILES IDX 11 12 9 13 8 14 7 15 1 16 2 17 3 18 4 19 91 20 5 21 92 23
REMARK SMILES IDX 6 24 22 25 23 26 24 27 25 28 26 29 27 30 28 31 29 32 90 33
REMARK SMILES IDX 30 34 89 35 31 36 32 37 33 38 83 39 34 40 88 41 82 42 84 43
REMARK SMILES IDX 35 44 87 45 81 46 80 47 36 49 68 50 48 51 67 52 49 53 52 54
REMARK SMILES IDX 66 55 85 56 50 57 51 58 65 60 86 61 53 62 37 63 38 64 46 65
REMARK SMILES IDX 39 66 45 67 47 68 44 69 40 70 41 71 42 72 43 73 69 74 70 75
REMARK SMILES IDX 78 76 71 77 77 78 79 79 76 80 72 81 73 82 74 83 75 84 54 85
REMARK SMILES IDX 55 86 63 87 56 88 62 89 64 90 61 91 57 92 58 93 59 94 60 95
REMARK H PARENT 4 22 84 48 52 59
REMARK Flexibility Score: inf
ROOT
ATOM      1  C   UNL     1      -2.595   3.060   0.471  1.00  0.00     0.202 C 
ENDROOT
BRANCH   1   2
ATOM      2  C   UNL     1      -2.652   1.929   1.534  1.00  0.00     0.261 C 
BRANCH   2   3
ATOM      3  O   UNL     1      -2.020   2.124   2.825  1.00  0.00    -0.462 OA
BRANCH   3   4
ATOM      4  C   UNL     1      -0.694   1.935   2.726  1.00  0.00     0.328 C 
ATOM      5  O   UNL     1      -0.155   1.868   1.631  1.00  0.00    -0.250 OA
BRANCH   4   6
ATOM      6  C   UNL     1       0.149   1.673   3.962  1.00  0.00     0.195 C 
ATOM      7  N   UNL     1       0.282   2.664   4.993  1.00  0.00    -0.329 N 
ATOM      8  C   UNL     1      -0.320   2.139   6.213  1.00  0.00     0.120 C 
ATOM      9  C   UNL     1       0.053   0.666   6.154  1.00  0.00     0.024 C 
ATOM     10  C   UNL     1      -0.069   0.333   4.668  1.00  0.00     0.039 C 
BRANCH   7  11
ATOM     11  C   UNL     1       1.351   3.544   5.033  1.00  0.00     0.225 C 
ATOM     12  O   UNL     1       1.723   4.008   6.119  1.00  0.00    -0.275 OA
BRANCH  11  13
ATOM     13  C   UNL     1       1.966   4.138   3.744  1.00  0.00     0.122 C 
BRANCH  13  14
ATOM     14  C   UNL     1       2.768   3.557   2.544  1.00  0.00     0.140 C 
BRANCH  14  15
ATOM     15  N   UNL     1       2.635   2.206   2.011  1.00  0.00    -0.262 N 
ATOM     16  C   UNL     1       2.629  -0.099  -0.767  1.00  0.00     0.045 C 
ATOM     17  C   UNL     1       2.153   0.317   0.616  1.00  0.00     0.115 C 
ATOM     18  C   UNL     1       0.841  -0.429   0.899  1.00  0.00     0.045 C 
ATOM     19  N   UNL     1       3.074   0.036   1.697  1.00  0.00    -0.324 N 
ATOM     20  C   UNL     1       2.175   1.873   0.752  1.00  0.00     0.255 C 
ATOM     21  C   UNL     1       3.275   1.120   2.526  1.00  0.00     0.325 C 
ATOM     22  H   UNL     1       3.510  -0.837   1.827  1.00  0.00     0.166 HD
ATOM     23  O   UNL     1       1.878   2.666  -0.133  1.00  0.00    -0.272 OA
ATOM     24  O   UNL     1       3.932   1.079   3.553  1.00  0.00    -0.248 OA
ENDBRANCH  14  15
ENDBRANCH  13  14
ENDBRANCH  11  13
ENDBRANCH   7  11
ENDBRANCH   4   6
ENDBRANCH   3   4
ENDBRANCH   2   3
ENDBRANCH   1   2
BRANCH   1  25
ATOM     25  O   UNL     1      -1.392   3.703   0.114  1.00  0.00    -0.374 OA
BRANCH  25  26
ATOM     26  C   UNL     1      -0.741   4.659   0.936  1.00  0.00     0.202 C 
BRANCH  26  27
ATOM     27  C   UNL     1      -1.371   5.432   2.108  1.00  0.00     0.261 C 
BRANCH  27  28
ATOM     28  O   UNL     1      -2.564   4.903   2.656  1.00  0.00    -0.460 OA
BRANCH  28  29
ATOM     29  C   UNL     1      -3.688   5.554   2.270  1.00  0.00     0.338 C 
ATOM     30  O   UNL     1      -3.773   6.530   1.555  1.00  0.00    -0.246 OA
BRANCH  29  31
ATOM     31  C   UNL     1      -4.806   4.681   2.650  1.00  0.00     0.060 A 
ATOM     32  C   UNL     1      -5.614   4.190   1.618  1.00  0.00     0.016 A 
ATOM     33  C   UNL     1      -4.995   4.294   3.979  1.00  0.00     0.016 A 
ATOM     34  C   UNL     1      -6.633   3.305   1.913  1.00  0.00     0.010 A 
ATOM     35  C   UNL     1      -6.055   3.446   4.283  1.00  0.00     0.010 A 
ATOM     36  C   UNL     1      -6.890   2.985   3.251  1.00  0.00    -0.014 A 
BRANCH  36  37
ATOM     37  C   UNL     1      -8.214   2.423   3.557  1.00  0.00     0.031 A 
ATOM     38  C   UNL     1      -9.312   3.402   3.853  1.00  0.00     0.074 A 
ATOM     39  C   UNL     1      -8.437   1.104   3.449  1.00  0.00     0.049 A 
ATOM     40  N   UNL     1     -10.572   3.185   4.105  1.00  0.00    -0.248 NA
ATOM     41  C   UNL     1      -8.933   4.827   3.851  1.00  0.00     0.031 C 
ATOM     42  C   UNL     1      -7.433   0.107   3.079  1.00  0.00     0.029 A 
ATOM     43  N   UNL     1      -9.585   0.383   3.623  1.00  0.00    -0.354 N 
ATOM     44  C   UNL     1     -11.137   4.442   4.288  1.00  0.00     0.074 A 
ATOM     45  C   UNL     1     -10.076   5.414   4.158  1.00  0.00     0.031 C 
ATOM     46  C   UNL     1      -8.016  -1.104   3.052  1.00  0.00     0.029 A 
ATOM     47  C   UNL     1      -9.417  -0.968   3.443  1.00  0.00     0.049 A 
ATOM     48  H   UNL     1     -10.449   0.793   3.855  1.00  0.00     0.167 HD
ATOM     49  C   UNL     1     -12.431   4.750   4.535  1.00  0.00     0.034 A 
ATOM     50  C   UNL     1     -10.302  -1.971   3.603  1.00  0.00     0.034 A 
ATOM     51  C   UNL     1     -13.453   3.747   4.683  1.00  0.00     0.049 A 
ATOM     52  C   UNL     1     -11.716  -1.610   3.992  1.00  0.00     0.074 A 
ATOM     53  C   UNL     1     -14.796   3.917   4.962  1.00  0.00     0.029 A 
ATOM     54  N   UNL     1     -13.236   2.377   4.577  1.00  0.00    -0.354 N 
ATOM     55  N   UNL     1     -12.243  -0.420   4.183  1.00  0.00    -0.248 NA
ATOM     56  C   UNL     1     -12.655  -2.721   4.178  1.00  0.00     0.031 C 
ATOM     57  C   UNL     1     -15.371   2.650   5.104  1.00  0.00     0.029 A 
ATOM     58  C   UNL     1     -14.411   1.689   4.821  1.00  0.00     0.049 A 
ATOM     59  H   UNL     1     -12.371   1.958   4.360  1.00  0.00     0.167 HD
ATOM     60  C   UNL     1     -13.585  -0.641   4.481  1.00  0.00     0.074 A 
ATOM     61  C   UNL     1     -13.785  -2.076   4.426  1.00  0.00     0.031 C 
ATOM     62  C   UNL     1     -14.568   0.253   4.769  1.00  0.00     0.034 A 
BRANCH  49  63
ATOM     63  C   UNL     1     -12.770   6.207   4.735  1.00  0.00     0.023 A 
ATOM     64  C   UNL     1     -12.601   7.159   3.713  1.00  0.00     0.031 A 
ATOM     65  C   UNL     1     -13.209   6.661   5.990  1.00  0.00     0.131 A 
ATOM     66  C   UNL     1     -12.802   8.522   3.986  1.00  0.00     0.055 A 
ATOM     67  C   UNL     1     -13.488   8.007   6.231  1.00  0.00     0.041 A 
ATOM     68  F   UNL     1     -13.352   5.805   7.015  1.00  0.00    -0.206 F 
ATOM     69  C   UNL     1     -13.270   8.949   5.230  1.00  0.00     0.022 A 
BRANCH  66  70
ATOM     70  S   UNL     1     -12.293   9.742   2.743  1.00  0.00     0.124 S 
ATOM     71  O   UNL     1     -10.870   9.440   2.599  1.00  0.00    -0.237 OA
ATOM     72  O   UNL     1     -13.137   9.401   1.603  1.00  0.00    -0.237 OA
ATOM     73  O   UNL     1     -12.589  11.024   3.379  1.00  0.00    -0.744 OA
ENDBRANCH  66  70
ENDBRANCH  49  63
BRANCH  50  74
ATOM     74  C   UNL     1      -9.877  -3.390   3.442  1.00  0.00     0.023 A 
ATOM     75  C   UNL     1     -10.458  -4.223   2.473  1.00  0.00     0.031 A 
ATOM     76  C   UNL     1      -8.909  -3.953   4.295  1.00  0.00     0.131 A 
ATOM     77  C   UNL     1     -10.100  -5.579   2.410  1.00  0.00     0.055 A 
ATOM     78  C   UNL     1      -8.515  -5.288   4.191  1.00  0.00     0.041 A 
ATOM     79  F   UNL     1      -8.321  -3.205   5.243  1.00  0.00    -0.206 F 
ATOM     80  C   UNL     1      -9.122  -6.113   3.252  1.00  0.00     0.022 A 
BRANCH  77  81
ATOM     81  S   UNL     1     -11.003  -6.663   1.269  1.00  0.00     0.124 S 
ATOM     82  O   UNL     1     -12.380  -6.476   1.710  1.00  0.00    -0.237 OA
ATOM     83  O   UNL     1     -10.659  -6.089  -0.027  1.00  0.00    -0.237 OA
ATOM     84  O   UNL     1     -10.435  -7.983   1.534  1.00  0.00    -0.744 OA
ENDBRANCH  77  81
ENDBRANCH  50  74
BRANCH  62  85
ATOM     85  C   UNL     1     -15.950  -0.306   4.999  1.00  0.00     0.023 A 
ATOM     86  C   UNL     1     -16.242  -1.126   6.101  1.00  0.00     0.031 A 
ATOM     87  C   UNL     1     -16.989  -0.011   4.097  1.00  0.00     0.131 A 
ATOM     88  C   UNL     1     -17.523  -1.677   6.238  1.00  0.00     0.055 A 
ATOM     89  C   UNL     1     -18.281  -0.502   4.280  1.00  0.00     0.041 A 
ATOM     90  F   UNL     1     -16.764   0.767   3.026  1.00  0.00    -0.206 F 
ATOM     91  C   UNL     1     -18.550  -1.353   5.348  1.00  0.00     0.022 A 
BRANCH  88  92
ATOM     92  S   UNL     1     -17.800  -2.912   7.536  1.00  0.00     0.124 S 
ATOM     93  O   UNL     1     -16.814  -3.933   7.197  1.00  0.00    -0.237 OA
ATOM     94  O   UNL     1     -17.537  -2.151   8.753  1.00  0.00    -0.237 OA
ATOM     95  O   UNL     1     -19.194  -3.307   7.341  1.00  0.00    -0.744 OA
ENDBRANCH  88  92
ENDBRANCH  62  85
ENDBRANCH  36  37
ENDBRANCH  29  31
ENDBRANCH  28  29
ENDBRANCH  27  28
ENDBRANCH  26  27
ENDBRANCH  25  26
ENDBRANCH   1  25
TORSDOF 21
