REMARK SMILES COC(=O)c1ccc2c(c1)=N[C@H](c1cn(CCC(=O)OCCOCCOC(=O)c3ccc(-c4c5nc(c(-c6cc(S(=O)(=O)[O-])ccc6F)c6ccc([nH]6)c(-c6cc(S(=O)(=O)[O-])ccc6F)c6nc(c(-c7cc(S(=O)(=O)[O-])ccc7F)c7ccc4[nH]7)C=C6)C=C5)cc3)c3ccccc13)N=2
REMARK SMILES IDX 22 1 21 2 20 3 18 4 19 5 17 6 16 7 15 8 13 9 14 10 97 11
REMARK SMILES IDX 92 12 96 13 93 14 95 15 94 16 12 17 5 18 6 19 10 20 7 21
REMARK SMILES IDX 9 22 8 23 11 24 98 25 3 26 4 27 2 28 1 29 23 30 24 31 25 32
REMARK SMILES IDX 26 33 27 34 28 35 29 36 30 37 91 38 31 39 90 40 32 41 33 42
REMARK SMILES IDX 34 43 84 44 35 45 89 46 83 47 85 48 36 49 88 50 82 51 81 52
REMARK SMILES IDX 37 54 69 55 49 56 68 57 50 58 53 59 67 60 86 61 51 62 52 63
REMARK SMILES IDX 66 65 87 66 54 67 38 68 39 69 47 70 40 71 46 72 48 73 45 74
REMARK SMILES IDX 41 75 42 76 43 77 44 78 70 79 71 80 79 81 72 82 78 83 80 84
REMARK SMILES IDX 77 85 73 86 74 87 75 88 76 89 55 90 56 91 64 92 57 93 63 94
REMARK SMILES IDX 65 95 62 96 58 97 59 98 60 99 61 100
REMARK H PARENT 85 53 53 64
REMARK Flexibility Score: inf
ROOT
ATOM      1  C   UNL     1      -3.136 -10.504   5.121  1.00  0.00     0.202 C 
ENDROOT
BRANCH   1   2
ATOM      2  C   UNL     1      -3.300 -10.585   6.642  1.00  0.00     0.261 C 
BRANCH   2   3
ATOM      3  O   UNL     1      -2.212  -9.935   7.332  1.00  0.00    -0.463 OA
BRANCH   3   4
ATOM      4  C   UNL     1      -1.248 -10.725   7.862  1.00  0.00     0.307 C 
ATOM      5  O   UNL     1      -1.190 -11.944   7.767  1.00  0.00    -0.252 OA
BRANCH   4   6
ATOM      6  C   UNL     1      -0.206  -9.915   8.593  1.00  0.00     0.144 C 
BRANCH   6   7
ATOM      7  C   UNL     1       0.809  -9.249   7.663  1.00  0.00     0.134 C 
BRANCH   7   8
ATOM      8  N   UNL     1       0.497  -7.853   7.422  1.00  0.00    -0.346 N 
ATOM      9  C   UNL     1       0.103  -5.723   7.786  1.00  0.00     0.024 A 
ATOM     10  C   UNL     1       1.011  -6.751   8.071  1.00  0.00     0.094 A 
ATOM     11  C   UNL     1      -1.084  -6.421   7.320  1.00  0.00     0.007 A 
ATOM     12  C   UNL     1      -0.402  -7.342   6.520  1.00  0.00     0.048 A 
ATOM     13  C   UNL     1      -2.305  -5.942   6.827  1.00  0.00     0.011 A 
ATOM     14  C   UNL     1      -0.409  -7.189   5.130  1.00  0.00     0.027 A 
ATOM     15  C   UNL     1      -2.345  -5.739   5.456  1.00  0.00     0.001 A 
ATOM     16  C   UNL     1      -1.321  -6.242   4.649  1.00  0.00     0.002 A 
BRANCH   9  17
ATOM     17  C   UNL     1       0.409  -4.244   7.642  1.00  0.00     0.255 C 
ATOM     18  C   UNL     1       0.474  -2.327   3.513  1.00  0.00     0.062 A 
ATOM     19  C   UNL     1      -0.873  -1.960   3.941  1.00  0.00     0.018 A 
ATOM     20  C   UNL     1       1.289  -3.060   4.296  1.00  0.00     0.046 A 
ATOM     21  C   UNL     1      -1.382  -2.285   5.141  1.00  0.00     0.031 A 
ATOM     22  C   UNL     1       0.812  -3.458   5.633  1.00  0.00     0.087 A 
ATOM     23  C   UNL     1      -0.538  -3.055   6.069  1.00  0.00     0.086 A 
ATOM     24  N   UNL     1       1.446  -4.097   6.555  1.00  0.00    -0.252 NA
ATOM     25  N   UNL     1      -0.789  -3.433   7.274  1.00  0.00    -0.252 NA
BRANCH  18  26
ATOM     26  C   UNL     1       1.026  -1.917   2.180  1.00  0.00     0.337 C 
ATOM     27  O   UNL     1       1.969  -2.468   1.629  1.00  0.00    -0.246 OA
BRANCH  26  28
ATOM     28  O   UNL     1       0.370  -0.825   1.703  1.00  0.00    -0.465 OA
ATOM     29  C   UNL     1       0.863  -0.327   0.454  1.00  0.00     0.282 C 
ENDBRANCH  26  28
ENDBRANCH  18  26
ENDBRANCH   9  17
ENDBRANCH   7   8
ENDBRANCH   6   7
ENDBRANCH   4   6
ENDBRANCH   3   4
ENDBRANCH   2   3
ENDBRANCH   1   2
BRANCH   1  30
ATOM     30  O   UNL     1      -2.190 -11.440   4.579  1.00  0.00    -0.374 OA
BRANCH  30  31
ATOM     31  C   UNL     1      -0.843 -10.967   4.569  1.00  0.00     0.202 C 
BRANCH  31  32
ATOM     32  C   UNL     1      -0.416 -10.354   3.229  1.00  0.00     0.261 C 
BRANCH  32  33
ATOM     33  O   UNL     1      -1.277  -9.264   2.908  1.00  0.00    -0.460 OA
BRANCH  33  34
ATOM     34  C   UNL     1      -1.953  -9.366   1.720  1.00  0.00     0.338 C 
ATOM     35  O   UNL     1      -1.601  -9.965   0.735  1.00  0.00    -0.246 OA
BRANCH  34  36
ATOM     36  C   UNL     1      -3.307  -8.845   1.987  1.00  0.00     0.060 A 
ATOM     37  C   UNL     1      -3.480  -7.643   2.655  1.00  0.00     0.016 A 
ATOM     38  C   UNL     1      -4.397  -9.673   1.761  1.00  0.00     0.016 A 
ATOM     39  C   UNL     1      -4.674  -7.365   3.301  1.00  0.00     0.010 A 
ATOM     40  C   UNL     1      -5.637  -9.344   2.320  1.00  0.00     0.010 A 
ATOM     41  C   UNL     1      -5.757  -8.241   3.179  1.00  0.00    -0.014 A 
BRANCH  41  42
ATOM     42  C   UNL     1      -6.987  -7.907   3.929  1.00  0.00     0.031 A 
ATOM     43  C   UNL     1      -7.415  -6.464   3.894  1.00  0.00     0.074 A 
ATOM     44  C   UNL     1      -7.788  -8.814   4.531  1.00  0.00     0.049 A 
ATOM     45  N   UNL     1      -7.694  -5.664   4.878  1.00  0.00    -0.248 NA
ATOM     46  C   UNL     1      -7.426  -5.809   2.577  1.00  0.00     0.031 C 
ATOM     47  C   UNL     1      -7.702 -10.276   4.473  1.00  0.00     0.029 A 
ATOM     48  N   UNL     1      -8.960  -8.607   5.207  1.00  0.00    -0.354 N 
ATOM     49  C   UNL     1      -8.065  -4.445   4.299  1.00  0.00     0.074 A 
ATOM     50  C   UNL     1      -7.746  -4.557   2.898  1.00  0.00     0.031 C 
ATOM     51  C   UNL     1      -8.901 -10.802   4.800  1.00  0.00     0.029 A 
ATOM     52  C   UNL     1      -9.773  -9.731   5.248  1.00  0.00     0.049 A 
ATOM     53  H   UNL     1      -9.201  -7.748   5.622  1.00  0.00     0.167 HD
ATOM     54  C   UNL     1      -8.748  -3.466   4.963  1.00  0.00     0.034 A 
ATOM     55  C   UNL     1     -11.101  -9.775   5.514  1.00  0.00     0.034 A 
ATOM     56  C   UNL     1      -8.694  -3.634   6.385  1.00  0.00     0.049 A 
ATOM     57  C   UNL     1     -11.492  -8.532   6.213  1.00  0.00     0.074 A 
ATOM     58  C   UNL     1      -7.694  -3.610   7.336  1.00  0.00     0.029 A 
ATOM     59  N   UNL     1      -9.799  -4.136   7.025  1.00  0.00    -0.354 N 
ATOM     60  N   UNL     1     -11.164  -8.239   7.439  1.00  0.00    -0.248 NA
ATOM     61  C   UNL     1     -11.943  -7.414   5.400  1.00  0.00     0.031 C 
ATOM     62  C   UNL     1      -8.108  -4.537   8.332  1.00  0.00     0.029 A 
ATOM     63  C   UNL     1      -9.346  -5.048   7.940  1.00  0.00     0.049 A 
ATOM     64  H   UNL     1     -10.737  -3.888   6.858  1.00  0.00     0.167 HD
ATOM     65  C   UNL     1     -10.930  -6.874   7.414  1.00  0.00     0.074 A 
ATOM     66  C   UNL     1     -11.541  -6.405   6.174  1.00  0.00     0.031 C 
ATOM     67  C   UNL     1     -10.022  -6.290   8.251  1.00  0.00     0.034 A 
BRANCH  54  68
ATOM     68  C   UNL     1      -9.697  -2.490   4.299  1.00  0.00     0.023 A 
ATOM     69  C   UNL     1     -10.161  -2.664   2.983  1.00  0.00     0.031 A 
ATOM     70  C   UNL     1     -10.338  -1.473   5.039  1.00  0.00     0.131 A 
ATOM     71  C   UNL     1     -11.166  -1.856   2.437  1.00  0.00     0.055 A 
ATOM     72  C   UNL     1     -11.396  -0.712   4.520  1.00  0.00     0.041 A 
ATOM     73  F   UNL     1      -9.997  -1.222   6.313  1.00  0.00    -0.206 F 
ATOM     74  C   UNL     1     -11.813  -0.899   3.208  1.00  0.00     0.022 A 
BRANCH  71  75
ATOM     75  S   UNL     1     -11.638  -2.046   0.696  1.00  0.00     0.124 S 
ATOM     76  O   UNL     1     -13.021  -2.495   0.809  1.00  0.00    -0.237 OA
ATOM     77  O   UNL     1     -11.449  -0.690   0.187  1.00  0.00    -0.237 OA
ATOM     78  O   UNL     1     -10.684  -3.030   0.192  1.00  0.00    -0.744 OA
ENDBRANCH  71  75
ENDBRANCH  54  68
BRANCH  55  79
ATOM     79  C   UNL     1     -12.091 -10.600   4.783  1.00  0.00     0.023 A 
ATOM     80  C   UNL     1     -11.862 -10.929   3.433  1.00  0.00     0.031 A 
ATOM     81  C   UNL     1     -13.380 -10.819   5.293  1.00  0.00     0.131 A 
ATOM     82  C   UNL     1     -12.899 -11.420   2.631  1.00  0.00     0.055 A 
ATOM     83  C   UNL     1     -14.414 -11.321   4.493  1.00  0.00     0.041 A 
ATOM     84  F   UNL     1     -13.676 -10.490   6.560  1.00  0.00    -0.206 F 
ATOM     85  C   UNL     1     -14.179 -11.614   3.152  1.00  0.00     0.022 A 
BRANCH  82  86
ATOM     86  S   UNL     1     -12.613 -11.747   0.871  1.00  0.00     0.124 S 
ATOM     87  O   UNL     1     -13.232 -13.058   0.694  1.00  0.00    -0.237 OA
ATOM     88  O   UNL     1     -13.312 -10.631   0.244  1.00  0.00    -0.237 OA
ATOM     89  O   UNL     1     -11.157 -11.732   0.753  1.00  0.00    -0.744 OA
ENDBRANCH  82  86
ENDBRANCH  55  79
BRANCH  67  90
ATOM     90  C   UNL     1      -9.448  -7.083   9.403  1.00  0.00     0.023 A 
ATOM     91  C   UNL     1      -9.386  -6.445  10.656  1.00  0.00     0.031 A 
ATOM     92  C   UNL     1      -8.763  -8.305   9.261  1.00  0.00     0.131 A 
ATOM     93  C   UNL     1      -8.631  -6.999  11.697  1.00  0.00     0.055 A 
ATOM     94  C   UNL     1      -8.070  -8.890  10.325  1.00  0.00     0.041 A 
ATOM     95  F   UNL     1      -8.661  -8.920   8.075  1.00  0.00    -0.206 F 
ATOM     96  C   UNL     1      -7.986  -8.229  11.545  1.00  0.00     0.022 A 
BRANCH  93  97
ATOM     97  S   UNL     1      -8.329  -6.053  13.212  1.00  0.00     0.124 S 
ATOM     98  O   UNL     1      -9.023  -6.852  14.218  1.00  0.00    -0.237 OA
ATOM     99  O   UNL     1      -6.870  -6.063  13.302  1.00  0.00    -0.237 OA
ATOM    100  O   UNL     1      -8.919  -4.745  12.937  1.00  0.00    -0.744 OA
ENDBRANCH  93  97
ENDBRANCH  67  90
ENDBRANCH  41  42
ENDBRANCH  34  36
ENDBRANCH  33  34
ENDBRANCH  32  33
ENDBRANCH  31  32
ENDBRANCH  30  31
ENDBRANCH   1  30
TORSDOF 22
