REMARK SMILES C[C@H](C(=O)OCCOCCOC(=O)c1ccc(-c2c3nc(c(-c4cc(S(=O)(=O)[O-])ccc4F)c4ccc([nH]4)c(-c4cc(S(=O)(=O)[O-])ccc4F)c4nc(c(-c5cc(S(=O)(=O)[O-])ccc5F)c5ccc2[nH]5)C=C4)C=C3)cc1)c1cccc(C(=O)c2ccccc2)c1
REMARK SMILES IDX 8 1 7 2 6 3 5 4 3 5 4 6 2 7 1 8 77 9 78 10 90 11 79 12 81 13
REMARK SMILES IDX 80 14 82 15 83 16 84 17 85 18 89 19 86 20 88 21 87 22 9 23
REMARK SMILES IDX 10 24 11 25 12 26 13 27 14 28 15 29 76 30 16 31 75 32 17 33
REMARK SMILES IDX 18 34 19 35 69 36 20 37 74 38 68 39 70 40 21 41 73 42 67 43
REMARK SMILES IDX 66 44 22 46 54 47 34 48 53 49 35 50 38 51 52 52 71 53 36 54
REMARK SMILES IDX 37 55 51 57 72 58 39 59 23 60 24 61 32 62 25 63 31 64 33 65
REMARK SMILES IDX 30 66 26 67 27 68 28 69 29 70 55 71 56 72 64 73 57 74 63 75
REMARK SMILES IDX 65 76 62 77 58 78 59 79 60 80 61 81 40 82 41 83 49 84 42 85
REMARK SMILES IDX 48 86 50 87 47 88 43 89 44 90 45 91 46 92
REMARK H PARENT 70 45 38 56
REMARK Flexibility Score: inf
ROOT
ATOM      1  O   UNL     1       2.982   0.992   1.575  1.00  0.00    -0.374 OA
ENDROOT
BRANCH   1   2
ATOM      2  C   UNL     1       2.234   2.077   1.015  1.00  0.00     0.202 C 
BRANCH   2   3
ATOM      3  C   UNL     1       1.782   1.871  -0.434  1.00  0.00     0.261 C 
BRANCH   3   4
ATOM      4  O   UNL     1       0.842   0.781  -0.509  1.00  0.00    -0.463 OA
BRANCH   4   5
ATOM      5  C   UNL     1       1.131  -0.220  -1.374  1.00  0.00     0.313 C 
ATOM      6  O   UNL     1       2.072  -0.199  -2.163  1.00  0.00    -0.252 OA
BRANCH   5   7
ATOM      7  C   UNL     1       0.285  -1.472  -1.187  1.00  0.00     0.126 C 
ATOM      8  C   UNL     1       1.045  -2.431  -0.248  1.00  0.00     0.025 C 
BRANCH   7   9
ATOM      9  C   UNL     1      -1.193  -1.394  -0.805  1.00  0.00    -0.033 A 
ATOM     10  C   UNL     1      -1.920  -0.221  -0.576  1.00  0.00     0.004 A 
ATOM     11  C   UNL     1      -1.894  -2.616  -0.711  1.00  0.00     0.016 A 
ATOM     12  C   UNL     1      -3.278  -0.272  -0.227  1.00  0.00     0.001 A 
ATOM     13  C   UNL     1      -3.242  -2.680  -0.333  1.00  0.00     0.023 A 
ATOM     14  C   UNL     1      -3.937  -1.496  -0.101  1.00  0.00     0.012 A 
BRANCH  13  15
ATOM     15  C   UNL     1      -3.954  -3.986  -0.222  1.00  0.00     0.193 C 
ATOM     16  O   UNL     1      -5.179  -4.038  -0.265  1.00  0.00    -0.289 OA
BRANCH  15  17
ATOM     17  C   UNL     1      -3.193  -5.252  -0.106  1.00  0.00     0.022 A 
ATOM     18  C   UNL     1      -3.452  -6.272  -1.026  1.00  0.00     0.012 A 
ATOM     19  C   UNL     1      -2.220  -5.424   0.886  1.00  0.00     0.012 A 
ATOM     20  C   UNL     1      -2.708  -7.451  -0.980  1.00  0.00     0.001 A 
ATOM     21  C   UNL     1      -1.479  -6.607   0.928  1.00  0.00     0.001 A 
ATOM     22  C   UNL     1      -1.719  -7.615  -0.008  1.00  0.00     0.000 A 
ENDBRANCH  15  17
ENDBRANCH  13  15
ENDBRANCH   7   9
ENDBRANCH   5   7
ENDBRANCH   4   5
ENDBRANCH   3   4
ENDBRANCH   2   3
ENDBRANCH   1   2
BRANCH   1  23
ATOM     23  C   UNL     1       2.217  -0.123   2.030  1.00  0.00     0.202 C 
BRANCH  23  24
ATOM     24  C   UNL     1       1.681  -0.051   3.461  1.00  0.00     0.261 C 
BRANCH  24  25
ATOM     25  O   UNL     1       0.721   1.005   3.613  1.00  0.00    -0.460 OA
BRANCH  25  26
ATOM     26  C   UNL     1       1.220   2.127   4.183  1.00  0.00     0.338 C 
ATOM     27  O   UNL     1       2.346   2.277   4.639  1.00  0.00    -0.246 OA
BRANCH  26  28
ATOM     28  C   UNL     1       0.270   3.241   4.016  1.00  0.00     0.060 A 
ATOM     29  C   UNL     1       0.791   4.466   3.583  1.00  0.00     0.016 A 
ATOM     30  C   UNL     1      -1.088   3.114   4.324  1.00  0.00     0.016 A 
ATOM     31  C   UNL     1      -0.029   5.588   3.518  1.00  0.00     0.010 A 
ATOM     32  C   UNL     1      -1.910   4.243   4.261  1.00  0.00     0.010 A 
ATOM     33  C   UNL     1      -1.374   5.492   3.898  1.00  0.00    -0.014 A 
BRANCH  33  34
ATOM     34  C   UNL     1      -2.168   6.733   4.072  1.00  0.00     0.031 A 
ATOM     35  C   UNL     1      -2.385   7.263   5.463  1.00  0.00     0.074 A 
ATOM     36  C   UNL     1      -2.645   7.396   3.005  1.00  0.00     0.049 A 
ATOM     37  N   UNL     1      -3.068   8.305   5.858  1.00  0.00    -0.248 NA
ATOM     38  C   UNL     1      -1.748   6.510   6.554  1.00  0.00     0.031 C 
ATOM     39  C   UNL     1      -2.453   6.998   1.611  1.00  0.00     0.029 A 
ATOM     40  N   UNL     1      -3.393   8.543   2.927  1.00  0.00    -0.354 N 
ATOM     41  C   UNL     1      -2.946   8.334   7.244  1.00  0.00     0.074 A 
ATOM     42  C   UNL     1      -2.163   7.176   7.620  1.00  0.00     0.031 C 
ATOM     43  C   UNL     1      -3.075   7.885   0.815  1.00  0.00     0.029 A 
ATOM     44  C   UNL     1      -3.744   8.887   1.643  1.00  0.00     0.049 A 
ATOM     45  H   UNL     1      -3.654   9.071   3.717  1.00  0.00     0.167 HD
ATOM     46  C   UNL     1      -3.432   9.249   8.118  1.00  0.00     0.034 A 
ATOM     47  C   UNL     1      -4.537   9.879   1.192  1.00  0.00     0.034 A 
ATOM     48  C   UNL     1      -4.223  10.389   7.721  1.00  0.00     0.049 A 
ATOM     49  C   UNL     1      -5.144  10.836   2.190  1.00  0.00     0.074 A 
ATOM     50  C   UNL     1      -4.765  11.383   8.517  1.00  0.00     0.029 A 
ATOM     51  N   UNL     1      -4.599  10.680   6.415  1.00  0.00    -0.354 N 
ATOM     52  N   UNL     1      -5.019  10.856   3.498  1.00  0.00    -0.248 NA
ATOM     53  C   UNL     1      -5.990  11.908   1.651  1.00  0.00     0.031 C 
ATOM     54  C   UNL     1      -5.529  12.227   7.705  1.00  0.00     0.029 A 
ATOM     55  C   UNL     1      -5.393  11.816   6.388  1.00  0.00     0.049 A 
ATOM     56  H   UNL     1      -4.338  10.156   5.623  1.00  0.00     0.167 HD
ATOM     57  C   UNL     1      -5.746  11.962   3.933  1.00  0.00     0.074 A 
ATOM     58  C   UNL     1      -6.292  12.589   2.746  1.00  0.00     0.031 C 
ATOM     59  C   UNL     1      -5.941  12.422   5.196  1.00  0.00     0.034 A 
BRANCH  46  60
ATOM     60  C   UNL     1      -3.162   9.018   9.587  1.00  0.00     0.023 A 
ATOM     61  C   UNL     1      -1.857   9.008  10.109  1.00  0.00     0.031 A 
ATOM     62  C   UNL     1      -4.225   8.766  10.473  1.00  0.00     0.131 A 
ATOM     63  C   UNL     1      -1.642   8.679  11.456  1.00  0.00     0.055 A 
ATOM     64  C   UNL     1      -4.011   8.523  11.831  1.00  0.00     0.041 A 
ATOM     65  F   UNL     1      -5.492   8.736  10.030  1.00  0.00    -0.206 F 
ATOM     66  C   UNL     1      -2.712   8.462  12.327  1.00  0.00     0.022 A 
BRANCH  63  67
ATOM     67  S   UNL     1       0.058   8.386  12.018  1.00  0.00     0.124 S 
ATOM     68  O   UNL     1       0.482   7.310  11.125  1.00  0.00    -0.237 OA
ATOM     69  O   UNL     1       0.689   9.682  11.802  1.00  0.00    -0.237 OA
ATOM     70  O   UNL     1      -0.106   7.995  13.417  1.00  0.00    -0.744 OA
ENDBRANCH  63  67
ENDBRANCH  46  60
BRANCH  47  71
ATOM     71  C   UNL     1      -4.840   9.998  -0.264  1.00  0.00     0.023 A 
ATOM     72  C   UNL     1      -4.455  11.128  -1.000  1.00  0.00     0.031 A 
ATOM     73  C   UNL     1      -5.566   8.993  -0.930  1.00  0.00     0.131 A 
ATOM     74  C   UNL     1      -4.835  11.248  -2.347  1.00  0.00     0.055 A 
ATOM     75  C   UNL     1      -5.893   9.091  -2.283  1.00  0.00     0.041 A 
ATOM     76  F   UNL     1      -5.961   7.891  -0.273  1.00  0.00    -0.206 F 
ATOM     77  C   UNL     1      -5.538  10.231  -2.997  1.00  0.00     0.022 A 
BRANCH  74  78
ATOM     78  S   UNL     1      -4.472  12.797  -3.218  1.00  0.00     0.124 S 
ATOM     79  O   UNL     1      -5.160  13.775  -2.383  1.00  0.00    -0.237 OA
ATOM     80  O   UNL     1      -3.014  12.832  -3.177  1.00  0.00    -0.237 OA
ATOM     81  O   UNL     1      -5.052  12.587  -4.542  1.00  0.00    -0.744 OA
ENDBRANCH  74  78
ENDBRANCH  47  71
BRANCH  59  82
ATOM     82  C   UNL     1      -6.742  13.694   5.349  1.00  0.00     0.023 A 
ATOM     83  C   UNL     1      -8.107  13.757   5.021  1.00  0.00     0.031 A 
ATOM     84  C   UNL     1      -6.123  14.865   5.825  1.00  0.00     0.131 A 
ATOM     85  C   UNL     1      -8.794  14.977   5.118  1.00  0.00     0.055 A 
ATOM     86  C   UNL     1      -6.827  16.058   5.983  1.00  0.00     0.041 A 
ATOM     87  F   UNL     1      -4.820  14.865   6.151  1.00  0.00    -0.206 F 
ATOM     88  C   UNL     1      -8.168  16.123   5.614  1.00  0.00     0.022 A 
BRANCH  85  89
ATOM     89  S   UNL     1     -10.493  15.073   4.490  1.00  0.00     0.124 S 
ATOM     90  O   UNL     1     -10.324  14.671   3.097  1.00  0.00    -0.237 OA
ATOM     91  O   UNL     1     -11.196  14.124   5.347  1.00  0.00    -0.237 OA
ATOM     92  O   UNL     1     -10.854  16.475   4.691  1.00  0.00    -0.744 OA
ENDBRANCH  85  89
ENDBRANCH  59  82
ENDBRANCH  33  34
ENDBRANCH  26  28
ENDBRANCH  25  26
ENDBRANCH  24  25
ENDBRANCH  23  24
ENDBRANCH   1  23
TORSDOF 20
