REMARK SMILES O=C(OCCOCCOC(=O)[C@H]1CCC[N@@H+]1Cc1ccccc1[N+](=O)[O-])c1ccc(-c2c3nc(c(-c4cc(S(=O)(=O)[O-])ccc4F)c4ccc([nH]4)c(-c4cc(S(=O)(=O)[O-])ccc4F)c4nc(c(-c5cc(S(=O)(=O)[O-])ccc5F)c5ccc2[nH]5)C=C4)C=C3)cc1
REMARK SMILES IDX 6 1 5 2 4 3 3 4 2 5 1 6 27 7 28 8 89 9 29 10 88 11 30 12
REMARK SMILES IDX 31 13 32 14 82 15 33 16 87 17 81 18 83 19 34 20 86 21 80 22
REMARK SMILES IDX 79 23 35 25 67 26 47 27 66 28 48 29 51 30 65 31 84 32 49 33
REMARK SMILES IDX 50 34 64 36 85 37 52 38 36 39 37 40 45 41 38 42 44 43 46 44
REMARK SMILES IDX 43 45 39 46 40 47 41 48 42 49 68 50 69 51 77 52 70 53 76 54
REMARK SMILES IDX 78 55 75 56 71 57 72 58 73 59 74 60 53 61 54 62 62 63 55 64
REMARK SMILES IDX 61 65 63 66 60 67 56 68 57 69 58 70 59 71 7 72 8 73 9 74
REMARK SMILES IDX 10 75 11 76 12 77 13 78 16 79 14 80 15 81 17 83 18 84 19 85
REMARK SMILES IDX 23 86 20 87 22 88 21 89 24 90 25 91 26 92
REMARK H PARENT 83 24 51 35 16 82
REMARK Flexibility Score: inf
ROOT
ATOM      1  O   UNL     1       7.669   0.334   3.348  1.00  0.00    -0.374 OA
ENDROOT
BRANCH   1   2
ATOM      2  C   UNL     1       6.877   0.613   2.192  1.00  0.00     0.202 C 
BRANCH   2   3
ATOM      3  C   UNL     1       7.631   0.488   0.864  1.00  0.00     0.261 C 
BRANCH   3   4
ATOM      4  O   UNL     1       8.277  -0.788   0.761  1.00  0.00    -0.460 OA
BRANCH   4   5
ATOM      5  C   UNL     1       9.547  -1.094   1.123  1.00  0.00     0.338 C 
ATOM      6  O   UNL     1       9.900  -2.271   1.057  1.00  0.00    -0.246 OA
BRANCH   5   7
ATOM      7  C   UNL     1      10.551  -0.086   1.590  1.00  0.00     0.060 A 
ATOM      8  C   UNL     1      10.252   1.103   2.260  1.00  0.00     0.016 A 
ATOM      9  C   UNL     1      11.906  -0.422   1.429  1.00  0.00     0.016 A 
ATOM     10  C   UNL     1      11.240   1.936   2.749  1.00  0.00     0.010 A 
ATOM     11  C   UNL     1      12.915   0.401   1.940  1.00  0.00     0.010 A 
ATOM     12  C   UNL     1      12.573   1.579   2.611  1.00  0.00    -0.014 A 
BRANCH  12  13
ATOM     13  C   UNL     1      13.571   2.519   3.135  1.00  0.00     0.031 A 
ATOM     14  C   UNL     1      14.259   3.425   2.168  1.00  0.00     0.074 A 
ATOM     15  C   UNL     1      13.717   2.635   4.468  1.00  0.00     0.049 A 
ATOM     16  N   UNL     1      15.205   4.293   2.384  1.00  0.00    -0.248 NA
ATOM     17  C   UNL     1      13.803   3.358   0.768  1.00  0.00     0.031 C 
ATOM     18  C   UNL     1      12.946   1.884   5.466  1.00  0.00     0.029 A 
ATOM     19  N   UNL     1      14.530   3.439   5.217  1.00  0.00    -0.354 N 
ATOM     20  C   UNL     1      15.486   4.852   1.145  1.00  0.00     0.074 A 
ATOM     21  C   UNL     1      14.603   4.236   0.182  1.00  0.00     0.031 C 
ATOM     22  C   UNL     1      13.323   2.271   6.695  1.00  0.00     0.029 A 
ATOM     23  C   UNL     1      14.418   3.224   6.572  1.00  0.00     0.049 A 
ATOM     24  H   UNL     1      15.137   4.107   4.824  1.00  0.00     0.167 HD
ATOM     25  C   UNL     1      16.423   5.784   0.856  1.00  0.00     0.034 A 
ATOM     26  C   UNL     1      15.166   3.707   7.583  1.00  0.00     0.034 A 
ATOM     27  C   UNL     1      17.281   6.355   1.861  1.00  0.00     0.049 A 
ATOM     28  C   UNL     1      16.287   4.649   7.210  1.00  0.00     0.074 A 
ATOM     29  C   UNL     1      18.308   7.265   1.706  1.00  0.00     0.029 A 
ATOM     30  N   UNL     1      17.212   6.054   3.218  1.00  0.00    -0.354 N 
ATOM     31  N   UNL     1      16.599   5.132   6.026  1.00  0.00    -0.248 NA
ATOM     32  C   UNL     1      17.164   5.100   8.295  1.00  0.00     0.031 C 
ATOM     33  C   UNL     1      18.909   7.454   2.955  1.00  0.00     0.029 A 
ATOM     34  C   UNL     1      18.206   6.727   3.906  1.00  0.00     0.049 A 
ATOM     35  H   UNL     1      16.552   5.450   3.629  1.00  0.00     0.167 HD
ATOM     36  C   UNL     1      17.700   5.955   6.229  1.00  0.00     0.074 A 
ATOM     37  C   UNL     1      17.973   5.929   7.653  1.00  0.00     0.031 C 
ATOM     38  C   UNL     1      18.435   6.660   5.330  1.00  0.00     0.034 A 
BRANCH  25  39
ATOM     39  C   UNL     1      16.632   6.129  -0.595  1.00  0.00     0.023 A 
ATOM     40  C   UNL     1      15.664   6.806  -1.357  1.00  0.00     0.031 A 
ATOM     41  C   UNL     1      17.812   5.717  -1.239  1.00  0.00     0.131 A 
ATOM     42  C   UNL     1      15.875   7.005  -2.731  1.00  0.00     0.055 A 
ATOM     43  C   UNL     1      18.045   5.979  -2.589  1.00  0.00     0.041 A 
ATOM     44  F   UNL     1      18.752   5.033  -0.568  1.00  0.00    -0.206 F 
ATOM     45  C   UNL     1      17.069   6.619  -3.346  1.00  0.00     0.022 A 
BRANCH  42  46
ATOM     46  S   UNL     1      14.519   7.672  -3.736  1.00  0.00     0.124 S 
ATOM     47  O   UNL     1      13.505   6.630  -3.592  1.00  0.00    -0.237 OA
ATOM     48  O   UNL     1      14.230   8.941  -3.078  1.00  0.00    -0.237 OA
ATOM     49  O   UNL     1      15.104   7.782  -5.072  1.00  0.00    -0.744 OA
ENDBRANCH  42  46
ENDBRANCH  25  39
BRANCH  26  50
ATOM     50  C   UNL     1      14.975   3.239   8.989  1.00  0.00     0.023 A 
ATOM     51  C   UNL     1      14.763   4.144  10.041  1.00  0.00     0.031 A 
ATOM     52  C   UNL     1      15.103   1.875   9.323  1.00  0.00     0.131 A 
ATOM     53  C   UNL     1      14.755   3.689  11.371  1.00  0.00     0.055 A 
ATOM     54  C   UNL     1      15.019   1.419  10.639  1.00  0.00     0.041 A 
ATOM     55  F   UNL     1      15.324   0.957   8.368  1.00  0.00    -0.206 F 
ATOM     56  C   UNL     1      14.866   2.331  11.676  1.00  0.00     0.022 A 
BRANCH  53  57
ATOM     57  S   UNL     1      14.752   4.915  12.709  1.00  0.00     0.124 S 
ATOM     58  O   UNL     1      15.885   5.758  12.343  1.00  0.00    -0.237 OA
ATOM     59  O   UNL     1      13.431   5.517  12.564  1.00  0.00    -0.237 OA
ATOM     60  O   UNL     1      14.939   4.107  13.912  1.00  0.00    -0.744 OA
ENDBRANCH  53  57
ENDBRANCH  26  50
BRANCH  38  61
ATOM     61  C   UNL     1      19.572   7.473   5.888  1.00  0.00     0.023 A 
ATOM     62  C   UNL     1      20.701   6.857   6.452  1.00  0.00     0.031 A 
ATOM     63  C   UNL     1      19.523   8.876   5.850  1.00  0.00     0.131 A 
ATOM     64  C   UNL     1      21.714   7.646   7.011  1.00  0.00     0.055 A 
ATOM     65  C   UNL     1      20.567   9.656   6.345  1.00  0.00     0.041 A 
ATOM     66  F   UNL     1      18.464   9.510   5.322  1.00  0.00    -0.206 F 
ATOM     67  C   UNL     1      21.665   9.041   6.941  1.00  0.00     0.022 A 
BRANCH  64  68
ATOM     68  S   UNL     1      23.055   6.824   7.911  1.00  0.00     0.124 S 
ATOM     69  O   UNL     1      22.328   6.132   8.970  1.00  0.00    -0.237 OA
ATOM     70  O   UNL     1      23.647   5.973   6.883  1.00  0.00    -0.237 OA
ATOM     71  O   UNL     1      23.896   7.932   8.358  1.00  0.00    -0.744 OA
ENDBRANCH  64  68
ENDBRANCH  38  61
ENDBRANCH  12  13
ENDBRANCH   5   7
ENDBRANCH   4   5
ENDBRANCH   3   4
ENDBRANCH   2   3
ENDBRANCH   1   2
BRANCH   1  72
ATOM     72  C   UNL     1       7.723  -1.031   3.767  1.00  0.00     0.202 C 
BRANCH  72  73
ATOM     73  C   UNL     1       7.137  -1.155   5.170  1.00  0.00     0.261 C 
BRANCH  73  74
ATOM     74  O   UNL     1       5.779  -0.692   5.116  1.00  0.00    -0.459 OA
BRANCH  74  75
ATOM     75  C   UNL     1       5.658   0.651   5.353  1.00  0.00     0.365 C 
ATOM     76  O   UNL     1       6.482   1.335   5.938  1.00  0.00    -0.245 OA
BRANCH  75  77
ATOM     77  C   UNL     1       4.323   1.162   4.783  1.00  0.00     0.295 C 
ATOM     78  C   UNL     1       3.571   1.819   5.927  1.00  0.00     0.083 C 
ATOM     79  N   UNL     1       4.549   2.249   3.800  1.00  0.00    -0.319 N 
ATOM     80  C   UNL     1       4.082   3.256   5.928  1.00  0.00     0.068 C 
ATOM     81  C   UNL     1       4.776   3.466   4.583  1.00  0.00     0.263 C 
ATOM     82  H   UNL     1       5.369   2.013   3.240  1.00  0.00     0.349 HD
BRANCH  79  83
ATOM     83  C   UNL     1       3.597   2.379   2.688  1.00  0.00     0.307 C 
BRANCH  83  84
ATOM     84  C   UNL     1       2.128   2.320   3.051  1.00  0.00     0.084 A 
ATOM     85  C   UNL     1       1.485   1.067   2.995  1.00  0.00     0.017 A 
ATOM     86  C   UNL     1       1.398   3.399   3.579  1.00  0.00     0.278 A 
ATOM     87  C   UNL     1       0.223   0.878   3.560  1.00  0.00     0.001 A 
ATOM     88  C   UNL     1       0.146   3.205   4.184  1.00  0.00     0.086 A 
ATOM     89  C   UNL     1      -0.427   1.935   4.192  1.00  0.00     0.007 A 
BRANCH  86  90
ATOM     90  N   UNL     1       1.887   4.771   3.497  1.00  0.00     0.063 N 
ATOM     91  O   UNL     1       1.778   5.475   4.510  1.00  0.00    -0.258 OA
ATOM     92  O   UNL     1       2.322   5.154   2.404  1.00  0.00    -0.258 OA
ENDBRANCH  86  90
ENDBRANCH  83  84
ENDBRANCH  79  83
ENDBRANCH  75  77
ENDBRANCH  74  75
ENDBRANCH  73  74
ENDBRANCH  72  73
ENDBRANCH   1  72
TORSDOF 20
