REMARK SMILES O=C(OCCOCCOC(=O)C1CCN(c2ccnnc2)CC1)c1ccc(-c2c3nc(c(-c4cc(S(=O)(=O)[O-])ccc4F)c4ccc([nH]4)c(-c4cc(S(=O)(=O)[O-])ccc4F)c4nc(c(-c5cc(S(=O)(=O)[O-])ccc5F)c5ccc2[nH]5)C=C4)C=C3)cc1
REMARK SMILES IDX 5 1 4 2 3 3 2 4 1 5 24 6 25 7 86 8 26 9 85 10 27 11 28 12
REMARK SMILES IDX 29 13 79 14 30 15 84 16 78 17 80 18 31 19 83 20 77 21 76 22
REMARK SMILES IDX 32 24 64 25 44 26 63 27 45 28 48 29 62 30 81 31 46 32 47 33
REMARK SMILES IDX 61 35 82 36 49 37 33 38 34 39 42 40 35 41 41 42 43 43 40 44
REMARK SMILES IDX 36 45 37 46 38 47 39 48 65 49 66 50 74 51 67 52 73 53 75 54
REMARK SMILES IDX 72 55 68 56 69 57 70 58 71 59 50 60 51 61 59 62 52 63 58 64
REMARK SMILES IDX 60 65 57 66 53 67 54 68 55 69 56 70 6 71 7 72 8 73 9 74
REMARK SMILES IDX 10 75 11 76 12 77 13 78 23 79 14 80 22 81 15 82 16 83 17 84
REMARK SMILES IDX 21 85 18 86 20 87 19 88
REMARK H PARENT 80 23 48 34
REMARK Flexibility Score: inf
ROOT
ATOM      1  C   UNL     1       4.157   1.264  -0.693  1.00  0.00     0.202 C 
ENDROOT
BRANCH   1   2
ATOM      2  C   UNL     1       3.947   0.014  -1.553  1.00  0.00     0.261 C 
BRANCH   2   3
ATOM      3  O   UNL     1       2.604  -0.474  -1.415  1.00  0.00    -0.460 OA
BRANCH   3   4
ATOM      4  C   UNL     1       2.143  -1.391  -0.531  1.00  0.00     0.338 C 
ATOM      5  O   UNL     1       0.930  -1.597  -0.488  1.00  0.00    -0.246 OA
BRANCH   4   6
ATOM      6  C   UNL     1       3.019  -2.165   0.403  1.00  0.00     0.060 A 
ATOM      7  C   UNL     1       4.268  -1.745   0.861  1.00  0.00     0.016 A 
ATOM      8  C   UNL     1       2.505  -3.365   0.923  1.00  0.00     0.016 A 
ATOM      9  C   UNL     1       5.000  -2.479   1.766  1.00  0.00     0.010 A 
ATOM     10  C   UNL     1       3.227  -4.110   1.864  1.00  0.00     0.010 A 
ATOM     11  C   UNL     1       4.482  -3.659   2.280  1.00  0.00    -0.014 A 
BRANCH  11  12
ATOM     12  C   UNL     1       5.395  -4.418   3.143  1.00  0.00     0.031 A 
ATOM     13  C   UNL     1       6.148  -5.551   2.526  1.00  0.00     0.074 A 
ATOM     14  C   UNL     1       5.715  -3.904   4.345  1.00  0.00     0.049 A 
ATOM     15  N   UNL     1       7.052  -6.325   3.054  1.00  0.00    -0.248 NA
ATOM     16  C   UNL     1       5.866  -5.828   1.106  1.00  0.00     0.031 C 
ATOM     17  C   UNL     1       5.140  -2.677   4.913  1.00  0.00     0.029 A 
ATOM     18  N   UNL     1       6.638  -4.295   5.273  1.00  0.00    -0.354 N 
ATOM     19  C   UNL     1       7.443  -7.187   2.038  1.00  0.00     0.074 A 
ATOM     20  C   UNL     1       6.665  -6.854   0.866  1.00  0.00     0.031 C 
ATOM     21  C   UNL     1       5.747  -2.406   6.078  1.00  0.00     0.029 A 
ATOM     22  C   UNL     1       6.684  -3.480   6.381  1.00  0.00     0.049 A 
ATOM     23  H   UNL     1       7.215  -5.084   5.160  1.00  0.00     0.167 HD
ATOM     24  C   UNL     1       8.373  -8.168   2.096  1.00  0.00     0.034 A 
ATOM     25  C   UNL     1       7.376  -3.627   7.526  1.00  0.00     0.034 A 
ATOM     26  C   UNL     1       9.100  -8.469   3.301  1.00  0.00     0.049 A 
ATOM     27  C   UNL     1       8.288  -4.825   7.618  1.00  0.00     0.074 A 
ATOM     28  C   UNL     1       9.967  -9.513   3.557  1.00  0.00     0.029 A 
ATOM     29  N   UNL     1       9.034  -7.708   4.466  1.00  0.00    -0.354 N 
ATOM     30  N   UNL     1       8.565  -5.723   6.695  1.00  0.00    -0.248 NA
ATOM     31  C   UNL     1       8.973  -5.039   8.894  1.00  0.00     0.031 C 
ATOM     32  C   UNL     1      10.376  -9.418   4.893  1.00  0.00     0.029 A 
ATOM     33  C   UNL     1       9.829  -8.270   5.449  1.00  0.00     0.049 A 
ATOM     34  H   UNL     1       8.499  -6.888   4.574  1.00  0.00     0.167 HD
ATOM     35  C   UNL     1       9.469  -6.602   7.279  1.00  0.00     0.074 A 
ATOM     36  C   UNL     1       9.720  -6.097   8.616  1.00  0.00     0.031 C 
ATOM     37  C   UNL     1      10.036  -7.729   6.774  1.00  0.00     0.034 A 
BRANCH  24  38
ATOM     38  C   UNL     1       8.543  -9.017   0.863  1.00  0.00     0.023 A 
ATOM     39  C   UNL     1       9.042  -8.489  -0.341  1.00  0.00     0.031 A 
ATOM     40  C   UNL     1       8.102 -10.352   0.865  1.00  0.00     0.131 A 
ATOM     41  C   UNL     1       9.018  -9.269  -1.509  1.00  0.00     0.055 A 
ATOM     42  C   UNL     1       8.154 -11.146  -0.282  1.00  0.00     0.041 A 
ATOM     43  F   UNL     1       7.577 -10.896   1.974  1.00  0.00    -0.206 F 
ATOM     44  C   UNL     1       8.601 -10.601  -1.482  1.00  0.00     0.022 A 
BRANCH  41  45
ATOM     45  S   UNL     1       9.394  -8.472  -3.096  1.00  0.00     0.124 S 
ATOM     46  O   UNL     1       8.331  -7.474  -3.183  1.00  0.00    -0.237 OA
ATOM     47  O   UNL     1      10.740  -7.954  -2.881  1.00  0.00    -0.237 OA
ATOM     48  O   UNL     1       9.294  -9.565  -4.061  1.00  0.00    -0.744 OA
ENDBRANCH  41  45
ENDBRANCH  24  38
BRANCH  25  49
ATOM     49  C   UNL     1       7.157  -2.712   8.688  1.00  0.00     0.023 A 
ATOM     50  C   UNL     1       8.218  -2.033   9.307  1.00  0.00     0.031 A 
ATOM     51  C   UNL     1       5.876  -2.574   9.260  1.00  0.00     0.131 A 
ATOM     52  C   UNL     1       7.992  -1.306  10.490  1.00  0.00     0.055 A 
ATOM     53  C   UNL     1       5.644  -1.793  10.393  1.00  0.00     0.041 A 
ATOM     54  F   UNL     1       4.819  -3.208   8.727  1.00  0.00    -0.206 F 
ATOM     55  C   UNL     1       6.710  -1.169  11.027  1.00  0.00     0.022 A 
BRANCH  52  56
ATOM     56  S   UNL     1       9.422  -0.653  11.398  1.00  0.00     0.124 S 
ATOM     57  O   UNL     1      10.241  -1.849  11.562  1.00  0.00    -0.237 OA
ATOM     58  O   UNL     1       9.932   0.353  10.474  1.00  0.00    -0.237 OA
ATOM     59  O   UNL     1       8.832  -0.128  12.628  1.00  0.00    -0.744 OA
ENDBRANCH  52  56
ENDBRANCH  25  49
BRANCH  37  60
ATOM     60  C   UNL     1      10.998  -8.451   7.680  1.00  0.00     0.023 A 
ATOM     61  C   UNL     1      10.568  -9.052   8.874  1.00  0.00     0.031 A 
ATOM     62  C   UNL     1      12.364  -8.510   7.357  1.00  0.00     0.131 A 
ATOM     63  C   UNL     1      11.508  -9.617   9.744  1.00  0.00     0.055 A 
ATOM     64  C   UNL     1      13.285  -9.144   8.190  1.00  0.00     0.041 A 
ATOM     65  F   UNL     1      12.826  -7.950   6.227  1.00  0.00    -0.206 F 
ATOM     66  C   UNL     1      12.861  -9.685   9.401  1.00  0.00     0.022 A 
BRANCH  63  67
ATOM     67  S   UNL     1      10.954 -10.143  11.387  1.00  0.00     0.124 S 
ATOM     68  O   UNL     1      10.383  -8.912  11.922  1.00  0.00    -0.237 OA
ATOM     69  O   UNL     1      10.003 -11.203  11.071  1.00  0.00    -0.237 OA
ATOM     70  O   UNL     1      12.186 -10.589  12.036  1.00  0.00    -0.744 OA
ENDBRANCH  63  67
ENDBRANCH  37  60
ENDBRANCH  11  12
ENDBRANCH   4   6
ENDBRANCH   3   4
ENDBRANCH   2   3
ENDBRANCH   1   2
BRANCH   1  71
ATOM     71  O   UNL     1       3.882   1.096   0.700  1.00  0.00    -0.374 OA
BRANCH  71  72
ATOM     72  C   UNL     1       2.532   1.315   1.122  1.00  0.00     0.202 C 
BRANCH  72  73
ATOM     73  C   UNL     1       2.492   2.470   2.119  1.00  0.00     0.261 C 
BRANCH  73  74
ATOM     74  O   UNL     1       3.058   3.606   1.459  1.00  0.00    -0.463 OA
BRANCH  74  75
ATOM     75  C   UNL     1       4.410   3.707   1.567  1.00  0.00     0.309 C 
ATOM     76  O   UNL     1       5.080   3.250   2.485  1.00  0.00    -0.252 OA
BRANCH  75  77
ATOM     77  C   UNL     1       5.011   4.408   0.359  1.00  0.00     0.103 C 
ATOM     78  C   UNL     1       6.040   5.428   0.840  1.00  0.00     0.037 C 
ATOM     79  C   UNL     1       3.970   5.078  -0.551  1.00  0.00     0.037 C 
ATOM     80  C   UNL     1       5.331   6.546   1.588  1.00  0.00     0.117 C 
ATOM     81  C   UNL     1       3.296   6.267   0.136  1.00  0.00     0.117 C 
ATOM     82  N   UNL     1       4.329   7.127   0.695  1.00  0.00    -0.370 N 
BRANCH  82  83
ATOM     83  C   UNL     1       4.192   8.497   0.674  1.00  0.00     0.059 A 
ATOM     84  C   UNL     1       3.014   9.136   1.027  1.00  0.00     0.049 A 
ATOM     85  C   UNL     1       5.247   9.317   0.286  1.00  0.00     0.161 A 
ATOM     86  C   UNL     1       2.976  10.516   0.983  1.00  0.00     0.138 A 
ATOM     87  N   UNL     1       5.177  10.665   0.234  1.00  0.00    -0.157 NA
ATOM     88  N   UNL     1       4.023  11.273   0.591  1.00  0.00    -0.159 NA
ENDBRANCH  82  83
ENDBRANCH  75  77
ENDBRANCH  74  75
ENDBRANCH  73  74
ENDBRANCH  72  73
ENDBRANCH  71  72
ENDBRANCH   1  71
TORSDOF 18
