REMARK SMILES Cc1cc(CS(=O)(=O)N[C@@H]2C=C[C@H](C(=O)OCCOCCOC(=O)c3ccc(-c4c5nc(c(-c6cc(S(=O)(=O)[O-])ccc6F)c6ccc([nH]6)c(-c6cc(S(=O)(=O)[O-])ccc6F)c6nc(c(-c7cc(S(=O)(=O)[O-])ccc7F)c7ccc4[nH]7)C=C6)C=C5)cc3)C2)no1
REMARK SMILES IDX 18 1 17 2 16 3 14 4 15 5 13 6 10 7 11 8 88 9 12 10 9 11 6 13
REMARK SMILES IDX 7 14 8 15 5 16 4 17 1 18 2 19 3 20 90 21 89 22 19 23 20 24
REMARK SMILES IDX 21 25 22 26 23 27 24 28 25 29 26 30 87 31 27 32 86 33 28 34
REMARK SMILES IDX 29 35 30 36 80 37 31 38 85 39 79 40 81 41 32 42 84 43 78 44
REMARK SMILES IDX 77 45 33 47 65 48 45 49 64 50 46 51 49 52 63 53 82 54 47 55
REMARK SMILES IDX 48 56 62 58 83 59 50 60 34 61 35 62 43 63 36 64 42 65 44 66
REMARK SMILES IDX 41 67 37 68 38 69 39 70 40 71 66 72 67 73 75 74 68 75 74 76
REMARK SMILES IDX 76 77 73 78 69 79 70 80 71 81 72 82 51 83 52 84 60 85 53 86
REMARK SMILES IDX 59 87 61 88 58 89 54 90 55 91 56 92 57 93
REMARK H PARENT 9 12 81 46 49 57
REMARK Flexibility Score: inf
ROOT
ATOM      1  C   UNL     1       4.647   0.672   4.341  1.00  0.00     0.202 C 
ENDROOT
BRANCH   1   2
ATOM      2  C   UNL     1       3.711   0.365   3.169  1.00  0.00     0.261 C 
BRANCH   2   3
ATOM      3  O   UNL     1       2.351   0.602   3.553  1.00  0.00    -0.463 OA
BRANCH   3   4
ATOM      4  C   UNL     1       1.503  -0.454   3.418  1.00  0.00     0.312 C 
ATOM      5  O   UNL     1       1.747  -1.484   2.805  1.00  0.00    -0.252 OA
BRANCH   4   6
ATOM      6  C   UNL     1       0.239  -0.218   4.234  1.00  0.00     0.123 C 
ATOM      7  C   UNL     1      -1.808  -0.629   2.979  1.00  0.00     0.093 C 
ATOM      8  C   UNL     1      -1.539   0.831   3.149  1.00  0.00    -0.011 C 
ATOM      9  C   UNL     1      -0.828  -1.279   3.947  1.00  0.00     0.043 C 
ATOM     10  C   UNL     1      -0.429   1.064   3.851  1.00  0.00    -0.015 C 
BRANCH   7  11
ATOM     11  N   UNL     1      -1.530  -0.926   1.581  1.00  0.00    -0.208 NA
ATOM     12  H   UNL     1      -1.443  -0.032   1.097  1.00  0.00     0.141 HD
BRANCH  11  13
ATOM     13  S   UNL     1      -2.626  -1.849   0.714  1.00  0.00     0.218 S 
ATOM     14  O   UNL     1      -2.974  -2.988   1.526  1.00  0.00    -0.212 OA
ATOM     15  O   UNL     1      -1.992  -2.050  -0.578  1.00  0.00    -0.212 OA
BRANCH  13  16
ATOM     16  C   UNL     1      -4.054  -0.757   0.445  1.00  0.00     0.213 C 
BRANCH  16  17
ATOM     17  C   UNL     1      -4.734  -0.340   1.696  1.00  0.00     0.100 A 
ATOM     18  C   UNL     1      -5.327   1.528   4.787  1.00  0.00     0.091 C 
ATOM     19  C   UNL     1      -5.250   0.723   3.555  1.00  0.00     0.133 A 
ATOM     20  C   UNL     1      -4.777   0.950   2.285  1.00  0.00     0.073 A 
ATOM     21  O   UNL     1      -5.646  -0.573   3.655  1.00  0.00    -0.361 OA
ATOM     22  N   UNL     1      -5.364  -1.232   2.473  1.00  0.00    -0.084 NA
ENDBRANCH  16  17
ENDBRANCH  13  16
ENDBRANCH  11  13
ENDBRANCH   7  11
ENDBRANCH   4   6
ENDBRANCH   3   4
ENDBRANCH   2   3
ENDBRANCH   1   2
BRANCH   1  23
ATOM     23  O   UNL     1       4.486  -0.119   5.521  1.00  0.00    -0.374 OA
BRANCH  23  24
ATOM     24  C   UNL     1       3.354   0.137   6.350  1.00  0.00     0.202 C 
BRANCH  24  25
ATOM     25  C   UNL     1       3.348   1.409   7.207  1.00  0.00     0.261 C 
BRANCH  25  26
ATOM     26  O   UNL     1       3.377   2.615   6.428  1.00  0.00    -0.460 OA
BRANCH  26  27
ATOM     27  C   UNL     1       4.550   3.293   6.499  1.00  0.00     0.338 C 
ATOM     28  O   UNL     1       5.524   3.003   7.180  1.00  0.00    -0.246 OA
BRANCH  27  29
ATOM     29  C   UNL     1       4.585   4.355   5.480  1.00  0.00     0.060 A 
ATOM     30  C   UNL     1       5.632   4.322   4.549  1.00  0.00     0.016 A 
ATOM     31  C   UNL     1       3.671   5.410   5.487  1.00  0.00     0.016 A 
ATOM     32  C   UNL     1       5.796   5.368   3.646  1.00  0.00     0.010 A 
ATOM     33  C   UNL     1       3.847   6.468   4.588  1.00  0.00     0.010 A 
ATOM     34  C   UNL     1       4.929   6.467   3.688  1.00  0.00    -0.014 A 
BRANCH  34  35
ATOM     35  C   UNL     1       5.263   7.682   2.906  1.00  0.00     0.031 A 
ATOM     36  C   UNL     1       5.957   8.822   3.600  1.00  0.00     0.074 A 
ATOM     37  C   UNL     1       4.991   7.749   1.591  1.00  0.00     0.049 A 
ATOM     38  N   UNL     1       6.326   9.983   3.127  1.00  0.00    -0.248 NA
ATOM     39  C   UNL     1       6.274   8.621   5.022  1.00  0.00     0.031 C 
ATOM     40  C   UNL     1       4.373   6.683   0.803  1.00  0.00     0.029 A 
ATOM     41  N   UNL     1       5.201   8.758   0.686  1.00  0.00    -0.354 N 
ATOM     42  C   UNL     1       6.913  10.657   4.194  1.00  0.00     0.074 A 
ATOM     43  C   UNL     1       6.816   9.785   5.345  1.00  0.00     0.031 C 
ATOM     44  C   UNL     1       4.251   7.098  -0.470  1.00  0.00     0.029 A 
ATOM     45  C   UNL     1       4.745   8.469  -0.578  1.00  0.00     0.049 A 
ATOM     46  H   UNL     1       5.637   9.609   0.920  1.00  0.00     0.167 HD
ATOM     47  C   UNL     1       7.485  11.887   4.207  1.00  0.00     0.034 A 
ATOM     48  C   UNL     1       4.711   9.234  -1.688  1.00  0.00     0.034 A 
ATOM     49  C   UNL     1       7.564  12.745   3.049  1.00  0.00     0.049 A 
ATOM     50  C   UNL     1       5.268  10.637  -1.625  1.00  0.00     0.074 A 
ATOM     51  C   UNL     1       8.143  13.997   2.942  1.00  0.00     0.029 A 
ATOM     52  N   UNL     1       7.035  12.445   1.800  1.00  0.00    -0.354 N 
ATOM     53  N   UNL     1       5.831  11.259  -0.614  1.00  0.00    -0.248 NA
ATOM     54  C   UNL     1       5.188  11.436  -2.854  1.00  0.00     0.031 C 
ATOM     55  C   UNL     1       7.895  14.486   1.654  1.00  0.00     0.029 A 
ATOM     56  C   UNL     1       7.235  13.506   0.929  1.00  0.00     0.049 A 
ATOM     57  H   UNL     1       6.583  11.602   1.567  1.00  0.00     0.167 HD
ATOM     58  C   UNL     1       6.204  12.511  -1.099  1.00  0.00     0.074 A 
ATOM     59  C   UNL     1       5.810  12.549  -2.493  1.00  0.00     0.031 C 
ATOM     60  C   UNL     1       6.824  13.534  -0.455  1.00  0.00     0.034 A 
BRANCH  47  61
ATOM     61  C   UNL     1       8.007  12.393   5.530  1.00  0.00     0.023 A 
ATOM     62  C   UNL     1       9.066  11.760   6.205  1.00  0.00     0.031 A 
ATOM     63  C   UNL     1       7.407  13.506   6.147  1.00  0.00     0.131 A 
ATOM     64  C   UNL     1       9.441  12.195   7.486  1.00  0.00     0.055 A 
ATOM     65  C   UNL     1       7.839  13.985   7.385  1.00  0.00     0.041 A 
ATOM     66  F   UNL     1       6.376  14.137   5.563  1.00  0.00    -0.206 F 
ATOM     67  C   UNL     1       8.851  13.319   8.070  1.00  0.00     0.022 A 
BRANCH  64  68
ATOM     68  S   UNL     1      10.601  11.181   8.443  1.00  0.00     0.124 S 
ATOM     69  O   UNL     1       9.908   9.895   8.478  1.00  0.00    -0.237 OA
ATOM     70  O   UNL     1      11.810  11.234   7.630  1.00  0.00    -0.237 OA
ATOM     71  O   UNL     1      10.681  11.872   9.728  1.00  0.00    -0.744 OA
ENDBRANCH  64  68
ENDBRANCH  47  61
BRANCH  48  72
ATOM     72  C   UNL     1       4.101   8.717  -2.946  1.00  0.00     0.023 A 
ATOM     73  C   UNL     1       4.870   8.552  -4.109  1.00  0.00     0.031 A 
ATOM     74  C   UNL     1       2.726   8.433  -3.018  1.00  0.00     0.131 A 
ATOM     75  C   UNL     1       4.250   8.159  -5.306  1.00  0.00     0.055 A 
ATOM     76  C   UNL     1       2.124   7.992  -4.198  1.00  0.00     0.041 A 
ATOM     77  F   UNL     1       1.944   8.575  -1.936  1.00  0.00    -0.206 F 
ATOM     78  C   UNL     1       2.886   7.866  -5.355  1.00  0.00     0.022 A 
BRANCH  75  79
ATOM     79  S   UNL     1       5.242   8.120  -6.824  1.00  0.00     0.124 S 
ATOM     80  O   UNL     1       5.709   9.499  -6.909  1.00  0.00    -0.237 OA
ATOM     81  O   UNL     1       6.252   7.118  -6.498  1.00  0.00    -0.237 OA
ATOM     82  O   UNL     1       4.279   7.721  -7.848  1.00  0.00    -0.744 OA
ENDBRANCH  75  79
ENDBRANCH  48  72
BRANCH  60  83
ATOM     83  C   UNL     1       7.154  14.760  -1.273  1.00  0.00     0.023 A 
ATOM     84  C   UNL     1       6.151  15.598  -1.792  1.00  0.00     0.031 A 
ATOM     85  C   UNL     1       8.495  15.087  -1.544  1.00  0.00     0.131 A 
ATOM     86  C   UNL     1       6.503  16.689  -2.602  1.00  0.00     0.055 A 
ATOM     87  C   UNL     1       8.840  16.209  -2.299  1.00  0.00     0.041 A 
ATOM     88  F   UNL     1       9.493  14.322  -1.075  1.00  0.00    -0.206 F 
ATOM     89  C   UNL     1       7.841  17.009  -2.844  1.00  0.00     0.022 A 
BRANCH  86  90
ATOM     90  S   UNL     1       5.183  17.633  -3.413  1.00  0.00     0.124 S 
ATOM     91  O   UNL     1       4.509  16.601  -4.196  1.00  0.00    -0.237 OA
ATOM     92  O   UNL     1       4.435  18.162  -2.278  1.00  0.00    -0.237 OA
ATOM     93  O   UNL     1       5.908  18.632  -4.197  1.00  0.00    -0.744 OA
ENDBRANCH  86  90
ENDBRANCH  60  83
ENDBRANCH  34  35
ENDBRANCH  27  29
ENDBRANCH  26  27
ENDBRANCH  25  26
ENDBRANCH  24  25
ENDBRANCH  23  24
ENDBRANCH   1  23
TORSDOF 21
