REMARK SMILES O=C(OCCOCCOC(=O)c1ccc(-c2c3nc(c(-c4cc(S(=O)(=O)[O-])ccc4F)c4ccc([nH]4)c(-c4cc(S(=O)(=O)[O-])ccc4F)c4nc(c(-c5cc(S(=O)(=O)[O-])ccc5F)c5ccc2[nH]5)C=C4)C=C3)cc1)C1=Cc2cc(Cl)cc(Cl)c2O[C@@H]1C(F)(F)F
REMARK SMILES IDX 7 1 6 2 5 3 4 4 3 5 2 6 1 7 75 8 76 9 86 10 77 11 85 12
REMARK SMILES IDX 78 13 84 14 79 15 82 16 80 17 81 18 83 19 87 20 88 21 89 22
REMARK SMILES IDX 90 23 8 24 9 25 10 26 11 27 12 28 13 29 74 30 14 31 73 32
REMARK SMILES IDX 15 33 16 34 17 35 67 36 18 37 72 38 66 39 68 40 19 41 71 42
REMARK SMILES IDX 65 43 64 44 20 46 52 47 32 48 51 49 33 50 36 51 50 52 69 53
REMARK SMILES IDX 34 54 35 55 49 57 70 58 37 59 21 60 22 61 30 62 23 63 29 64
REMARK SMILES IDX 31 65 28 66 24 67 25 68 26 69 27 70 53 71 54 72 62 73 55 74
REMARK SMILES IDX 61 75 63 76 60 77 56 78 57 79 58 80 59 81 38 82 39 83 47 84
REMARK SMILES IDX 40 85 46 86 48 87 45 88 41 89 42 90 43 91 44 92
REMARK H PARENT 68 45 36 56
REMARK Flexibility Score: inf
ROOT
ATOM      1  C   UNL     1       2.724  -2.809   1.111  1.00  0.00     0.202 C 
ENDROOT
BRANCH   1   2
ATOM      2  O   UNL     1       3.865  -2.439   0.302  1.00  0.00    -0.374 OA
BRANCH   2   3
ATOM      3  C   UNL     1       4.435  -1.027  -0.257  1.00  0.00     0.202 C 
BRANCH   3   4
ATOM      4  C   UNL     1       3.534   0.968  -0.277  1.00  0.00     0.261 C 
BRANCH   4   5
ATOM      5  O   UNL     1       2.366   1.439  -1.037  1.00  0.00    -0.460 OA
BRANCH   5   6
ATOM      6  C   UNL     1       2.413   0.961  -2.278  1.00  0.00     0.338 C 
ATOM      7  O   UNL     1       1.510   1.015  -3.082  1.00  0.00    -0.246 OA
BRANCH   6   8
ATOM      8  C   UNL     1       3.506  -0.040  -2.141  1.00  0.00     0.087 C 
ATOM      9  C   UNL     1       4.880   0.457  -2.001  1.00  0.00     0.027 C 
ATOM     10  C   UNL     1       2.512  -0.797  -0.701  1.00  0.00     0.316 C 
ATOM     11  C   UNL     1       5.749   0.682  -0.414  1.00  0.00     0.020 A 
ATOM     12  O   UNL     1       3.280  -0.364   1.036  1.00  0.00    -0.474 OA
ATOM     13  C   UNL     1       7.032   1.148  -0.416  1.00  0.00     0.032 A 
ATOM     14  C   UNL     1       4.934   0.474   1.104  1.00  0.00     0.146 A 
ATOM     15  C   UNL     1       7.512   1.539   0.844  1.00  0.00     0.043 A 
ATOM     16  C   UNL     1       5.391   1.120   2.213  1.00  0.00     0.085 A 
ATOM     17  Cl  UNL     1       9.165   2.058   0.915  1.00  0.00    -0.084 Cl
ATOM     18  C   UNL     1       6.718   1.605   2.064  1.00  0.00     0.045 A 
ATOM     19  Cl  UNL     1       4.362   1.713   3.437  1.00  0.00    -0.080 Cl
BRANCH  10  20
ATOM     20  C   UNL     1       2.392  -2.202  -1.618  1.00  0.00     0.430 C 
ATOM     21  F   UNL     1       1.710  -3.237  -1.105  1.00  0.00    -0.167 F 
ATOM     22  F   UNL     1       1.688  -1.875  -2.752  1.00  0.00    -0.167 F 
ATOM     23  F   UNL     1       3.570  -2.674  -2.114  1.00  0.00    -0.167 F 
ENDBRANCH  10  20
ENDBRANCH   6   8
ENDBRANCH   5   6
ENDBRANCH   4   5
ENDBRANCH   3   4
ENDBRANCH   2   3
ENDBRANCH   1   2
BRANCH   1  24
ATOM     24  C   UNL     1       2.758  -2.993   2.613  1.00  0.00     0.261 C 
BRANCH  24  25
ATOM     25  O   UNL     1       3.406  -1.968   3.319  1.00  0.00    -0.460 OA
BRANCH  25  26
ATOM     26  C   UNL     1       4.726  -2.200   3.482  1.00  0.00     0.338 C 
ATOM     27  O   UNL     1       5.425  -2.994   2.882  1.00  0.00    -0.246 OA
BRANCH  26  28
ATOM     28  C   UNL     1       5.188  -1.291   4.536  1.00  0.00     0.060 A 
ATOM     29  C   UNL     1       6.490  -0.798   4.447  1.00  0.00     0.016 A 
ATOM     30  C   UNL     1       4.320  -0.886   5.563  1.00  0.00     0.016 A 
ATOM     31  C   UNL     1       6.920   0.137   5.375  1.00  0.00     0.010 A 
ATOM     32  C   UNL     1       4.756   0.040   6.500  1.00  0.00     0.010 A 
ATOM     33  C   UNL     1       6.066   0.534   6.414  1.00  0.00    -0.014 A 
BRANCH  33  34
ATOM     34  C   UNL     1       6.663   1.241   7.558  1.00  0.00     0.031 A 
ATOM     35  C   UNL     1       7.093   0.393   8.714  1.00  0.00     0.074 A 
ATOM     36  C   UNL     1       6.917   2.559   7.513  1.00  0.00     0.049 A 
ATOM     37  N   UNL     1       7.736   0.739   9.793  1.00  0.00    -0.248 NA
ATOM     38  C   UNL     1       6.764  -1.041   8.633  1.00  0.00     0.031 C 
ATOM     39  C   UNL     1       6.589   3.446   6.399  1.00  0.00     0.029 A 
ATOM     40  N   UNL     1       7.536   3.375   8.423  1.00  0.00    -0.354 N 
ATOM     41  C   UNL     1       7.895  -0.435  10.515  1.00  0.00     0.074 A 
ATOM     42  C   UNL     1       7.238  -1.490   9.781  1.00  0.00     0.031 C 
ATOM     43  C   UNL     1       7.037   4.682   6.680  1.00  0.00     0.029 A 
ATOM     44  C   UNL     1       7.641   4.683   8.011  1.00  0.00     0.049 A 
ATOM     45  H   UNL     1       7.874   3.055   9.290  1.00  0.00     0.167 HD
ATOM     46  C   UNL     1       8.548  -0.611  11.685  1.00  0.00     0.034 A 
ATOM     47  C   UNL     1       8.156   5.753   8.648  1.00  0.00     0.034 A 
ATOM     48  C   UNL     1       9.161   0.467  12.412  1.00  0.00     0.049 A 
ATOM     49  C   UNL     1       8.754   5.550  10.021  1.00  0.00     0.074 A 
ATOM     50  C   UNL     1       9.836   0.408  13.615  1.00  0.00     0.029 A 
ATOM     51  N   UNL     1       9.144   1.800  12.023  1.00  0.00    -0.354 N 
ATOM     52  N   UNL     1       8.899   4.435  10.703  1.00  0.00    -0.248 NA
ATOM     53  C   UNL     1       9.264   6.743  10.705  1.00  0.00     0.031 C 
ATOM     54  C   UNL     1      10.116   1.715  14.015  1.00  0.00     0.029 A 
ATOM     55  C   UNL     1       9.748   2.579  12.994  1.00  0.00     0.049 A 
ATOM     56  H   UNL     1       8.759   2.140  11.183  1.00  0.00     0.167 HD
ATOM     57  C   UNL     1       9.563   4.790  11.875  1.00  0.00     0.074 A 
ATOM     58  C   UNL     1       9.794   6.218  11.799  1.00  0.00     0.031 C 
ATOM     59  C   UNL     1       9.960   4.005  12.910  1.00  0.00     0.034 A 
BRANCH  46  60
ATOM     60  C   UNL     1       8.531  -1.991  12.282  1.00  0.00     0.023 A 
ATOM     61  C   UNL     1       9.099  -3.098  11.628  1.00  0.00     0.031 A 
ATOM     62  C   UNL     1       7.876  -2.209  13.506  1.00  0.00     0.131 A 
ATOM     63  C   UNL     1       8.926  -4.381  12.162  1.00  0.00     0.055 A 
ATOM     64  C   UNL     1       7.805  -3.473  14.086  1.00  0.00     0.041 A 
ATOM     65  F   UNL     1       7.274  -1.196  14.149  1.00  0.00    -0.206 F 
ATOM     66  C   UNL     1       8.317  -4.572  13.405  1.00  0.00     0.022 A 
BRANCH  63  67
ATOM     67  S   UNL     1       9.323  -5.811  11.120  1.00  0.00     0.124 S 
ATOM     68  O   UNL     1       8.474  -5.571   9.955  1.00  0.00    -0.237 OA
ATOM     69  O   UNL     1      10.758  -5.660  10.906  1.00  0.00    -0.237 OA
ATOM     70  O   UNL     1       8.930  -6.954  11.942  1.00  0.00    -0.744 OA
ENDBRANCH  63  67
ENDBRANCH  46  60
BRANCH  47  71
ATOM     71  C   UNL     1       8.106   7.112   8.034  1.00  0.00     0.023 A 
ATOM     72  C   UNL     1       9.276   7.853   7.803  1.00  0.00     0.031 A 
ATOM     73  C   UNL     1       6.873   7.728   7.752  1.00  0.00     0.131 A 
ATOM     74  C   UNL     1       9.186   9.186   7.370  1.00  0.00     0.055 A 
ATOM     75  C   UNL     1       6.793   9.026   7.245  1.00  0.00     0.041 A 
ATOM     76  F   UNL     1       5.720   7.077   7.976  1.00  0.00    -0.206 F 
ATOM     77  C   UNL     1       7.954   9.769   7.066  1.00  0.00     0.022 A 
BRANCH  74  78
ATOM     78  S   UNL     1      10.692  10.198   7.358  1.00  0.00     0.124 S 
ATOM     79  O   UNL     1      11.119  10.102   8.749  1.00  0.00    -0.237 OA
ATOM     80  O   UNL     1      11.521   9.500   6.381  1.00  0.00    -0.237 OA
ATOM     81  O   UNL     1      10.213  11.514   6.941  1.00  0.00    -0.744 OA
ENDBRANCH  74  78
ENDBRANCH  47  71
BRANCH  59  82
ATOM     82  C   UNL     1      10.758   4.659  14.012  1.00  0.00     0.023 A 
ATOM     83  C   UNL     1      10.236   5.698  14.799  1.00  0.00     0.031 A 
ATOM     84  C   UNL     1      12.079   4.242  14.262  1.00  0.00     0.131 A 
ATOM     85  C   UNL     1      11.063   6.349  15.724  1.00  0.00     0.055 A 
ATOM     86  C   UNL     1      12.858   4.820  15.262  1.00  0.00     0.041 A 
ATOM     87  F   UNL     1      12.637   3.259  13.536  1.00  0.00    -0.206 F 
ATOM     88  C   UNL     1      12.359   5.897  15.984  1.00  0.00     0.022 A 
BRANCH  85  89
ATOM     89  S   UNL     1      10.486   7.910  16.444  1.00  0.00     0.124 S 
ATOM     90  O   UNL     1      10.194   8.698  15.251  1.00  0.00    -0.237 OA
ATOM     91  O   UNL     1       9.329   7.485  17.227  1.00  0.00    -0.237 OA
ATOM     92  O   UNL     1      11.631   8.369  17.227  1.00  0.00    -0.744 OA
ENDBRANCH  85  89
ENDBRANCH  59  82
ENDBRANCH  33  34
ENDBRANCH  26  28
ENDBRANCH  25  26
ENDBRANCH  24  25
ENDBRANCH   1  24
TORSDOF 18
