REMARK SMILES CC1=C(C)C[C@@H](C(=O)OCCOCCOC(=O)c2ccc(-c3c4nc(c(-c5cc(S(=O)(=O)[O-])ccc5F)c5ccc([nH]5)c(-c5cc(S(=O)(=O)[O-])ccc5F)c5nc(c(-c6cc(S(=O)(=O)[O-])ccc6F)c6ccc3[nH]6)C=C5)C=C4)cc2)[C@@H](C(=O)NCC[NH+]2CCOCC2)C1
REMARK SMILES IDX 11 1 10 2 9 3 7 4 8 5 6 6 1 7 2 8 3 9 93 10 4 11 5 12 81 13
REMARK SMILES IDX 82 14 83 15 84 16 85 18 86 19 87 20 88 21 92 22 89 24 91 25
REMARK SMILES IDX 90 26 12 27 13 28 14 29 15 30 16 31 17 32 18 33 19 34 80 35
REMARK SMILES IDX 20 36 79 37 21 38 22 39 23 40 73 41 24 42 78 43 72 44 74 45
REMARK SMILES IDX 25 46 77 47 71 48 70 49 26 51 58 52 38 53 57 54 39 55 42 56
REMARK SMILES IDX 56 57 75 58 40 59 41 60 55 62 76 63 43 64 27 65 28 66 36 67
REMARK SMILES IDX 29 68 35 69 37 70 34 71 30 72 31 73 32 74 33 75 59 76 60 77
REMARK SMILES IDX 68 78 61 79 67 80 69 81 66 82 62 83 63 84 64 85 65 86 44 87
REMARK SMILES IDX 45 88 53 89 46 90 52 91 54 92 51 93 47 94 48 95 49 96 50 97
REMARK H PARENT 84 17 87 23 74 50 42 61
REMARK Flexibility Score: inf
ROOT
ATOM      1  C   UNL     1       3.011   3.613   5.760  1.00  0.00     0.202 C 
ENDROOT
BRANCH   1   2
ATOM      2  C   UNL     1       2.107   2.554   5.107  1.00  0.00     0.261 C 
BRANCH   2   3
ATOM      3  O   UNL     1       1.661   2.782   3.745  1.00  0.00    -0.463 OA
BRANCH   3   4
ATOM      4  C   UNL     1       0.384   3.195   3.623  1.00  0.00     0.310 C 
ATOM      5  O   UNL     1      -0.304   3.546   4.585  1.00  0.00    -0.252 OA
BRANCH   4   6
ATOM      6  C   UNL     1      -0.266   3.119   2.243  1.00  0.00     0.116 C 
ATOM      7  C   UNL     1       0.928  -0.407  -0.060  1.00  0.00     0.039 C 
ATOM      8  C   UNL     1       0.230   0.730   0.636  1.00  0.00    -0.074 C 
ATOM      9  C   UNL     1      -0.534   0.638   1.743  1.00  0.00    -0.073 C 
ATOM     10  C   UNL     1       0.391   2.063  -0.051  1.00  0.00     0.045 C 
ATOM     11  C   UNL     1      -0.848  -0.624   2.498  1.00  0.00     0.039 C 
ATOM     12  C   UNL     1      -1.189   1.885   2.280  1.00  0.00     0.046 C 
ATOM     13  C   UNL     1       0.406   3.316   0.861  1.00  0.00     0.097 C 
BRANCH  13  14
ATOM     14  C   UNL     1       1.802   3.919   0.775  1.00  0.00     0.224 C 
ATOM     15  O   UNL     1       2.807   3.231   0.955  1.00  0.00    -0.275 OA
ATOM     16  N   UNL     1       1.997   5.226   0.414  1.00  0.00    -0.350 N 
ATOM     17  H   UNL     1       2.944   5.493   0.400  1.00  0.00     0.163 HD
BRANCH  16  18
ATOM     18  C   UNL     1       1.081   6.306   0.044  1.00  0.00     0.177 C 
BRANCH  18  19
ATOM     19  C   UNL     1       1.094   7.515   1.018  1.00  0.00     0.283 C 
BRANCH  19  20
ATOM     20  N   UNL     1       2.222   8.429   1.051  1.00  0.00    -0.330 N 
ATOM     21  C   UNL     1       3.387   8.354   0.189  1.00  0.00     0.291 C 
ATOM     22  C   UNL     1       2.391   9.303   2.213  1.00  0.00     0.291 C 
ATOM     23  H   UNL     1       1.625   8.784   0.304  1.00  0.00     0.348 HD
ATOM     24  C   UNL     1       4.661   8.098   1.003  1.00  0.00     0.221 C 
ATOM     25  C   UNL     1       3.763   9.161   2.909  1.00  0.00     0.221 C 
ATOM     26  O   UNL     1       4.845   9.137   1.972  1.00  0.00    -0.370 OA
ENDBRANCH  19  20
ENDBRANCH  18  19
ENDBRANCH  16  18
ENDBRANCH  13  14
ENDBRANCH   4   6
ENDBRANCH   3   4
ENDBRANCH   2   3
ENDBRANCH   1   2
BRANCH   1  27
ATOM     27  O   UNL     1       2.522   4.926   5.964  1.00  0.00    -0.374 OA
BRANCH  27  28
ATOM     28  C   UNL     1       2.125   5.723   4.869  1.00  0.00     0.202 C 
BRANCH  28  29
ATOM     29  C   UNL     1       2.721   5.556   3.472  1.00  0.00     0.261 C 
BRANCH  29  30
ATOM     30  O   UNL     1       3.771   4.624   3.253  1.00  0.00    -0.460 OA
BRANCH  30  31
ATOM     31  C   UNL     1       5.025   5.074   3.435  1.00  0.00     0.338 C 
ATOM     32  O   UNL     1       5.351   6.188   3.825  1.00  0.00    -0.246 OA
BRANCH  31  33
ATOM     33  C   UNL     1       5.959   3.954   3.236  1.00  0.00     0.060 A 
ATOM     34  C   UNL     1       6.746   3.579   4.325  1.00  0.00     0.016 A 
ATOM     35  C   UNL     1       6.070   3.284   2.011  1.00  0.00     0.016 A 
ATOM     36  C   UNL     1       7.663   2.542   4.190  1.00  0.00     0.010 A 
ATOM     37  C   UNL     1       7.000   2.245   1.876  1.00  0.00     0.010 A 
ATOM     38  C   UNL     1       7.811   1.878   2.962  1.00  0.00    -0.014 A 
BRANCH  38  39
ATOM     39  C   UNL     1       8.854   0.829   2.847  1.00  0.00     0.031 A 
ATOM     40  C   UNL     1      10.180   1.158   2.219  1.00  0.00     0.074 A 
ATOM     41  C   UNL     1       8.636  -0.387   3.382  1.00  0.00     0.049 A 
ATOM     42  N   UNL     1      11.256   0.420   2.127  1.00  0.00    -0.248 NA
ATOM     43  C   UNL     1      10.311   2.494   1.620  1.00  0.00     0.031 C 
ATOM     44  C   UNL     1       7.390  -0.806   4.026  1.00  0.00     0.029 A 
ATOM     45  N   UNL     1       9.452  -1.484   3.487  1.00  0.00    -0.354 N 
ATOM     46  C   UNL     1      12.198   1.202   1.467  1.00  0.00     0.074 A 
ATOM     47  C   UNL     1      11.551   2.459   1.151  1.00  0.00     0.031 C 
ATOM     48  C   UNL     1       7.529  -2.068   4.467  1.00  0.00     0.029 A 
ATOM     49  C   UNL     1       8.860  -2.557   4.112  1.00  0.00     0.049 A 
ATOM     50  H   UNL     1      10.376  -1.502   3.146  1.00  0.00     0.167 HD
ATOM     51  C   UNL     1      13.483   0.897   1.163  1.00  0.00     0.034 A 
ATOM     52  C   UNL     1       9.332  -3.795   4.360  1.00  0.00     0.034 A 
ATOM     53  C   UNL     1      14.106  -0.366   1.479  1.00  0.00     0.049 A 
ATOM     54  C   UNL     1      10.752  -4.123   3.966  1.00  0.00     0.074 A 
ATOM     55  C   UNL     1      15.413  -0.763   1.251  1.00  0.00     0.029 A 
ATOM     56  N   UNL     1      13.464  -1.447   2.072  1.00  0.00    -0.354 N 
ATOM     57  N   UNL     1      11.648  -3.354   3.391  1.00  0.00    -0.248 NA
ATOM     58  C   UNL     1      11.229  -5.479   4.269  1.00  0.00     0.031 C 
ATOM     59  C   UNL     1      15.539  -2.103   1.634  1.00  0.00     0.029 A 
ATOM     60  C   UNL     1      14.335  -2.521   2.178  1.00  0.00     0.049 A 
ATOM     61  H   UNL     1      12.527  -1.449   2.373  1.00  0.00     0.167 HD
ATOM     62  C   UNL     1      12.802  -4.127   3.288  1.00  0.00     0.074 A 
ATOM     63  C   UNL     1      12.493  -5.413   3.879  1.00  0.00     0.031 C 
ATOM     64  C   UNL     1      14.009  -3.803   2.757  1.00  0.00     0.034 A 
BRANCH  51  65
ATOM     65  C   UNL     1      14.286   1.926   0.404  1.00  0.00     0.023 A 
ATOM     66  C   UNL     1      14.635   3.166   0.967  1.00  0.00     0.031 A 
ATOM     67  C   UNL     1      14.713   1.655  -0.909  1.00  0.00     0.131 A 
ATOM     68  C   UNL     1      15.344   4.107   0.203  1.00  0.00     0.055 A 
ATOM     69  C   UNL     1      15.476   2.568  -1.640  1.00  0.00     0.041 A 
ATOM     70  F   UNL     1      14.391   0.497  -1.507  1.00  0.00    -0.206 F 
ATOM     71  C   UNL     1      15.787   3.807  -1.088  1.00  0.00     0.022 A 
BRANCH  68  72
ATOM     72  S   UNL     1      15.586   5.774   0.876  1.00  0.00     0.124 S 
ATOM     73  O   UNL     1      14.208   6.215   1.076  1.00  0.00    -0.237 OA
ATOM     74  O   UNL     1      16.358   5.517   2.086  1.00  0.00    -0.237 OA
ATOM     75  O   UNL     1      16.308   6.472  -0.187  1.00  0.00    -0.744 OA
ENDBRANCH  68  72
ENDBRANCH  51  65
BRANCH  52  76
ATOM     76  C   UNL     1       8.450  -4.832   4.971  1.00  0.00     0.023 A 
ATOM     77  C   UNL     1       8.751  -5.420   6.210  1.00  0.00     0.031 A 
ATOM     78  C   UNL     1       7.313  -5.296   4.283  1.00  0.00     0.131 A 
ATOM     79  C   UNL     1       7.956  -6.470   6.698  1.00  0.00     0.055 A 
ATOM     80  C   UNL     1       6.493  -6.300   4.799  1.00  0.00     0.041 A 
ATOM     81  F   UNL     1       6.979  -4.772   3.093  1.00  0.00    -0.206 F 
ATOM     82  C   UNL     1       6.822  -6.904   6.008  1.00  0.00     0.022 A 
BRANCH  79  83
ATOM     83  S   UNL     1       8.484  -7.336   8.203  1.00  0.00     0.124 S 
ATOM     84  O   UNL     1       9.833  -7.759   7.845  1.00  0.00    -0.237 OA
ATOM     85  O   UNL     1       8.386  -6.283   9.208  1.00  0.00    -0.237 OA
ATOM     86  O   UNL     1       7.506  -8.414   8.335  1.00  0.00    -0.744 OA
ENDBRANCH  79  83
ENDBRANCH  52  76
BRANCH  64  87
ATOM     87  C   UNL     1      15.093  -4.852   2.829  1.00  0.00     0.023 A 
ATOM     88  C   UNL     1      15.009  -6.057   2.110  1.00  0.00     0.031 A 
ATOM     89  C   UNL     1      16.223  -4.645   3.641  1.00  0.00     0.131 A 
ATOM     90  C   UNL     1      16.007  -7.032   2.259  1.00  0.00     0.055 A 
ATOM     91  C   UNL     1      17.243  -5.592   3.738  1.00  0.00     0.041 A 
ATOM     92  F   UNL     1      16.356  -3.514   4.353  1.00  0.00    -0.206 F 
ATOM     93  C   UNL     1      17.132  -6.800   3.055  1.00  0.00     0.022 A 
BRANCH  90  94
ATOM     94  S   UNL     1      15.772  -8.648   1.470  1.00  0.00     0.124 S 
ATOM     95  O   UNL     1      14.518  -9.098   2.065  1.00  0.00    -0.237 OA
ATOM     96  O   UNL     1      15.717  -8.300   0.054  1.00  0.00    -0.237 OA
ATOM     97  O   UNL     1      16.956  -9.404   1.876  1.00  0.00    -0.744 OA
ENDBRANCH  90  94
ENDBRANCH  64  87
ENDBRANCH  38  39
ENDBRANCH  31  33
ENDBRANCH  30  31
ENDBRANCH  29  30
ENDBRANCH  28  29
ENDBRANCH  27  28
ENDBRANCH   1  27
TORSDOF 21
