REMARK SMILES O=C(OCCOCCOC(=O)c1cc(-c2cccc(Cl)c2)oc1C(F)(F)F)c1ccc(-c2c3nc(c(-c4cc(S(=O)(=O)[O-])ccc4F)c4ccc([nH]4)c(-c4cc(S(=O)(=O)[O-])ccc4F)c4nc(c(-c5cc(S(=O)(=O)[O-])ccc5F)c5ccc2[nH]5)C=C4)C=C3)cc1
REMARK SMILES IDX 5 1 4 2 3 3 2 4 1 5 28 6 29 7 90 8 30 9 89 10 31 11 32 12
REMARK SMILES IDX 33 13 83 14 34 15 88 16 82 17 84 18 35 19 87 20 81 21 80 22
REMARK SMILES IDX 36 24 68 25 48 26 67 27 49 28 52 29 66 30 85 31 50 32 51 33
REMARK SMILES IDX 65 35 86 36 53 37 37 38 38 39 46 40 39 41 45 42 47 43 44 44
REMARK SMILES IDX 40 45 41 46 42 47 43 48 69 49 70 50 78 51 71 52 77 53 79 54
REMARK SMILES IDX 76 55 72 56 73 57 74 58 75 59 54 60 55 61 63 62 56 63 62 64
REMARK SMILES IDX 64 65 61 66 57 67 58 68 59 69 60 70 6 71 7 72 8 73 9 74
REMARK SMILES IDX 10 75 11 76 12 77 13 78 23 79 14 80 22 81 24 82 25 83 26 84
REMARK SMILES IDX 27 85 15 86 16 87 21 88 17 89 19 90 18 91 20 92
REMARK H PARENT 84 23 52 34
REMARK Flexibility Score: inf
ROOT
ATOM      1  C   UNL     1       3.968  -0.651  -1.385  1.00  0.00     0.202 C 
ENDROOT
BRANCH   1   2
ATOM      2  C   UNL     1       3.643  -1.377  -0.079  1.00  0.00     0.261 C 
BRANCH   2   3
ATOM      3  O   UNL     1       2.291  -1.097   0.315  1.00  0.00    -0.460 OA
BRANCH   3   4
ATOM      4  C   UNL     1       1.847  -0.122   1.144  1.00  0.00     0.338 C 
ATOM      5  O   UNL     1       0.630   0.022   1.262  1.00  0.00    -0.246 OA
BRANCH   4   6
ATOM      6  C   UNL     1       2.735   0.778   1.948  1.00  0.00     0.060 A 
ATOM      7  C   UNL     1       4.031   1.167   1.601  1.00  0.00     0.016 A 
ATOM      8  C   UNL     1       2.175   1.337   3.112  1.00  0.00     0.016 A 
ATOM      9  C   UNL     1       4.769   2.032   2.397  1.00  0.00     0.010 A 
ATOM     10  C   UNL     1       2.902   2.229   3.909  1.00  0.00     0.010 A 
ATOM     11  C   UNL     1       4.213   2.559   3.558  1.00  0.00    -0.014 A 
BRANCH  11  12
ATOM     12  C   UNL     1       5.106   3.330   4.441  1.00  0.00     0.031 A 
ATOM     13  C   UNL     1       5.714   2.622   5.613  1.00  0.00     0.074 A 
ATOM     14  C   UNL     1       5.487   4.569   4.080  1.00  0.00     0.049 A 
ATOM     15  N   UNL     1       6.563   3.061   6.500  1.00  0.00    -0.248 NA
ATOM     16  C   UNL     1       5.322   1.214   5.794  1.00  0.00     0.031 C 
ATOM     17  C   UNL     1       5.036   5.266   2.873  1.00  0.00     0.029 A 
ATOM     18  N   UNL     1       6.372   5.439   4.657  1.00  0.00    -0.354 N 
ATOM     19  C   UNL     1       6.797   1.990   7.356  1.00  0.00     0.074 A 
ATOM     20  C   UNL     1       5.987   0.887   6.889  1.00  0.00     0.031 C 
ATOM     21  C   UNL     1       5.675   6.444   2.783  1.00  0.00     0.029 A 
ATOM     22  C   UNL     1       6.530   6.611   3.953  1.00  0.00     0.049 A 
ATOM     23  H   UNL     1       6.850   5.245   5.495  1.00  0.00     0.167 HD
ATOM     24  C   UNL     1       7.611   1.946   8.438  1.00  0.00     0.034 A 
ATOM     25  C   UNL     1       7.271   7.698   4.245  1.00  0.00     0.034 A 
ATOM     26  C   UNL     1       8.379   3.083   8.880  1.00  0.00     0.049 A 
ATOM     27  C   UNL     1       8.090   7.660   5.511  1.00  0.00     0.074 A 
ATOM     28  C   UNL     1       9.162   3.218  10.011  1.00  0.00     0.029 A 
ATOM     29  N   UNL     1       8.450   4.295   8.198  1.00  0.00    -0.354 N 
ATOM     30  N   UNL     1       8.238   6.674   6.370  1.00  0.00    -0.248 NA
ATOM     31  C   UNL     1       8.835   8.875   5.853  1.00  0.00     0.031 C 
ATOM     32  C   UNL     1       9.658   4.528  10.042  1.00  0.00     0.029 A 
ATOM     33  C   UNL     1       9.245   5.190   8.894  1.00  0.00     0.049 A 
ATOM     34  H   UNL     1       8.000   4.488   7.344  1.00  0.00     0.167 HD
ATOM     35  C   UNL     1       9.111   7.145   7.344  1.00  0.00     0.074 A 
ATOM     36  C   UNL     1       9.473   8.495   6.951  1.00  0.00     0.031 C 
ATOM     37  C   UNL     1       9.573   6.531   8.465  1.00  0.00     0.034 A 
BRANCH  24  38
ATOM     38  C   UNL     1       7.592   0.671   9.246  1.00  0.00     0.023 A 
ATOM     39  C   UNL     1       8.036  -0.556   8.717  1.00  0.00     0.031 A 
ATOM     40  C   UNL     1       7.006   0.662  10.524  1.00  0.00     0.131 A 
ATOM     41  C   UNL     1       7.801  -1.747   9.422  1.00  0.00     0.055 A 
ATOM     42  C   UNL     1       6.850  -0.517  11.255  1.00  0.00     0.041 A 
ATOM     43  F   UNL     1       6.533   1.795  11.066  1.00  0.00    -0.206 F 
ATOM     44  C   UNL     1       7.231  -1.734  10.698  1.00  0.00     0.022 A 
BRANCH  41  45
ATOM     45  S   UNL     1       8.084  -3.330   8.578  1.00  0.00     0.124 S 
ATOM     46  O   UNL     1       7.183  -3.219   7.433  1.00  0.00    -0.237 OA
ATOM     47  O   UNL     1       9.509  -3.278   8.277  1.00  0.00    -0.237 OA
ATOM     48  O   UNL     1       7.692  -4.326   9.574  1.00  0.00    -0.744 OA
ENDBRANCH  41  45
ENDBRANCH  24  38
BRANCH  25  49
ATOM     49  C   UNL     1       7.230   8.913   3.376  1.00  0.00     0.023 A 
ATOM     50  C   UNL     1       8.388   9.422   2.765  1.00  0.00     0.031 A 
ATOM     51  C   UNL     1       6.026   9.618   3.182  1.00  0.00     0.131 A 
ATOM     52  C   UNL     1       8.325  10.617   2.026  1.00  0.00     0.055 A 
ATOM     53  C   UNL     1       5.958  10.773   2.402  1.00  0.00     0.041 A 
ATOM     54  F   UNL     1       4.887   9.186   3.747  1.00  0.00    -0.206 F 
ATOM     55  C   UNL     1       7.115  11.287   1.830  1.00  0.00     0.022 A 
BRANCH  52  56
ATOM     56  S   UNL     1       9.866  11.342   1.399  1.00  0.00     0.124 S 
ATOM     57  O   UNL     1      10.652  11.476   2.620  1.00  0.00    -0.237 OA
ATOM     58  O   UNL     1      10.315  10.325   0.453  1.00  0.00    -0.237 OA
ATOM     59  O   UNL     1       9.431  12.600   0.796  1.00  0.00    -0.744 OA
ENDBRANCH  52  56
ENDBRANCH  25  49
BRANCH  37  60
ATOM     60  C   UNL     1      10.548   7.315   9.304  1.00  0.00     0.023 A 
ATOM     61  C   UNL     1      10.154   8.466  10.007  1.00  0.00     0.031 A 
ATOM     62  C   UNL     1      11.892   6.912   9.382  1.00  0.00     0.131 A 
ATOM     63  C   UNL     1      11.111   9.213  10.707  1.00  0.00     0.055 A 
ATOM     64  C   UNL     1      12.827   7.625  10.131  1.00  0.00     0.041 A 
ATOM     65  F   UNL     1      12.317   5.819   8.729  1.00  0.00    -0.206 F 
ATOM     66  C   UNL     1      12.441   8.792  10.787  1.00  0.00     0.022 A 
BRANCH  63  67
ATOM     67  S   UNL     1      10.614  10.801  11.428  1.00  0.00     0.124 S 
ATOM     68  O   UNL     1      10.113  11.521  10.261  1.00  0.00    -0.237 OA
ATOM     69  O   UNL     1       9.609  10.397  12.407  1.00  0.00    -0.237 OA
ATOM     70  O   UNL     1      11.855  11.324  11.994  1.00  0.00    -0.744 OA
ENDBRANCH  63  67
ENDBRANCH  37  60
ENDBRANCH  11  12
ENDBRANCH   4   6
ENDBRANCH   3   4
ENDBRANCH   2   3
ENDBRANCH   1   2
BRANCH   1  71
ATOM     71  O   UNL     1       3.773   0.759  -1.308  1.00  0.00    -0.374 OA
BRANCH  71  72
ATOM     72  C   UNL     1       2.528   1.265  -1.788  1.00  0.00     0.202 C 
BRANCH  72  73
ATOM     73  C   UNL     1       2.818   2.299  -2.878  1.00  0.00     0.261 C 
BRANCH  73  74
ATOM     74  O   UNL     1       3.398   1.620  -4.002  1.00  0.00    -0.460 OA
BRANCH  74  75
ATOM     75  C   UNL     1       4.737   1.368  -3.909  1.00  0.00     0.342 C 
ATOM     76  O   UNL     1       5.529   1.968  -3.200  1.00  0.00    -0.246 OA
BRANCH  75  77
ATOM     77  C   UNL     1       5.092   0.245  -4.745  1.00  0.00     0.111 A 
ATOM     78  C   UNL     1       4.391  -0.188  -5.902  1.00  0.00     0.067 A 
ATOM     79  C   UNL     1       6.151  -0.638  -4.582  1.00  0.00     0.223 A 
ATOM     80  C   UNL     1       5.115  -1.222  -6.438  1.00  0.00     0.135 A 
ATOM     81  O   UNL     1       6.151  -1.545  -5.621  1.00  0.00    -0.451 OA
BRANCH  79  82
ATOM     82  C   UNL     1       7.215  -0.827  -3.557  1.00  0.00     0.450 C 
ATOM     83  F   UNL     1       7.047  -2.012  -2.906  1.00  0.00    -0.163 F 
ATOM     84  F   UNL     1       8.453  -0.861  -4.112  1.00  0.00    -0.163 F 
ATOM     85  F   UNL     1       7.237   0.126  -2.599  1.00  0.00    -0.163 F 
ENDBRANCH  79  82
BRANCH  80  86
ATOM     86  C   UNL     1       5.040  -1.887  -7.720  1.00  0.00     0.019 A 
ATOM     87  C   UNL     1       4.991  -1.084  -8.871  1.00  0.00     0.012 A 
ATOM     88  C   UNL     1       4.988  -3.276  -7.843  1.00  0.00     0.032 A 
ATOM     89  C   UNL     1       4.891  -1.656 -10.135  1.00  0.00     0.002 A 
ATOM     90  C   UNL     1       4.874  -3.844  -9.114  1.00  0.00     0.041 A 
ATOM     91  C   UNL     1       4.828  -3.041 -10.256  1.00  0.00     0.020 A 
ATOM     92  Cl  UNL     1       4.775  -5.554  -9.282  1.00  0.00    -0.084 Cl
ENDBRANCH  80  86
ENDBRANCH  75  77
ENDBRANCH  74  75
ENDBRANCH  73  74
ENDBRANCH  72  73
ENDBRANCH  71  72
ENDBRANCH   1  71
TORSDOF 19
