REMARK SMILES CC(C)(C)c1cc2c(cc1Cl)C=C(C(=O)OCCOCCOC(=O)c1ccc(-c3c4nc(c(-c5cc(S(=O)(=O)[O-])ccc5F)c5ccc([nH]5)c(-c5cc(S(=O)(=O)[O-])ccc5F)c5nc(c(-c6cc(S(=O)(=O)[O-])ccc6F)c6ccc3[nH]6)C=C5)C=C4)cc1)[C@@H](C(F)(F)F)O2
REMARK SMILES IDX 20 1 19 2 18 3 17 4 16 5 14 6 15 7 13 8 5 9 6 10 10 11 7 12
REMARK SMILES IDX 9 13 11 14 8 15 93 16 12 17 88 18 2 19 1 20 3 21 4 22 89 23
REMARK SMILES IDX 90 24 91 25 92 26 21 27 22 28 23 29 24 30 25 31 26 32 87 33
REMARK SMILES IDX 27 34 86 35 28 36 29 37 30 38 80 39 31 40 85 41 79 42 81 43
REMARK SMILES IDX 32 44 84 45 78 46 77 47 33 49 65 50 45 51 64 52 46 53 49 54
REMARK SMILES IDX 63 55 82 56 47 57 48 58 62 60 83 61 50 62 34 63 35 64 43 65
REMARK SMILES IDX 36 66 42 67 44 68 41 69 37 70 38 71 39 72 40 73 66 74 67 75
REMARK SMILES IDX 75 76 68 77 74 78 76 79 73 80 69 81 70 82 71 83 72 84 51 85
REMARK SMILES IDX 52 86 60 87 53 88 59 89 61 90 58 91 54 92 55 93 56 94 57 95
REMARK H PARENT 81 48 49 59
REMARK Flexibility Score: inf
ROOT
ATOM      1  C   UNL     1       4.578   2.533  -8.424  1.00  0.00     0.202 C 
ENDROOT
BRANCH   1   2
ATOM      2  O   UNL     1       4.230   2.795  -9.782  1.00  0.00    -0.374 OA
BRANCH   2   3
ATOM      3  C   UNL     1       3.483   3.972 -10.080  1.00  0.00     0.202 C 
BRANCH   3   4
ATOM      4  C   UNL     1       1.992   3.985  -9.727  1.00  0.00     0.261 C 
BRANCH   4   5
ATOM      5  O   UNL     1       1.759   3.679  -8.344  1.00  0.00    -0.460 OA
BRANCH   5   6
ATOM      6  C   UNL     1       1.189   2.470  -8.133  1.00  0.00     0.338 C 
ATOM      7  O   UNL     1       0.775   1.693  -8.978  1.00  0.00    -0.246 OA
BRANCH   6   8
ATOM      8  C   UNL     1       1.263   2.126  -6.701  1.00  0.00     0.087 C 
ATOM      9  C   UNL     1       1.028  -0.585  -2.450  1.00  0.00    -0.020 A 
ATOM     10  C   UNL     1       0.889   0.790  -2.793  1.00  0.00     0.053 A 
ATOM     11  C   UNL     1       1.512  -1.428  -3.473  1.00  0.00     0.045 A 
ATOM     12  C   UNL     1       1.140   1.282  -4.077  1.00  0.00     0.128 A 
ATOM     13  C   UNL     1       1.774  -0.926  -4.759  1.00  0.00     0.032 A 
ATOM     14  Cl  UNL     1       1.785  -3.130  -3.338  1.00  0.00    -0.084 Cl
ATOM     15  C   UNL     1       1.550   0.412  -5.072  1.00  0.00     0.019 A 
ATOM     16  O   UNL     1       0.933   2.617  -4.277  1.00  0.00    -0.475 OA
ATOM     17  C   UNL     1       1.633   0.866  -6.443  1.00  0.00     0.027 C 
ATOM     18  C   UNL     1       0.894   3.129  -5.643  1.00  0.00     0.316 C 
BRANCH   9  19
ATOM     19  C   UNL     1       0.528  -1.014  -1.046  1.00  0.00    -0.012 C 
ATOM     20  C   UNL     1       1.043  -0.048   0.052  1.00  0.00     0.016 C 
ATOM     21  C   UNL     1       0.913  -2.424  -0.551  1.00  0.00     0.016 C 
ATOM     22  C   UNL     1      -1.019  -0.957  -1.073  1.00  0.00     0.016 C 
ENDBRANCH   9  19
BRANCH  18  23
ATOM     23  C   UNL     1      -0.488   3.758  -5.879  1.00  0.00     0.430 C 
ATOM     24  F   UNL     1      -0.808   4.621  -4.886  1.00  0.00    -0.167 F 
ATOM     25  F   UNL     1      -0.533   4.456  -7.036  1.00  0.00    -0.167 F 
ATOM     26  F   UNL     1      -1.461   2.819  -5.931  1.00  0.00    -0.167 F 
ENDBRANCH  18  23
ENDBRANCH   6   8
ENDBRANCH   5   6
ENDBRANCH   4   5
ENDBRANCH   3   4
ENDBRANCH   2   3
ENDBRANCH   1   2
BRANCH   1  27
ATOM     27  C   UNL     1       5.611   3.432  -7.732  1.00  0.00     0.261 C 
BRANCH  27  28
ATOM     28  O   UNL     1       5.174   4.793  -7.593  1.00  0.00    -0.460 OA
BRANCH  28  29
ATOM     29  C   UNL     1       5.815   5.679  -8.398  1.00  0.00     0.338 C 
ATOM     30  O   UNL     1       6.712   5.434  -9.190  1.00  0.00    -0.246 OA
BRANCH  29  31
ATOM     31  C   UNL     1       5.123   6.979  -8.336  1.00  0.00     0.060 A 
ATOM     32  C   UNL     1       4.923   7.633  -7.120  1.00  0.00     0.016 A 
ATOM     33  C   UNL     1       4.701   7.563  -9.538  1.00  0.00     0.016 A 
ATOM     34  C   UNL     1       4.318   8.892  -7.115  1.00  0.00     0.010 A 
ATOM     35  C   UNL     1       4.099   8.822  -9.530  1.00  0.00     0.010 A 
ATOM     36  C   UNL     1       3.921   9.505  -8.319  1.00  0.00    -0.014 A 
BRANCH  36  37
ATOM     37  C   UNL     1       3.462  10.917  -8.319  1.00  0.00     0.031 A 
ATOM     38  C   UNL     1       2.029  11.280  -8.565  1.00  0.00     0.074 A 
ATOM     39  C   UNL     1       4.378  11.882  -8.111  1.00  0.00     0.049 A 
ATOM     40  N   UNL     1       1.465  12.459  -8.512  1.00  0.00    -0.248 NA
ATOM     41  C   UNL     1       1.111  10.188  -8.922  1.00  0.00     0.031 C 
ATOM     42  C   UNL     1       5.808  11.639  -7.918  1.00  0.00     0.029 A 
ATOM     43  N   UNL     1       4.255  13.246  -8.022  1.00  0.00    -0.354 N 
ATOM     44  C   UNL     1       0.124  12.255  -8.810  1.00  0.00     0.074 A 
ATOM     45  C   UNL     1      -0.030  10.844  -9.097  1.00  0.00     0.031 C 
ATOM     46  C   UNL     1       6.424  12.809  -7.697  1.00  0.00     0.029 A 
ATOM     47  C   UNL     1       5.445  13.891  -7.773  1.00  0.00     0.049 A 
ATOM     48  H   UNL     1       3.398  13.718  -8.127  1.00  0.00     0.167 HD
ATOM     49  C   UNL     1      -0.882  13.162  -8.819  1.00  0.00     0.034 A 
ATOM     50  C   UNL     1       5.722  15.203  -7.619  1.00  0.00     0.034 A 
ATOM     51  C   UNL     1      -0.699  14.567  -8.541  1.00  0.00     0.049 A 
ATOM     52  C   UNL     1       4.587  16.194  -7.655  1.00  0.00     0.074 A 
ATOM     53  C   UNL     1      -1.667  15.554  -8.472  1.00  0.00     0.029 A 
ATOM     54  N   UNL     1       0.518  15.189  -8.300  1.00  0.00    -0.354 N 
ATOM     55  N   UNL     1       3.304  15.971  -7.816  1.00  0.00    -0.248 NA
ATOM     56  C   UNL     1       4.927  17.612  -7.471  1.00  0.00     0.031 C 
ATOM     57  C   UNL     1      -1.031  16.779  -8.277  1.00  0.00     0.029 A 
ATOM     58  C   UNL     1       0.327  16.551  -8.122  1.00  0.00     0.049 A 
ATOM     59  H   UNL     1       1.389  14.731  -8.260  1.00  0.00     0.167 HD
ATOM     60  C   UNL     1       2.682  17.213  -7.724  1.00  0.00     0.074 A 
ATOM     61  C   UNL     1       3.728  18.180  -7.467  1.00  0.00     0.031 C 
ATOM     62  C   UNL     1       1.366  17.518  -7.846  1.00  0.00     0.034 A 
BRANCH  49  63
ATOM     63  C   UNL     1      -2.289  12.693  -9.108  1.00  0.00     0.023 A 
ATOM     64  C   UNL     1      -3.003  13.229 -10.197  1.00  0.00     0.031 A 
ATOM     65  C   UNL     1      -2.977  11.854  -8.213  1.00  0.00     0.131 A 
ATOM     66  C   UNL     1      -4.371  12.961 -10.334  1.00  0.00     0.055 A 
ATOM     67  C   UNL     1      -4.328  11.550  -8.382  1.00  0.00     0.041 A 
ATOM     68  F   UNL     1      -2.345  11.323  -7.153  1.00  0.00    -0.206 F 
ATOM     69  C   UNL     1      -5.035  12.118  -9.437  1.00  0.00     0.022 A 
BRANCH  66  70
ATOM     70  S   UNL     1      -5.361  13.767 -11.623  1.00  0.00     0.124 S 
ATOM     71  O   UNL     1      -5.890  12.618 -12.355  1.00  0.00    -0.237 OA
ATOM     72  O   UNL     1      -6.341  14.509 -10.835  1.00  0.00    -0.237 OA
ATOM     73  O   UNL     1      -4.393  14.576 -12.354  1.00  0.00    -0.744 OA
ENDBRANCH  66  70
ENDBRANCH  49  63
BRANCH  50  74
ATOM     74  C   UNL     1       7.130  15.617  -7.347  1.00  0.00     0.023 A 
ATOM     75  C   UNL     1       8.154  15.337  -8.271  1.00  0.00     0.031 A 
ATOM     76  C   UNL     1       7.491  16.186  -6.115  1.00  0.00     0.131 A 
ATOM     77  C   UNL     1       9.492  15.553  -7.916  1.00  0.00     0.055 A 
ATOM     78  C   UNL     1       8.819  16.476  -5.798  1.00  0.00     0.041 A 
ATOM     79  F   UNL     1       6.553  16.456  -5.193  1.00  0.00    -0.206 F 
ATOM     80  C   UNL     1       9.830  16.140  -6.693  1.00  0.00     0.022 A 
BRANCH  77  81
ATOM     81  S   UNL     1      10.839  14.942  -8.966  1.00  0.00     0.124 S 
ATOM     82  O   UNL     1      11.576  16.167  -9.261  1.00  0.00    -0.237 OA
ATOM     83  O   UNL     1      11.510  14.003  -8.069  1.00  0.00    -0.237 OA
ATOM     84  O   UNL     1      10.147  14.333 -10.096  1.00  0.00    -0.744 OA
ENDBRANCH  77  81
ENDBRANCH  50  74
BRANCH  62  85
ATOM     85  C   UNL     1       0.931  18.960  -7.698  1.00  0.00     0.023 A 
ATOM     86  C   UNL     1       0.008  19.313  -6.693  1.00  0.00     0.031 A 
ATOM     87  C   UNL     1       1.286  19.938  -8.643  1.00  0.00     0.131 A 
ATOM     88  C   UNL     1      -0.572  20.588  -6.693  1.00  0.00     0.055 A 
ATOM     89  C   UNL     1       0.752  21.227  -8.601  1.00  0.00     0.041 A 
ATOM     90  F   UNL     1       2.152  19.651  -9.629  1.00  0.00    -0.206 F 
ATOM     91  C   UNL     1      -0.197  21.550  -7.635  1.00  0.00     0.022 A 
BRANCH  88  92
ATOM     92  S   UNL     1      -1.912  21.007  -5.543  1.00  0.00     0.124 S 
ATOM     93  O   UNL     1      -1.345  22.141  -4.818  1.00  0.00    -0.237 OA
ATOM     94  O   UNL     1      -3.006  21.334  -6.454  1.00  0.00    -0.237 OA
ATOM     95  O   UNL     1      -2.092  19.793  -4.754  1.00  0.00    -0.744 OA
ENDBRANCH  88  92
ENDBRANCH  62  85
ENDBRANCH  36  37
ENDBRANCH  29  31
ENDBRANCH  28  29
ENDBRANCH  27  28
ENDBRANCH   1  27
TORSDOF 19
