REMARK SMILES O=C(C[C@]1(C(=O)NC2CCCCC2)CC(c2ccc([N+](=O)[O-])cc2)=NO1)OCCOCCOC(=O)c1ccc(-c2c3nc(c(-c4cc(S(=O)(=O)[O-])ccc4F)c4ccc([nH]4)c(-c4cc(S(=O)(=O)[O-])ccc4F)c4nc(c(-c5cc(S(=O)(=O)[O-])ccc5F)c5ccc2[nH]5)C=C4)C=C3)cc1
REMARK SMILES IDX 30 1 29 2 28 3 27 4 2 5 1 6 3 7 4 8 14 9 26 10 15 11 25 12
REMARK SMILES IDX 5 13 6 14 7 15 8 17 9 18 13 19 10 20 12 21 11 22 16 23 17 24
REMARK SMILES IDX 24 25 18 26 23 27 19 28 20 29 21 30 22 31 31 32 32 33 33 34
REMARK SMILES IDX 34 35 35 36 36 37 37 38 98 39 38 40 97 41 39 42 40 43 41 44
REMARK SMILES IDX 91 45 42 46 96 47 90 48 92 49 43 50 95 51 89 52 88 53 44 55
REMARK SMILES IDX 76 56 56 57 75 58 57 59 60 60 74 61 93 62 58 63 59 64 73 66
REMARK SMILES IDX 94 67 61 68 45 69 46 70 54 71 47 72 53 73 55 74 52 75 48 76
REMARK SMILES IDX 49 77 50 78 51 79 77 80 78 81 86 82 79 83 85 84 87 85 84 86
REMARK SMILES IDX 80 87 81 88 82 89 83 90 62 91 63 92 71 93 64 94 70 95 72 96
REMARK SMILES IDX 69 97 65 98 66 99 67 100 68 101
REMARK H PARENT 7 16 92 54 60 65
REMARK Flexibility Score: inf
ROOT
ATOM      1  O   UNL     1       5.969   2.816  -3.592  1.00  0.00    -0.374 OA
ENDROOT
BRANCH   1   2
ATOM      2  C   UNL     1       7.221   2.456  -3.000  1.00  0.00     0.202 C 
BRANCH   2   3
ATOM      3  C   UNL     1       7.148   1.434  -1.864  1.00  0.00     0.261 C 
BRANCH   3   4
ATOM      4  O   UNL     1       6.940   0.093  -2.322  1.00  0.00    -0.463 OA
BRANCH   4   5
ATOM      5  C   UNL     1       5.854  -0.572  -1.836  1.00  0.00     0.310 C 
ATOM      6  O   UNL     1       5.926  -1.738  -1.466  1.00  0.00    -0.252 OA
BRANCH   5   7
ATOM      7  C   UNL     1       4.542   0.085  -2.168  1.00  0.00     0.185 C 
BRANCH   7   8
ATOM      8  C   UNL     1       3.576   0.597  -1.113  1.00  0.00     0.231 C 
ATOM      9  C   UNL     1       3.308   2.108  -1.111  1.00  0.00     0.123 C 
ATOM     10  O   UNL     1       4.166   0.359   0.180  1.00  0.00    -0.378 OA
ATOM     11  C   UNL     1       4.222   2.532  -0.011  1.00  0.00     0.092 C 
ATOM     12  N   UNL     1       4.728   1.564   0.677  1.00  0.00    -0.089 NA
BRANCH   8  13
ATOM     13  C   UNL     1       2.224  -0.164  -1.227  1.00  0.00     0.268 C 
ATOM     14  O   UNL     1       1.728  -0.704  -0.228  1.00  0.00    -0.270 OA
ATOM     15  N   UNL     1       1.467  -0.316  -2.355  1.00  0.00    -0.350 N 
ATOM     16  H   UNL     1       0.769  -0.989  -2.182  1.00  0.00     0.163 HD
BRANCH  15  17
ATOM     17  C   UNL     1       1.325   0.176  -3.751  1.00  0.00     0.082 C 
ATOM     18  C   UNL     1       0.456   1.441  -3.815  1.00  0.00     0.025 C 
ATOM     19  C   UNL     1       2.605   0.339  -4.551  1.00  0.00     0.025 C 
ATOM     20  C   UNL     1       0.316   2.006  -5.235  1.00  0.00     0.002 C 
ATOM     21  C   UNL     1       2.417   0.894  -5.960  1.00  0.00     0.002 C 
ATOM     22  C   UNL     1       1.668   2.217  -5.904  1.00  0.00     0.000 C 
ENDBRANCH  15  17
ENDBRANCH   8  13
BRANCH  11  23
ATOM     23  C   UNL     1       4.505   3.954   0.282  1.00  0.00    -0.000 A 
ATOM     24  C   UNL     1       5.817   4.447   0.246  1.00  0.00     0.017 A 
ATOM     25  C   UNL     1       3.459   4.782   0.701  1.00  0.00     0.017 A 
ATOM     26  C   UNL     1       6.084   5.777   0.603  1.00  0.00     0.086 A 
ATOM     27  C   UNL     1       3.723   6.104   1.085  1.00  0.00     0.086 A 
ATOM     28  C   UNL     1       5.035   6.599   1.034  1.00  0.00     0.269 A 
BRANCH  28  29
ATOM     29  N   UNL     1       5.309   7.978   1.466  1.00  0.00     0.062 N 
ATOM     30  O   UNL     1       6.449   8.425   1.287  1.00  0.00    -0.258 OA
ATOM     31  O   UNL     1       4.377   8.611   1.986  1.00  0.00    -0.258 OA
ENDBRANCH  28  29
ENDBRANCH  11  23
ENDBRANCH   7   8
ENDBRANCH   5   7
ENDBRANCH   4   5
ENDBRANCH   3   4
ENDBRANCH   2   3
ENDBRANCH   1   2
BRANCH   1  32
ATOM     32  C   UNL     1       5.598   2.079  -4.758  1.00  0.00     0.202 C 
BRANCH  32  33
ATOM     33  C   UNL     1       6.010   2.570  -6.144  1.00  0.00     0.261 C 
BRANCH  33  34
ATOM     34  O   UNL     1       7.340   3.031  -6.159  1.00  0.00    -0.460 OA
BRANCH  34  35
ATOM     35  C   UNL     1       7.455   4.307  -5.707  1.00  0.00     0.338 C 
ATOM     36  O   UNL     1       6.572   5.120  -5.543  1.00  0.00    -0.246 OA
BRANCH  35  37
ATOM     37  C   UNL     1       8.822   4.400  -5.176  1.00  0.00     0.060 A 
ATOM     38  C   UNL     1       9.000   5.084  -3.969  1.00  0.00     0.016 A 
ATOM     39  C   UNL     1       9.868   3.699  -5.788  1.00  0.00     0.016 A 
ATOM     40  C   UNL     1      10.250   5.091  -3.377  1.00  0.00     0.010 A 
ATOM     41  C   UNL     1      11.119   3.710  -5.202  1.00  0.00     0.010 A 
ATOM     42  C   UNL     1      11.312   4.450  -4.027  1.00  0.00    -0.014 A 
BRANCH  42  43
ATOM     43  C   UNL     1      12.682   4.818  -3.660  1.00  0.00     0.031 A 
ATOM     44  C   UNL     1      13.316   5.909  -4.470  1.00  0.00     0.074 A 
ATOM     45  C   UNL     1      13.298   4.201  -2.643  1.00  0.00     0.049 A 
ATOM     46  N   UNL     1      14.520   6.402  -4.401  1.00  0.00    -0.248 NA
ATOM     47  C   UNL     1      12.475   6.514  -5.520  1.00  0.00     0.031 C 
ATOM     48  C   UNL     1      12.708   3.157  -1.805  1.00  0.00     0.029 A 
ATOM     49  N   UNL     1      14.558   4.367  -2.147  1.00  0.00    -0.354 N 
ATOM     50  C   UNL     1      14.581   7.368  -5.399  1.00  0.00     0.074 A 
ATOM     51  C   UNL     1      13.318   7.351  -6.097  1.00  0.00     0.031 C 
ATOM     52  C   UNL     1      13.613   2.778  -0.887  1.00  0.00     0.029 A 
ATOM     53  C   UNL     1      14.850   3.523  -1.105  1.00  0.00     0.049 A 
ATOM     54  H   UNL     1      15.196   5.028  -2.502  1.00  0.00     0.167 HD
ATOM     55  C   UNL     1      15.605   8.204  -5.687  1.00  0.00     0.034 A 
ATOM     56  C   UNL     1      16.004   3.376  -0.429  1.00  0.00     0.034 A 
ATOM     57  C   UNL     1      16.853   8.160  -4.972  1.00  0.00     0.049 A 
ATOM     58  C   UNL     1      17.160   4.266  -0.820  1.00  0.00     0.074 A 
ATOM     59  C   UNL     1      17.981   8.934  -5.152  1.00  0.00     0.029 A 
ATOM     60  N   UNL     1      17.136   7.270  -3.939  1.00  0.00    -0.354 N 
ATOM     61  N   UNL     1      17.214   5.191  -1.755  1.00  0.00    -0.248 NA
ATOM     62  C   UNL     1      18.401   4.103  -0.059  1.00  0.00     0.031 C 
ATOM     63  C   UNL     1      18.971   8.460  -4.284  1.00  0.00     0.029 A 
ATOM     64  C   UNL     1      18.432   7.453  -3.494  1.00  0.00     0.049 A 
ATOM     65  H   UNL     1      16.505   6.606  -3.578  1.00  0.00     0.167 HD
ATOM     66  C   UNL     1      18.487   5.747  -1.667  1.00  0.00     0.074 A 
ATOM     67  C   UNL     1      19.155   5.060  -0.577  1.00  0.00     0.031 C 
ATOM     68  C   UNL     1      19.058   6.734  -2.408  1.00  0.00     0.034 A 
BRANCH  55  69
ATOM     69  C   UNL     1      15.418   9.152  -6.846  1.00  0.00     0.023 A 
ATOM     70  C   UNL     1      14.393  10.118  -6.861  1.00  0.00     0.031 A 
ATOM     71  C   UNL     1      16.223   9.037  -7.992  1.00  0.00     0.131 A 
ATOM     72  C   UNL     1      14.148  10.865  -8.023  1.00  0.00     0.055 A 
ATOM     73  C   UNL     1      16.033   9.849  -9.112  1.00  0.00     0.041 A 
ATOM     74  F   UNL     1      17.191   8.109  -8.057  1.00  0.00    -0.206 F 
ATOM     75  C   UNL     1      14.980  10.758  -9.139  1.00  0.00     0.022 A 
BRANCH  72  76
ATOM     76  S   UNL     1      12.624  11.846  -8.120  1.00  0.00     0.124 S 
ATOM     77  O   UNL     1      11.601  10.821  -7.925  1.00  0.00    -0.237 OA
ATOM     78  O   UNL     1      12.791  12.798  -7.029  1.00  0.00    -0.237 OA
ATOM     79  O   UNL     1      12.670  12.420  -9.463  1.00  0.00    -0.744 OA
ENDBRANCH  72  76
ENDBRANCH  55  69
BRANCH  56  80
ATOM     80  C   UNL     1      16.123   2.367   0.659  1.00  0.00     0.023 A 
ATOM     81  C   UNL     1      16.396   2.759   1.978  1.00  0.00     0.031 A 
ATOM     82  C   UNL     1      15.999   0.991   0.394  1.00  0.00     0.131 A 
ATOM     83  C   UNL     1      16.585   1.787   2.973  1.00  0.00     0.055 A 
ATOM     84  C   UNL     1      16.129   0.030   1.399  1.00  0.00     0.041 A 
ATOM     85  F   UNL     1      15.735   0.559  -0.849  1.00  0.00    -0.206 F 
ATOM     86  C   UNL     1      16.439   0.426   2.696  1.00  0.00     0.022 A 
BRANCH  83  87
ATOM     87  S   UNL     1      17.121   2.329   4.618  1.00  0.00     0.124 S 
ATOM     88  O   UNL     1      18.347   3.056   4.305  1.00  0.00    -0.237 OA
ATOM     89  O   UNL     1      15.988   3.139   5.053  1.00  0.00    -0.237 OA
ATOM     90  O   UNL     1      17.306   1.075   5.345  1.00  0.00    -0.744 OA
ENDBRANCH  83  87
ENDBRANCH  56  80
BRANCH  68  91
ATOM     91  C   UNL     1      20.454   7.149  -2.015  1.00  0.00     0.023 A 
ATOM     92  C   UNL     1      21.545   6.271  -2.131  1.00  0.00     0.031 A 
ATOM     93  C   UNL     1      20.688   8.438  -1.505  1.00  0.00     0.131 A 
ATOM     94  C   UNL     1      22.806   6.668  -1.668  1.00  0.00     0.055 A 
ATOM     95  C   UNL     1      21.962   8.854  -1.122  1.00  0.00     0.041 A 
ATOM     96  F   UNL     1      19.680   9.315  -1.373  1.00  0.00    -0.206 F 
ATOM     97  C   UNL     1      23.027   7.961  -1.185  1.00  0.00     0.022 A 
BRANCH  94  98
ATOM     98  S   UNL     1      24.124   5.427  -1.585  1.00  0.00     0.124 S 
ATOM     99  O   UNL     1      23.522   4.404  -0.737  1.00  0.00    -0.237 OA
ATOM    100  O   UNL     1      24.303   5.067  -2.988  1.00  0.00    -0.237 OA
ATOM    101  O   UNL     1      25.241   6.154  -0.984  1.00  0.00    -0.744 OA
ENDBRANCH  94  98
ENDBRANCH  68  91
ENDBRANCH  42  43
ENDBRANCH  35  37
ENDBRANCH  34  35
ENDBRANCH  33  34
ENDBRANCH  32  33
ENDBRANCH   1  32
TORSDOF 22
