REMARK SMILES Cc1cc(C)n(-c2nc(C)c(C)c(Oc3cccc(C(=O)OCCOCCOC(=O)c4ccc(-c5c6nc(c(-c7cc(S(=O)(=O)[O-])ccc7F)c7ccc([nH]7)c(-c7cc(S(=O)(=O)[O-])ccc7F)c7nc(c(-c8cc(S(=O)(=O)[O-])ccc8F)c8ccc5[nH]8)C=C7)C=C6)cc4)c3)n2)n1
REMARK SMILES IDX 25 1 24 2 23 3 22 4 20 5 21 6 19 7 15 8 16 9 94 10 17 11
REMARK SMILES IDX 18 12 14 13 13 14 7 15 8 16 95 17 9 18 10 19 11 20 12 21
REMARK SMILES IDX 6 22 1 23 2 24 3 25 96 26 4 27 5 28 26 29 27 30 28 31 29 32
REMARK SMILES IDX 30 33 31 34 32 35 93 36 33 37 92 38 34 39 35 40 36 41 86 42
REMARK SMILES IDX 37 43 91 44 85 45 87 46 38 47 90 48 84 49 83 50 39 52 71 53
REMARK SMILES IDX 51 54 70 55 52 56 55 57 69 58 88 59 53 60 54 61 68 63 89 64
REMARK SMILES IDX 56 65 40 66 41 67 49 68 42 69 48 70 50 71 47 72 43 73 44 74
REMARK SMILES IDX 45 75 46 76 72 77 73 78 81 79 74 80 80 81 82 82 79 83 75 84
REMARK SMILES IDX 76 85 77 86 78 87 57 88 58 89 66 90 59 91 65 92 67 93 64 94
REMARK SMILES IDX 60 95 61 96 62 97 63 98
REMARK H PARENT 87 51 55 62
REMARK Flexibility Score: inf
ROOT
ATOM      1  O   UNL     1      -8.297  -1.607   1.145  1.00  0.00    -0.374 OA
ENDROOT
BRANCH   1   2
ATOM      2  C   UNL     1      -7.420  -2.644   1.584  1.00  0.00     0.202 C 
BRANCH   2   3
ATOM      3  C   UNL     1      -5.914  -2.370   1.581  1.00  0.00     0.261 C 
BRANCH   3   4
ATOM      4  O   UNL     1      -5.536  -1.306   2.469  1.00  0.00    -0.460 OA
BRANCH   4   5
ATOM      5  C   UNL     1      -5.188  -0.152   1.845  1.00  0.00     0.338 C 
ATOM      6  O   UNL     1      -5.125   0.038   0.641  1.00  0.00    -0.246 OA
BRANCH   5   7
ATOM      7  C   UNL     1      -5.076   0.949   2.826  1.00  0.00     0.063 A 
ATOM      8  C   UNL     1      -4.184   1.914   4.841  1.00  0.00     0.130 A 
ATOM      9  C   UNL     1      -4.739   3.151   4.500  1.00  0.00     0.047 A 
ATOM     10  C   UNL     1      -4.421   0.787   4.046  1.00  0.00     0.062 A 
ATOM     11  C   UNL     1      -5.460   3.291   3.316  1.00  0.00     0.005 A 
ATOM     12  C   UNL     1      -5.602   2.197   2.465  1.00  0.00     0.016 A 
BRANCH   8  13
ATOM     13  O   UNL     1      -3.422   1.888   5.987  1.00  0.00    -0.439 OA
BRANCH  13  14
ATOM     14  C   UNL     1      -2.179   1.257   5.935  1.00  0.00     0.227 A 
ATOM     15  C   UNL     1      -0.628   0.060   4.760  1.00  0.00     0.254 A 
ATOM     16  N   UNL     1       0.052  -0.259   5.881  1.00  0.00    -0.216 NA
ATOM     17  N   UNL     1      -1.706   0.854   4.742  1.00  0.00    -0.175 NA
ATOM     18  C   UNL     1      -0.347   0.318   7.038  1.00  0.00     0.050 A 
ATOM     19  C   UNL     1       0.601   0.127   8.187  1.00  0.00     0.067 C 
ATOM     20  C   UNL     1      -1.510   1.071   7.133  1.00  0.00     0.033 A 
ATOM     21  C   UNL     1      -1.988   1.667   8.420  1.00  0.00     0.052 C 
BRANCH  15  22
ATOM     22  N   UNL     1      -0.192  -0.503   3.515  1.00  0.00    -0.203 N 
ATOM     23  C   UNL     1       0.823  -0.011   0.139  1.00  0.00     0.069 C 
ATOM     24  C   UNL     1       0.469  -0.534   1.480  1.00  0.00     0.060 A 
ATOM     25  C   UNL     1       0.712  -1.826   1.988  1.00  0.00     0.049 A 
ATOM     26  N   UNL     1      -0.162   0.238   2.369  1.00  0.00    -0.170 NA
ATOM     27  C   UNL     1       0.254  -1.799   3.288  1.00  0.00     0.045 A 
ATOM     28  C   UNL     1       0.120  -2.893   4.281  1.00  0.00     0.067 C 
ENDBRANCH  15  22
ENDBRANCH  13  14
ENDBRANCH   8  13
ENDBRANCH   5   7
ENDBRANCH   4   5
ENDBRANCH   3   4
ENDBRANCH   2   3
ENDBRANCH   1   2
BRANCH   1  29
ATOM     29  C   UNL     1      -8.486  -0.453   1.957  1.00  0.00     0.202 C 
BRANCH  29  30
ATOM     30  C   UNL     1      -9.230  -0.593   3.276  1.00  0.00     0.261 C 
BRANCH  30  31
ATOM     31  O   UNL     1      -8.609  -1.517   4.152  1.00  0.00    -0.460 OA
BRANCH  31  32
ATOM     32  C   UNL     1      -9.241  -2.716   4.207  1.00  0.00     0.338 C 
ATOM     33  O   UNL     1      -9.999  -3.184   3.381  1.00  0.00    -0.246 OA
BRANCH  32  34
ATOM     34  C   UNL     1      -8.975  -3.311   5.519  1.00  0.00     0.060 A 
ATOM     35  C   UNL     1      -9.557  -4.554   5.773  1.00  0.00     0.016 A 
ATOM     36  C   UNL     1      -8.453  -2.504   6.540  1.00  0.00     0.016 A 
ATOM     37  C   UNL     1      -9.832  -4.881   7.082  1.00  0.00     0.010 A 
ATOM     38  C   UNL     1      -8.752  -2.819   7.838  1.00  0.00     0.010 A 
ATOM     39  C   UNL     1      -9.519  -3.954   8.081  1.00  0.00    -0.014 A 
BRANCH  39  40
ATOM     40  C   UNL     1      -9.881  -4.250   9.448  1.00  0.00     0.031 A 
ATOM     41  C   UNL     1      -8.959  -5.240  10.039  1.00  0.00     0.074 A 
ATOM     42  C   UNL     1     -10.850  -3.591  10.110  1.00  0.00     0.049 A 
ATOM     43  N   UNL     1      -9.180  -6.498  10.220  1.00  0.00    -0.248 NA
ATOM     44  C   UNL     1      -7.547  -4.851  10.205  1.00  0.00     0.031 C 
ATOM     45  C   UNL     1     -11.639  -2.436   9.676  1.00  0.00     0.029 A 
ATOM     46  N   UNL     1     -11.286  -3.787  11.381  1.00  0.00    -0.354 N 
ATOM     47  C   UNL     1      -8.017  -6.985  10.795  1.00  0.00     0.074 A 
ATOM     48  C   UNL     1      -6.990  -6.027  10.494  1.00  0.00     0.031 C 
ATOM     49  C   UNL     1     -12.297  -1.912  10.740  1.00  0.00     0.029 A 
ATOM     50  C   UNL     1     -12.088  -2.769  11.897  1.00  0.00     0.049 A 
ATOM     51  H   UNL     1     -11.053  -4.590  11.901  1.00  0.00     0.167 HD
ATOM     52  C   UNL     1      -8.070  -7.946  11.755  1.00  0.00     0.034 A 
ATOM     53  C   UNL     1     -12.510  -2.657  13.188  1.00  0.00     0.034 A 
ATOM     54  C   UNL     1      -9.349  -8.620  11.741  1.00  0.00     0.049 A 
ATOM     55  C   UNL     1     -12.439  -4.026  13.759  1.00  0.00     0.074 A 
ATOM     56  C   UNL     1     -10.052  -9.361  10.809  1.00  0.00     0.029 A 
ATOM     57  N   UNL     1     -10.278  -8.218  12.673  1.00  0.00    -0.354 N 
ATOM     58  N   UNL     1     -13.176  -5.016  13.339  1.00  0.00    -0.248 NA
ATOM     59  C   UNL     1     -11.221  -4.405  14.457  1.00  0.00     0.031 C 
ATOM     60  C   UNL     1     -11.416  -8.976  10.976  1.00  0.00     0.029 A 
ATOM     61  C   UNL     1     -11.494  -8.083  12.046  1.00  0.00     0.049 A 
ATOM     62  H   UNL     1     -10.102  -8.055  13.628  1.00  0.00     0.167 HD
ATOM     63  C   UNL     1     -12.327  -6.111  13.328  1.00  0.00     0.074 A 
ATOM     64  C   UNL     1     -11.165  -5.695  14.114  1.00  0.00     0.031 C 
ATOM     65  C   UNL     1     -12.518  -7.135  12.446  1.00  0.00     0.034 A 
BRANCH  52  66
ATOM     66  C   UNL     1      -7.142  -7.981  12.947  1.00  0.00     0.023 A 
ATOM     67  C   UNL     1      -7.230  -9.090  13.805  1.00  0.00     0.031 A 
ATOM     68  C   UNL     1      -6.376  -6.890  13.428  1.00  0.00     0.131 A 
ATOM     69  C   UNL     1      -6.634  -9.063  15.078  1.00  0.00     0.055 A 
ATOM     70  C   UNL     1      -5.734  -6.893  14.667  1.00  0.00     0.041 A 
ATOM     71  F   UNL     1      -6.279  -5.722  12.782  1.00  0.00    -0.206 F 
ATOM     72  C   UNL     1      -5.882  -7.974  15.513  1.00  0.00     0.022 A 
BRANCH  69  73
ATOM     73  S   UNL     1      -6.962 -10.432  16.213  1.00  0.00     0.124 S 
ATOM     74  O   UNL     1      -8.416 -10.385  16.321  1.00  0.00    -0.237 OA
ATOM     75  O   UNL     1      -6.405 -11.566  15.483  1.00  0.00    -0.237 OA
ATOM     76  O   UNL     1      -6.232 -10.052  17.421  1.00  0.00    -0.744 OA
ENDBRANCH  69  73
ENDBRANCH  52  66
BRANCH  53  77
ATOM     77  C   UNL     1     -12.591  -1.450  14.067  1.00  0.00     0.023 A 
ATOM     78  C   UNL     1     -13.150  -1.525  15.367  1.00  0.00     0.031 A 
ATOM     79  C   UNL     1     -11.840  -0.294  13.774  1.00  0.00     0.131 A 
ATOM     80  C   UNL     1     -12.915  -0.502  16.315  1.00  0.00     0.055 A 
ATOM     81  C   UNL     1     -11.609   0.715  14.717  1.00  0.00     0.041 A 
ATOM     82  F   UNL     1     -11.218  -0.146  12.595  1.00  0.00    -0.206 F 
ATOM     83  C   UNL     1     -12.130   0.606  15.998  1.00  0.00     0.022 A 
BRANCH  80  84
ATOM     84  S   UNL     1     -13.510  -0.667  18.033  1.00  0.00     0.124 S 
ATOM     85  O   UNL     1     -14.908  -0.269  17.911  1.00  0.00    -0.237 OA
ATOM     86  O   UNL     1     -13.260  -2.073  18.326  1.00  0.00    -0.237 OA
ATOM     87  O   UNL     1     -12.664   0.271  18.773  1.00  0.00    -0.744 OA
ENDBRANCH  80  84
ENDBRANCH  53  77
BRANCH  65  88
ATOM     88  C   UNL     1     -13.847  -7.203  11.714  1.00  0.00     0.023 A 
ATOM     89  C   UNL     1     -14.321  -6.258  10.772  1.00  0.00     0.031 A 
ATOM     90  C   UNL     1     -14.612  -8.363  11.917  1.00  0.00     0.131 A 
ATOM     91  C   UNL     1     -15.526  -6.503  10.076  1.00  0.00     0.055 A 
ATOM     92  C   UNL     1     -15.789  -8.610  11.213  1.00  0.00     0.041 A 
ATOM     93  F   UNL     1     -14.201  -9.303  12.783  1.00  0.00    -0.206 F 
ATOM     94  C   UNL     1     -16.252  -7.680  10.290  1.00  0.00     0.022 A 
BRANCH  91  95
ATOM     95  S   UNL     1     -16.168  -5.305   8.857  1.00  0.00     0.124 S 
ATOM     96  O   UNL     1     -16.310  -4.079   9.634  1.00  0.00    -0.237 OA
ATOM     97  O   UNL     1     -15.126  -5.298   7.833  1.00  0.00    -0.237 OA
ATOM     98  O   UNL     1     -17.435  -5.899   8.424  1.00  0.00    -0.744 OA
ENDBRANCH  91  95
ENDBRANCH  65  88
ENDBRANCH  39  40
ENDBRANCH  32  34
ENDBRANCH  31  32
ENDBRANCH  30  31
ENDBRANCH  29  30
ENDBRANCH   1  29
TORSDOF 20
