REMARK SMILES COc1cc(/C=C2\SC(=S)N([C@H](C)C(=O)Nc3ccc(C(=O)OCCOCCOC(=O)c4ccc(-c5c6nc(c(-c7cc(S(=O)(=O)[O-])ccc7F)c7ccc([nH]7)c(-c7cc(S(=O)(=O)[O-])ccc7F)c7nc(c(-c8cc(S(=O)(=O)[O-])ccc8F)c8ccc5[nH]8)C=C7)C=C6)cc4)cc3)C2=O)ccc1O
REMARK SMILES IDX 25 1 24 2 23 3 21 4 22 5 20 6 17 7 18 8 96 9 19 10 95 11
REMARK SMILES IDX 16 12 14 13 15 14 12 16 13 17 11 18 6 19 7 20 8 21 97 22
REMARK SMILES IDX 9 23 98 24 10 25 5 26 3 27 4 28 101 29 100 30 99 31 2 32
REMARK SMILES IDX 1 33 102 34 26 36 27 37 28 38 29 39 30 40 31 41 32 42 33 43
REMARK SMILES IDX 94 44 34 45 93 46 35 47 36 48 37 49 87 50 38 51 92 52 86 53
REMARK SMILES IDX 88 54 39 55 91 56 85 57 84 58 40 60 72 61 52 62 71 63 53 64
REMARK SMILES IDX 56 65 70 66 89 67 54 68 55 69 69 71 90 72 57 73 41 74 42 75
REMARK SMILES IDX 50 76 43 77 49 78 51 79 48 80 44 81 45 82 46 83 47 84 73 85
REMARK SMILES IDX 74 86 82 87 75 88 81 89 83 90 80 91 76 92 77 93 78 94 79 95
REMARK SMILES IDX 58 96 59 97 67 98 60 99 66 100 68 101 65 102 61 103 62 104
REMARK SMILES IDX 63 105 64 106
REMARK H PARENT 16 15 102 35 88 59 56 70
REMARK Flexibility Score: inf
ROOT
ATOM      1  C   UNL     1       2.881   6.820  -0.889  1.00  0.00     0.202 C 
ENDROOT
BRANCH   1   2
ATOM      2  C   UNL     1       1.810   7.377   0.054  1.00  0.00     0.261 C 
BRANCH   2   3
ATOM      3  O   UNL     1       0.516   7.339  -0.560  1.00  0.00    -0.460 OA
BRANCH   3   4
ATOM      4  C   UNL     1       0.028   8.539  -0.945  1.00  0.00     0.338 C 
ATOM      5  O   UNL     1       0.487   9.643  -0.690  1.00  0.00    -0.246 OA
BRANCH   4   6
ATOM      6  C   UNL     1      -1.115   8.348  -1.866  1.00  0.00     0.060 A 
ATOM      7  C   UNL     1      -3.390   8.221  -3.447  1.00  0.00     0.041 A 
ATOM      8  C   UNL     1      -2.549   9.323  -3.560  1.00  0.00     0.027 A 
ATOM      9  C   UNL     1      -3.001   7.110  -2.702  1.00  0.00     0.027 A 
ATOM     10  C   UNL     1      -1.422   9.397  -2.745  1.00  0.00     0.018 A 
ATOM     11  C   UNL     1      -1.868   7.172  -1.895  1.00  0.00     0.018 A 
BRANCH   7  12
ATOM     12  N   UNL     1      -4.649   8.290  -4.039  1.00  0.00    -0.324 N 
ATOM     13  C   UNL     1      -5.869   8.131  -3.432  1.00  0.00     0.247 C 
ATOM     14  O   UNL     1      -6.862   8.057  -4.167  1.00  0.00    -0.272 OA
ATOM     15  H   UNL     1      -4.665   8.473  -5.006  1.00  0.00     0.170 HD
BRANCH  13  16
ATOM     16  C   UNL     1      -6.034   7.959  -1.885  1.00  0.00     0.178 C 
ATOM     17  C   UNL     1      -6.052   6.449  -1.613  1.00  0.00     0.042 C 
BRANCH  16  18
ATOM     18  N   UNL     1      -5.160   8.839  -1.050  1.00  0.00    -0.280 N 
ATOM     19  C   UNL     1      -4.078  12.305  -0.644  1.00  0.00     0.029 C 
ATOM     20  C   UNL     1      -4.276  10.986  -0.489  1.00  0.00     0.081 C 
ATOM     21  S   UNL     1      -3.685   9.979   0.756  1.00  0.00    -0.054 SA
ATOM     22  C   UNL     1      -5.136  10.189  -1.405  1.00  0.00     0.266 C 
ATOM     23  C   UNL     1      -4.603   8.581   0.191  1.00  0.00     0.149 C 
ATOM     24  O   UNL     1      -5.756  10.700  -2.330  1.00  0.00    -0.268 OA
ATOM     25  S   UNL     1      -4.710   7.247   1.184  1.00  0.00    -0.052 S 
BRANCH  19  26
ATOM     26  C   UNL     1      -3.299  13.171   0.255  1.00  0.00    -0.020 A 
ATOM     27  C   UNL     1      -3.257  15.029   1.850  1.00  0.00     0.161 A 
ATOM     28  C   UNL     1      -3.943  14.217   0.933  1.00  0.00     0.058 A 
ATOM     29  C   UNL     1      -1.905  14.769   2.083  1.00  0.00     0.157 A 
ATOM     30  C   UNL     1      -1.236  13.774   1.370  1.00  0.00     0.051 A 
ATOM     31  C   UNL     1      -1.929  12.976   0.458  1.00  0.00     0.012 A 
BRANCH  27  32
ATOM     32  O   UNL     1      -4.046  15.979   2.440  1.00  0.00    -0.493 OA
ATOM     33  C   UNL     1      -3.419  17.070   3.099  1.00  0.00     0.278 C 
ENDBRANCH  27  32
BRANCH  29  34
ATOM     34  O   UNL     1      -1.173  15.403   3.045  1.00  0.00    -0.504 OA
ATOM     35  H   UNL     1      -1.563  16.082   3.560  1.00  0.00     0.293 HD
ENDBRANCH  29  34
ENDBRANCH  19  26
ENDBRANCH  16  18
ENDBRANCH  13  16
ENDBRANCH   7  12
ENDBRANCH   4   6
ENDBRANCH   3   4
ENDBRANCH   2   3
ENDBRANCH   1   2
BRANCH   1  36
ATOM     36  O   UNL     1       3.051   7.486  -2.140  1.00  0.00    -0.374 OA
BRANCH  36  37
ATOM     37  C   UNL     1       2.130   7.182  -3.187  1.00  0.00     0.202 C 
BRANCH  37  38
ATOM     38  C   UNL     1       2.277   5.839  -3.913  1.00  0.00     0.261 C 
BRANCH  38  39
ATOM     39  O   UNL     1       1.994   4.712  -3.068  1.00  0.00    -0.460 OA
BRANCH  39  40
ATOM     40  C   UNL     1       3.087   4.012  -2.678  1.00  0.00     0.338 C 
ATOM     41  O   UNL     1       4.250   4.232  -2.989  1.00  0.00    -0.246 OA
BRANCH  40  42
ATOM     42  C   UNL     1       2.705   3.030  -1.649  1.00  0.00     0.060 A 
ATOM     43  C   UNL     1       3.384   3.062  -0.423  1.00  0.00     0.016 A 
ATOM     44  C   UNL     1       1.745   2.051  -1.906  1.00  0.00     0.016 A 
ATOM     45  C   UNL     1       3.131   2.087   0.541  1.00  0.00     0.010 A 
ATOM     46  C   UNL     1       1.499   1.070  -0.942  1.00  0.00     0.010 A 
ATOM     47  C   UNL     1       2.211   1.065   0.273  1.00  0.00    -0.014 A 
BRANCH  47  48
ATOM     48  C   UNL     1       2.085  -0.094   1.190  1.00  0.00     0.031 A 
ATOM     49  C   UNL     1       2.726  -1.397   0.798  1.00  0.00     0.074 A 
ATOM     50  C   UNL     1       1.393   0.006   2.339  1.00  0.00     0.049 A 
ATOM     51  N   UNL     1       2.624  -2.574   1.355  1.00  0.00    -0.248 NA
ATOM     52  C   UNL     1       3.590  -1.363  -0.392  1.00  0.00     0.031 C 
ATOM     53  C   UNL     1       0.781   1.231   2.850  1.00  0.00     0.029 A 
ATOM     54  N   UNL     1       1.073  -0.947   3.273  1.00  0.00    -0.354 N 
ATOM     55  C   UNL     1       3.395  -3.430   0.575  1.00  0.00     0.074 A 
ATOM     56  C   UNL     1       3.931  -2.638  -0.512  1.00  0.00     0.031 C 
ATOM     57  C   UNL     1       0.140   0.950   3.997  1.00  0.00     0.029 A 
ATOM     58  C   UNL     1       0.250  -0.481   4.272  1.00  0.00     0.049 A 
ATOM     59  H   UNL     1       1.401  -1.874   3.233  1.00  0.00     0.167 HD
ATOM     60  C   UNL     1       3.633  -4.753   0.754  1.00  0.00     0.034 A 
ATOM     61  C   UNL     1      -0.377  -1.143   5.266  1.00  0.00     0.034 A 
ATOM     62  C   UNL     1       3.079  -5.523   1.841  1.00  0.00     0.049 A 
ATOM     63  C   UNL     1      -0.178  -2.636   5.391  1.00  0.00     0.074 A 
ATOM     64  C   UNL     1       3.261  -6.865   2.125  1.00  0.00     0.029 A 
ATOM     65  N   UNL     1       2.224  -5.025   2.816  1.00  0.00    -0.354 N 
ATOM     66  N   UNL     1       0.542  -3.440   4.642  1.00  0.00    -0.248 NA
ATOM     67  C   UNL     1      -0.873  -3.311   6.496  1.00  0.00     0.031 C 
ATOM     68  C   UNL     1       2.454  -7.195   3.218  1.00  0.00     0.029 A 
ATOM     69  C   UNL     1       1.844  -6.040   3.680  1.00  0.00     0.049 A 
ATOM     70  H   UNL     1       1.930  -4.087   2.883  1.00  0.00     0.167 HD
ATOM     71  C   UNL     1       0.423  -4.705   5.216  1.00  0.00     0.074 A 
ATOM     72  C   UNL     1      -0.439  -4.556   6.369  1.00  0.00     0.031 C 
ATOM     73  C   UNL     1       0.987  -5.878   4.832  1.00  0.00     0.034 A 
BRANCH  60  74
ATOM     74  C   UNL     1       4.479  -5.455  -0.281  1.00  0.00     0.023 A 
ATOM     75  C   UNL     1       5.824  -5.111  -0.500  1.00  0.00     0.031 A 
ATOM     76  C   UNL     1       3.924  -6.472  -1.078  1.00  0.00     0.131 A 
ATOM     77  C   UNL     1       6.544  -5.725  -1.537  1.00  0.00     0.055 A 
ATOM     78  C   UNL     1       4.671  -7.140  -2.050  1.00  0.00     0.041 A 
ATOM     79  F   UNL     1       2.637  -6.828  -0.934  1.00  0.00    -0.206 F 
ATOM     80  C   UNL     1       5.986  -6.757  -2.294  1.00  0.00     0.022 A 
BRANCH  77  81
ATOM     81  S   UNL     1       8.169  -5.052  -1.980  1.00  0.00     0.124 S 
ATOM     82  O   UNL     1       7.838  -3.664  -2.296  1.00  0.00    -0.237 OA
ATOM     83  O   UNL     1       8.941  -5.263  -0.761  1.00  0.00    -0.237 OA
ATOM     84  O   UNL     1       8.576  -5.863  -3.125  1.00  0.00    -0.744 OA
ENDBRANCH  77  81
ENDBRANCH  60  74
BRANCH  61  85
ATOM     85  C   UNL     1      -1.287  -0.418   6.199  1.00  0.00     0.023 A 
ATOM     86  C   UNL     1      -1.015  -0.354   7.574  1.00  0.00     0.031 A 
ATOM     87  C   UNL     1      -2.474   0.179   5.735  1.00  0.00     0.131 A 
ATOM     88  C   UNL     1      -1.939   0.247   8.444  1.00  0.00     0.055 A 
ATOM     89  C   UNL     1      -3.360   0.829   6.596  1.00  0.00     0.041 A 
ATOM     90  F   UNL     1      -2.787   0.144   4.430  1.00  0.00    -0.206 F 
ATOM     91  C   UNL     1      -3.101   0.853   7.962  1.00  0.00     0.022 A 
BRANCH  88  92
ATOM     92  S   UNL     1      -1.646   0.136  10.230  1.00  0.00     0.124 S 
ATOM     93  O   UNL     1      -1.586  -1.308  10.430  1.00  0.00    -0.237 OA
ATOM     94  O   UNL     1      -0.387   0.858  10.376  1.00  0.00    -0.237 OA
ATOM     95  O   UNL     1      -2.813   0.798  10.807  1.00  0.00    -0.744 OA
ENDBRANCH  88  92
ENDBRANCH  61  85
BRANCH  73  96
ATOM     96  C   UNL     1       0.759  -7.084   5.713  1.00  0.00     0.023 A 
ATOM     97  C   UNL     1      -0.503  -7.685   5.854  1.00  0.00     0.031 A 
ATOM     98  C   UNL     1       1.843  -7.653   6.407  1.00  0.00     0.131 A 
ATOM     99  C   UNL     1      -0.658  -8.793   6.702  1.00  0.00     0.055 A 
ATOM    100  C   UNL     1       1.695  -8.792   7.200  1.00  0.00     0.041 A 
ATOM    101  F   UNL     1       3.071  -7.118   6.313  1.00  0.00    -0.206 F 
ATOM    102  C   UNL     1       0.437  -9.362   7.359  1.00  0.00     0.022 A 
BRANCH  99 103
ATOM    103  S   UNL     1      -2.326  -9.442   6.999  1.00  0.00     0.124 S 
ATOM    104  O   UNL     1      -3.008  -8.279   7.558  1.00  0.00    -0.237 OA
ATOM    105  O   UNL     1      -2.747  -9.847   5.662  1.00  0.00    -0.237 OA
ATOM    106  O   UNL     1      -2.105 -10.541   7.938  1.00  0.00    -0.744 OA
ENDBRANCH  99 103
ENDBRANCH  73  96
ENDBRANCH  47  48
ENDBRANCH  40  42
ENDBRANCH  39  40
ENDBRANCH  38  39
ENDBRANCH  37  38
ENDBRANCH  36  37
ENDBRANCH   1  36
TORSDOF 23
