REMARK SMILES CCOc1cccc(-c2ccc([C@@H](C)C(=O)OCCOCCOC(=O)c3ccc(-c4c5nc(c(-c6cc(S(=O)(=O)[O-])ccc6F)c6ccc([nH]6)c(-c6cc(S(=O)(=O)[O-])ccc6F)c6nc(c(-c7cc(S(=O)(=O)[O-])ccc7F)c7ccc4[nH]7)C=C6)C=C5)cc3)cc2F)c1
REMARK SMILES IDX 19 1 18 2 17 3 15 4 16 5 13 6 14 7 12 8 9 9 10 10 90 11
REMARK SMILES IDX 11 12 89 13 91 14 8 15 4 16 5 17 92 18 6 19 7 20 3 21 2 22
REMARK SMILES IDX 1 23 20 24 21 25 22 26 23 27 24 28 25 29 26 30 27 31 88 32
REMARK SMILES IDX 28 33 87 34 29 35 30 36 31 37 81 38 32 39 86 40 80 41 82 42
REMARK SMILES IDX 33 43 85 44 79 45 78 46 34 48 66 49 46 50 65 51 47 52 50 53
REMARK SMILES IDX 64 54 83 55 48 56 49 57 63 59 84 60 51 61 35 62 36 63 44 64
REMARK SMILES IDX 37 65 43 66 45 67 42 68 38 69 39 70 40 71 41 72 67 73 68 74
REMARK SMILES IDX 76 75 69 76 75 77 77 78 74 79 70 80 71 81 72 82 73 83 52 84
REMARK SMILES IDX 53 85 61 86 54 87 60 88 62 89 59 90 55 91 56 92 57 93 58 94
REMARK H PARENT 82 47 50 58
REMARK Flexibility Score: inf
ROOT
ATOM      1  C   UNL     1       7.714   3.079   4.024  1.00  0.00     0.202 C 
ENDROOT
BRANCH   1   2
ATOM      2  C   UNL     1       8.980   2.219   4.022  1.00  0.00     0.261 C 
BRANCH   2   3
ATOM      3  O   UNL     1       8.768   0.970   3.339  1.00  0.00    -0.463 OA
BRANCH   3   4
ATOM      4  C   UNL     1       8.818  -0.145   4.112  1.00  0.00     0.313 C 
ATOM      5  O   UNL     1       9.132  -0.155   5.300  1.00  0.00    -0.252 OA
BRANCH   4   6
ATOM      6  C   UNL     1       8.479  -1.427   3.370  1.00  0.00     0.126 C 
ATOM      7  C   UNL     1       9.768  -2.126   2.950  1.00  0.00     0.025 C 
BRANCH   6   8
ATOM      8  C   UNL     1       7.474  -1.356   2.226  1.00  0.00    -0.031 A 
ATOM      9  C   UNL     1       5.625  -1.480   0.046  1.00  0.00     0.018 A 
ATOM     10  C   UNL     1       6.826  -0.757  -0.053  1.00  0.00     0.012 A 
ATOM     11  C   UNL     1       5.363  -2.106   1.272  1.00  0.00     0.131 A 
ATOM     12  C   UNL     1       7.736  -0.697   1.017  1.00  0.00     0.005 A 
ATOM     13  C   UNL     1       6.259  -2.047   2.341  1.00  0.00     0.044 A 
ATOM     14  F   UNL     1       4.239  -2.819   1.447  1.00  0.00    -0.206 F 
BRANCH   9  15
ATOM     15  C   UNL     1       4.690  -1.587  -1.092  1.00  0.00    -0.012 A 
ATOM     16  C   UNL     1       2.419  -1.487  -1.979  1.00  0.00     0.119 A 
ATOM     17  C   UNL     1       2.871  -1.861  -3.239  1.00  0.00     0.046 A 
ATOM     18  C   UNL     1       3.313  -1.375  -0.914  1.00  0.00     0.055 A 
ATOM     19  C   UNL     1       4.232  -2.081  -3.442  1.00  0.00     0.004 A 
ATOM     20  C   UNL     1       5.133  -1.938  -2.379  1.00  0.00     0.009 A 
BRANCH  16  21
ATOM     21  O   UNL     1       1.072  -1.354  -1.781  1.00  0.00    -0.494 OA
BRANCH  21  22
ATOM     22  C   UNL     1       0.673   0.008  -1.572  1.00  0.00     0.226 C 
ATOM     23  C   UNL     1       0.616   0.352  -0.092  1.00  0.00     0.049 C 
ENDBRANCH  21  22
ENDBRANCH  16  21
ENDBRANCH   9  15
ENDBRANCH   6   8
ENDBRANCH   4   6
ENDBRANCH   3   4
ENDBRANCH   2   3
ENDBRANCH   1   2
BRANCH   1  24
ATOM     24  O   UNL     1       6.598   2.561   4.747  1.00  0.00    -0.374 OA
BRANCH  24  25
ATOM     25  C   UNL     1       5.831   1.530   4.126  1.00  0.00     0.202 C 
BRANCH  25  26
ATOM     26  C   UNL     1       4.891   1.947   2.988  1.00  0.00     0.261 C 
BRANCH  26  27
ATOM     27  O   UNL     1       5.601   2.362   1.808  1.00  0.00    -0.460 OA
BRANCH  27  28
ATOM     28  C   UNL     1       5.524   3.685   1.529  1.00  0.00     0.338 C 
ATOM     29  O   UNL     1       4.889   4.531   2.148  1.00  0.00    -0.246 OA
BRANCH  28  30
ATOM     30  C   UNL     1       6.484   4.031   0.465  1.00  0.00     0.060 A 
ATOM     31  C   UNL     1       7.381   5.080   0.707  1.00  0.00     0.016 A 
ATOM     32  C   UNL     1       6.463   3.388  -0.775  1.00  0.00     0.016 A 
ATOM     33  C   UNL     1       8.233   5.521  -0.304  1.00  0.00     0.010 A 
ATOM     34  C   UNL     1       7.310   3.840  -1.791  1.00  0.00     0.010 A 
ATOM     35  C   UNL     1       8.177   4.928  -1.572  1.00  0.00    -0.014 A 
BRANCH  35  36
ATOM     36  C   UNL     1       8.897   5.541  -2.716  1.00  0.00     0.031 A 
ATOM     37  C   UNL     1       8.121   6.395  -3.681  1.00  0.00     0.074 A 
ATOM     38  C   UNL     1      10.215   5.343  -2.895  1.00  0.00     0.049 A 
ATOM     39  N   UNL     1       8.499   6.922  -4.816  1.00  0.00    -0.248 NA
ATOM     40  C   UNL     1       6.726   6.685  -3.315  1.00  0.00     0.031 C 
ATOM     41  C   UNL     1      11.086   4.596  -1.990  1.00  0.00     0.029 A 
ATOM     42  N   UNL     1      11.048   5.744  -3.910  1.00  0.00    -0.354 N 
ATOM     43  C   UNL     1       7.387   7.597  -5.309  1.00  0.00     0.074 A 
ATOM     44  C   UNL     1       6.312   7.383  -4.362  1.00  0.00     0.031 C 
ATOM     45  C   UNL     1      12.329   4.574  -2.502  1.00  0.00     0.029 A 
ATOM     46  C   UNL     1      12.331   5.260  -3.793  1.00  0.00     0.049 A 
ATOM     47  H   UNL     1      10.756   6.323  -4.651  1.00  0.00     0.167 HD
ATOM     48  C   UNL     1       7.275   8.329  -6.445  1.00  0.00     0.034 A 
ATOM     49  C   UNL     1      13.371   5.329  -4.650  1.00  0.00     0.034 A 
ATOM     50  C   UNL     1       8.354   8.523  -7.381  1.00  0.00     0.049 A 
ATOM     51  C   UNL     1      13.194   6.056  -5.963  1.00  0.00     0.074 A 
ATOM     52  C   UNL     1       8.353   9.248  -8.560  1.00  0.00     0.029 A 
ATOM     53  N   UNL     1       9.626   7.979  -7.253  1.00  0.00    -0.354 N 
ATOM     54  N   UNL     1      12.133   6.676  -6.429  1.00  0.00    -0.248 NA
ATOM     55  C   UNL     1      14.352   6.091  -6.867  1.00  0.00     0.031 C 
ATOM     56  C   UNL     1       9.597   9.081  -9.179  1.00  0.00     0.029 A 
ATOM     57  C   UNL     1      10.404   8.323  -8.347  1.00  0.00     0.049 A 
ATOM     58  H   UNL     1       9.930   7.428  -6.495  1.00  0.00     0.167 HD
ATOM     59  C   UNL     1      12.512   7.208  -7.659  1.00  0.00     0.074 A 
ATOM     60  C   UNL     1      13.897   6.837  -7.864  1.00  0.00     0.031 C 
ATOM     61  C   UNL     1      11.785   7.946  -8.536  1.00  0.00     0.034 A 
BRANCH  48  62
ATOM     62  C   UNL     1       5.922   8.920  -6.759  1.00  0.00     0.023 A 
ATOM     63  C   UNL     1       5.328   9.893  -5.936  1.00  0.00     0.031 A 
ATOM     64  C   UNL     1       5.203   8.482  -7.886  1.00  0.00     0.131 A 
ATOM     65  C   UNL     1       4.027  10.342  -6.212  1.00  0.00     0.055 A 
ATOM     66  C   UNL     1       3.942   8.993  -8.200  1.00  0.00     0.041 A 
ATOM     67  F   UNL     1       5.708   7.537  -8.694  1.00  0.00    -0.206 F 
ATOM     68  C   UNL     1       3.341   9.918  -7.352  1.00  0.00     0.022 A 
BRANCH  65  69
ATOM     69  S   UNL     1       3.189  11.377  -4.980  1.00  0.00     0.124 S 
ATOM     70  O   UNL     1       3.218  10.514  -3.801  1.00  0.00    -0.237 OA
ATOM     71  O   UNL     1       4.042  12.558  -4.928  1.00  0.00    -0.237 OA
ATOM     72  O   UNL     1       1.863  11.588  -5.556  1.00  0.00    -0.744 OA
ENDBRANCH  65  69
ENDBRANCH  48  62
BRANCH  49  73
ATOM     73  C   UNL     1      14.660   4.650  -4.330  1.00  0.00     0.023 A 
ATOM     74  C   UNL     1      15.848   5.381  -4.180  1.00  0.00     0.031 A 
ATOM     75  C   UNL     1      14.733   3.248  -4.230  1.00  0.00     0.131 A 
ATOM     76  C   UNL     1      17.065   4.708  -3.986  1.00  0.00     0.055 A 
ATOM     77  C   UNL     1      15.937   2.587  -3.980  1.00  0.00     0.041 A 
ATOM     78  F   UNL     1      13.628   2.498  -4.369  1.00  0.00    -0.206 F 
ATOM     79  C   UNL     1      17.115   3.317  -3.870  1.00  0.00     0.022 A 
BRANCH  76  80
ATOM     80  S   UNL     1      18.600   5.674  -3.979  1.00  0.00     0.124 S 
ATOM     81  O   UNL     1      18.553   6.313  -5.290  1.00  0.00    -0.237 OA
ATOM     82  O   UNL     1      18.401   6.550  -2.830  1.00  0.00    -0.237 OA
ATOM     83  O   UNL     1      19.639   4.660  -3.815  1.00  0.00    -0.744 OA
ENDBRANCH  76  80
ENDBRANCH  49  73
BRANCH  61  84
ATOM     84  C   UNL     1      12.492   8.460  -9.767  1.00  0.00     0.023 A 
ATOM     85  C   UNL     1      12.915   7.603 -10.798  1.00  0.00     0.031 A 
ATOM     86  C   UNL     1      12.722   9.840  -9.917  1.00  0.00     0.131 A 
ATOM     87  C   UNL     1      13.581   8.132 -11.915  1.00  0.00     0.055 A 
ATOM     88  C   UNL     1      13.335  10.365 -11.055  1.00  0.00     0.041 A 
ATOM     89  F   UNL     1      12.339  10.703  -8.962  1.00  0.00    -0.206 F 
ATOM     90  C   UNL     1      13.776   9.509 -12.058  1.00  0.00     0.022 A 
BRANCH  87  91
ATOM     91  S   UNL     1      14.247   6.991 -13.158  1.00  0.00     0.124 S 
ATOM     92  O   UNL     1      15.190   6.202 -12.371  1.00  0.00    -0.237 OA
ATOM     93  O   UNL     1      13.051   6.288 -13.611  1.00  0.00    -0.237 OA
ATOM     94  O   UNL     1      14.855   7.877 -14.149  1.00  0.00    -0.744 OA
ENDBRANCH  87  91
ENDBRANCH  61  84
ENDBRANCH  35  36
ENDBRANCH  28  30
ENDBRANCH  27  28
ENDBRANCH  26  27
ENDBRANCH  25  26
ENDBRANCH  24  25
ENDBRANCH   1  24
TORSDOF 21
