REMARK SMILES O=C(Nc1ccccc1C(=O)OCCOCCOC(=O)c1ccc(-c2c3nc(c(-c4cc(S(=O)(=O)[O-])ccc4F)c4ccc([nH]4)c(-c4cc(S(=O)(=O)[O-])ccc4F)c4nc(c(-c5cc(S(=O)(=O)[O-])ccc5F)c5ccc2[nH]5)C=C4)C=C3)cc1)c1ccc(N2C(=O)[C@H]3CC=CC[C@H]3C2=O)cc1
REMARK SMILES IDX 15 1 14 2 13 3 12 4 10 5 11 6 9 7 4 8 5 9 6 10 8 11 7 12
REMARK SMILES IDX 3 13 1 14 2 15 84 17 85 18 100 19 86 20 99 21 87 22 88 23
REMARK SMILES IDX 89 24 97 25 90 26 91 27 96 28 98 29 92 30 95 31 93 32 94 33
REMARK SMILES IDX 16 34 17 35 18 36 19 37 20 38 21 39 22 40 83 41 23 42 82 43
REMARK SMILES IDX 24 44 25 45 26 46 76 47 27 48 81 49 75 50 77 51 28 52 80 53
REMARK SMILES IDX 74 54 73 55 29 57 61 58 41 59 60 60 42 61 45 62 59 63 78 64
REMARK SMILES IDX 43 65 44 66 58 68 79 69 46 70 30 71 31 72 39 73 32 74 38 75
REMARK SMILES IDX 40 76 37 77 33 78 34 79 35 80 36 81 62 82 63 83 71 84 64 85
REMARK SMILES IDX 70 86 72 87 69 88 65 89 66 90 67 91 68 92 47 93 48 94 56 95
REMARK SMILES IDX 49 96 55 97 57 98 54 99 50 100 51 101 52 102 53 103
REMARK H PARENT 3 16 77 56 45 67
REMARK Flexibility Score: inf
ROOT
ATOM      1  O   UNL     1       4.412  -1.496   4.782  1.00  0.00    -0.374 OA
ENDROOT
BRANCH   1   2
ATOM      2  C   UNL     1       3.242  -0.721   4.560  1.00  0.00     0.202 C 
BRANCH   2   3
ATOM      3  C   UNL     1       3.201   0.204   3.340  1.00  0.00     0.261 C 
BRANCH   3   4
ATOM      4  O   UNL     1       3.619  -0.374   2.089  1.00  0.00    -0.460 OA
BRANCH   4   5
ATOM      5  C   UNL     1       4.809   0.087   1.626  1.00  0.00     0.340 C 
ATOM      6  O   UNL     1       5.575   0.842   2.212  1.00  0.00    -0.246 OA
BRANCH   5   7
ATOM      7  C   UNL     1       5.217  -0.568   0.359  1.00  0.00     0.083 A 
ATOM      8  C   UNL     1       4.412  -0.864  -0.755  1.00  0.00     0.056 A 
ATOM      9  C   UNL     1       4.977  -1.638  -1.790  1.00  0.00     0.027 A 
ATOM     10  C   UNL     1       6.322  -2.018  -1.778  1.00  0.00     0.002 A 
ATOM     11  C   UNL     1       6.576  -0.959   0.356  1.00  0.00     0.018 A 
ATOM     12  C   UNL     1       7.129  -1.664  -0.709  1.00  0.00     0.001 A 
BRANCH   8  13
ATOM     13  N   UNL     1       3.087  -0.461  -1.023  1.00  0.00    -0.321 N 
ATOM     14  O   UNL     1       1.149   0.678  -0.949  1.00  0.00    -0.269 OA
ATOM     15  C   UNL     1       2.352   0.653  -0.697  1.00  0.00     0.255 C 
ATOM     16  H   UNL     1       2.582  -1.116  -1.556  1.00  0.00     0.170 HD
BRANCH  15  17
ATOM     17  C   UNL     1       2.977   1.847  -0.106  1.00  0.00     0.040 A 
ATOM     18  C   UNL     1       4.184   2.378  -0.575  1.00  0.00     0.016 A 
ATOM     19  C   UNL     1       2.351   2.397   1.009  1.00  0.00     0.016 A 
ATOM     20  C   UNL     1       4.853   3.345   0.183  1.00  0.00     0.027 A 
ATOM     21  C   UNL     1       3.041   3.321   1.783  1.00  0.00     0.027 A 
ATOM     22  C   UNL     1       4.327   3.748   1.416  1.00  0.00     0.052 A 
BRANCH  22  23
ATOM     23  N   UNL     1       5.069   4.526   2.329  1.00  0.00    -0.250 N 
ATOM     24  C   UNL     1       5.920   5.546   1.998  1.00  0.00     0.238 C 
ATOM     25  C   UNL     1       5.055   4.288   3.685  1.00  0.00     0.238 C 
ATOM     26  O   UNL     1       6.329   5.882   0.894  1.00  0.00    -0.274 OA
ATOM     27  C   UNL     1       6.226   6.322   3.259  1.00  0.00     0.096 C 
ATOM     28  C   UNL     1       5.908   5.323   4.373  1.00  0.00     0.096 C 
ATOM     29  O   UNL     1       4.515   3.374   4.295  1.00  0.00    -0.274 OA
ATOM     30  C   UNL     1       5.378   7.606   3.271  1.00  0.00     0.041 C 
ATOM     31  C   UNL     1       5.119   5.881   5.556  1.00  0.00     0.041 C 
ATOM     32  C   UNL     1       4.068   7.473   3.994  1.00  0.00    -0.030 C 
ATOM     33  C   UNL     1       3.951   6.690   5.075  1.00  0.00    -0.030 C 
ENDBRANCH  22  23
ENDBRANCH  15  17
ENDBRANCH   8  13
ENDBRANCH   5   7
ENDBRANCH   4   5
ENDBRANCH   3   4
ENDBRANCH   2   3
ENDBRANCH   1   2
BRANCH   1  34
ATOM     34  C   UNL     1       4.736  -2.502   3.830  1.00  0.00     0.202 C 
BRANCH  34  35
ATOM     35  C   UNL     1       3.717  -3.618   3.562  1.00  0.00     0.261 C 
BRANCH  35  36
ATOM     36  O   UNL     1       2.471  -3.166   2.997  1.00  0.00    -0.460 OA
BRANCH  36  37
ATOM     37  C   UNL     1       1.382  -3.415   3.766  1.00  0.00     0.338 C 
ATOM     38  O   UNL     1       1.371  -3.941   4.873  1.00  0.00    -0.246 OA
BRANCH  37  39
ATOM     39  C   UNL     1       0.159  -2.868   3.160  1.00  0.00     0.060 A 
ATOM     40  C   UNL     1      -0.525  -1.848   3.836  1.00  0.00     0.016 A 
ATOM     41  C   UNL     1      -0.414  -3.494   2.052  1.00  0.00     0.016 A 
ATOM     42  C   UNL     1      -1.813  -1.489   3.435  1.00  0.00     0.010 A 
ATOM     43  C   UNL     1      -1.707  -3.134   1.655  1.00  0.00     0.010 A 
ATOM     44  C   UNL     1      -2.429  -2.162   2.372  1.00  0.00    -0.014 A 
BRANCH  44  45
ATOM     45  C   UNL     1      -3.879  -1.968   2.109  1.00  0.00     0.031 A 
ATOM     46  C   UNL     1      -4.857  -3.002   2.602  1.00  0.00     0.074 A 
ATOM     47  C   UNL     1      -4.320  -0.889   1.441  1.00  0.00     0.049 A 
ATOM     48  N   UNL     1      -6.151  -3.081   2.420  1.00  0.00    -0.248 NA
ATOM     49  C   UNL     1      -4.292  -4.100   3.399  1.00  0.00     0.031 C 
ATOM     50  C   UNL     1      -3.475   0.191   0.936  1.00  0.00     0.029 A 
ATOM     51  N   UNL     1      -5.590  -0.537   1.055  1.00  0.00    -0.354 N 
ATOM     52  C   UNL     1      -6.556  -4.240   3.074  1.00  0.00     0.074 A 
ATOM     53  C   UNL     1      -5.360  -4.851   3.617  1.00  0.00     0.031 C 
ATOM     54  C   UNL     1      -4.247   1.075   0.281  1.00  0.00     0.029 A 
ATOM     55  C   UNL     1      -5.631   0.604   0.289  1.00  0.00     0.049 A 
ATOM     56  H   UNL     1      -6.392  -1.051   1.303  1.00  0.00     0.167 HD
ATOM     57  C   UNL     1      -7.809  -4.743   3.216  1.00  0.00     0.034 A 
ATOM     58  C   UNL     1      -6.660   1.180  -0.365  1.00  0.00     0.034 A 
ATOM     59  C   UNL     1      -8.989  -4.133   2.648  1.00  0.00     0.049 A 
ATOM     60  C   UNL     1      -8.035   0.568  -0.264  1.00  0.00     0.074 A 
ATOM     61  C   UNL     1     -10.307  -4.543   2.744  1.00  0.00     0.029 A 
ATOM     62  N   UNL     1      -8.990  -2.988   1.859  1.00  0.00    -0.354 N 
ATOM     63  N   UNL     1      -8.412  -0.519   0.370  1.00  0.00    -0.248 NA
ATOM     64  C   UNL     1      -9.123   1.266  -0.960  1.00  0.00     0.031 C 
ATOM     65  C   UNL     1     -11.093  -3.693   1.956  1.00  0.00     0.029 A 
ATOM     66  C   UNL     1     -10.279  -2.701   1.431  1.00  0.00     0.049 A 
ATOM     67  H   UNL     1      -8.192  -2.458   1.635  1.00  0.00     0.167 HD
ATOM     68  C   UNL     1      -9.786  -0.623   0.165  1.00  0.00     0.074 A 
ATOM     69  C   UNL     1     -10.171   0.520  -0.639  1.00  0.00     0.031 C 
ATOM     70  C   UNL     1     -10.651  -1.573   0.607  1.00  0.00     0.034 A 
BRANCH  57  71
ATOM     71  C   UNL     1      -7.945  -6.048   3.970  1.00  0.00     0.023 A 
ATOM     72  C   UNL     1      -7.570  -6.165   5.321  1.00  0.00     0.031 A 
ATOM     73  C   UNL     1      -8.395  -7.207   3.313  1.00  0.00     0.131 A 
ATOM     74  C   UNL     1      -7.563  -7.424   5.941  1.00  0.00     0.055 A 
ATOM     75  C   UNL     1      -8.469  -8.441   3.962  1.00  0.00     0.041 A 
ATOM     76  F   UNL     1      -8.748  -7.166   2.019  1.00  0.00    -0.206 F 
ATOM     77  C   UNL     1      -8.032  -8.559   5.278  1.00  0.00     0.022 A 
BRANCH  74  78
ATOM     78  S   UNL     1      -6.764  -7.586   7.563  1.00  0.00     0.124 S 
ATOM     79  O   UNL     1      -5.429  -7.059   7.289  1.00  0.00    -0.237 OA
ATOM     80  O   UNL     1      -7.614  -6.764   8.416  1.00  0.00    -0.237 OA
ATOM     81  O   UNL     1      -6.815  -9.023   7.828  1.00  0.00    -0.744 OA
ENDBRANCH  74  78
ENDBRANCH  57  71
BRANCH  58  82
ATOM     82  C   UNL     1      -6.415   2.373  -1.223  1.00  0.00     0.023 A 
ATOM     83  C   UNL     1      -6.942   3.632  -0.898  1.00  0.00     0.031 A 
ATOM     84  C   UNL     1      -5.652   2.258  -2.399  1.00  0.00     0.131 A 
ATOM     85  C   UNL     1      -6.722   4.722  -1.755  1.00  0.00     0.055 A 
ATOM     86  C   UNL     1      -5.397   3.354  -3.223  1.00  0.00     0.041 A 
ATOM     87  F   UNL     1      -5.128   1.074  -2.755  1.00  0.00    -0.206 F 
ATOM     88  C   UNL     1      -5.941   4.594  -2.907  1.00  0.00     0.022 A 
BRANCH  85  89
ATOM     89  S   UNL     1      -7.515   6.307  -1.370  1.00  0.00     0.124 S 
ATOM     90  O   UNL     1      -8.929   5.953  -1.417  1.00  0.00    -0.237 OA
ATOM     91  O   UNL     1      -6.972   6.607  -0.049  1.00  0.00    -0.237 OA
ATOM     92  O   UNL     1      -7.056   7.188  -2.443  1.00  0.00    -0.744 OA
ENDBRANCH  85  89
ENDBRANCH  58  82
BRANCH  70  93
ATOM     93  C   UNL     1     -12.109  -1.391   0.258  1.00  0.00     0.023 A 
ATOM     94  C   UNL     1     -12.574  -1.490  -1.066  1.00  0.00     0.031 A 
ATOM     95  C   UNL     1     -13.047  -1.103   1.266  1.00  0.00     0.131 A 
ATOM     96  C   UNL     1     -13.929  -1.255  -1.352  1.00  0.00     0.055 A 
ATOM     97  C   UNL     1     -14.402  -0.926   0.984  1.00  0.00     0.041 A 
ATOM     98  F   UNL     1     -12.660  -0.993   2.547  1.00  0.00    -0.206 F 
ATOM     99  C   UNL     1     -14.848  -0.989  -0.333  1.00  0.00     0.022 A 
BRANCH  96 100
ATOM    100  S   UNL     1     -14.463  -1.212  -3.085  1.00  0.00     0.124 S 
ATOM    101  O   UNL     1     -13.626  -0.151  -3.635  1.00  0.00    -0.237 OA
ATOM    102  O   UNL     1     -14.159  -2.565  -3.540  1.00  0.00    -0.237 OA
ATOM    103  O   UNL     1     -15.888  -0.895  -2.998  1.00  0.00    -0.744 OA
ENDBRANCH  96 100
ENDBRANCH  70  93
ENDBRANCH  44  45
ENDBRANCH  37  39
ENDBRANCH  36  37
ENDBRANCH  35  36
ENDBRANCH  34  35
ENDBRANCH   1  34
TORSDOF 20
