REMARK SMILES C[C@H](CC(=O)N1CCC2(CC1)CN(CCCC(=O)OCCOCCOC(=O)c1ccc(-c3c4nc(c(-c5cc(S(=O)(=O)[O-])ccc5F)c5ccc([nH]5)c(-c5cc(S(=O)(=O)[O-])ccc5F)c5nc(c(-c6cc(S(=O)(=O)[O-])ccc6F)c6ccc3[nH]6)C=C5)C=C4)cc1)C(=O)O2)n1ccnc1
REMARK SMILES IDX 20 1 19 2 17 3 18 4 16 5 15 6 14 7 13 8 4 9 5 10 6 11 7 12
REMARK SMILES IDX 11 13 8 14 10 15 9 16 12 17 93 18 91 19 92 20 3 21 2 22 1 23
REMARK SMILES IDX 94 24 95 25 98 26 96 27 97 28 21 29 22 30 23 31 24 32 25 33
REMARK SMILES IDX 26 34 27 35 28 36 29 37 90 38 30 39 89 40 31 41 32 42 33 43
REMARK SMILES IDX 83 44 34 45 88 46 82 47 84 48 35 49 87 50 81 51 80 52 36 54
REMARK SMILES IDX 68 55 48 56 67 57 49 58 52 59 66 60 85 61 50 62 51 63 65 65
REMARK SMILES IDX 86 66 53 67 37 68 38 69 46 70 39 71 45 72 47 73 44 74 40 75
REMARK SMILES IDX 41 76 42 77 43 78 69 79 70 80 78 81 71 82 77 83 79 84 76 85
REMARK SMILES IDX 72 86 73 87 74 88 75 89 54 90 55 91 63 92 56 93 62 94 64 95
REMARK SMILES IDX 61 96 57 97 58 98 59 99 60 100
REMARK H PARENT 84 53 52 64
REMARK Flexibility Score: inf
ROOT
ATOM      1  C   UNL     1      -3.838   4.620  -3.464  1.00  0.00     0.261 C 
ENDROOT
BRANCH   1   2
ATOM      2  O   UNL     1      -4.469   4.664  -2.175  1.00  0.00    -0.463 OA
BRANCH   2   3
ATOM      3  C   UNL     1      -3.896   5.463  -1.248  1.00  0.00     0.305 C 
ATOM      4  O   UNL     1      -2.794   5.989  -1.354  1.00  0.00    -0.252 OA
BRANCH   3   5
ATOM      5  C   UNL     1      -4.778   5.706  -0.039  1.00  0.00     0.124 C 
BRANCH   5   6
ATOM      6  C   UNL     1      -6.150   5.027   0.090  1.00  0.00     0.033 C 
BRANCH   6   7
ATOM      7  C   UNL     1      -6.290   3.525  -0.169  1.00  0.00     0.124 C 
BRANCH   7   8
ATOM      8  N   UNL     1      -5.494   2.663   0.681  1.00  0.00    -0.304 N 
ATOM      9  C   UNL     1      -0.053  -0.478   1.233  1.00  0.00     0.224 C 
ATOM     10  O   UNL     1       0.734  -0.814   2.123  1.00  0.00    -0.275 OA
ATOM     11  N   UNL     1      -1.401  -0.304   1.500  1.00  0.00    -0.342 N 
ATOM     12  C   UNL     1      -1.869   0.235   2.767  1.00  0.00     0.123 C 
ATOM     13  C   UNL     1      -2.479  -0.607   0.589  1.00  0.00     0.123 C 
ATOM     14  C   UNL     1      -2.622   1.548   2.499  1.00  0.00     0.072 C 
ATOM     15  C   UNL     1      -3.114   0.685   0.129  1.00  0.00     0.072 C 
ATOM     16  C   UNL     1      -3.647   1.455   1.348  1.00  0.00     0.135 C 
ATOM     17  C   UNL     1      -4.101   2.836   0.921  1.00  0.00     0.172 C 
ATOM     18  O   UNL     1      -4.864   0.833   1.810  1.00  0.00    -0.441 OA
ATOM     19  C   UNL     1      -5.926   1.483   1.231  1.00  0.00     0.410 C 
ATOM     20  O   UNL     1      -7.071   1.056   1.240  1.00  0.00    -0.224 OA
BRANCH   9  21
ATOM     21  C   UNL     1       0.503   0.067  -0.093  1.00  0.00     0.125 C 
BRANCH  21  22
ATOM     22  C   UNL     1       0.636  -0.766  -1.385  1.00  0.00     0.094 C 
ATOM     23  C   UNL     1       1.403  -2.074  -1.206  1.00  0.00     0.032 C 
BRANCH  22  24
ATOM     24  N   UNL     1      -0.603  -0.887  -2.137  1.00  0.00    -0.334 N 
ATOM     25  C   UNL     1      -1.383  -1.996  -2.307  1.00  0.00     0.107 A 
ATOM     26  C   UNL     1      -1.249   0.158  -2.746  1.00  0.00     0.199 A 
ATOM     27  C   UNL     1      -2.566  -1.512  -2.816  1.00  0.00     0.130 A 
ATOM     28  N   UNL     1      -2.470  -0.173  -3.097  1.00  0.00    -0.245 NA
ENDBRANCH  22  24
ENDBRANCH  21  22
ENDBRANCH   9  21
ENDBRANCH   7   8
ENDBRANCH   6   7
ENDBRANCH   5   6
ENDBRANCH   3   5
ENDBRANCH   2   3
ENDBRANCH   1   2
BRANCH   1  29
ATOM     29  C   UNL     1      -4.781   5.162  -4.542  1.00  0.00     0.202 C 
BRANCH  29  30
ATOM     30  O   UNL     1      -5.283   6.487  -4.365  1.00  0.00    -0.374 OA
BRANCH  30  31
ATOM     31  C   UNL     1      -6.267   6.711  -3.358  1.00  0.00     0.202 C 
BRANCH  31  32
ATOM     32  C   UNL     1      -7.684   6.153  -3.560  1.00  0.00     0.261 C 
BRANCH  32  33
ATOM     33  O   UNL     1      -7.731   4.724  -3.701  1.00  0.00    -0.460 OA
BRANCH  33  34
ATOM     34  C   UNL     1      -8.007   4.312  -4.966  1.00  0.00     0.338 C 
ATOM     35  O   UNL     1      -8.229   5.026  -5.931  1.00  0.00    -0.246 OA
BRANCH  34  36
ATOM     36  C   UNL     1      -7.811   2.856  -5.097  1.00  0.00     0.060 A 
ATOM     37  C   UNL     1      -6.935   2.420  -6.099  1.00  0.00     0.016 A 
ATOM     38  C   UNL     1      -8.541   1.938  -4.342  1.00  0.00     0.016 A 
ATOM     39  C   UNL     1      -6.831   1.064  -6.393  1.00  0.00     0.010 A 
ATOM     40  C   UNL     1      -8.436   0.574  -4.642  1.00  0.00     0.010 A 
ATOM     41  C   UNL     1      -7.612   0.134  -5.696  1.00  0.00    -0.014 A 
BRANCH  41  42
ATOM     42  C   UNL     1      -7.673  -1.270  -6.178  1.00  0.00     0.031 A 
ATOM     43  C   UNL     1      -8.887  -1.738  -6.931  1.00  0.00     0.074 A 
ATOM     44  C   UNL     1      -6.634  -2.106  -6.006  1.00  0.00     0.049 A 
ATOM     45  N   UNL     1      -9.162  -2.923  -7.414  1.00  0.00    -0.248 NA
ATOM     46  C   UNL     1      -9.930  -0.731  -7.172  1.00  0.00     0.031 C 
ATOM     47  C   UNL     1      -5.365  -1.749  -5.377  1.00  0.00     0.029 A 
ATOM     48  N   UNL     1      -6.481  -3.425  -6.355  1.00  0.00    -0.354 N 
ATOM     49  C   UNL     1     -10.412  -2.808  -8.011  1.00  0.00     0.074 A 
ATOM     50  C   UNL     1     -10.859  -1.449  -7.783  1.00  0.00     0.031 C 
ATOM     51  C   UNL     1      -4.565  -2.827  -5.387  1.00  0.00     0.029 A 
ATOM     52  C   UNL     1      -5.289  -3.964  -5.937  1.00  0.00     0.049 A 
ATOM     53  H   UNL     1      -7.158  -3.934  -6.856  1.00  0.00     0.167 HD
ATOM     54  C   UNL     1     -11.114  -3.747  -8.696  1.00  0.00     0.034 A 
ATOM     55  C   UNL     1      -4.837  -5.233  -5.948  1.00  0.00     0.034 A 
ATOM     56  C   UNL     1     -10.654  -5.102  -8.898  1.00  0.00     0.049 A 
ATOM     57  C   UNL     1      -5.679  -6.295  -6.597  1.00  0.00     0.074 A 
ATOM     58  C   UNL     1     -11.270  -6.127  -9.595  1.00  0.00     0.029 A 
ATOM     59  N   UNL     1      -9.476  -5.632  -8.381  1.00  0.00    -0.354 N 
ATOM     60  N   UNL     1      -6.856  -6.178  -7.167  1.00  0.00    -0.248 NA
ATOM     61  C   UNL     1      -5.124  -7.652  -6.630  1.00  0.00     0.031 C 
ATOM     62  C   UNL     1     -10.517  -7.293  -9.420  1.00  0.00     0.029 A 
ATOM     63  C   UNL     1      -9.375  -6.980  -8.700  1.00  0.00     0.049 A 
ATOM     64  H   UNL     1      -8.809  -5.124  -7.864  1.00  0.00     0.167 HD
ATOM     65  C   UNL     1      -7.168  -7.442  -7.657  1.00  0.00     0.074 A 
ATOM     66  C   UNL     1      -6.051  -8.302  -7.319  1.00  0.00     0.031 C 
ATOM     67  C   UNL     1      -8.273  -7.845  -8.338  1.00  0.00     0.034 A 
BRANCH  54  68
ATOM     68  C   UNL     1     -12.482  -3.348  -9.206  1.00  0.00     0.023 A 
ATOM     69  C   UNL     1     -12.659  -2.288 -10.114  1.00  0.00     0.031 A 
ATOM     70  C   UNL     1     -13.634  -3.993  -8.721  1.00  0.00     0.131 A 
ATOM     71  C   UNL     1     -13.953  -1.838 -10.423  1.00  0.00     0.055 A 
ATOM     72  C   UNL     1     -14.918  -3.605  -9.112  1.00  0.00     0.041 A 
ATOM     73  F   UNL     1     -13.536  -4.996  -7.835  1.00  0.00    -0.206 F 
ATOM     74  C   UNL     1     -15.084  -2.506  -9.950  1.00  0.00     0.022 A 
BRANCH  71  75
ATOM     75  S   UNL     1     -14.133  -0.249 -11.281  1.00  0.00     0.124 S 
ATOM     76  O   UNL     1     -13.376   0.646 -10.409  1.00  0.00    -0.237 OA
ATOM     77  O   UNL     1     -13.540  -0.526 -12.584  1.00  0.00    -0.237 OA
ATOM     78  O   UNL     1     -15.578  -0.025 -11.287  1.00  0.00    -0.744 OA
ENDBRANCH  71  75
ENDBRANCH  54  68
BRANCH  55  79
ATOM     79  C   UNL     1      -3.553  -5.566  -5.268  1.00  0.00     0.023 A 
ATOM     80  C   UNL     1      -2.426  -5.990  -5.986  1.00  0.00     0.031 A 
ATOM     81  C   UNL     1      -3.443  -5.459  -3.868  1.00  0.00     0.131 A 
ATOM     82  C   UNL     1      -1.243  -6.313  -5.300  1.00  0.00     0.055 A 
ATOM     83  C   UNL     1      -2.254  -5.744  -3.195  1.00  0.00     0.041 A 
ATOM     84  F   UNL     1      -4.489  -5.048  -3.133  1.00  0.00    -0.206 F 
ATOM     85  C   UNL     1      -1.146  -6.178  -3.912  1.00  0.00     0.022 A 
BRANCH  82  86
ATOM     86  S   UNL     1       0.165  -6.960  -6.243  1.00  0.00     0.124 S 
ATOM     87  O   UNL     1      -0.392  -8.184  -6.807  1.00  0.00    -0.237 OA
ATOM     88  O   UNL     1       0.423  -5.876  -7.185  1.00  0.00    -0.237 OA
ATOM     89  O   UNL     1       1.195  -7.152  -5.225  1.00  0.00    -0.744 OA
ENDBRANCH  82  86
ENDBRANCH  55  79
BRANCH  67  90
ATOM     90  C   UNL     1      -8.307  -9.283  -8.802  1.00  0.00     0.023 A 
ATOM     91  C   UNL     1      -8.341 -10.358  -7.896  1.00  0.00     0.031 A 
ATOM     92  C   UNL     1      -8.294  -9.581 -10.177  1.00  0.00     0.131 A 
ATOM     93  C   UNL     1      -8.301 -11.677  -8.373  1.00  0.00     0.055 A 
ATOM     94  C   UNL     1      -8.328 -10.895 -10.647  1.00  0.00     0.041 A 
ATOM     95  F   UNL     1      -8.251  -8.598 -11.090  1.00  0.00    -0.206 F 
ATOM     96  C   UNL     1      -8.317 -11.952  -9.743  1.00  0.00     0.022 A 
BRANCH  93  97
ATOM     97  S   UNL     1      -8.115 -13.031  -7.181  1.00  0.00     0.124 S 
ATOM     98  O   UNL     1      -6.873 -12.668  -6.505  1.00  0.00    -0.237 OA
ATOM     99  O   UNL     1      -9.332 -12.916  -6.384  1.00  0.00    -0.237 OA
ATOM    100  O   UNL     1      -8.036 -14.223  -8.024  1.00  0.00    -0.744 OA
ENDBRANCH  93  97
ENDBRANCH  67  90
ENDBRANCH  41  42
ENDBRANCH  34  36
ENDBRANCH  33  34
ENDBRANCH  32  33
ENDBRANCH  31  32
ENDBRANCH  30  31
ENDBRANCH  29  30
ENDBRANCH   1  29
TORSDOF 23
