REMARK SMILES Cc1cc(F)cc(N[C@@](C)(C(=O)OCCOCCOC(=O)c2ccc(-c3c4nc(c(-c5cc(S(=O)(=O)[O-])ccc5F)c5ccc([nH]5)c(-c5cc(S(=O)(=O)[O-])ccc5F)c5nc(c(-c6cc(S(=O)(=O)[O-])ccc6F)c6ccc3[nH]6)C=C5)C=C4)cc2)c2ccc(O)cc2)c1
REMARK SMILES IDX 17 1 16 2 15 3 14 4 13 5 11 6 12 7 9 8 10 9 8 10 7 12 1 13
REMARK SMILES IDX 2 14 3 15 92 16 4 17 5 18 6 19 85 20 86 21 91 22 87 23 90 24
REMARK SMILES IDX 88 25 89 26 18 28 19 29 20 30 21 31 22 32 23 33 84 34 24 35
REMARK SMILES IDX 83 36 25 37 26 38 27 39 77 40 28 41 82 42 76 43 78 44 29 45
REMARK SMILES IDX 81 46 75 47 74 48 30 50 62 51 42 52 61 53 43 54 46 55 60 56
REMARK SMILES IDX 79 57 44 58 45 59 59 61 80 62 47 63 31 64 32 65 40 66 33 67
REMARK SMILES IDX 39 68 41 69 38 70 34 71 35 72 36 73 37 74 63 75 64 76 72 77
REMARK SMILES IDX 65 78 71 79 73 80 70 81 66 82 67 83 68 84 69 85 48 86 49 87
REMARK SMILES IDX 57 88 50 89 56 90 58 91 55 92 51 93 52 94 53 95 54 96
REMARK H PARENT 8 11 89 27 78 49 46 60
REMARK Flexibility Score: inf
ROOT
ATOM      1  C   UNL     1      -0.654  -3.665   3.532  1.00  0.00     0.202 C 
ENDROOT
BRANCH   1   2
ATOM      2  O   UNL     1      -1.116  -4.922   4.033  1.00  0.00    -0.374 OA
BRANCH   2   3
ATOM      3  C   UNL     1      -0.339  -6.078   3.736  1.00  0.00     0.202 C 
BRANCH   3   4
ATOM      4  C   UNL     1      -0.338  -6.590   2.287  1.00  0.00     0.261 C 
BRANCH   4   5
ATOM      5  O   UNL     1      -0.224  -5.540   1.315  1.00  0.00    -0.461 OA
BRANCH   5   6
ATOM      6  C   UNL     1      -1.269  -5.427   0.437  1.00  0.00     0.336 C 
ATOM      7  O   UNL     1      -2.137  -6.287   0.301  1.00  0.00    -0.249 OA
BRANCH   6   8
ATOM      8  C   UNL     1      -1.213  -4.099  -0.404  1.00  0.00     0.158 C 
ATOM      9  C   UNL     1      -0.902  -4.605  -1.834  1.00  0.00     0.053 C 
BRANCH   8  10
ATOM     10  N   UNL     1      -0.038  -3.262   0.002  1.00  0.00    -0.366 N 
ATOM     11  H   UNL     1       0.801  -3.775   0.059  1.00  0.00     0.162 HD
BRANCH  10  12
ATOM     12  C   UNL     1       0.119  -1.929   0.312  1.00  0.00     0.038 A 
ATOM     13  C   UNL     1       2.825   0.726  -0.290  1.00  0.00     0.044 C 
ATOM     14  C   UNL     1       1.541   0.080   0.137  1.00  0.00    -0.046 A 
ATOM     15  C   UNL     1       0.522   0.854   0.688  1.00  0.00     0.042 A 
ATOM     16  C   UNL     1       1.322  -1.297  -0.056  1.00  0.00     0.029 A 
ATOM     17  C   UNL     1      -0.656   0.241   1.085  1.00  0.00     0.125 A 
ATOM     18  F   UNL     1      -1.629   0.982   1.633  1.00  0.00    -0.207 F 
ATOM     19  C   UNL     1      -0.849  -1.129   0.919  1.00  0.00     0.065 A 
ENDBRANCH  10  12
ENDBRANCH   8  10
BRANCH   8  20
ATOM     20  C   UNL     1      -2.556  -3.334  -0.415  1.00  0.00    -0.011 A 
ATOM     21  C   UNL     1      -2.735  -2.218  -1.262  1.00  0.00     0.010 A 
ATOM     22  C   UNL     1      -3.623  -3.662   0.447  1.00  0.00     0.010 A 
ATOM     23  C   UNL     1      -3.884  -1.424  -1.190  1.00  0.00     0.046 A 
ATOM     24  C   UNL     1      -4.789  -2.890   0.493  1.00  0.00     0.046 A 
ATOM     25  C   UNL     1      -4.896  -1.760  -0.305  1.00  0.00     0.115 A 
BRANCH  25  26
ATOM     26  O   UNL     1      -5.982  -0.939  -0.229  1.00  0.00    -0.508 OA
ATOM     27  H   UNL     1      -6.036  -0.181  -0.776  1.00  0.00     0.293 HD
ENDBRANCH  25  26
ENDBRANCH   8  20
ENDBRANCH   6   8
ENDBRANCH   5   6
ENDBRANCH   4   5
ENDBRANCH   3   4
ENDBRANCH   2   3
ENDBRANCH   1   2
BRANCH   1  28
ATOM     28  C   UNL     1       0.707  -3.138   4.008  1.00  0.00     0.261 C 
BRANCH  28  29
ATOM     29  O   UNL     1       1.812  -3.975   3.618  1.00  0.00    -0.460 OA
BRANCH  29  30
ATOM     30  C   UNL     1       2.561  -4.429   4.654  1.00  0.00     0.338 C 
ATOM     31  O   UNL     1       2.420  -4.154   5.838  1.00  0.00    -0.246 OA
BRANCH  30  32
ATOM     32  C   UNL     1       3.489  -5.481   4.203  1.00  0.00     0.060 A 
ATOM     33  C   UNL     1       3.404  -6.729   4.833  1.00  0.00     0.016 A 
ATOM     34  C   UNL     1       4.494  -5.224   3.270  1.00  0.00     0.016 A 
ATOM     35  C   UNL     1       4.356  -7.711   4.571  1.00  0.00     0.010 A 
ATOM     36  C   UNL     1       5.456  -6.209   3.013  1.00  0.00     0.010 A 
ATOM     37  C   UNL     1       5.413  -7.442   3.691  1.00  0.00    -0.014 A 
BRANCH  37  38
ATOM     38  C   UNL     1       6.550  -8.393   3.613  1.00  0.00     0.031 A 
ATOM     39  C   UNL     1       7.798  -8.105   4.403  1.00  0.00     0.074 A 
ATOM     40  C   UNL     1       6.460  -9.514   2.876  1.00  0.00     0.049 A 
ATOM     41  N   UNL     1       8.912  -8.786   4.478  1.00  0.00    -0.248 NA
ATOM     42  C   UNL     1       7.785  -6.877   5.210  1.00  0.00     0.031 C 
ATOM     43  C   UNL     1       5.292  -9.913   2.091  1.00  0.00     0.029 A 
ATOM     44  N   UNL     1       7.371 -10.516   2.659  1.00  0.00    -0.354 N 
ATOM     45  C   UNL     1       9.738  -8.067   5.336  1.00  0.00     0.074 A 
ATOM     46  C   UNL     1       9.007  -6.878   5.721  1.00  0.00     0.031 C 
ATOM     47  C   UNL     1       5.566 -11.068   1.462  1.00  0.00     0.029 A 
ATOM     48  C   UNL     1       6.936 -11.474   1.776  1.00  0.00     0.049 A 
ATOM     49  H   UNL     1       8.253 -10.546   3.096  1.00  0.00     0.167 HD
ATOM     50  C   UNL     1      10.987  -8.376   5.769  1.00  0.00     0.034 A 
ATOM     51  C   UNL     1       7.577 -12.540   1.257  1.00  0.00     0.034 A 
ATOM     52  C   UNL     1      11.705  -9.561   5.365  1.00  0.00     0.049 A 
ATOM     53  C   UNL     1       8.988 -12.836   1.700  1.00  0.00     0.074 A 
ATOM     54  C   UNL     1      12.955  -9.995   5.772  1.00  0.00     0.029 A 
ATOM     55  N   UNL     1      11.245 -10.494   4.443  1.00  0.00    -0.354 N 
ATOM     56  N   UNL     1       9.747 -12.168   2.539  1.00  0.00    -0.248 NA
ATOM     57  C   UNL     1       9.622 -14.034   1.136  1.00  0.00     0.031 C 
ATOM     58  C   UNL     1      13.281 -11.144   5.041  1.00  0.00     0.029 A 
ATOM     59  C   UNL     1      12.203 -11.475   4.235  1.00  0.00     0.049 A 
ATOM     60  H   UNL     1      10.366 -10.462   4.001  1.00  0.00     0.167 HD
ATOM     61  C   UNL     1      10.943 -12.878   2.617  1.00  0.00     0.074 A 
ATOM     62  C   UNL     1      10.796 -14.031   1.751  1.00  0.00     0.031 C 
ATOM     63  C   UNL     1      12.056 -12.606   3.346  1.00  0.00     0.034 A 
BRANCH  50  64
ATOM     64  C   UNL     1      11.667  -7.377   6.677  1.00  0.00     0.023 A 
ATOM     65  C   UNL     1      11.151  -7.051   7.944  1.00  0.00     0.031 A 
ATOM     66  C   UNL     1      12.818  -6.695   6.242  1.00  0.00     0.131 A 
ATOM     67  C   UNL     1      11.728  -6.011   8.690  1.00  0.00     0.055 A 
ATOM     68  C   UNL     1      13.438  -5.720   7.027  1.00  0.00     0.041 A 
ATOM     69  F   UNL     1      13.345  -6.945   5.034  1.00  0.00    -0.206 F 
ATOM     70  C   UNL     1      12.882  -5.359   8.250  1.00  0.00     0.022 A 
BRANCH  67  71
ATOM     71  S   UNL     1      10.849  -5.406  10.158  1.00  0.00     0.124 S 
ATOM     72  O   UNL     1       9.539  -5.075   9.602  1.00  0.00    -0.237 OA
ATOM     73  O   UNL     1      10.893  -6.559  11.049  1.00  0.00    -0.237 OA
ATOM     74  O   UNL     1      11.644  -4.255  10.583  1.00  0.00    -0.744 OA
ENDBRANCH  67  71
ENDBRANCH  50  64
BRANCH  51  75
ATOM     75  C   UNL     1       6.905 -13.377   0.224  1.00  0.00     0.023 A 
ATOM     76  C   UNL     1       6.533 -14.705   0.481  1.00  0.00     0.031 A 
ATOM     77  C   UNL     1       6.636 -12.848  -1.052  1.00  0.00     0.131 A 
ATOM     78  C   UNL     1       5.933 -15.469  -0.533  1.00  0.00     0.055 A 
ATOM     79  C   UNL     1       6.002 -13.598  -2.043  1.00  0.00     0.041 A 
ATOM     80  F   UNL     1       6.969 -11.581  -1.345  1.00  0.00    -0.206 F 
ATOM     81  C   UNL     1       5.654 -14.920  -1.788  1.00  0.00     0.022 A 
BRANCH  78  82
ATOM     82  S   UNL     1       5.554 -17.212  -0.204  1.00  0.00     0.124 S 
ATOM     83  O   UNL     1       6.880 -17.760   0.058  1.00  0.00    -0.237 OA
ATOM     84  O   UNL     1       4.661 -17.116   0.946  1.00  0.00    -0.237 OA
ATOM     85  O   UNL     1       4.924 -17.663  -1.443  1.00  0.00    -0.744 OA
ENDBRANCH  78  82
ENDBRANCH  51  75
BRANCH  63  86
ATOM     86  C   UNL     1      13.194 -13.595   3.256  1.00  0.00     0.023 A 
ATOM     87  C   UNL     1      13.933 -13.768   2.073  1.00  0.00     0.031 A 
ATOM     88  C   UNL     1      13.538 -14.381   4.371  1.00  0.00     0.131 A 
ATOM     89  C   UNL     1      14.945 -14.739   2.016  1.00  0.00     0.055 A 
ATOM     90  C   UNL     1      14.584 -15.304   4.327  1.00  0.00     0.041 A 
ATOM     91  F   UNL     1      12.864 -14.260   5.526  1.00  0.00    -0.206 F 
ATOM     92  C   UNL     1      15.286 -15.496   3.141  1.00  0.00     0.022 A 
BRANCH  89  93
ATOM     93  S   UNL     1      15.757 -15.063   0.426  1.00  0.00     0.124 S 
ATOM     94  O   UNL     1      14.629 -15.443  -0.418  1.00  0.00    -0.237 OA
ATOM     95  O   UNL     1      16.376 -13.777   0.124  1.00  0.00    -0.237 OA
ATOM     96  O   UNL     1      16.692 -16.144   0.733  1.00  0.00    -0.744 OA
ENDBRANCH  89  93
ENDBRANCH  63  86
ENDBRANCH  37  38
ENDBRANCH  30  32
ENDBRANCH  29  30
ENDBRANCH  28  29
ENDBRANCH   1  28
TORSDOF 21
