REMARK SMILES CC[NH+]1CCC2(CC1)OC[C@H](C(=O)OCCOCCOC(=O)c1ccc(-c3c4nc(c(-c5cc(S(=O)(=O)[O-])ccc5F)c5ccc([nH]5)c(-c5cc(S(=O)(=O)[O-])ccc5F)c5nc(c(-c6cc(S(=O)(=O)[O-])ccc6F)c6ccc3[nH]6)C=C5)C=C4)cc1)N2C(=O)c1ccccc1
REMARK SMILES IDX 18 1 17 2 16 3 15 4 14 5 12 6 13 7 11 8 3 9 4 10 8 11 5 13
REMARK SMILES IDX 7 14 6 15 9 16 86 17 10 18 2 19 1 20 87 21 88 22 89 23 90 24
REMARK SMILES IDX 94 25 91 26 93 27 92 28 19 29 20 30 21 31 22 32 23 33 24 34
REMARK SMILES IDX 85 35 25 36 84 37 26 38 27 39 28 40 78 41 29 42 83 43 77 44
REMARK SMILES IDX 79 45 30 46 82 47 76 48 75 49 31 51 63 52 43 53 62 54 44 55
REMARK SMILES IDX 47 56 61 57 80 58 45 59 46 60 60 62 81 63 48 64 32 65 33 66
REMARK SMILES IDX 41 67 34 68 40 69 42 70 39 71 35 72 36 73 37 74 38 75 64 76
REMARK SMILES IDX 65 77 73 78 66 79 72 80 74 81 71 82 67 83 68 84 69 85 70 86
REMARK SMILES IDX 49 87 50 88 58 89 51 90 57 91 59 92 56 93 52 94 53 95 54 96
REMARK SMILES IDX 55 97
REMARK H PARENT 3 12 79 50 47 61
REMARK Flexibility Score: inf
ROOT
ATOM      1  C   UNL     1      -2.631   3.772   7.231  1.00  0.00     0.202 C 
ENDROOT
BRANCH   1   2
ATOM      2  O   UNL     1      -3.608   4.342   6.362  1.00  0.00    -0.374 OA
BRANCH   2   3
ATOM      3  C   UNL     1      -4.826   3.635   6.147  1.00  0.00     0.202 C 
BRANCH   3   4
ATOM      4  C   UNL     1      -4.781   2.437   5.196  1.00  0.00     0.261 C 
BRANCH   4   5
ATOM      5  O   UNL     1      -4.102   1.301   5.759  1.00  0.00    -0.462 OA
BRANCH   5   6
ATOM      6  C   UNL     1      -2.820   1.137   5.330  1.00  0.00     0.331 C 
ATOM      7  O   UNL     1      -2.222   1.946   4.625  1.00  0.00    -0.250 OA
BRANCH   6   8
ATOM      8  C   UNL     1      -2.190  -0.130   5.917  1.00  0.00     0.224 C 
ATOM      9  N   UNL     1       0.603  -0.849   1.699  1.00  0.00    -0.335 N 
ATOM     10  C   UNL     1      -0.327   0.193   2.129  1.00  0.00     0.267 C 
ATOM     11  C   UNL     1       0.784  -1.965   2.632  1.00  0.00     0.267 C 
ATOM     12  H   UNL     1       1.513  -0.389   1.729  1.00  0.00     0.348 HD
ATOM     13  C   UNL     1      -1.579  -0.374   2.748  1.00  0.00     0.120 C 
ATOM     14  C   UNL     1      -0.345  -2.338   3.599  1.00  0.00     0.120 C 
ATOM     15  C   UNL     1      -1.263  -1.192   4.007  1.00  0.00     0.155 C 
ATOM     16  O   UNL     1      -2.546  -1.822   4.334  1.00  0.00    -0.352 OA
ATOM     17  N   UNL     1      -0.943  -0.417   5.225  1.00  0.00    -0.293 N 
ATOM     18  C   UNL     1      -2.984  -1.370   5.626  1.00  0.00     0.200 C 
BRANCH   9  19
ATOM     19  C   UNL     1       0.416  -1.253   0.306  1.00  0.00     0.258 C 
ATOM     20  C   UNL     1       1.015  -0.207  -0.632  1.00  0.00     0.071 C 
ENDBRANCH   9  19
BRANCH  17  21
ATOM     21  C   UNL     1       0.188   0.176   5.764  1.00  0.00     0.256 C 
ATOM     22  O   UNL     1       0.137   0.924   6.744  1.00  0.00    -0.269 OA
BRANCH  21  23
ATOM     23  C   UNL     1       1.537  -0.113   5.272  1.00  0.00     0.040 A 
ATOM     24  C   UNL     1       2.213  -1.246   5.739  1.00  0.00     0.014 A 
ATOM     25  C   UNL     1       2.195   0.821   4.469  1.00  0.00     0.014 A 
ATOM     26  C   UNL     1       3.514  -1.499   5.297  1.00  0.00     0.001 A 
ATOM     27  C   UNL     1       3.484   0.551   4.008  1.00  0.00     0.001 A 
ATOM     28  C   UNL     1       4.137  -0.615   4.411  1.00  0.00     0.000 A 
ENDBRANCH  21  23
ENDBRANCH  17  21
ENDBRANCH   6   8
ENDBRANCH   5   6
ENDBRANCH   4   5
ENDBRANCH   3   4
ENDBRANCH   2   3
ENDBRANCH   1   2
BRANCH   1  29
ATOM     29  C   UNL     1      -2.916   3.812   8.736  1.00  0.00     0.261 C 
BRANCH  29  30
ATOM     30  O   UNL     1      -4.042   2.994   9.104  1.00  0.00    -0.460 OA
BRANCH  30  31
ATOM     31  C   UNL     1      -5.124   3.691   9.523  1.00  0.00     0.338 C 
ATOM     32  O   UNL     1      -5.208   4.907   9.657  1.00  0.00    -0.246 OA
BRANCH  31  33
ATOM     33  C   UNL     1      -6.299   2.808   9.631  1.00  0.00     0.060 A 
ATOM     34  C   UNL     1      -7.460   3.201   8.954  1.00  0.00     0.016 A 
ATOM     35  C   UNL     1      -6.301   1.672  10.444  1.00  0.00     0.016 A 
ATOM     36  C   UNL     1      -8.644   2.494   9.134  1.00  0.00     0.010 A 
ATOM     37  C   UNL     1      -7.496   0.965  10.628  1.00  0.00     0.010 A 
ATOM     38  C   UNL     1      -8.681   1.396  10.004  1.00  0.00    -0.014 A 
BRANCH  38  39
ATOM     39  C   UNL     1      -9.997   0.803  10.348  1.00  0.00     0.031 A 
ATOM     40  C   UNL     1     -10.670   1.202  11.634  1.00  0.00     0.074 A 
ATOM     41  C   UNL     1     -10.617  -0.020   9.483  1.00  0.00     0.049 A 
ATOM     42  N   UNL     1     -11.842   0.857  12.100  1.00  0.00    -0.248 NA
ATOM     43  C   UNL     1      -9.917   2.111  12.510  1.00  0.00     0.031 C 
ATOM     44  C   UNL     1     -10.075  -0.447   8.193  1.00  0.00     0.029 A 
ATOM     45  N   UNL     1     -11.841  -0.634   9.553  1.00  0.00    -0.354 N 
ATOM     46  C   UNL     1     -11.974   1.512  13.320  1.00  0.00     0.074 A 
ATOM     47  C   UNL     1     -10.740   2.236  13.541  1.00  0.00     0.031 C 
ATOM     48  C   UNL     1     -10.967  -1.252   7.591  1.00  0.00     0.029 A 
ATOM     49  C   UNL     1     -12.129  -1.417   8.461  1.00  0.00     0.049 A 
ATOM     50  H   UNL     1     -12.456  -0.523  10.315  1.00  0.00     0.167 HD
ATOM     51  C   UNL     1     -13.032   1.519  14.170  1.00  0.00     0.034 A 
ATOM     52  C   UNL     1     -13.204  -2.186   8.198  1.00  0.00     0.034 A 
ATOM     53  C   UNL     1     -14.249   0.776  13.943  1.00  0.00     0.049 A 
ATOM     54  C   UNL     1     -14.341  -2.213   9.190  1.00  0.00     0.074 A 
ATOM     55  C   UNL     1     -15.384   0.716  14.734  1.00  0.00     0.029 A 
ATOM     56  N   UNL     1     -14.488  -0.048  12.849  1.00  0.00    -0.354 N 
ATOM     57  N   UNL     1     -14.461  -1.574  10.332  1.00  0.00    -0.248 NA
ATOM     58  C   UNL     1     -15.496  -3.050   8.844  1.00  0.00     0.031 C 
ATOM     59  C   UNL     1     -16.276  -0.196  14.155  1.00  0.00     0.029 A 
ATOM     60  C   UNL     1     -15.735  -0.644  12.961  1.00  0.00     0.049 A 
ATOM     61  H   UNL     1     -13.861  -0.187  12.103  1.00  0.00     0.167 HD
ATOM     62  C   UNL     1     -15.717  -1.915  10.828  1.00  0.00     0.074 A 
ATOM     63  C   UNL     1     -16.323  -2.791   9.845  1.00  0.00     0.031 C 
ATOM     64  C   UNL     1     -16.318  -1.538  11.987  1.00  0.00     0.034 A 
BRANCH  51  65
ATOM     65  C   UNL     1     -12.888   2.316  15.446  1.00  0.00     0.023 A 
ATOM     66  C   UNL     1     -12.736   3.714  15.435  1.00  0.00     0.031 A 
ATOM     67  C   UNL     1     -12.873   1.664  16.692  1.00  0.00     0.131 A 
ATOM     68  C   UNL     1     -12.508   4.404  16.636  1.00  0.00     0.055 A 
ATOM     69  C   UNL     1     -12.723   2.365  17.890  1.00  0.00     0.041 A 
ATOM     70  F   UNL     1     -12.990   0.329  16.766  1.00  0.00    -0.206 F 
ATOM     71  C   UNL     1     -12.524   3.742  17.866  1.00  0.00     0.022 A 
BRANCH  68  72
ATOM     72  S   UNL     1     -12.050   6.158  16.559  1.00  0.00     0.124 S 
ATOM     73  O   UNL     1     -10.845   6.112  15.734  1.00  0.00    -0.237 OA
ATOM     74  O   UNL     1     -13.225   6.764  15.942  1.00  0.00    -0.237 OA
ATOM     75  O   UNL     1     -11.825   6.516  17.958  1.00  0.00    -0.744 OA
ENDBRANCH  68  72
ENDBRANCH  51  65
BRANCH  52  76
ATOM     76  C   UNL     1     -13.255  -3.015   6.960  1.00  0.00     0.023 A 
ATOM     77  C   UNL     1     -14.225  -2.790   5.970  1.00  0.00     0.031 A 
ATOM     78  C   UNL     1     -12.361  -4.085   6.777  1.00  0.00     0.131 A 
ATOM     79  C   UNL     1     -14.307  -3.652   4.865  1.00  0.00     0.055 A 
ATOM     80  C   UNL     1     -12.414  -4.907   5.651  1.00  0.00     0.041 A 
ATOM     81  F   UNL     1     -11.413  -4.342   7.692  1.00  0.00    -0.206 F 
ATOM     82  C   UNL     1     -13.401  -4.701   4.692  1.00  0.00     0.022 A 
BRANCH  79  83
ATOM     83  S   UNL     1     -15.674  -3.432   3.692  1.00  0.00     0.124 S 
ATOM     84  O   UNL     1     -16.837  -3.577   4.559  1.00  0.00    -0.237 OA
ATOM     85  O   UNL     1     -15.418  -2.090   3.179  1.00  0.00    -0.237 OA
ATOM     86  O   UNL     1     -15.472  -4.513   2.729  1.00  0.00    -0.744 OA
ENDBRANCH  79  83
ENDBRANCH  52  76
BRANCH  64  87
ATOM     87  C   UNL     1     -17.718  -2.058  12.226  1.00  0.00     0.023 A 
ATOM     88  C   UNL     1     -17.979  -3.431  12.382  1.00  0.00     0.031 A 
ATOM     89  C   UNL     1     -18.811  -1.173  12.246  1.00  0.00     0.131 A 
ATOM     90  C   UNL     1     -19.304  -3.887  12.467  1.00  0.00     0.055 A 
ATOM     91  C   UNL     1     -20.122  -1.626  12.404  1.00  0.00     0.041 A 
ATOM     92  F   UNL     1     -18.624   0.149  12.101  1.00  0.00    -0.206 F 
ATOM     93  C   UNL     1     -20.376  -2.992  12.495  1.00  0.00     0.022 A 
BRANCH  90  94
ATOM     94  S   UNL     1     -19.613  -5.673  12.402  1.00  0.00     0.124 S 
ATOM     95  O   UNL     1     -18.939  -6.054  11.165  1.00  0.00    -0.237 OA
ATOM     96  O   UNL     1     -18.992  -6.142  13.636  1.00  0.00    -0.237 OA
ATOM     97  O   UNL     1     -21.072  -5.768  12.366  1.00  0.00    -0.744 OA
ENDBRANCH  90  94
ENDBRANCH  64  87
ENDBRANCH  38  39
ENDBRANCH  31  33
ENDBRANCH  30  31
ENDBRANCH  29  30
ENDBRANCH   1  29
TORSDOF 20
