REMARK SMILES Cc1ccc(-c2cc(OCC(=O)OCCOCCOC(=O)c3ccc(-c4c5nc(c(-c6cc(S(=O)(=O)[O-])ccc6F)c6ccc([nH]6)c(-c6cc(S(=O)(=O)[O-])ccc6F)c6nc(c(-c7cc(S(=O)(=O)[O-])ccc7F)c7ccc4[nH]7)C=C6)C=C5)cc3)nc(NCc3ccc4c(c3)OCO4)n2)cc1
REMARK SMILES IDX 15 1 14 2 13 3 11 4 12 5 10 6 9 7 8 8 6 9 7 10 98 11 86 12
REMARK SMILES IDX 85 13 5 14 1 15 2 16 3 17 100 18 4 19 99 20 87 21 88 23
REMARK SMILES IDX 89 24 90 25 94 26 91 27 93 28 92 29 95 30 97 31 96 32 16 33
REMARK SMILES IDX 17 34 18 35 19 36 20 37 21 38 22 39 23 40 84 41 24 42 83 43
REMARK SMILES IDX 25 44 26 45 27 46 77 47 28 48 82 49 76 50 78 51 29 52 81 53
REMARK SMILES IDX 75 54 74 55 30 57 62 58 42 59 61 60 43 61 46 62 60 63 79 64
REMARK SMILES IDX 44 65 45 66 59 68 80 69 47 70 31 71 32 72 40 73 33 74 39 75
REMARK SMILES IDX 41 76 38 77 34 78 35 79 36 80 37 81 63 82 64 83 72 84 65 85
REMARK SMILES IDX 71 86 73 87 70 88 66 89 67 90 68 91 69 92 48 93 49 94 57 95
REMARK SMILES IDX 50 96 56 97 58 98 55 99 51 100 52 101 53 102 54 103
REMARK H PARENT 87 22 78 56 46 67
REMARK Flexibility Score: inf
ROOT
ATOM      1  C   UNL     1      -5.264   3.611  -0.300  1.00  0.00     0.202 C 
ENDROOT
BRANCH   1   2
ATOM      2  C   UNL     1      -5.598   3.213  -1.706  1.00  0.00     0.261 C 
BRANCH   2   3
ATOM      3  O   UNL     1      -5.670   1.825  -1.984  1.00  0.00    -0.461 OA
BRANCH   3   4
ATOM      4  C   UNL     1      -5.003   1.461  -3.111  1.00  0.00     0.344 C 
ATOM      5  O   UNL     1      -4.224   2.146  -3.766  1.00  0.00    -0.248 OA
BRANCH   4   6
ATOM      6  C   UNL     1      -5.394   0.063  -3.539  1.00  0.00     0.353 C 
BRANCH   6   7
ATOM      7  O   UNL     1      -5.707  -0.924  -2.575  1.00  0.00    -0.466 OA
BRANCH   7   8
ATOM      8  C   UNL     1      -4.906  -0.958  -1.468  1.00  0.00     0.219 A 
ATOM      9  C   UNL     1      -2.893  -1.100  -0.285  1.00  0.00     0.080 A 
ATOM     10  C   UNL     1      -3.532  -0.988  -1.511  1.00  0.00     0.097 A 
ATOM     11  N   UNL     1      -3.574  -1.160   0.882  1.00  0.00    -0.213 NA
ATOM     12  C   UNL     1      -4.910  -1.061   0.816  1.00  0.00     0.226 A 
ATOM     13  N   UNL     1      -5.597  -0.996  -0.323  1.00  0.00    -0.177 NA
BRANCH   9  14
ATOM     14  C   UNL     1      -1.425  -1.009  -0.159  1.00  0.00     0.000 A 
ATOM     15  C   UNL     1       2.883  -0.505  -0.041  1.00  0.00     0.044 C 
ATOM     16  C   UNL     1       1.400  -0.702  -0.074  1.00  0.00    -0.051 A 
ATOM     17  C   UNL     1       0.816  -1.933  -0.401  1.00  0.00     0.004 A 
ATOM     18  C   UNL     1       0.573   0.352   0.281  1.00  0.00     0.004 A 
ATOM     19  C   UNL     1      -0.582  -2.080  -0.462  1.00  0.00     0.010 A 
ATOM     20  C   UNL     1      -0.806   0.178   0.267  1.00  0.00     0.010 A 
ENDBRANCH   9  14
BRANCH  12  21
ATOM     21  N   UNL     1      -5.646  -0.851   1.956  1.00  0.00    -0.350 N 
ATOM     22  H   UNL     1      -6.317  -0.131   1.980  1.00  0.00     0.164 HD
BRANCH  21  23
ATOM     23  C   UNL     1      -5.439  -1.678   3.115  1.00  0.00     0.152 C 
BRANCH  23  24
ATOM     24  C   UNL     1      -5.903  -3.105   2.880  1.00  0.00    -0.025 A 
ATOM     25  C   UNL     1      -5.255  -4.169   3.553  1.00  0.00     0.009 A 
ATOM     26  C   UNL     1      -6.920  -3.397   1.952  1.00  0.00     0.056 A 
ATOM     27  C   UNL     1      -5.519  -5.501   3.218  1.00  0.00     0.051 A 
ATOM     28  C   UNL     1      -7.111  -4.710   1.598  1.00  0.00     0.166 A 
ATOM     29  C   UNL     1      -6.413  -5.733   2.196  1.00  0.00     0.165 A 
ATOM     30  O   UNL     1      -7.904  -5.150   0.583  1.00  0.00    -0.454 OA
ATOM     31  O   UNL     1      -6.673  -6.935   1.609  1.00  0.00    -0.454 OA
ATOM     32  C   UNL     1      -7.378  -6.479   0.432  1.00  0.00     0.468 C 
ENDBRANCH  23  24
ENDBRANCH  21  23
ENDBRANCH  12  21
ENDBRANCH   7   8
ENDBRANCH   6   7
ENDBRANCH   4   6
ENDBRANCH   3   4
ENDBRANCH   2   3
ENDBRANCH   1   2
BRANCH   1  33
ATOM     33  O   UNL     1      -3.908   3.286  -0.131  1.00  0.00    -0.374 OA
BRANCH  33  34
ATOM     34  C   UNL     1      -3.736   2.041   0.483  1.00  0.00     0.202 C 
BRANCH  34  35
ATOM     35  C   UNL     1      -3.354   2.284   1.938  1.00  0.00     0.261 C 
BRANCH  35  36
ATOM     36  O   UNL     1      -2.176   3.127   2.024  1.00  0.00    -0.460 OA
BRANCH  36  37
ATOM     37  C   UNL     1      -2.443   4.453   2.188  1.00  0.00     0.338 C 
ATOM     38  O   UNL     1      -2.941   4.941   3.204  1.00  0.00    -0.246 OA
BRANCH  37  39
ATOM     39  C   UNL     1      -2.182   5.212   0.935  1.00  0.00     0.060 A 
ATOM     40  C   UNL     1      -2.902   6.396   0.688  1.00  0.00     0.016 A 
ATOM     41  C   UNL     1      -1.522   4.561  -0.108  1.00  0.00     0.016 A 
ATOM     42  C   UNL     1      -3.124   6.814  -0.629  1.00  0.00     0.010 A 
ATOM     43  C   UNL     1      -1.864   4.898  -1.403  1.00  0.00     0.010 A 
ATOM     44  C   UNL     1      -2.678   6.007  -1.674  1.00  0.00    -0.014 A 
BRANCH  44  45
ATOM     45  C   UNL     1      -2.969   6.239  -3.089  1.00  0.00     0.031 A 
ATOM     46  C   UNL     1      -1.838   6.628  -3.950  1.00  0.00     0.074 A 
ATOM     47  C   UNL     1      -4.179   5.996  -3.644  1.00  0.00     0.049 A 
ATOM     48  N   UNL     1      -1.964   7.324  -5.020  1.00  0.00    -0.248 NA
ATOM     49  C   UNL     1      -0.443   6.312  -3.653  1.00  0.00     0.031 C 
ATOM     50  C   UNL     1      -4.568   5.934  -5.053  1.00  0.00     0.029 A 
ATOM     51  N   UNL     1      -5.398   5.776  -3.002  1.00  0.00    -0.354 N 
ATOM     52  C   UNL     1      -0.788   7.209  -5.723  1.00  0.00     0.074 A 
ATOM     53  C   UNL     1       0.166   6.727  -4.763  1.00  0.00     0.031 C 
ATOM     54  C   UNL     1      -5.908   6.073  -5.148  1.00  0.00     0.029 A 
ATOM     55  C   UNL     1      -6.420   6.291  -3.800  1.00  0.00     0.049 A 
ATOM     56  H   UNL     1      -5.517   5.332  -2.131  1.00  0.00     0.167 HD
ATOM     57  C   UNL     1      -0.829   7.360  -7.077  1.00  0.00     0.034 A 
ATOM     58  C   UNL     1      -7.240   7.257  -3.323  1.00  0.00     0.034 A 
ATOM     59  C   UNL     1      -2.204   7.680  -7.509  1.00  0.00     0.049 A 
ATOM     60  C   UNL     1      -6.961   8.474  -4.161  1.00  0.00     0.074 A 
ATOM     61  C   UNL     1      -3.183   6.967  -8.183  1.00  0.00     0.029 A 
ATOM     62  N   UNL     1      -2.853   8.781  -6.948  1.00  0.00    -0.354 N 
ATOM     63  N   UNL     1      -5.831   8.640  -4.804  1.00  0.00    -0.248 NA
ATOM     64  C   UNL     1      -7.960   9.472  -4.508  1.00  0.00     0.031 C 
ATOM     65  C   UNL     1      -4.434   7.618  -7.960  1.00  0.00     0.029 A 
ATOM     66  C   UNL     1      -4.216   8.736  -7.166  1.00  0.00     0.049 A 
ATOM     67  H   UNL     1      -2.396   9.502  -6.457  1.00  0.00     0.167 HD
ATOM     68  C   UNL     1      -5.992   9.600  -5.757  1.00  0.00     0.074 A 
ATOM     69  C   UNL     1      -7.322  10.137  -5.489  1.00  0.00     0.031 C 
ATOM     70  C   UNL     1      -5.069   9.841  -6.738  1.00  0.00     0.034 A 
BRANCH  57  71
ATOM     71  C   UNL     1       0.275   6.950  -8.037  1.00  0.00     0.023 A 
ATOM     72  C   UNL     1      -0.040   6.808  -9.404  1.00  0.00     0.031 A 
ATOM     73  C   UNL     1       1.621   6.669  -7.715  1.00  0.00     0.131 A 
ATOM     74  C   UNL     1       0.909   6.358 -10.344  1.00  0.00     0.055 A 
ATOM     75  C   UNL     1       2.558   6.186  -8.640  1.00  0.00     0.041 A 
ATOM     76  F   UNL     1       2.139   6.900  -6.506  1.00  0.00    -0.206 F 
ATOM     77  C   UNL     1       2.204   6.026  -9.966  1.00  0.00     0.022 A 
BRANCH  74  78
ATOM     78  S   UNL     1       0.428   6.237 -12.086  1.00  0.00     0.124 S 
ATOM     79  O   UNL     1      -0.584   5.187 -12.050  1.00  0.00    -0.237 OA
ATOM     80  O   UNL     1      -0.046   7.586 -12.372  1.00  0.00    -0.237 OA
ATOM     81  O   UNL     1       1.676   5.869 -12.755  1.00  0.00    -0.744 OA
ENDBRANCH  74  78
ENDBRANCH  57  71
BRANCH  58  82
ATOM     82  C   UNL     1      -7.534   7.093  -1.857  1.00  0.00     0.023 A 
ATOM     83  C   UNL     1      -8.277   5.941  -1.463  1.00  0.00     0.031 A 
ATOM     84  C   UNL     1      -6.790   7.732  -0.857  1.00  0.00     0.131 A 
ATOM     85  C   UNL     1      -8.181   5.409  -0.157  1.00  0.00     0.055 A 
ATOM     86  C   UNL     1      -6.699   7.204   0.446  1.00  0.00     0.041 A 
ATOM     87  F   UNL     1      -6.036   8.802  -1.148  1.00  0.00    -0.206 F 
ATOM     88  C   UNL     1      -7.369   6.026   0.794  1.00  0.00     0.022 A 
BRANCH  85  89
ATOM     89  S   UNL     1      -8.883   3.749   0.203  1.00  0.00     0.124 S 
ATOM     90  O   UNL     1     -10.235   4.072   0.640  1.00  0.00    -0.237 OA
ATOM     91  O   UNL     1      -8.774   3.070  -1.084  1.00  0.00    -0.237 OA
ATOM     92  O   UNL     1      -8.006   3.222   1.246  1.00  0.00    -0.744 OA
ENDBRANCH  85  89
ENDBRANCH  58  82
BRANCH  70  93
ATOM     93  C   UNL     1      -4.939  11.162  -7.449  1.00  0.00     0.023 A 
ATOM     94  C   UNL     1      -5.652  12.291  -7.043  1.00  0.00     0.031 A 
ATOM     95  C   UNL     1      -3.987  11.373  -8.475  1.00  0.00     0.131 A 
ATOM     96  C   UNL     1      -5.506  13.517  -7.699  1.00  0.00     0.055 A 
ATOM     97  C   UNL     1      -3.755  12.624  -9.046  1.00  0.00     0.041 A 
ATOM     98  F   UNL     1      -3.216  10.387  -8.955  1.00  0.00    -0.206 F 
ATOM     99  C   UNL     1      -4.536  13.706  -8.675  1.00  0.00     0.022 A 
BRANCH  96 100
ATOM    100  S   UNL     1      -6.695  14.811  -7.290  1.00  0.00     0.124 S 
ATOM    101  O   UNL     1      -7.956  14.192  -7.695  1.00  0.00    -0.237 OA
ATOM    102  O   UNL     1      -6.506  14.970  -5.851  1.00  0.00    -0.237 OA
ATOM    103  O   UNL     1      -6.265  15.941  -8.107  1.00  0.00    -0.744 OA
ENDBRANCH  96 100
ENDBRANCH  70  93
ENDBRANCH  44  45
ENDBRANCH  37  39
ENDBRANCH  36  37
ENDBRANCH  35  36
ENDBRANCH  34  35
ENDBRANCH  33  34
ENDBRANCH   1  33
TORSDOF 23
