REMARK SMILES Cc1nc2scc(C)n2c1CNc1ccc(C(=O)OCCOCCOC(=O)c2ccc(-c3c4nc(c(-c5cc(S(=O)(=O)[O-])ccc5F)c5ccc([nH]5)c(-c5cc(S(=O)(=O)[O-])ccc5F)c5nc(c(-c6cc(S(=O)(=O)[O-])ccc6F)c6ccc3[nH]6)C=C5)C=C4)cc2)cc1
REMARK SMILES IDX 22 1 21 2 20 3 19 4 17 5 18 6 16 7 13 8 14 9 92 10 15 11
REMARK SMILES IDX 91 12 12 13 11 15 10 16 1 17 2 18 3 19 4 20 9 21 5 22 7 23
REMARK SMILES IDX 6 24 8 25 23 26 24 27 25 28 26 29 27 30 28 31 29 32 90 33
REMARK SMILES IDX 30 34 89 35 31 36 32 37 33 38 83 39 34 40 88 41 82 42 84 43
REMARK SMILES IDX 35 44 87 45 81 46 80 47 36 49 68 50 48 51 67 52 49 53 52 54
REMARK SMILES IDX 66 55 85 56 50 57 51 58 65 60 86 61 53 62 37 63 38 64 46 65
REMARK SMILES IDX 39 66 45 67 47 68 44 69 40 70 41 71 42 72 43 73 69 74 70 75
REMARK SMILES IDX 78 76 71 77 77 78 79 79 76 80 72 81 73 82 74 83 75 84 54 85
REMARK SMILES IDX 55 86 63 87 56 88 62 89 64 90 61 91 57 92 58 93 59 94 60 95
REMARK H PARENT 12 14 84 48 52 59
REMARK Flexibility Score: inf
ROOT
ATOM      1  O   UNL     1      -3.058  -1.434  11.798  1.00  0.00    -0.374 OA
ENDROOT
BRANCH   1   2
ATOM      2  C   UNL     1      -4.375  -1.764  11.363  1.00  0.00     0.202 C 
BRANCH   2   3
ATOM      3  C   UNL     1      -4.959  -1.004  10.170  1.00  0.00     0.261 C 
BRANCH   3   4
ATOM      4  O   UNL     1      -4.205  -1.204   8.965  1.00  0.00    -0.460 OA
BRANCH   4   5
ATOM      5  C   UNL     1      -3.485  -0.127   8.576  1.00  0.00     0.338 C 
ATOM      6  O   UNL     1      -3.480   0.983   9.085  1.00  0.00    -0.246 OA
BRANCH   5   7
ATOM      7  C   UNL     1      -2.542  -0.495   7.503  1.00  0.00     0.060 A 
ATOM      8  C   UNL     1      -0.807  -0.722   5.322  1.00  0.00     0.034 A 
ATOM      9  C   UNL     1      -0.375  -0.109   6.500  1.00  0.00     0.026 A 
ATOM     10  C   UNL     1      -2.061  -1.355   5.313  1.00  0.00     0.026 A 
ATOM     11  C   UNL     1      -1.248   0.034   7.576  1.00  0.00     0.018 A 
ATOM     12  C   UNL     1      -2.929  -1.256   6.404  1.00  0.00     0.018 A 
BRANCH   8  13
ATOM     13  N   UNL     1      -0.087  -0.500   4.158  1.00  0.00    -0.379 N 
ATOM     14  H   UNL     1       0.888  -0.639   4.141  1.00  0.00     0.160 HD
BRANCH  13  15
ATOM     15  C   UNL     1      -0.785  -0.059   2.964  1.00  0.00     0.169 C 
BRANCH  15  16
ATOM     16  C   UNL     1      -0.150   1.094   2.273  1.00  0.00     0.066 A 
ATOM     17  C   UNL     1       0.864   0.032   0.118  1.00  0.00     0.069 C 
ATOM     18  C   UNL     1       0.537   1.133   1.056  1.00  0.00     0.062 A 
ATOM     19  N   UNL     1       0.918   2.417   0.728  1.00  0.00    -0.224 NA
ATOM     20  C   UNL     1       0.470   3.127   1.721  1.00  0.00     0.194 A 
ATOM     21  N   UNL     1      -0.185   2.412   2.689  1.00  0.00    -0.290 N 
ATOM     22  S   UNL     1       0.509   4.826   2.065  1.00  0.00    -0.105 S 
ATOM     23  C   UNL     1      -0.674   3.197   3.733  1.00  0.00     0.032 A 
ATOM     24  C   UNL     1      -0.386   4.502   3.543  1.00  0.00     0.090 A 
ATOM     25  C   UNL     1      -1.433   2.711   4.912  1.00  0.00     0.066 C 
ENDBRANCH  15  16
ENDBRANCH  13  15
ENDBRANCH   8  13
ENDBRANCH   5   7
ENDBRANCH   4   5
ENDBRANCH   3   4
ENDBRANCH   2   3
ENDBRANCH   1   2
BRANCH   1  26
ATOM     26  C   UNL     1      -1.936  -1.772  10.990  1.00  0.00     0.202 C 
BRANCH  26  27
ATOM     27  C   UNL     1      -1.583  -3.237  10.781  1.00  0.00     0.261 C 
BRANCH  27  28
ATOM     28  O   UNL     1      -2.641  -3.978  10.197  1.00  0.00    -0.460 OA
BRANCH  28  29
ATOM     29  C   UNL     1      -3.292  -4.766  11.089  1.00  0.00     0.338 C 
ATOM     30  O   UNL     1      -3.343  -4.619  12.294  1.00  0.00    -0.246 OA
BRANCH  29  31
ATOM     31  C   UNL     1      -3.792  -5.948  10.383  1.00  0.00     0.060 A 
ATOM     32  C   UNL     1      -4.376  -6.933  11.178  1.00  0.00     0.016 A 
ATOM     33  C   UNL     1      -3.387  -6.193   9.062  1.00  0.00     0.016 A 
ATOM     34  C   UNL     1      -4.332  -8.232  10.729  1.00  0.00     0.010 A 
ATOM     35  C   UNL     1      -3.328  -7.493   8.624  1.00  0.00     0.010 A 
ATOM     36  C   UNL     1      -3.716  -8.502   9.500  1.00  0.00    -0.014 A 
BRANCH  36  37
ATOM     37  C   UNL     1      -3.674  -9.876   9.047  1.00  0.00     0.031 A 
ATOM     38  C   UNL     1      -5.028 -10.334   8.673  1.00  0.00     0.074 A 
ATOM     39  C   UNL     1      -2.538 -10.587   8.904  1.00  0.00     0.049 A 
ATOM     40  N   UNL     1      -5.794 -11.114   9.357  1.00  0.00    -0.248 NA
ATOM     41  C   UNL     1      -5.717  -9.638   7.570  1.00  0.00     0.031 C 
ATOM     42  C   UNL     1      -1.154 -10.136   9.048  1.00  0.00     0.029 A 
ATOM     43  N   UNL     1      -2.388 -11.883   8.520  1.00  0.00    -0.354 N 
ATOM     44  C   UNL     1      -6.945 -11.241   8.595  1.00  0.00     0.074 A 
ATOM     45  C   UNL     1      -6.953 -10.122   7.695  1.00  0.00     0.031 C 
ATOM     46  C   UNL     1      -0.319 -11.074   8.536  1.00  0.00     0.029 A 
ATOM     47  C   UNL     1      -1.094 -12.242   8.143  1.00  0.00     0.049 A 
ATOM     48  H   UNL     1      -3.138 -12.521   8.508  1.00  0.00     0.167 HD
ATOM     49  C   UNL     1      -7.592 -12.434   8.535  1.00  0.00     0.034 A 
ATOM     50  C   UNL     1      -0.712 -13.392   7.513  1.00  0.00     0.034 A 
ATOM     51  C   UNL     1      -7.240 -13.268   9.666  1.00  0.00     0.049 A 
ATOM     52  C   UNL     1      -1.781 -14.392   7.778  1.00  0.00     0.074 A 
ATOM     53  C   UNL     1      -7.290 -13.091  11.037  1.00  0.00     0.029 A 
ATOM     54  N   UNL     1      -6.345 -14.296   9.461  1.00  0.00    -0.354 N 
ATOM     55  N   UNL     1      -2.028 -14.863   8.970  1.00  0.00    -0.248 NA
ATOM     56  C   UNL     1      -2.900 -14.451   6.848  1.00  0.00     0.031 C 
ATOM     57  C   UNL     1      -6.071 -13.648  11.526  1.00  0.00     0.029 A 
ATOM     58  C   UNL     1      -5.395 -14.237  10.456  1.00  0.00     0.049 A 
ATOM     59  H   UNL     1      -6.379 -14.957   8.732  1.00  0.00     0.167 HD
ATOM     60  C   UNL     1      -3.410 -14.846   9.084  1.00  0.00     0.074 A 
ATOM     61  C   UNL     1      -3.897 -14.657   7.715  1.00  0.00     0.031 C 
ATOM     62  C   UNL     1      -4.020 -14.682  10.296  1.00  0.00     0.034 A 
BRANCH  49  63
ATOM     63  C   UNL     1      -8.190 -12.978   7.258  1.00  0.00     0.023 A 
ATOM     64  C   UNL     1      -8.882 -14.197   7.339  1.00  0.00     0.031 A 
ATOM     65  C   UNL     1      -7.893 -12.525   5.948  1.00  0.00     0.131 A 
ATOM     66  C   UNL     1      -9.174 -14.934   6.178  1.00  0.00     0.055 A 
ATOM     67  C   UNL     1      -8.248 -13.227   4.796  1.00  0.00     0.041 A 
ATOM     68  F   UNL     1      -7.159 -11.436   5.697  1.00  0.00    -0.206 F 
ATOM     69  C   UNL     1      -8.868 -14.455   4.907  1.00  0.00     0.022 A 
BRANCH  66  70
ATOM     70  S   UNL     1      -9.811 -16.615   6.368  1.00  0.00     0.124 S 
ATOM     71  O   UNL     1      -8.777 -17.228   7.195  1.00  0.00    -0.237 OA
ATOM     72  O   UNL     1     -11.097 -16.375   7.014  1.00  0.00    -0.237 OA
ATOM     73  O   UNL     1      -9.886 -17.105   4.994  1.00  0.00    -0.744 OA
ENDBRANCH  66  70
ENDBRANCH  49  63
BRANCH  50  74
ATOM     74  C   UNL     1       0.288 -13.549   6.408  1.00  0.00     0.023 A 
ATOM     75  C   UNL     1       0.815 -14.800   5.997  1.00  0.00     0.031 A 
ATOM     76  C   UNL     1       0.543 -12.456   5.550  1.00  0.00     0.131 A 
ATOM     77  C   UNL     1       1.549 -14.911   4.786  1.00  0.00     0.055 A 
ATOM     78  C   UNL     1       1.261 -12.572   4.356  1.00  0.00     0.041 A 
ATOM     79  F   UNL     1       0.024 -11.243   5.796  1.00  0.00    -0.206 F 
ATOM     80  C   UNL     1       1.758 -13.802   3.964  1.00  0.00     0.022 A 
BRANCH  77  81
ATOM     81  S   UNL     1       2.188 -16.523   4.204  1.00  0.00     0.124 S 
ATOM     82  O   UNL     1       3.217 -16.827   5.191  1.00  0.00    -0.237 OA
ATOM     83  O   UNL     1       0.996 -17.363   4.226  1.00  0.00    -0.237 OA
ATOM     84  O   UNL     1       2.698 -16.225   2.863  1.00  0.00    -0.744 OA
ENDBRANCH  77  81
ENDBRANCH  50  74
BRANCH  62  85
ATOM     85  C   UNL     1      -3.172 -14.806  11.555  1.00  0.00     0.023 A 
ATOM     86  C   UNL     1      -2.000 -14.063  11.838  1.00  0.00     0.031 A 
ATOM     87  C   UNL     1      -3.641 -15.675  12.556  1.00  0.00     0.131 A 
ATOM     88  C   UNL     1      -1.339 -14.226  13.076  1.00  0.00     0.055 A 
ATOM     89  C   UNL     1      -3.002 -15.812  13.787  1.00  0.00     0.041 A 
ATOM     90  F   UNL     1      -4.758 -16.397  12.363  1.00  0.00    -0.206 F 
ATOM     91  C   UNL     1      -1.842 -15.095  14.049  1.00  0.00     0.022 A 
BRANCH  88  92
ATOM     92  S   UNL     1       0.217 -13.344  13.436  1.00  0.00     0.124 S 
ATOM     93  O   UNL     1       1.000 -13.516  12.218  1.00  0.00    -0.237 OA
ATOM     94  O   UNL     1      -0.246 -11.986  13.712  1.00  0.00    -0.237 OA
ATOM     95  O   UNL     1       0.746 -14.053  14.604  1.00  0.00    -0.744 OA
ENDBRANCH  88  92
ENDBRANCH  62  85
ENDBRANCH  36  37
ENDBRANCH  29  31
ENDBRANCH  28  29
ENDBRANCH  27  28
ENDBRANCH  26  27
ENDBRANCH   1  26
TORSDOF 20
