REMARK SMILES C[C@H](Cc1cccc2c1OC(C)(C)C2)C(=O)OCCOCCOC(=O)c1ccc(-c2c3nc(c(-c4cc(S(=O)(=O)[O-])ccc4F)c4ccc([nH]4)c(-c4cc(S(=O)(=O)[O-])ccc4F)c4nc(c(-c5cc(S(=O)(=O)[O-])ccc5F)c5ccc2[nH]5)C=C4)C=C3)cc1
REMARK SMILES IDX 21 1 20 2 19 3 18 4 17 5 15 6 16 7 2 8 1 9 3 10 4 11 5 12
REMARK SMILES IDX 9 13 6 14 8 15 10 16 7 17 14 18 11 19 12 20 13 21 22 22
REMARK SMILES IDX 23 23 24 24 25 25 26 26 27 27 88 28 28 29 87 30 29 31 30 32
REMARK SMILES IDX 31 33 81 34 32 35 86 36 80 37 82 38 33 39 85 40 79 41 78 42
REMARK SMILES IDX 34 44 66 45 46 46 65 47 47 48 50 49 64 50 83 51 48 52 49 53
REMARK SMILES IDX 63 55 84 56 51 57 35 58 36 59 44 60 37 61 43 62 45 63 42 64
REMARK SMILES IDX 38 65 39 66 40 67 41 68 67 69 68 70 76 71 69 72 75 73 77 74
REMARK SMILES IDX 74 75 70 76 71 77 72 78 73 79 52 80 53 81 61 82 54 83 60 84
REMARK SMILES IDX 62 85 59 86 55 87 56 88 57 89 58 90
REMARK H PARENT 82 43 50 54
REMARK Flexibility Score: inf
ROOT
ATOM      1  C   UNL     1      -2.076   1.550  -1.839  1.00  0.00     0.202 C 
ENDROOT
BRANCH   1   2
ATOM      2  O   UNL     1      -3.318   0.945  -2.202  1.00  0.00    -0.374 OA
BRANCH   2   3
ATOM      3  C   UNL     1      -3.846  -0.051  -1.324  1.00  0.00     0.202 C 
BRANCH   3   4
ATOM      4  C   UNL     1      -3.094  -1.383  -1.312  1.00  0.00     0.261 C 
BRANCH   4   5
ATOM      5  O   UNL     1      -1.744  -1.201  -0.863  1.00  0.00    -0.463 OA
BRANCH   5   6
ATOM      6  C   UNL     1      -0.800  -1.952  -1.488  1.00  0.00     0.309 C 
ATOM      7  O   UNL     1      -1.040  -2.799  -2.342  1.00  0.00    -0.252 OA
BRANCH   6   8
ATOM      8  C   UNL     1       0.622  -1.538  -1.121  1.00  0.00     0.100 C 
ATOM      9  C   UNL     1       1.550  -2.754  -1.055  1.00  0.00     0.020 C 
BRANCH   8  10
ATOM     10  C   UNL     1       0.794  -0.577   0.073  1.00  0.00     0.054 C 
BRANCH  10  11
ATOM     11  C   UNL     1       0.643  -1.037   1.501  1.00  0.00    -0.005 A 
ATOM     12  C   UNL     1       1.198  -0.235   2.519  1.00  0.00     0.007 A 
ATOM     13  C   UNL     1      -0.059  -2.156   1.916  1.00  0.00     0.126 A 
ATOM     14  C   UNL     1       1.056  -0.565   3.876  1.00  0.00     0.001 A 
ATOM     15  C   UNL     1      -0.206  -2.485   3.255  1.00  0.00    -0.002 A 
ATOM     16  O   UNL     1      -0.682  -3.035   1.077  1.00  0.00    -0.487 OA
ATOM     17  C   UNL     1       0.343  -1.701   4.253  1.00  0.00     0.008 A 
ATOM     18  C   UNL     1      -1.034  -3.706   3.397  1.00  0.00     0.087 C 
ATOM     19  C   UNL     1      -1.231  -4.086   1.914  1.00  0.00     0.108 C 
ATOM     20  C   UNL     1      -0.488  -5.374   1.549  1.00  0.00     0.057 C 
ATOM     21  C   UNL     1      -2.713  -4.212   1.560  1.00  0.00     0.057 C 
ENDBRANCH  10  11
ENDBRANCH   8  10
ENDBRANCH   6   8
ENDBRANCH   5   6
ENDBRANCH   4   5
ENDBRANCH   3   4
ENDBRANCH   2   3
ENDBRANCH   1   2
BRANCH   1  22
ATOM     22  C   UNL     1      -2.092   2.486  -0.622  1.00  0.00     0.261 C 
BRANCH  22  23
ATOM     23  O   UNL     1      -2.339   1.813   0.629  1.00  0.00    -0.460 OA
BRANCH  23  24
ATOM     24  C   UNL     1      -3.461   2.222   1.272  1.00  0.00     0.338 C 
ATOM     25  O   UNL     1      -4.249   3.078   0.885  1.00  0.00    -0.246 OA
BRANCH  24  26
ATOM     26  C   UNL     1      -3.731   1.428   2.484  1.00  0.00     0.060 A 
ATOM     27  C   UNL     1      -4.988   0.818   2.587  1.00  0.00     0.016 A 
ATOM     28  C   UNL     1      -2.865   1.445   3.580  1.00  0.00     0.016 A 
ATOM     29  C   UNL     1      -5.412   0.287   3.806  1.00  0.00     0.010 A 
ATOM     30  C   UNL     1      -3.296   0.915   4.806  1.00  0.00     0.010 A 
ATOM     31  C   UNL     1      -4.589   0.377   4.937  1.00  0.00    -0.014 A 
BRANCH  31  32
ATOM     32  C   UNL     1      -5.156   0.051   6.274  1.00  0.00     0.031 A 
ATOM     33  C   UNL     1      -5.660   1.167   7.154  1.00  0.00     0.074 A 
ATOM     34  C   UNL     1      -5.278  -1.226   6.679  1.00  0.00     0.049 A 
ATOM     35  N   UNL     1      -6.203   1.109   8.344  1.00  0.00    -0.248 NA
ATOM     36  C   UNL     1      -5.532   2.530   6.618  1.00  0.00     0.031 C 
ATOM     37  C   UNL     1      -4.872  -2.398   5.905  1.00  0.00     0.029 A 
ATOM     38  N   UNL     1      -5.782  -1.749   7.844  1.00  0.00    -0.354 N 
ATOM     39  C   UNL     1      -6.487   2.424   8.700  1.00  0.00     0.074 A 
ATOM     40  C   UNL     1      -6.016   3.259   7.613  1.00  0.00     0.031 C 
ATOM     41  C   UNL     1      -5.141  -3.504   6.620  1.00  0.00     0.029 A 
ATOM     42  C   UNL     1      -5.709  -3.120   7.911  1.00  0.00     0.049 A 
ATOM     43  H   UNL     1      -6.161  -1.194   8.564  1.00  0.00     0.167 HD
ATOM     44  C   UNL     1      -7.091   2.894   9.820  1.00  0.00     0.034 A 
ATOM     45  C   UNL     1      -6.046  -3.966   8.905  1.00  0.00     0.034 A 
ATOM     46  C   UNL     1      -7.548   2.058  10.905  1.00  0.00     0.049 A 
ATOM     47  C   UNL     1      -6.642  -3.416  10.179  1.00  0.00     0.074 A 
ATOM     48  C   UNL     1      -8.185   2.434  12.076  1.00  0.00     0.029 A 
ATOM     49  N   UNL     1      -7.405   0.678  10.961  1.00  0.00    -0.354 N 
ATOM     50  N   UNL     1      -6.910  -2.171  10.496  1.00  0.00    -0.248 NA
ATOM     51  C   UNL     1      -6.987  -4.390  11.223  1.00  0.00     0.031 C 
ATOM     52  C   UNL     1      -8.368   1.292  12.866  1.00  0.00     0.029 A 
ATOM     53  C   UNL     1      -7.910   0.193  12.159  1.00  0.00     0.049 A 
ATOM     54  H   UNL     1      -7.004   0.124  10.253  1.00  0.00     0.167 HD
ATOM     55  C   UNL     1      -7.483  -2.218  11.766  1.00  0.00     0.074 A 
ATOM     56  C   UNL     1      -7.529  -3.613  12.149  1.00  0.00     0.031 C 
ATOM     57  C   UNL     1      -7.937  -1.200  12.541  1.00  0.00     0.034 A 
BRANCH  44  58
ATOM     58  C   UNL     1      -7.245   4.391   9.946  1.00  0.00     0.023 A 
ATOM     59  C   UNL     1      -8.071   5.126   9.077  1.00  0.00     0.031 A 
ATOM     60  C   UNL     1      -6.534   5.096  10.932  1.00  0.00     0.131 A 
ATOM     61  C   UNL     1      -8.111   6.526   9.167  1.00  0.00     0.055 A 
ATOM     62  C   UNL     1      -6.634   6.483  11.064  1.00  0.00     0.041 A 
ATOM     63  F   UNL     1      -5.715   4.450  11.777  1.00  0.00    -0.206 F 
ATOM     64  C   UNL     1      -7.416   7.208  10.169  1.00  0.00     0.022 A 
BRANCH  61  65
ATOM     65  S   UNL     1      -8.978   7.457   7.873  1.00  0.00     0.124 S 
ATOM     66  O   UNL     1      -8.276   7.014   6.671  1.00  0.00    -0.237 OA
ATOM     67  O   UNL     1     -10.352   6.993   8.018  1.00  0.00    -0.237 OA
ATOM     68  O   UNL     1      -8.747   8.852   8.241  1.00  0.00    -0.744 OA
ENDBRANCH  61  65
ENDBRANCH  44  58
BRANCH  45  69
ATOM     69  C   UNL     1      -5.795  -5.428   8.764  1.00  0.00     0.023 A 
ATOM     70  C   UNL     1      -6.854  -6.348   8.726  1.00  0.00     0.031 A 
ATOM     71  C   UNL     1      -4.482  -5.928   8.721  1.00  0.00     0.131 A 
ATOM     72  C   UNL     1      -6.581  -7.725   8.690  1.00  0.00     0.055 A 
ATOM     73  C   UNL     1      -4.215  -7.295   8.640  1.00  0.00     0.041 A 
ATOM     74  F   UNL     1      -3.434  -5.088   8.752  1.00  0.00    -0.206 F 
ATOM     75  C   UNL     1      -5.269  -8.203   8.636  1.00  0.00     0.022 A 
BRANCH  72  76
ATOM     76  S   UNL     1      -7.968  -8.890   8.790  1.00  0.00     0.124 S 
ATOM     77  O   UNL     1      -8.572  -8.524  10.066  1.00  0.00    -0.237 OA
ATOM     78  O   UNL     1      -8.733  -8.550   7.595  1.00  0.00    -0.237 OA
ATOM     79  O   UNL     1      -7.316 -10.197   8.759  1.00  0.00    -0.744 OA
ENDBRANCH  72  76
ENDBRANCH  45  69
BRANCH  57  80
ATOM     80  C   UNL     1      -8.562  -1.571  13.864  1.00  0.00     0.023 A 
ATOM     81  C   UNL     1      -7.802  -2.109  14.918  1.00  0.00     0.031 A 
ATOM     82  C   UNL     1      -9.944  -1.402  14.065  1.00  0.00     0.131 A 
ATOM     83  C   UNL     1      -8.437  -2.509  16.104  1.00  0.00     0.055 A 
ATOM     84  C   UNL     1     -10.561  -1.752  15.267  1.00  0.00     0.041 A 
ATOM     85  F   UNL     1     -10.718  -0.894  13.092  1.00  0.00    -0.206 F 
ATOM     86  C   UNL     1      -9.809  -2.322  16.290  1.00  0.00     0.022 A 
BRANCH  83  87
ATOM     87  S   UNL     1      -7.459  -3.363  17.372  1.00  0.00     0.124 S 
ATOM     88  O   UNL     1      -6.939  -4.510  16.636  1.00  0.00    -0.237 OA
ATOM     89  O   UNL     1      -6.479  -2.348  17.746  1.00  0.00    -0.237 OA
ATOM     90  O   UNL     1      -8.441  -3.684  18.406  1.00  0.00    -0.744 OA
ENDBRANCH  83  87
ENDBRANCH  57  80
ENDBRANCH  31  32
ENDBRANCH  24  26
ENDBRANCH  23  24
ENDBRANCH  22  23
ENDBRANCH   1  22
TORSDOF 19
