REMARK SMILES Cc1cc(C)n(C)c(=O)c1C(=O)[NH+]1CCC2(CC1)C[NH2+][C@@H](C(=O)OCCOCCOC(=O)c1ccc(-c3c4nc(c(-c5cc(S(=O)(=O)[O-])ccc5F)c5ccc([nH]5)c(-c5cc(S(=O)(=O)[O-])ccc5F)c5nc(c(-c6cc(S(=O)(=O)[O-])ccc6F)c6ccc3[nH]6)C=C5)C=C4)cc1)C2
REMARK SMILES IDX 28 1 27 2 26 3 25 4 24 5 22 6 23 7 21 8 13 9 14 10 18 11
REMARK SMILES IDX 15 13 17 14 16 15 19 16 96 17 20 18 11 21 12 22 10 23 1 24
REMARK SMILES IDX 2 25 3 26 4 27 8 28 5 29 6 30 9 31 7 32 29 33 30 34 31 35
REMARK SMILES IDX 32 36 33 37 34 38 95 39 35 40 94 41 36 42 37 43 38 44 88 45
REMARK SMILES IDX 39 46 93 47 87 48 89 49 40 50 92 51 86 52 85 53 41 55 73 56
REMARK SMILES IDX 53 57 72 58 54 59 57 60 71 61 90 62 55 63 56 64 70 66 91 67
REMARK SMILES IDX 58 68 42 69 43 70 51 71 44 72 50 73 52 74 49 75 45 76 46 77
REMARK SMILES IDX 47 78 48 79 74 80 75 81 83 82 76 83 82 84 84 85 81 86 77 87
REMARK SMILES IDX 78 88 79 89 80 90 59 91 60 92 68 93 61 94 67 95 69 96 66 97
REMARK SMILES IDX 62 98 63 99 64 100 65 101
REMARK H PARENT 13 12 20 19 20 20 89 54 57 65
REMARK Flexibility Score: inf
ROOT
ATOM      1  C   UNL     1      -1.357   7.408  -2.380  1.00  0.00     0.202 C 
ENDROOT
BRANCH   1   2
ATOM      2  O   UNL     1      -0.738   8.692  -2.446  1.00  0.00    -0.374 OA
BRANCH   2   3
ATOM      3  C   UNL     1       0.678   8.732  -2.627  1.00  0.00     0.202 C 
BRANCH   3   4
ATOM      4  C   UNL     1       1.535   8.435  -1.394  1.00  0.00     0.261 C 
BRANCH   4   5
ATOM      5  O   UNL     1       1.302   7.103  -0.913  1.00  0.00    -0.459 OA
BRANCH   5   6
ATOM      6  C   UNL     1       0.764   7.006   0.330  1.00  0.00     0.364 C 
ATOM      7  O   UNL     1       0.593   7.945   1.103  1.00  0.00    -0.245 OA
BRANCH   6   8
ATOM      8  C   UNL     1       0.394   5.574   0.707  1.00  0.00     0.294 C 
ATOM      9  N   UNL     1      -0.948   0.776  -0.984  1.00  0.00    -0.267 N 
ATOM     10  C   UNL     1      -1.833   1.814  -0.475  1.00  0.00     0.271 C 
ATOM     11  C   UNL     1       0.219   1.304  -1.681  1.00  0.00     0.271 C 
ATOM     12  H   UNL     1      -1.442  -0.071  -0.898  1.00  0.00     0.357 HD
ATOM     13  C   UNL     1      -1.105   2.541   0.644  1.00  0.00     0.075 C 
ATOM     14  C   UNL     1       1.012   2.334  -0.848  1.00  0.00     0.075 C 
ATOM     15  C   UNL     1       0.214   3.201   0.176  1.00  0.00     0.036 C 
ATOM     16  C   UNL     1       1.077   3.498   1.437  1.00  0.00     0.268 C 
ATOM     17  C   UNL     1      -0.061   4.619  -0.396  1.00  0.00     0.090 C 
ATOM     18  N   UNL     1       1.552   4.864   1.271  1.00  0.00    -0.334 N 
ATOM     19  H   UNL     1       2.346   4.898   0.631  1.00  0.00     0.347 HD
ATOM     20  H   UNL     1       1.879   5.276   2.145  1.00  0.00     0.347 HD
BRANCH   9  21
ATOM     21  C   UNL     1      -1.354  -0.547  -0.836  1.00  0.00     0.350 C 
ATOM     22  O   UNL     1      -2.535  -0.802  -0.572  1.00  0.00    -0.225 OA
BRANCH  21  23
ATOM     23  C   UNL     1      -0.388  -1.704  -0.833  1.00  0.00     0.147 A 
ATOM     24  C   UNL     1       1.374  -0.604   0.661  1.00  0.00     0.045 C 
ATOM     25  C   UNL     1       0.759  -1.725  -0.117  1.00  0.00    -0.027 A 
ATOM     26  C   UNL     1       1.484  -2.964   0.086  1.00  0.00     0.026 A 
ATOM     27  C   UNL     1       0.959  -4.155  -0.230  1.00  0.00     0.018 A 
ATOM     28  C   UNL     1      -0.893  -3.033  -1.370  1.00  0.00     0.267 A 
ATOM     29  C   UNL     1       1.703  -5.399   0.176  1.00  0.00     0.064 C 
ATOM     30  N   UNL     1      -0.244  -4.202  -0.922  1.00  0.00    -0.315 N 
ATOM     31  O   UNL     1      -1.838  -3.071  -2.159  1.00  0.00    -0.268 OA
ATOM     32  C   UNL     1      -0.851  -5.484  -1.257  1.00  0.00     0.153 C 
ENDBRANCH  21  23
ENDBRANCH   9  21
ENDBRANCH   6   8
ENDBRANCH   5   6
ENDBRANCH   4   5
ENDBRANCH   3   4
ENDBRANCH   2   3
ENDBRANCH   1   2
BRANCH   1  33
ATOM     33  C   UNL     1      -1.502   6.618  -3.687  1.00  0.00     0.261 C 
BRANCH  33  34
ATOM     34  O   UNL     1      -0.235   6.231  -4.248  1.00  0.00    -0.460 OA
BRANCH  34  35
ATOM     35  C   UNL     1       0.077   6.855  -5.411  1.00  0.00     0.338 C 
ATOM     36  O   UNL     1      -0.630   7.633  -6.038  1.00  0.00    -0.246 OA
BRANCH  35  37
ATOM     37  C   UNL     1       1.492   6.627  -5.752  1.00  0.00     0.060 A 
ATOM     38  C   UNL     1       2.307   7.755  -5.908  1.00  0.00     0.016 A 
ATOM     39  C   UNL     1       1.993   5.348  -6.003  1.00  0.00     0.016 A 
ATOM     40  C   UNL     1       3.616   7.614  -6.361  1.00  0.00     0.010 A 
ATOM     41  C   UNL     1       3.305   5.209  -6.473  1.00  0.00     0.010 A 
ATOM     42  C   UNL     1       4.109   6.344  -6.687  1.00  0.00    -0.014 A 
BRANCH  42  43
ATOM     43  C   UNL     1       5.401   6.236  -7.408  1.00  0.00     0.031 A 
ATOM     44  C   UNL     1       5.385   6.104  -8.907  1.00  0.00     0.074 A 
ATOM     45  C   UNL     1       6.570   6.331  -6.749  1.00  0.00     0.049 A 
ATOM     46  N   UNL     1       6.386   5.986  -9.740  1.00  0.00    -0.248 NA
ATOM     47  C   UNL     1       4.062   6.111  -9.553  1.00  0.00     0.031 C 
ATOM     48  C   UNL     1       6.711   6.537  -5.308  1.00  0.00     0.029 A 
ATOM     49  N   UNL     1       7.862   6.281  -7.210  1.00  0.00    -0.354 N 
ATOM     50  C   UNL     1       5.818   5.915 -11.007  1.00  0.00     0.074 A 
ATOM     51  C   UNL     1       4.382   5.963 -10.830  1.00  0.00     0.031 C 
ATOM     52  C   UNL     1       8.018   6.605  -5.004  1.00  0.00     0.029 A 
ATOM     53  C   UNL     1       8.807   6.410  -6.220  1.00  0.00     0.049 A 
ATOM     54  H   UNL     1       8.090   6.163  -8.160  1.00  0.00     0.167 HD
ATOM     55  C   UNL     1       6.437   5.830 -12.209  1.00  0.00     0.034 A 
ATOM     56  C   UNL     1      10.153   6.361  -6.286  1.00  0.00     0.034 A 
ATOM     57  C   UNL     1       7.866   5.776 -12.375  1.00  0.00     0.049 A 
ATOM     58  C   UNL     1      10.817   6.148  -7.623  1.00  0.00     0.074 A 
ATOM     59  C   UNL     1       8.592   5.678 -13.549  1.00  0.00     0.029 A 
ATOM     60  N   UNL     1       8.788   5.811 -11.339  1.00  0.00    -0.354 N 
ATOM     61  N   UNL     1      10.266   6.036  -8.809  1.00  0.00    -0.248 NA
ATOM     62  C   UNL     1      12.284   6.048  -7.630  1.00  0.00     0.031 C 
ATOM     63  C   UNL     1       9.948   5.591 -13.219  1.00  0.00     0.029 A 
ATOM     64  C   UNL     1      10.074   5.704 -11.844  1.00  0.00     0.049 A 
ATOM     65  H   UNL     1       8.562   5.898 -10.384  1.00  0.00     0.167 HD
ATOM     66  C   UNL     1      11.319   5.872  -9.704  1.00  0.00     0.074 A 
ATOM     67  C   UNL     1      12.539   5.905  -8.924  1.00  0.00     0.031 C 
ATOM     68  C   UNL     1      11.280   5.717 -11.052  1.00  0.00     0.034 A 
BRANCH  55  69
ATOM     69  C   UNL     1       5.567   5.750 -13.435  1.00  0.00     0.023 A 
ATOM     70  C   UNL     1       4.807   6.849 -13.870  1.00  0.00     0.031 A 
ATOM     71  C   UNL     1       5.508   4.563 -14.186  1.00  0.00     0.131 A 
ATOM     72  C   UNL     1       3.988   6.725 -15.002  1.00  0.00     0.055 A 
ATOM     73  C   UNL     1       4.739   4.465 -15.346  1.00  0.00     0.041 A 
ATOM     74  F   UNL     1       6.199   3.478 -13.802  1.00  0.00    -0.206 F 
ATOM     75  C   UNL     1       3.967   5.549 -15.756  1.00  0.00     0.022 A 
BRANCH  72  76
ATOM     76  S   UNL     1       2.885   8.098 -15.434  1.00  0.00     0.124 S 
ATOM     77  O   UNL     1       1.995   8.135 -14.277  1.00  0.00    -0.237 OA
ATOM     78  O   UNL     1       3.810   9.219 -15.564  1.00  0.00    -0.237 OA
ATOM     79  O   UNL     1       2.261   7.658 -16.680  1.00  0.00    -0.744 OA
ENDBRANCH  72  76
ENDBRANCH  55  69
BRANCH  56  80
ATOM     80  C   UNL     1      10.965   6.481  -5.043  1.00  0.00     0.023 A 
ATOM     81  C   UNL     1      11.786   7.596  -4.819  1.00  0.00     0.031 A 
ATOM     82  C   UNL     1      10.938   5.470  -4.066  1.00  0.00     0.131 A 
ATOM     83  C   UNL     1      12.564   7.666  -3.652  1.00  0.00     0.055 A 
ATOM     84  C   UNL     1      11.684   5.561  -2.890  1.00  0.00     0.041 A 
ATOM     85  F   UNL     1      10.167   4.384  -4.235  1.00  0.00    -0.206 F 
ATOM     86  C   UNL     1      12.508   6.662  -2.681  1.00  0.00     0.022 A 
BRANCH  83  87
ATOM     87  S   UNL     1      13.678   9.080  -3.428  1.00  0.00     0.124 S 
ATOM     88  O   UNL     1      14.622   8.889  -4.523  1.00  0.00    -0.237 OA
ATOM     89  O   UNL     1      12.765  10.211  -3.556  1.00  0.00    -0.237 OA
ATOM     90  O   UNL     1      14.223   8.873  -2.088  1.00  0.00    -0.744 OA
ENDBRANCH  83  87
ENDBRANCH  56  80
BRANCH  68  91
ATOM     91  C   UNL     1      12.594   5.590 -11.777  1.00  0.00     0.023 A 
ATOM     92  C   UNL     1      13.377   4.428 -11.677  1.00  0.00     0.031 A 
ATOM     93  C   UNL     1      13.041   6.625 -12.617  1.00  0.00     0.131 A 
ATOM     94  C   UNL     1      14.583   4.338 -12.388  1.00  0.00     0.055 A 
ATOM     95  C   UNL     1      14.218   6.511 -13.358  1.00  0.00     0.041 A 
ATOM     96  F   UNL     1      12.326   7.754 -12.749  1.00  0.00    -0.206 F 
ATOM     97  C   UNL     1      14.999   5.364 -13.241  1.00  0.00     0.022 A 
BRANCH  94  98
ATOM     98  S   UNL     1      15.623   2.871 -12.159  1.00  0.00     0.124 S 
ATOM     99  O   UNL     1      15.992   2.979 -10.751  1.00  0.00    -0.237 OA
ATOM    100  O   UNL     1      14.713   1.782 -12.497  1.00  0.00    -0.237 OA
ATOM    101  O   UNL     1      16.719   3.076 -13.105  1.00  0.00    -0.744 OA
ENDBRANCH  94  98
ENDBRANCH  68  91
ENDBRANCH  42  43
ENDBRANCH  35  37
ENDBRANCH  34  35
ENDBRANCH  33  34
ENDBRANCH   1  33
TORSDOF 19
