REMARK SMILES CCN1C(=O)/C(=C/c2cc([N+](=O)[O-])ccc2O)S/C1=[NH+]\c1ccc(C(=O)OCCOCCOC(=O)c2ccc(-c3c4nc(c(-c5cc(S(=O)(=O)[O-])ccc5F)c5ccc([nH]5)c(-c5cc(S(=O)(=O)[O-])ccc5F)c5nc(c(-c6cc(S(=O)(=O)[O-])ccc6F)c6ccc3[nH]6)C=C5)C=C4)cc2)cc1
REMARK SMILES IDX 30 1 29 2 28 3 27 4 25 5 26 6 24 7 21 8 22 9 100 10 23 11
REMARK SMILES IDX 99 12 20 13 3 14 4 15 19 16 5 17 6 18 18 19 7 20 2 22 1 23
REMARK SMILES IDX 8 24 9 25 16 26 10 27 15 28 14 29 17 30 11 32 12 33 13 34
REMARK SMILES IDX 31 35 32 36 33 37 34 38 35 39 36 40 37 41 98 42 38 43 97 44
REMARK SMILES IDX 39 45 40 46 41 47 91 48 42 49 96 50 90 51 92 52 43 53 95 54
REMARK SMILES IDX 89 55 88 56 44 58 76 59 56 60 75 61 57 62 60 63 74 64 93 65
REMARK SMILES IDX 58 66 59 67 73 69 94 70 61 71 45 72 46 73 54 74 47 75 53 76
REMARK SMILES IDX 55 77 52 78 48 79 49 80 50 81 51 82 77 83 78 84 86 85 79 86
REMARK SMILES IDX 85 87 87 88 84 89 80 90 81 91 82 92 83 93 62 94 63 95 71 96
REMARK SMILES IDX 64 97 70 98 72 99 69 100 65 101 66 102 67 103 68 104
REMARK H PARENT 20 21 17 31 92 57 60 68
REMARK Flexibility Score: inf
ROOT
ATOM      1  O   UNL     1      -6.973   8.766   1.529  1.00  0.00    -0.374 OA
ENDROOT
BRANCH   1   2
ATOM      2  C   UNL     1      -6.439   9.761   0.653  1.00  0.00     0.202 C 
BRANCH   2   3
ATOM      3  C   UNL     1      -4.957  10.098   0.846  1.00  0.00     0.261 C 
BRANCH   3   4
ATOM      4  O   UNL     1      -4.131   8.958   0.561  1.00  0.00    -0.460 OA
BRANCH   4   5
ATOM      5  C   UNL     1      -3.507   8.414   1.629  1.00  0.00     0.338 C 
ATOM      6  O   UNL     1      -3.442   8.883   2.759  1.00  0.00    -0.246 OA
BRANCH   5   7
ATOM      7  C   UNL     1      -2.993   7.062   1.300  1.00  0.00     0.060 A 
ATOM      8  C   UNL     1      -1.846   4.544   0.850  1.00  0.00     0.125 A 
ATOM      9  C   UNL     1      -2.230   4.922   2.138  1.00  0.00     0.052 A 
ATOM     10  C   UNL     1      -2.159   5.381  -0.230  1.00  0.00     0.052 A 
ATOM     11  C   UNL     1      -2.796   6.175   2.365  1.00  0.00     0.020 A 
ATOM     12  C   UNL     1      -2.711   6.649  -0.007  1.00  0.00     0.020 A 
BRANCH   8  13
ATOM     13  N   UNL     1      -1.086   3.371   0.704  1.00  0.00    -0.234 N 
ATOM     14  N   UNL     1       1.036   2.401   0.395  1.00  0.00    -0.186 N 
ATOM     15  C   UNL     1       2.359   2.679   0.094  1.00  0.00     0.348 C 
ATOM     16  C   UNL     1       0.176   3.475   0.424  1.00  0.00     0.324 C 
ATOM     17  O   UNL     1       3.288   1.882   0.093  1.00  0.00    -0.240 OA
ATOM     18  C   UNL     1       2.526   4.127  -0.204  1.00  0.00     0.110 C 
ATOM     19  S   UNL     1       1.051   4.951   0.071  1.00  0.00     0.007 SA
ATOM     20  C   UNL     1       3.679   4.669  -0.621  1.00  0.00     0.036 C 
ATOM     21  H   UNL     1      -1.505   2.487   0.812  1.00  0.00     0.313 HD
BRANCH  14  22
ATOM     22  C   UNL     1       0.633   1.070   0.833  1.00  0.00     0.244 C 
ATOM     23  C   UNL     1       0.874  -0.018  -0.202  1.00  0.00     0.055 C 
ENDBRANCH  14  22
BRANCH  20  24
ATOM     24  C   UNL     1       3.868   6.108  -0.868  1.00  0.00     0.024 A 
ATOM     25  C   UNL     1       3.963   6.573  -2.186  1.00  0.00     0.097 A 
ATOM     26  C   UNL     1       3.913   7.036   0.188  1.00  0.00     0.123 A 
ATOM     27  C   UNL     1       4.094   7.949  -2.429  1.00  0.00     0.270 A 
ATOM     28  C   UNL     1       4.031   8.405  -0.056  1.00  0.00     0.054 A 
ATOM     29  C   UNL     1       4.122   8.867  -1.369  1.00  0.00     0.089 A 
BRANCH  26  30
ATOM     30  O   UNL     1       3.835   6.583   1.478  1.00  0.00    -0.507 OA
ATOM     31  H   UNL     1       3.755   5.665   1.648  1.00  0.00     0.293 HD
ENDBRANCH  26  30
BRANCH  27  32
ATOM     32  N   UNL     1       4.215   8.436  -3.810  1.00  0.00     0.062 N 
ATOM     33  O   UNL     1       4.183   7.596  -4.720  1.00  0.00    -0.258 OA
ATOM     34  O   UNL     1       4.364   9.654  -3.979  1.00  0.00    -0.258 OA
ENDBRANCH  27  32
ENDBRANCH  20  24
ENDBRANCH   8  13
ENDBRANCH   5   7
ENDBRANCH   4   5
ENDBRANCH   3   4
ENDBRANCH   2   3
ENDBRANCH   1   2
BRANCH   1  35
ATOM     35  C   UNL     1      -6.727   7.400   1.190  1.00  0.00     0.202 C 
BRANCH  35  36
ATOM     36  C   UNL     1      -7.603   6.788   0.091  1.00  0.00     0.261 C 
BRANCH  36  37
ATOM     37  O   UNL     1      -7.388   7.409  -1.188  1.00  0.00    -0.460 OA
BRANCH  37  38
ATOM     38  C   UNL     1      -8.412   8.190  -1.608  1.00  0.00     0.338 C 
ATOM     39  O   UNL     1      -9.493   8.340  -1.052  1.00  0.00    -0.246 OA
BRANCH  38  40
ATOM     40  C   UNL     1      -7.993   9.013  -2.758  1.00  0.00     0.060 A 
ATOM     41  C   UNL     1      -8.254  10.387  -2.687  1.00  0.00     0.016 A 
ATOM     42  C   UNL     1      -7.422   8.459  -3.907  1.00  0.00     0.016 A 
ATOM     43  C   UNL     1      -7.998  11.203  -3.785  1.00  0.00     0.010 A 
ATOM     44  C   UNL     1      -7.167   9.283  -5.012  1.00  0.00     0.010 A 
ATOM     45  C   UNL     1      -7.489  10.652  -4.969  1.00  0.00    -0.014 A 
BRANCH  45  46
ATOM     46  C   UNL     1      -7.430  11.503  -6.184  1.00  0.00     0.031 A 
ATOM     47  C   UNL     1      -8.512  11.380  -7.223  1.00  0.00     0.074 A 
ATOM     48  C   UNL     1      -6.463  12.429  -6.320  1.00  0.00     0.049 A 
ATOM     49  N   UNL     1      -8.695  12.071  -8.319  1.00  0.00    -0.248 NA
ATOM     50  C   UNL     1      -9.522  10.338  -6.992  1.00  0.00     0.031 C 
ATOM     51  C   UNL     1      -5.379  12.660  -5.366  1.00  0.00     0.029 A 
ATOM     52  N   UNL     1      -6.247  13.357  -7.307  1.00  0.00    -0.354 N 
ATOM     53  C   UNL     1      -9.846  11.554  -8.907  1.00  0.00     0.074 A 
ATOM     54  C   UNL     1     -10.283  10.456  -8.069  1.00  0.00     0.031 C 
ATOM     55  C   UNL     1      -4.617  13.674  -5.810  1.00  0.00     0.029 A 
ATOM     56  C   UNL     1      -5.142  14.146  -7.090  1.00  0.00     0.049 A 
ATOM     57  H   UNL     1      -6.827  13.449  -8.097  1.00  0.00     0.167 HD
ATOM     58  C   UNL     1     -10.487  11.966 -10.030  1.00  0.00     0.034 A 
ATOM     59  C   UNL     1      -4.611  15.131  -7.841  1.00  0.00     0.034 A 
ATOM     60  C   UNL     1     -10.026  13.049 -10.867  1.00  0.00     0.049 A 
ATOM     61  C   UNL     1      -5.301  15.525  -9.123  1.00  0.00     0.074 A 
ATOM     62  C   UNL     1     -10.600  13.555 -12.021  1.00  0.00     0.029 A 
ATOM     63  N   UNL     1      -8.869  13.789 -10.648  1.00  0.00    -0.354 N 
ATOM     64  N   UNL     1      -6.400  15.042  -9.657  1.00  0.00    -0.248 NA
ATOM     65  C   UNL     1      -4.684  16.612  -9.894  1.00  0.00     0.031 C 
ATOM     66  C   UNL     1      -9.755  14.545 -12.537  1.00  0.00     0.029 A 
ATOM     67  C   UNL     1      -8.694  14.720 -11.662  1.00  0.00     0.049 A 
ATOM     68  H   UNL     1      -8.260  13.669  -9.883  1.00  0.00     0.167 HD
ATOM     69  C   UNL     1      -6.619  15.786 -10.814  1.00  0.00     0.074 A 
ATOM     70  C   UNL     1      -5.553  16.765 -10.881  1.00  0.00     0.031 C 
ATOM     71  C   UNL     1      -7.610  15.673 -11.737  1.00  0.00     0.034 A 
BRANCH  58  72
ATOM     72  C   UNL     1     -11.725  11.200 -10.437  1.00  0.00     0.023 A 
ATOM     73  C   UNL     1     -12.873  11.161  -9.625  1.00  0.00     0.031 A 
ATOM     74  C   UNL     1     -11.744  10.462 -11.634  1.00  0.00     0.131 A 
ATOM     75  C   UNL     1     -13.956  10.341  -9.979  1.00  0.00     0.055 A 
ATOM     76  C   UNL     1     -12.858   9.713 -12.022  1.00  0.00     0.041 A 
ATOM     77  F   UNL     1     -10.671  10.440 -12.441  1.00  0.00    -0.206 F 
ATOM     78  C   UNL     1     -13.966   9.636 -11.184  1.00  0.00     0.022 A 
BRANCH  75  79
ATOM     79  S   UNL     1     -15.282  10.083  -8.767  1.00  0.00     0.124 S 
ATOM     80  O   UNL     1     -14.540   9.553  -7.626  1.00  0.00    -0.237 OA
ATOM     81  O   UNL     1     -15.829  11.425  -8.608  1.00  0.00    -0.237 OA
ATOM     82  O   UNL     1     -16.166   9.122  -9.426  1.00  0.00    -0.744 OA
ENDBRANCH  75  79
ENDBRANCH  58  72
BRANCH  59  83
ATOM     83  C   UNL     1      -3.351  15.806  -7.417  1.00  0.00     0.023 A 
ATOM     84  C   UNL     1      -3.328  17.173  -7.096  1.00  0.00     0.031 A 
ATOM     85  C   UNL     1      -2.136  15.098  -7.377  1.00  0.00     0.131 A 
ATOM     86  C   UNL     1      -2.109  17.799  -6.791  1.00  0.00     0.055 A 
ATOM     87  C   UNL     1      -0.935  15.714  -7.024  1.00  0.00     0.041 A 
ATOM     88  F   UNL     1      -2.104  13.789  -7.673  1.00  0.00    -0.206 F 
ATOM     89  C   UNL     1      -0.915  17.076  -6.740  1.00  0.00     0.022 A 
BRANCH  86  90
ATOM     90  S   UNL     1      -2.094  19.594  -6.531  1.00  0.00     0.124 S 
ATOM     91  O   UNL     1      -2.606  20.084  -7.806  1.00  0.00    -0.237 OA
ATOM     92  O   UNL     1      -2.983  19.741  -5.384  1.00  0.00    -0.237 OA
ATOM     93  O   UNL     1      -0.687  19.888  -6.267  1.00  0.00    -0.744 OA
ENDBRANCH  86  90
ENDBRANCH  59  83
BRANCH  71  94
ATOM     94  C   UNL     1      -7.590  16.662 -12.881  1.00  0.00     0.023 A 
ATOM     95  C   UNL     1      -6.535  16.694 -13.812  1.00  0.00     0.031 A 
ATOM     96  C   UNL     1      -8.610  17.621 -13.012  1.00  0.00     0.131 A 
ATOM     97  C   UNL     1      -6.481  17.713 -14.775  1.00  0.00     0.055 A 
ATOM     98  C   UNL     1      -8.589  18.587 -14.019  1.00  0.00     0.041 A 
ATOM     99  F   UNL     1      -9.642  17.643 -12.153  1.00  0.00    -0.206 F 
ATOM    100  C   UNL     1      -7.509  18.650 -14.896  1.00  0.00     0.022 A 
BRANCH  97 101
ATOM    101  S   UNL     1      -4.977  17.881 -15.778  1.00  0.00     0.124 S 
ATOM    102  O   UNL     1      -3.941  17.983 -14.756  1.00  0.00    -0.237 OA
ATOM    103  O   UNL     1      -4.984  16.648 -16.558  1.00  0.00    -0.237 OA
ATOM    104  O   UNL     1      -5.213  19.102 -16.546  1.00  0.00    -0.744 OA
ENDBRANCH  97 101
ENDBRANCH  71  94
ENDBRANCH  45  46
ENDBRANCH  38  40
ENDBRANCH  37  38
ENDBRANCH  36  37
ENDBRANCH  35  36
ENDBRANCH   1  35
TORSDOF 22
