REMARK SMILES O=C(OCCOCCOC(=O)c1c(S(=O)(=O)N2CCO[C@@H](CCO)C2)sc2c1CC[NH2+]C2)c1ccc(-c2c3nc(c(-c4cc(S(=O)(=O)[O-])ccc4F)c4ccc([nH]4)c(-c4cc(S(=O)(=O)[O-])ccc4F)c4nc(c(-c5cc(S(=O)(=O)[O-])ccc5F)c5ccc2[nH]5)C=C4)C=C3)cc1
REMARK SMILES IDX 7 1 6 2 5 3 4 4 3 5 2 6 1 7 33 8 34 9 95 10 35 11 94 12
REMARK SMILES IDX 36 13 37 14 38 15 88 16 39 17 93 18 87 19 89 20 40 21 92 22
REMARK SMILES IDX 86 23 85 24 41 26 73 27 53 28 72 29 54 30 57 31 71 32 90 33
REMARK SMILES IDX 55 34 56 35 70 37 91 38 58 39 42 40 43 41 51 42 44 43 50 44
REMARK SMILES IDX 52 45 49 46 45 47 46 48 47 49 48 50 74 51 75 52 83 53 76 54
REMARK SMILES IDX 82 55 84 56 81 57 77 58 78 59 79 60 80 61 59 62 60 63 68 64
REMARK SMILES IDX 61 65 67 66 69 67 66 68 62 69 63 70 64 71 65 72 8 73 9 74
REMARK SMILES IDX 10 75 11 76 12 77 13 78 28 79 26 80 27 81 29 82 32 83 30 84
REMARK SMILES IDX 31 85 14 88 15 89 16 90 17 91 18 92 25 93 19 94 21 95 20 96
REMARK SMILES IDX 22 97 23 98 24 99
REMARK H PARENT 89 25 57 36 31 86 31 87 24 100
REMARK Flexibility Score: inf
ROOT
ATOM      1  C   UNL     1       3.292   2.177   0.689  1.00  0.00     0.202 C 
ENDROOT
BRANCH   1   2
ATOM      2  O   UNL     1       4.333   1.189   0.684  1.00  0.00    -0.374 OA
BRANCH   2   3
ATOM      3  C   UNL     1       4.897   0.837  -0.574  1.00  0.00     0.202 C 
BRANCH   3   4
ATOM      4  C   UNL     1       4.477  -0.462  -1.274  1.00  0.00     0.261 C 
BRANCH   4   5
ATOM      5  O   UNL     1       3.094  -0.422  -1.654  1.00  0.00    -0.460 OA
BRANCH   5   6
ATOM      6  C   UNL     1       2.065  -0.332  -0.780  1.00  0.00     0.338 C 
ATOM      7  O   UNL     1       1.044   0.275  -1.093  1.00  0.00    -0.246 OA
BRANCH   6   8
ATOM      8  C   UNL     1       2.091  -1.130   0.471  1.00  0.00     0.060 A 
ATOM      9  C   UNL     1       3.244  -1.556   1.138  1.00  0.00     0.016 A 
ATOM     10  C   UNL     1       0.842  -1.573   0.915  1.00  0.00     0.016 A 
ATOM     11  C   UNL     1       3.201  -2.652   1.958  1.00  0.00     0.010 A 
ATOM     12  C   UNL     1       0.777  -2.604   1.825  1.00  0.00     0.010 A 
ATOM     13  C   UNL     1       1.967  -3.220   2.213  1.00  0.00    -0.014 A 
BRANCH  13  14
ATOM     14  C   UNL     1       1.965  -4.493   2.902  1.00  0.00     0.031 A 
ATOM     15  C   UNL     1       2.498  -4.457   4.290  1.00  0.00     0.074 A 
ATOM     16  C   UNL     1       1.394  -5.547   2.289  1.00  0.00     0.049 A 
ATOM     17  N   UNL     1       3.329  -5.262   4.866  1.00  0.00    -0.248 NA
ATOM     18  C   UNL     1       2.143  -3.283   5.111  1.00  0.00     0.031 C 
ATOM     19  C   UNL     1       0.684  -5.553   1.002  1.00  0.00     0.029 A 
ATOM     20  N   UNL     1       1.151  -6.788   2.776  1.00  0.00    -0.354 N 
ATOM     21  C   UNL     1       3.432  -4.818   6.183  1.00  0.00     0.074 A 
ATOM     22  C   UNL     1       2.830  -3.515   6.226  1.00  0.00     0.031 C 
ATOM     23  C   UNL     1      -0.162  -6.602   0.976  1.00  0.00     0.029 A 
ATOM     24  C   UNL     1       0.053  -7.394   2.173  1.00  0.00     0.049 A 
ATOM     25  H   UNL     1       1.692  -7.215   3.479  1.00  0.00     0.167 HD
ATOM     26  C   UNL     1       3.788  -5.650   7.197  1.00  0.00     0.034 A 
ATOM     27  C   UNL     1      -0.723  -8.370   2.708  1.00  0.00     0.034 A 
ATOM     28  C   UNL     1       4.553  -6.772   6.718  1.00  0.00     0.049 A 
ATOM     29  C   UNL     1       0.070  -9.006   3.791  1.00  0.00     0.074 A 
ATOM     30  C   UNL     1       5.758  -6.896   6.053  1.00  0.00     0.029 A 
ATOM     31  N   UNL     1       3.927  -7.988   6.572  1.00  0.00    -0.354 N 
ATOM     32  N   UNL     1       1.189  -9.646   3.578  1.00  0.00    -0.248 NA
ATOM     33  C   UNL     1      -0.106  -8.516   5.152  1.00  0.00     0.031 C 
ATOM     34  C   UNL     1       5.559  -7.964   5.130  1.00  0.00     0.029 A 
ATOM     35  C   UNL     1       4.271  -8.465   5.329  1.00  0.00     0.049 A 
ATOM     36  H   UNL     1       3.345  -8.431   7.230  1.00  0.00     0.167 HD
ATOM     37  C   UNL     1       2.024  -9.275   4.622  1.00  0.00     0.074 A 
ATOM     38  C   UNL     1       1.139  -8.669   5.615  1.00  0.00     0.031 C 
ATOM     39  C   UNL     1       3.382  -9.223   4.468  1.00  0.00     0.034 A 
BRANCH  26  40
ATOM     40  C   UNL     1       3.144  -5.610   8.564  1.00  0.00     0.023 A 
ATOM     41  C   UNL     1       3.629  -6.494   9.544  1.00  0.00     0.031 A 
ATOM     42  C   UNL     1       1.916  -4.970   8.864  1.00  0.00     0.131 A 
ATOM     43  C   UNL     1       2.877  -6.768  10.701  1.00  0.00     0.055 A 
ATOM     44  C   UNL     1       1.209  -5.191  10.047  1.00  0.00     0.041 A 
ATOM     45  F   UNL     1       1.280  -4.176   7.995  1.00  0.00    -0.206 F 
ATOM     46  C   UNL     1       1.672  -6.119  10.961  1.00  0.00     0.022 A 
BRANCH  43  47
ATOM     47  S   UNL     1       3.403  -8.132  11.768  1.00  0.00     0.124 S 
ATOM     48  O   UNL     1       3.608  -9.206  10.802  1.00  0.00    -0.237 OA
ATOM     49  O   UNL     1       4.605  -7.581  12.385  1.00  0.00    -0.237 OA
ATOM     50  O   UNL     1       2.266  -8.315  12.668  1.00  0.00    -0.744 OA
ENDBRANCH  43  47
ENDBRANCH  26  40
BRANCH  27  51
ATOM     51  C   UNL     1      -2.206  -8.423   2.588  1.00  0.00     0.023 A 
ATOM     52  C   UNL     1      -2.937  -9.616   2.720  1.00  0.00     0.031 A 
ATOM     53  C   UNL     1      -2.957  -7.223   2.507  1.00  0.00     0.131 A 
ATOM     54  C   UNL     1      -4.352  -9.581   2.733  1.00  0.00     0.055 A 
ATOM     55  C   UNL     1      -4.351  -7.197   2.498  1.00  0.00     0.041 A 
ATOM     56  F   UNL     1      -2.355  -6.023   2.505  1.00  0.00    -0.206 F 
ATOM     57  C   UNL     1      -5.058  -8.381   2.615  1.00  0.00     0.022 A 
BRANCH  54  58
ATOM     58  S   UNL     1      -5.299 -11.114   2.992  1.00  0.00     0.124 S 
ATOM     59  O   UNL     1      -5.026 -11.857   1.768  1.00  0.00    -0.237 OA
ATOM     60  O   UNL     1      -4.707 -11.641   4.217  1.00  0.00    -0.237 OA
ATOM     61  O   UNL     1      -6.678 -10.644   3.132  1.00  0.00    -0.744 OA
ENDBRANCH  54  58
ENDBRANCH  27  51
BRANCH  39  62
ATOM     62  C   UNL     1       3.985  -9.771   3.188  1.00  0.00     0.023 A 
ATOM     63  C   UNL     1       3.717  -9.252   1.898  1.00  0.00     0.031 A 
ATOM     64  C   UNL     1       4.995 -10.741   3.300  1.00  0.00     0.131 A 
ATOM     65  C   UNL     1       4.445  -9.713   0.783  1.00  0.00     0.055 A 
ATOM     66  C   UNL     1       5.723 -11.184   2.196  1.00  0.00     0.041 A 
ATOM     67  F   UNL     1       5.328 -11.239   4.503  1.00  0.00    -0.206 F 
ATOM     68  C   UNL     1       5.449 -10.675   0.931  1.00  0.00     0.022 A 
BRANCH  65  69
ATOM     69  S   UNL     1       4.107  -9.054  -0.884  1.00  0.00     0.124 S 
ATOM     70  O   UNL     1       2.663  -9.198  -1.021  1.00  0.00    -0.237 OA
ATOM     71  O   UNL     1       4.612  -7.686  -0.795  1.00  0.00    -0.237 OA
ATOM     72  O   UNL     1       4.889  -9.929  -1.761  1.00  0.00    -0.744 OA
ENDBRANCH  65  69
ENDBRANCH  39  62
ENDBRANCH  13  14
ENDBRANCH   6   8
ENDBRANCH   5   6
ENDBRANCH   4   5
ENDBRANCH   3   4
ENDBRANCH   2   3
ENDBRANCH   1   2
BRANCH   1  73
ATOM     73  C   UNL     1       3.691   3.620   0.347  1.00  0.00     0.261 C 
BRANCH  73  74
ATOM     74  O   UNL     1       3.916   3.764  -1.067  1.00  0.00    -0.460 OA
BRANCH  74  75
ATOM     75  C   UNL     1       5.207   3.822  -1.501  1.00  0.00     0.340 C 
ATOM     76  O   UNL     1       6.182   4.005  -0.782  1.00  0.00    -0.246 OA
BRANCH  75  77
ATOM     77  C   UNL     1       5.310   3.357  -2.886  1.00  0.00     0.095 A 
ATOM     78  C   UNL     1       4.380   3.697  -3.862  1.00  0.00     0.150 A 
ATOM     79  C   UNL     1       6.300   2.442  -3.428  1.00  0.00    -0.007 A 
ATOM     80  S   UNL     1       4.496   2.629  -5.193  1.00  0.00    -0.120 S 
ATOM     81  C   UNL     1       6.079   2.219  -4.771  1.00  0.00     0.064 A 
ATOM     82  C   UNL     1       7.424   1.704  -2.754  1.00  0.00     0.099 C 
ATOM     83  C   UNL     1       7.056   1.583  -5.702  1.00  0.00     0.308 C 
ATOM     84  C   UNL     1       8.444   1.125  -3.765  1.00  0.00     0.265 C 
ATOM     85  N   UNL     1       7.845   0.565  -4.995  1.00  0.00    -0.342 N 
ATOM     86  H   UNL     1       7.237  -0.215  -4.746  1.00  0.00     0.346 HD
ATOM     87  H   UNL     1       8.595   0.249  -5.610  1.00  0.00     0.346 HD
BRANCH  78  88
ATOM     88  S   UNL     1       3.105   4.936  -3.944  1.00  0.00     0.253 S 
ATOM     89  O   UNL     1       1.850   4.222  -3.911  1.00  0.00    -0.206 OA
ATOM     90  O   UNL     1       3.470   5.881  -2.905  1.00  0.00    -0.206 OA
BRANCH  88  91
ATOM     91  N   UNL     1       3.204   5.787  -5.405  1.00  0.00    -0.192 NA
ATOM     92  C   UNL     1       2.648   5.234  -6.663  1.00  0.00     0.131 C 
ATOM     93  C   UNL     1       4.371   6.669  -5.628  1.00  0.00     0.134 C 
ATOM     94  C   UNL     1       3.723   4.807  -7.686  1.00  0.00     0.177 C 
ATOM     95  C   UNL     1       5.426   5.918  -6.445  1.00  0.00     0.135 C 
ATOM     96  O   UNL     1       4.878   5.661  -7.754  1.00  0.00    -0.375 OA
BRANCH  95  97
ATOM     97  C   UNL     1       6.756   6.660  -6.596  1.00  0.00     0.061 C 
BRANCH  97  98
ATOM     98  C   UNL     1       7.296   7.221  -5.285  1.00  0.00     0.159 C 
BRANCH  98  99
ATOM     99  O   UNL     1       7.173   6.244  -4.260  1.00  0.00    -0.396 OA
ATOM    100  H   UNL     1       6.239   6.009  -4.148  1.00  0.00     0.210 HD
ENDBRANCH  98  99
ENDBRANCH  97  98
ENDBRANCH  95  97
ENDBRANCH  88  91
ENDBRANCH  78  88
ENDBRANCH  75  77
ENDBRANCH  74  75
ENDBRANCH  73  74
ENDBRANCH   1  73
TORSDOF 22
