REMARK SMILES C[C@@H](C(=O)OCCOCCOC(=O)c1ccc(-c2c3nc(c(-c4cc(S(=O)(=O)[O-])ccc4F)c4ccc([nH]4)c(-c4cc(S(=O)(=O)[O-])ccc4F)c4nc(c(-c5cc(S(=O)(=O)[O-])ccc5F)c5ccc2[nH]5)C=C4)C=C3)cc1)c1ccc(-c2ccc3[nH]ccc3c2)cc1
REMARK SMILES IDX 9 1 8 2 7 3 6 4 5 5 3 6 4 7 2 8 1 9 77 10 78 11 91 12 79 13
REMARK SMILES IDX 90 14 80 15 81 16 82 17 89 18 83 19 88 20 84 21 87 22 85 23
REMARK SMILES IDX 86 24 10 26 11 27 12 28 13 29 14 30 15 31 76 32 16 33 75 34
REMARK SMILES IDX 17 35 18 36 19 37 69 38 20 39 74 40 68 41 70 42 21 43 73 44
REMARK SMILES IDX 67 45 66 46 22 48 54 49 34 50 53 51 35 52 38 53 52 54 71 55
REMARK SMILES IDX 36 56 37 57 51 59 72 60 39 61 23 62 24 63 32 64 25 65 31 66
REMARK SMILES IDX 33 67 30 68 26 69 27 70 28 71 29 72 55 73 56 74 64 75 57 76
REMARK SMILES IDX 63 77 65 78 62 79 58 80 59 81 60 82 61 83 40 84 41 85 49 86
REMARK SMILES IDX 42 87 48 88 50 89 47 90 43 91 44 92 45 93 46 94
REMARK H PARENT 85 25 70 47 38 58
REMARK Flexibility Score: inf
ROOT
ATOM      1  C   UNL     1       0.336  -3.026   1.959  1.00  0.00     0.202 C 
ENDROOT
BRANCH   1   2
ATOM      2  O   UNL     1       0.705  -4.382   1.702  1.00  0.00    -0.374 OA
BRANCH   2   3
ATOM      3  C   UNL     1       2.007  -4.629   1.171  1.00  0.00     0.202 C 
BRANCH   3   4
ATOM      4  C   UNL     1       2.239  -4.232  -0.291  1.00  0.00     0.261 C 
BRANCH   4   5
ATOM      5  O   UNL     1       1.943  -2.844  -0.497  1.00  0.00    -0.463 OA
BRANCH   5   6
ATOM      6  C   UNL     1       1.202  -2.549  -1.600  1.00  0.00     0.313 C 
ATOM      7  O   UNL     1       0.990  -3.329  -2.522  1.00  0.00    -0.252 OA
BRANCH   6   8
ATOM      8  C   UNL     1       0.551  -1.165  -1.508  1.00  0.00     0.126 C 
ATOM      9  C   UNL     1       1.332  -0.209  -0.593  1.00  0.00     0.025 C 
BRANCH   8  10
ATOM     10  C   UNL     1      -0.952  -1.192  -1.194  1.00  0.00    -0.034 A 
ATOM     11  C   UNL     1      -1.666   0.015  -1.103  1.00  0.00     0.005 A 
ATOM     12  C   UNL     1      -1.683  -2.385  -1.061  1.00  0.00     0.005 A 
ATOM     13  C   UNL     1      -3.056   0.026  -0.932  1.00  0.00     0.009 A 
ATOM     14  C   UNL     1      -3.076  -2.372  -0.890  1.00  0.00     0.009 A 
ATOM     15  C   UNL     1      -3.784  -1.167  -0.856  1.00  0.00    -0.018 A 
BRANCH  15  16
ATOM     16  C   UNL     1      -5.252  -1.147  -0.867  1.00  0.00    -0.018 A 
ATOM     17  C   UNL     1      -5.918  -0.886  -2.076  1.00  0.00     0.011 A 
ATOM     18  C   UNL     1      -6.010  -1.381   0.294  1.00  0.00     0.019 A 
ATOM     19  C   UNL     1      -7.313  -0.853  -2.166  1.00  0.00     0.027 A 
ATOM     20  C   UNL     1      -7.421  -1.337   0.233  1.00  0.00    -0.000 A 
ATOM     21  C   UNL     1      -8.035  -1.081  -0.993  1.00  0.00     0.045 A 
ATOM     22  C   UNL     1      -8.463  -1.494   1.191  1.00  0.00     0.028 A 
ATOM     23  N   UNL     1      -9.395  -1.107  -0.784  1.00  0.00    -0.361 N 
ATOM     24  C   UNL     1      -9.666  -1.341   0.537  1.00  0.00     0.083 A 
ATOM     25  H   UNL     1     -10.075  -0.975  -1.483  1.00  0.00     0.166 HD
ENDBRANCH  15  16
ENDBRANCH   8  10
ENDBRANCH   6   8
ENDBRANCH   5   6
ENDBRANCH   4   5
ENDBRANCH   3   4
ENDBRANCH   2   3
ENDBRANCH   1   2
BRANCH   1  26
ATOM     26  C   UNL     1       1.051  -2.288   3.099  1.00  0.00     0.261 C 
BRANCH  26  27
ATOM     27  O   UNL     1       2.459  -2.102   2.857  1.00  0.00    -0.460 OA
BRANCH  27  28
ATOM     28  C   UNL     1       3.267  -2.716   3.760  1.00  0.00     0.338 C 
ATOM     29  O   UNL     1       2.920  -3.340   4.748  1.00  0.00    -0.246 OA
BRANCH  28  30
ATOM     30  C   UNL     1       4.668  -2.694   3.297  1.00  0.00     0.060 A 
ATOM     31  C   UNL     1       5.311  -3.927   3.129  1.00  0.00     0.016 A 
ATOM     32  C   UNL     1       5.373  -1.500   3.141  1.00  0.00     0.016 A 
ATOM     33  C   UNL     1       6.675  -3.972   2.849  1.00  0.00     0.010 A 
ATOM     34  C   UNL     1       6.746  -1.547   2.868  1.00  0.00     0.010 A 
ATOM     35  C   UNL     1       7.410  -2.783   2.755  1.00  0.00    -0.014 A 
BRANCH  35  36
ATOM     36  C   UNL     1       8.893  -2.848   2.688  1.00  0.00     0.031 A 
ATOM     37  C   UNL     1       9.692  -2.615   3.942  1.00  0.00     0.074 A 
ATOM     38  C   UNL     1       9.517  -3.153   1.536  1.00  0.00     0.049 A 
ATOM     39  N   UNL     1      10.989  -2.594   4.110  1.00  0.00    -0.248 NA
ATOM     40  C   UNL     1       8.921  -2.372   5.170  1.00  0.00     0.031 C 
ATOM     41  C   UNL     1       8.848  -3.449   0.270  1.00  0.00     0.029 A 
ATOM     42  N   UNL     1      10.853  -3.262   1.244  1.00  0.00    -0.354 N 
ATOM     43  C   UNL     1      11.192  -2.334   5.462  1.00  0.00     0.074 A 
ATOM     44  C   UNL     1       9.883  -2.165   6.056  1.00  0.00     0.031 C 
ATOM     45  C   UNL     1       9.779  -3.696  -0.667  1.00  0.00     0.029 A 
ATOM     46  C   UNL     1      11.108  -3.539  -0.079  1.00  0.00     0.049 A 
ATOM     47  H   UNL     1      11.562  -3.154   1.918  1.00  0.00     0.167 HD
ATOM     48  C   UNL     1      12.362  -2.256   6.146  1.00  0.00     0.034 A 
ATOM     49  C   UNL     1      12.278  -3.626  -0.744  1.00  0.00     0.034 A 
ATOM     50  C   UNL     1      13.660  -2.412   5.535  1.00  0.00     0.049 A 
ATOM     51  C   UNL     1      13.569  -3.442   0.017  1.00  0.00     0.074 A 
ATOM     52  C   UNL     1      14.908  -2.358   6.132  1.00  0.00     0.029 A 
ATOM     53  N   UNL     1      13.881  -2.640   4.181  1.00  0.00    -0.354 N 
ATOM     54  N   UNL     1      13.749  -3.198   1.296  1.00  0.00    -0.248 NA
ATOM     55  C   UNL     1      14.815  -3.553  -0.753  1.00  0.00     0.031 C 
ATOM     56  C   UNL     1      15.880  -2.478   5.133  1.00  0.00     0.029 A 
ATOM     57  C   UNL     1      15.243  -2.692   3.921  1.00  0.00     0.049 A 
ATOM     58  H   UNL     1      13.174  -2.749   3.506  1.00  0.00     0.167 HD
ATOM     59  C   UNL     1      15.128  -3.157   1.485  1.00  0.00     0.074 A 
ATOM     60  C   UNL     1      15.731  -3.414   0.194  1.00  0.00     0.031 C 
ATOM     61  C   UNL     1      15.833  -2.934   2.625  1.00  0.00     0.034 A 
BRANCH  48  62
ATOM     62  C   UNL     1      12.282  -1.933   7.619  1.00  0.00     0.023 A 
ATOM     63  C   UNL     1      11.658  -2.798   8.536  1.00  0.00     0.031 A 
ATOM     64  C   UNL     1      12.806  -0.724   8.110  1.00  0.00     0.131 A 
ATOM     65  C   UNL     1      11.508  -2.410   9.876  1.00  0.00     0.055 A 
ATOM     66  C   UNL     1      12.725  -0.380   9.461  1.00  0.00     0.041 A 
ATOM     67  F   UNL     1      13.392   0.154   7.281  1.00  0.00    -0.206 F 
ATOM     68  C   UNL     1      12.059  -1.217  10.350  1.00  0.00     0.022 A 
BRANCH  65  69
ATOM     69  S   UNL     1      10.450  -3.412  10.957  1.00  0.00     0.124 S 
ATOM     70  O   UNL     1       9.180  -3.384  10.236  1.00  0.00    -0.237 OA
ATOM     71  O   UNL     1      11.146  -4.694  10.977  1.00  0.00    -0.237 OA
ATOM     72  O   UNL     1      10.458  -2.678  12.221  1.00  0.00    -0.744 OA
ENDBRANCH  65  69
ENDBRANCH  48  62
BRANCH  49  73
ATOM     73  C   UNL     1      12.290  -3.853  -2.218  1.00  0.00     0.023 A 
ATOM     74  C   UNL     1      12.858  -5.010  -2.774  1.00  0.00     0.031 A 
ATOM     75  C   UNL     1      11.773  -2.884  -3.097  1.00  0.00     0.131 A 
ATOM     76  C   UNL     1      12.933  -5.150  -4.169  1.00  0.00     0.055 A 
ATOM     77  C   UNL     1      11.802  -3.052  -4.482  1.00  0.00     0.041 A 
ATOM     78  F   UNL     1      11.221  -1.758  -2.617  1.00  0.00    -0.206 F 
ATOM     79  C   UNL     1      12.396  -4.186  -5.026  1.00  0.00     0.022 A 
BRANCH  76  80
ATOM     80  S   UNL     1      13.818  -6.578  -4.854  1.00  0.00     0.124 S 
ATOM     81  O   UNL     1      15.147  -6.406  -4.279  1.00  0.00    -0.237 OA
ATOM     82  O   UNL     1      13.034  -7.695  -4.338  1.00  0.00    -0.237 OA
ATOM     83  O   UNL     1      13.730  -6.372  -6.298  1.00  0.00    -0.744 OA
ENDBRANCH  76  80
ENDBRANCH  49  73
BRANCH  61  84
ATOM     84  C   UNL     1      17.339  -3.005   2.527  1.00  0.00     0.023 A 
ATOM     85  C   UNL     1      18.082  -2.064   1.794  1.00  0.00     0.031 A 
ATOM     86  C   UNL     1      18.040  -4.040   3.174  1.00  0.00     0.131 A 
ATOM     87  C   UNL     1      19.474  -2.206   1.679  1.00  0.00     0.055 A 
ATOM     88  C   UNL     1      19.430  -4.141   3.107  1.00  0.00     0.041 A 
ATOM     89  F   UNL     1      17.383  -4.969   3.887  1.00  0.00    -0.206 F 
ATOM     90  C   UNL     1      20.154  -3.229   2.345  1.00  0.00     0.022 A 
BRANCH  87  91
ATOM     91  S   UNL     1      20.377  -1.090   0.569  1.00  0.00     0.124 S 
ATOM     92  O   UNL     1      19.720  -1.337  -0.710  1.00  0.00    -0.237 OA
ATOM     93  O   UNL     1      20.130   0.216   1.171  1.00  0.00    -0.237 OA
ATOM     94  O   UNL     1      21.758  -1.562   0.658  1.00  0.00    -0.744 OA
ENDBRANCH  87  91
ENDBRANCH  61  84
ENDBRANCH  35  36
ENDBRANCH  28  30
ENDBRANCH  27  28
ENDBRANCH  26  27
ENDBRANCH   1  26
TORSDOF 19
