REMARK SMILES O=C(CCN/C(=[NH+]\S(=O)(=O)c1ccccc1)c1ccccc1)OCCOCCOC(=O)c1ccc(-c2c3nc(c(-c4cc(S(=O)(=O)[O-])ccc4F)c4ccc([nH]4)c(-c4cc(S(=O)(=O)[O-])ccc4F)c4nc(c(-c5cc(S(=O)(=O)[O-])ccc5F)c5ccc2[nH]5)C=C4)C=C3)cc1
REMARK SMILES IDX 25 1 24 2 23 3 2 4 1 5 3 6 4 7 5 8 6 9 7 11 17 13 18 14
REMARK SMILES IDX 22 15 19 16 21 17 20 18 8 19 9 20 10 21 11 22 12 23 16 24
REMARK SMILES IDX 13 25 15 26 14 27 26 28 27 29 28 30 29 31 30 32 31 33 32 34
REMARK SMILES IDX 33 35 94 36 34 37 93 38 35 39 36 40 37 41 87 42 38 43 92 44
REMARK SMILES IDX 86 45 88 46 39 47 91 48 85 49 84 50 40 52 72 53 52 54 71 55
REMARK SMILES IDX 53 56 56 57 70 58 89 59 54 60 55 61 69 63 90 64 57 65 41 66
REMARK SMILES IDX 42 67 50 68 43 69 49 70 51 71 48 72 44 73 45 74 46 75 47 76
REMARK SMILES IDX 73 77 74 78 82 79 75 80 81 81 83 82 80 83 76 84 77 85 78 86
REMARK SMILES IDX 79 87 58 88 59 89 67 90 60 91 66 92 68 93 65 94 61 95 62 96
REMARK SMILES IDX 63 97 64 98
REMARK H PARENT 5 10 7 12 88 51 56 62
REMARK Flexibility Score: inf
ROOT
ATOM      1  C   UNL     1       4.356  -0.399   1.062  1.00  0.00     0.202 C 
ENDROOT
BRANCH   1   2
ATOM      2  C   UNL     1       3.422   0.731   0.621  1.00  0.00     0.261 C 
BRANCH   2   3
ATOM      3  O   UNL     1       2.222   0.327  -0.065  1.00  0.00    -0.463 OA
BRANCH   3   4
ATOM      4  C   UNL     1       2.199  -0.012  -1.366  1.00  0.00     0.309 C 
ATOM      5  O   UNL     1       1.228   0.274  -2.065  1.00  0.00    -0.252 OA
BRANCH   4   6
ATOM      6  C   UNL     1       3.312  -0.856  -1.914  1.00  0.00     0.168 C 
BRANCH   6   7
ATOM      7  C   UNL     1       4.141  -0.108  -2.938  1.00  0.00     0.245 C 
BRANCH   7   8
ATOM      8  N   UNL     1       5.220   0.680  -2.363  1.00  0.00    -0.273 N 
ATOM      9  C   UNL     1       6.506   0.335  -1.967  1.00  0.00     0.290 C 
ATOM     10  H   UNL     1       4.999   1.630  -2.230  1.00  0.00     0.305 HD
ATOM     11  N   UNL     1       7.297   1.093  -1.259  1.00  0.00    -0.162 N 
ATOM     12  H   UNL     1       8.228   0.809  -1.109  1.00  0.00     0.327 HD
BRANCH   9  13
ATOM     13  C   UNL     1       7.094  -1.002  -2.337  1.00  0.00     0.064 A 
ATOM     14  C   UNL     1       7.826  -1.710  -1.374  1.00  0.00     0.016 A 
ATOM     15  C   UNL     1       6.958  -1.537  -3.621  1.00  0.00     0.016 A 
ATOM     16  C   UNL     1       8.369  -2.961  -1.681  1.00  0.00     0.001 A 
ATOM     17  C   UNL     1       7.474  -2.802  -3.917  1.00  0.00     0.001 A 
ATOM     18  C   UNL     1       8.177  -3.514  -2.946  1.00  0.00     0.000 A 
ENDBRANCH   9  13
BRANCH  11  19
ATOM     19  S   UNL     1       6.782   2.490  -0.619  1.00  0.00     0.328 S 
ATOM     20  O   UNL     1       6.106   3.251  -1.657  1.00  0.00    -0.179 OA
ATOM     21  O   UNL     1       6.080   2.183   0.613  1.00  0.00    -0.179 OA
BRANCH  19  22
ATOM     22  C   UNL     1       8.198   3.422  -0.099  1.00  0.00     0.109 A 
ATOM     23  C   UNL     1       9.285   2.772   0.491  1.00  0.00     0.024 A 
ATOM     24  C   UNL     1       8.133   4.821  -0.139  1.00  0.00     0.024 A 
ATOM     25  C   UNL     1      10.298   3.535   1.075  1.00  0.00     0.001 A 
ATOM     26  C   UNL     1       9.149   5.573   0.448  1.00  0.00     0.001 A 
ATOM     27  C   UNL     1      10.223   4.930   1.063  1.00  0.00     0.000 A 
ENDBRANCH  19  22
ENDBRANCH  11  19
ENDBRANCH   7   8
ENDBRANCH   6   7
ENDBRANCH   4   6
ENDBRANCH   3   4
ENDBRANCH   2   3
ENDBRANCH   1   2
BRANCH   1  28
ATOM     28  O   UNL     1       3.761  -1.675   1.299  1.00  0.00    -0.374 OA
BRANCH  28  29
ATOM     29  C   UNL     1       2.589  -1.730   2.108  1.00  0.00     0.202 C 
BRANCH  29  30
ATOM     30  C   UNL     1       2.807  -1.601   3.612  1.00  0.00     0.261 C 
BRANCH  30  31
ATOM     31  O   UNL     1       3.267  -0.290   3.966  1.00  0.00    -0.460 OA
BRANCH  31  32
ATOM     32  C   UNL     1       4.579  -0.231   4.313  1.00  0.00     0.338 C 
ATOM     33  O   UNL     1       5.361  -1.159   4.360  1.00  0.00    -0.246 OA
BRANCH  32  34
ATOM     34  C   UNL     1       4.985   1.179   4.496  1.00  0.00     0.060 A 
ATOM     35  C   UNL     1       6.280   1.534   4.098  1.00  0.00     0.016 A 
ATOM     36  C   UNL     1       4.152   2.111   5.122  1.00  0.00     0.016 A 
ATOM     37  C   UNL     1       6.783   2.793   4.411  1.00  0.00     0.010 A 
ATOM     38  C   UNL     1       4.657   3.373   5.438  1.00  0.00     0.010 A 
ATOM     39  C   UNL     1       5.994   3.691   5.139  1.00  0.00    -0.014 A 
BRANCH  39  40
ATOM     40  C   UNL     1       6.647   4.841   5.804  1.00  0.00     0.031 A 
ATOM     41  C   UNL     1       7.069   4.679   7.241  1.00  0.00     0.074 A 
ATOM     42  C   UNL     1       6.894   5.980   5.137  1.00  0.00     0.049 A 
ATOM     43  N   UNL     1       7.668   5.526   8.036  1.00  0.00    -0.248 NA
ATOM     44  C   UNL     1       6.764   3.381   7.864  1.00  0.00     0.031 C 
ATOM     45  C   UNL     1       6.563   6.227   3.735  1.00  0.00     0.029 A 
ATOM     46  N   UNL     1       7.482   7.144   5.558  1.00  0.00    -0.354 N 
ATOM     47  C   UNL     1       7.813   4.864   9.252  1.00  0.00     0.074 A 
ATOM     48  C   UNL     1       7.194   3.565   9.101  1.00  0.00     0.031 C 
ATOM     49  C   UNL     1       6.949   7.474   3.412  1.00  0.00     0.029 A 
ATOM     50  C   UNL     1       7.533   8.116   4.588  1.00  0.00     0.049 A 
ATOM     51  H   UNL     1       7.835   7.271   6.468  1.00  0.00     0.167 HD
ATOM     52  C   UNL     1       8.417   5.296  10.386  1.00  0.00     0.034 A 
ATOM     53  C   UNL     1       7.995   9.380   4.655  1.00  0.00     0.034 A 
ATOM     54  C   UNL     1       9.010   6.603  10.520  1.00  0.00     0.049 A 
ATOM     55  C   UNL     1       8.602   9.867   5.949  1.00  0.00     0.074 A 
ATOM     56  C   UNL     1       9.654   7.153  11.614  1.00  0.00     0.029 A 
ATOM     57  N   UNL     1       9.016   7.575   9.526  1.00  0.00    -0.354 N 
ATOM     58  N   UNL     1       8.758   9.226   7.086  1.00  0.00    -0.248 NA
ATOM     59  C   UNL     1       9.113  11.243   5.960  1.00  0.00     0.031 C 
ATOM     60  C   UNL     1       9.988   8.477  11.305  1.00  0.00     0.029 A 
ATOM     61  C   UNL     1       9.627   8.730   9.991  1.00  0.00     0.049 A 
ATOM     62  H   UNL     1       8.641   7.460   8.623  1.00  0.00     0.167 HD
ATOM     63  C   UNL     1       9.429  10.108   7.931  1.00  0.00     0.074 A 
ATOM     64  C   UNL     1       9.649  11.321   7.169  1.00  0.00     0.031 C 
ATOM     65  C   UNL     1       9.837   9.931   9.215  1.00  0.00     0.034 A 
BRANCH  52  66
ATOM     66  C   UNL     1       8.401   4.361  11.573  1.00  0.00     0.023 A 
ATOM     67  C   UNL     1       9.040   3.108  11.540  1.00  0.00     0.031 A 
ATOM     68  C   UNL     1       7.682   4.700  12.732  1.00  0.00     0.131 A 
ATOM     69  C   UNL     1       8.877   2.209  12.606  1.00  0.00     0.055 A 
ATOM     70  C   UNL     1       7.594   3.835  13.825  1.00  0.00     0.041 A 
ATOM     71  F   UNL     1       7.030   5.871  12.814  1.00  0.00    -0.206 F 
ATOM     72  C   UNL     1       8.178   2.574  13.759  1.00  0.00     0.022 A 
BRANCH  69  73
ATOM     73  S   UNL     1       9.453   0.501  12.398  1.00  0.00     0.124 S 
ATOM     74  O   UNL     1       8.705   0.079  11.216  1.00  0.00    -0.237 OA
ATOM     75  O   UNL     1      10.890   0.671  12.220  1.00  0.00    -0.237 OA
ATOM     76  O   UNL     1       9.051  -0.150  13.644  1.00  0.00    -0.744 OA
ENDBRANCH  69  73
ENDBRANCH  52  66
BRANCH  53  77
ATOM     77  C   UNL     1       7.905  10.279   3.471  1.00  0.00     0.023 A 
ATOM     78  C   UNL     1       9.062  10.752   2.834  1.00  0.00     0.031 A 
ATOM     79  C   UNL     1       6.659  10.719   2.990  1.00  0.00     0.131 A 
ATOM     80  C   UNL     1       8.954  11.674   1.782  1.00  0.00     0.055 A 
ATOM     81  C   UNL     1       6.555  11.599   1.912  1.00  0.00     0.041 A 
ATOM     82  F   UNL     1       5.522  10.293   3.562  1.00  0.00    -0.206 F 
ATOM     83  C   UNL     1       7.708  12.093   1.309  1.00  0.00     0.022 A 
BRANCH  80  84
ATOM     84  S   UNL     1      10.474  12.374   1.083  1.00  0.00     0.124 S 
ATOM     85  O   UNL     1      11.074  13.007   2.252  1.00  0.00    -0.237 OA
ATOM     86  O   UNL     1      11.150  11.182   0.581  1.00  0.00    -0.237 OA
ATOM     87  O   UNL     1       9.986  13.290   0.056  1.00  0.00    -0.744 OA
ENDBRANCH  80  84
ENDBRANCH  53  77
BRANCH  65  88
ATOM     88  C   UNL     1      10.624  11.055   9.845  1.00  0.00     0.023 A 
ATOM     89  C   UNL     1      10.051  12.311  10.109  1.00  0.00     0.031 A 
ATOM     90  C   UNL     1      11.980  10.866  10.168  1.00  0.00     0.131 A 
ATOM     91  C   UNL     1      10.848  13.349  10.616  1.00  0.00     0.055 A 
ATOM     92  C   UNL     1      12.751  11.882  10.732  1.00  0.00     0.041 A 
ATOM     93  F   UNL     1      12.580   9.687   9.937  1.00  0.00    -0.206 F 
ATOM     94  C   UNL     1      12.190  13.138  10.944  1.00  0.00     0.022 A 
BRANCH  91  95
ATOM     95  S   UNL     1      10.137  15.014  10.734  1.00  0.00     0.124 S 
ATOM     96  O   UNL     1       9.686  15.250   9.367  1.00  0.00    -0.237 OA
ATOM     97  O   UNL     1       9.086  14.833  11.730  1.00  0.00    -0.237 OA
ATOM     98  O   UNL     1      11.265  15.838  11.166  1.00  0.00    -0.744 OA
ENDBRANCH  91  95
ENDBRANCH  65  88
ENDBRANCH  39  40
ENDBRANCH  32  34
ENDBRANCH  31  32
ENDBRANCH  30  31
ENDBRANCH  29  30
ENDBRANCH  28  29
ENDBRANCH   1  28
TORSDOF 22
