REMARK SMILES C[C@@H](NC(=O)[C@H]1CC=CC[C@@H]1C(=O)OCCOCCOC(=O)c1ccc(-c2c3nc(c(-c4cc(S(=O)(=O)[O-])ccc4F)c4ccc([nH]4)c(-c4cc(S(=O)(=O)[O-])ccc4F)c4nc(c(-c5cc(S(=O)(=O)[O-])ccc5F)c5ccc2[nH]5)C=C4)C=C3)cc1)c1ccc(-n2ccnc2)cc1
REMARK SMILES IDX 16 1 15 2 14 3 12 4 13 5 11 6 6 7 7 8 8 9 10 10 9 11 4 12
REMARK SMILES IDX 3 13 5 15 2 16 1 17 86 18 87 19 96 20 88 21 95 22 89 23
REMARK SMILES IDX 90 24 91 25 94 26 92 27 93 28 17 29 18 30 19 31 20 32 21 33
REMARK SMILES IDX 22 34 23 35 24 36 85 37 25 38 84 39 26 40 27 41 28 42 78 43
REMARK SMILES IDX 29 44 83 45 77 46 79 47 30 48 82 49 76 50 75 51 31 53 63 54
REMARK SMILES IDX 43 55 62 56 44 57 47 58 61 59 80 60 45 61 46 62 60 64 81 65
REMARK SMILES IDX 48 66 32 67 33 68 41 69 34 70 40 71 42 72 39 73 35 74 36 75
REMARK SMILES IDX 37 76 38 77 64 78 65 79 73 80 66 81 72 82 74 83 71 84 67 85
REMARK SMILES IDX 68 86 69 87 70 88 49 89 50 90 58 91 51 92 57 93 59 94 56 95
REMARK SMILES IDX 52 96 53 97 54 98 55 99
REMARK H PARENT 3 14 79 52 47 63
REMARK Flexibility Score: inf
ROOT
ATOM      1  C   UNL     1      -5.472  -3.396   0.352  1.00  0.00     0.202 C 
ENDROOT
BRANCH   1   2
ATOM      2  C   UNL     1      -5.334  -3.678  -1.207  1.00  0.00     0.261 C 
BRANCH   2   3
ATOM      3  O   UNL     1      -3.978  -4.128  -1.537  1.00  0.00    -0.463 OA
BRANCH   3   4
ATOM      4  C   UNL     1      -3.389  -3.533  -2.622  1.00  0.00     0.310 C 
ATOM      5  O   UNL     1      -3.959  -3.278  -3.675  1.00  0.00    -0.252 OA
BRANCH   4   6
ATOM      6  C   UNL     1      -1.990  -2.970  -2.276  1.00  0.00     0.115 C 
ATOM      7  C   UNL     1      -1.269  -3.657  -0.596  1.00  0.00     0.097 C 
ATOM      8  C   UNL     1      -1.599  -2.691   0.946  1.00  0.00     0.041 C 
ATOM      9  C   UNL     1      -1.731  -0.886   0.940  1.00  0.00    -0.030 C 
ATOM     10  C   UNL     1      -2.028  -0.942  -2.338  1.00  0.00     0.043 C 
ATOM     11  C   UNL     1      -1.952  -0.077  -0.332  1.00  0.00    -0.030 C 
BRANCH   7  12
ATOM     12  C   UNL     1       0.468  -3.638  -0.474  1.00  0.00     0.224 C 
ATOM     13  N   UNL     1       1.309  -2.472  -0.541  1.00  0.00    -0.349 N 
ATOM     14  H   UNL     1       2.194  -2.688  -0.167  1.00  0.00     0.164 HD
ATOM     15  O   UNL     1       1.040  -4.702  -0.204  1.00  0.00    -0.275 OA
BRANCH  13  16
ATOM     16  C   UNL     1       1.294  -0.873  -1.039  1.00  0.00     0.109 C 
ATOM     17  C   UNL     1       1.888  -0.034   0.087  1.00  0.00     0.036 C 
BRANCH  16  18
ATOM     18  C   UNL     1      -0.083  -0.340  -1.394  1.00  0.00    -0.026 A 
ATOM     19  C   UNL     1      -0.948   1.042  -1.963  1.00  0.00     0.008 A 
ATOM     20  C   UNL     1      -1.016  -1.621  -0.967  1.00  0.00     0.008 A 
ATOM     21  C   UNL     1      -2.738   1.129  -2.028  1.00  0.00     0.027 A 
ATOM     22  C   UNL     1      -2.971  -1.623  -0.876  1.00  0.00     0.027 A 
ATOM     23  C   UNL     1      -3.809  -0.140  -1.427  1.00  0.00     0.046 A 
BRANCH  23  24
ATOM     24  N   UNL     1      -5.198  -0.109  -1.832  1.00  0.00    -0.306 N 
ATOM     25  C   UNL     1      -6.378  -0.178  -1.131  1.00  0.00     0.113 A 
ATOM     26  C   UNL     1      -5.617   0.062  -3.138  1.00  0.00     0.204 A 
ATOM     27  C   UNL     1      -7.403  -0.264  -2.041  1.00  0.00     0.131 A 
ATOM     28  N   UNL     1      -6.919  -0.074  -3.295  1.00  0.00    -0.245 NA
ENDBRANCH  23  24
ENDBRANCH  16  18
ENDBRANCH  13  16
ENDBRANCH   7  12
ENDBRANCH   4   6
ENDBRANCH   3   4
ENDBRANCH   2   3
ENDBRANCH   1   2
BRANCH   1  29
ATOM     29  O   UNL     1      -5.813  -2.073   0.856  1.00  0.00    -0.374 OA
BRANCH  29  30
ATOM     30  C   UNL     1      -4.877  -1.146   1.450  1.00  0.00     0.202 C 
BRANCH  30  31
ATOM     31  C   UNL     1      -4.611  -0.949   2.948  1.00  0.00     0.261 C 
BRANCH  31  32
ATOM     32  O   UNL     1      -5.044  -2.035   3.702  1.00  0.00    -0.460 OA
BRANCH  32  33
ATOM     33  C   UNL     1      -6.382  -2.154   3.564  1.00  0.00     0.338 C 
ATOM     34  O   UNL     1      -7.185  -1.270   3.328  1.00  0.00    -0.246 OA
BRANCH  33  35
ATOM     35  C   UNL     1      -6.613  -3.589   3.436  1.00  0.00     0.060 A 
ATOM     36  C   UNL     1      -7.716  -3.986   2.677  1.00  0.00     0.016 A 
ATOM     37  C   UNL     1      -5.715  -4.510   3.998  1.00  0.00     0.016 A 
ATOM     38  C   UNL     1      -8.028  -5.323   2.625  1.00  0.00     0.010 A 
ATOM     39  C   UNL     1      -6.032  -5.844   3.961  1.00  0.00     0.010 A 
ATOM     40  C   UNL     1      -7.246  -6.210   3.371  1.00  0.00    -0.014 A 
BRANCH  40  41
ATOM     41  C   UNL     1      -7.874  -7.438   3.838  1.00  0.00     0.031 A 
ATOM     42  C   UNL     1      -8.448  -7.428   5.221  1.00  0.00     0.074 A 
ATOM     43  C   UNL     1      -7.928  -8.486   3.015  1.00  0.00     0.049 A 
ATOM     44  N   UNL     1      -8.969  -8.411   5.898  1.00  0.00    -0.248 NA
ATOM     45  C   UNL     1      -8.413  -6.144   5.949  1.00  0.00     0.031 C 
ATOM     46  C   UNL     1      -7.423  -8.503   1.642  1.00  0.00     0.029 A 
ATOM     47  N   UNL     1      -8.424  -9.733   3.225  1.00  0.00    -0.354 N 
ATOM     48  C   UNL     1      -9.315  -7.868   7.129  1.00  0.00     0.074 A 
ATOM     49  C   UNL     1      -8.897  -6.487   7.130  1.00  0.00     0.031 C 
ATOM     50  C   UNL     1      -7.631  -9.725   1.131  1.00  0.00     0.029 A 
ATOM     51  C   UNL     1      -8.221 -10.571   2.163  1.00  0.00     0.049 A 
ATOM     52  H   UNL     1      -8.881 -10.004   4.054  1.00  0.00     0.167 HD
ATOM     53  C   UNL     1      -9.941  -8.486   8.155  1.00  0.00     0.034 A 
ATOM     54  C   UNL     1      -8.450 -11.890   2.077  1.00  0.00     0.034 A 
ATOM     55  C   UNL     1     -10.316  -9.874   8.104  1.00  0.00     0.049 A 
ATOM     56  C   UNL     1      -9.052 -12.581   3.272  1.00  0.00     0.074 A 
ATOM     57  C   UNL     1     -10.955 -10.629   9.066  1.00  0.00     0.029 A 
ATOM     58  N   UNL     1     -10.064 -10.720   7.028  1.00  0.00    -0.354 N 
ATOM     59  N   UNL     1      -9.384 -12.074   4.440  1.00  0.00    -0.248 NA
ATOM     60  C   UNL     1      -9.319 -14.013   3.135  1.00  0.00     0.031 C 
ATOM     61  C   UNL     1     -11.000 -11.950   8.615  1.00  0.00     0.029 A 
ATOM     62  C   UNL     1     -10.496 -12.001   7.323  1.00  0.00     0.049 A 
ATOM     63  H   UNL     1      -9.640 -10.448   6.182  1.00  0.00     0.167 HD
ATOM     64  C   UNL     1      -9.935 -13.125   5.166  1.00  0.00     0.074 A 
ATOM     65  C   UNL     1      -9.899 -14.284   4.294  1.00  0.00     0.031 C 
ATOM     66  C   UNL     1     -10.433 -13.136   6.430  1.00  0.00     0.034 A 
BRANCH  53  67
ATOM     67  C   UNL     1     -10.189  -7.686   9.407  1.00  0.00     0.023 A 
ATOM     68  C   UNL     1     -10.987  -6.528   9.405  1.00  0.00     0.031 A 
ATOM     69  C   UNL     1      -9.583  -8.064  10.618  1.00  0.00     0.131 A 
ATOM     70  C   UNL     1     -11.098  -5.753  10.569  1.00  0.00     0.055 A 
ATOM     71  C   UNL     1      -9.777  -7.341  11.796  1.00  0.00     0.041 A 
ATOM     72  F   UNL     1      -8.776  -9.135  10.674  1.00  0.00    -0.206 F 
ATOM     73  C   UNL     1     -10.527  -6.169  11.773  1.00  0.00     0.022 A 
BRANCH  70  74
ATOM     74  S   UNL     1     -11.852  -4.108  10.442  1.00  0.00     0.124 S 
ATOM     75  O   UNL     1     -11.004  -3.472   9.437  1.00  0.00    -0.237 OA
ATOM     76  O   UNL     1     -13.215  -4.416  10.027  1.00  0.00    -0.237 OA
ATOM     77  O   UNL     1     -11.717  -3.565  11.793  1.00  0.00    -0.744 OA
ENDBRANCH  70  74
ENDBRANCH  53  67
BRANCH  54  78
ATOM     78  C   UNL     1      -8.075 -12.623   0.844  1.00  0.00     0.023 A 
ATOM     79  C   UNL     1      -9.046 -13.271   0.072  1.00  0.00     0.031 A 
ATOM     80  C   UNL     1      -6.732 -12.701   0.429  1.00  0.00     0.131 A 
ATOM     81  C   UNL     1      -8.655 -14.024  -1.042  1.00  0.00     0.055 A 
ATOM     82  C   UNL     1      -6.358 -13.388  -0.725  1.00  0.00     0.041 A 
ATOM     83  F   UNL     1      -5.765 -12.092   1.133  1.00  0.00    -0.206 F 
ATOM     84  C   UNL     1      -7.322 -14.070  -1.458  1.00  0.00     0.022 A 
BRANCH  81  85
ATOM     85  S   UNL     1      -9.904 -15.048  -1.862  1.00  0.00     0.124 S 
ATOM     86  O   UNL     1     -10.382 -15.869  -0.755  1.00  0.00    -0.237 OA
ATOM     87  O   UNL     1     -10.836 -14.045  -2.365  1.00  0.00    -0.237 OA
ATOM     88  O   UNL     1      -9.140 -15.759  -2.884  1.00  0.00    -0.744 OA
ENDBRANCH  81  85
ENDBRANCH  54  78
BRANCH  66  89
ATOM     89  C   UNL     1     -11.030 -14.433   6.916  1.00  0.00     0.023 A 
ATOM     90  C   UNL     1     -10.253 -15.592   7.078  1.00  0.00     0.031 A 
ATOM     91  C   UNL     1     -12.402 -14.506   7.218  1.00  0.00     0.131 A 
ATOM     92  C   UNL     1     -10.869 -16.792   7.458  1.00  0.00     0.055 A 
ATOM     93  C   UNL     1     -12.990 -15.680   7.684  1.00  0.00     0.041 A 
ATOM     94  F   UNL     1     -13.193 -13.430   7.073  1.00  0.00    -0.206 F 
ATOM     95  C   UNL     1     -12.226 -16.837   7.790  1.00  0.00     0.022 A 
BRANCH  92  96
ATOM     96  S   UNL     1      -9.901 -18.322   7.377  1.00  0.00     0.124 S 
ATOM     97  O   UNL     1      -9.478 -18.336   5.980  1.00  0.00    -0.237 OA
ATOM     98  O   UNL     1      -8.850 -18.080   8.359  1.00  0.00    -0.237 OA
ATOM     99  O   UNL     1     -10.866 -19.357   7.743  1.00  0.00    -0.744 OA
ENDBRANCH  92  96
ENDBRANCH  66  89
ENDBRANCH  40  41
ENDBRANCH  33  35
ENDBRANCH  32  33
ENDBRANCH  31  32
ENDBRANCH  30  31
ENDBRANCH  29  30
ENDBRANCH   1  29
TORSDOF 21
