REMARK SMILES C[C@@H](C(=O)OCCOCCOC(=O)c1ccc(-c2c3nc(c(-c4cc(S(=O)(=O)[O-])ccc4F)c4ccc([nH]4)c(-c4cc(S(=O)(=O)[O-])ccc4F)c4nc(c(-c5cc(S(=O)(=O)[O-])ccc5F)c5ccc2[nH]5)C=C4)C=C3)cc1)c1ccn(C(F)F)c(=O)c1
REMARK SMILES IDX 9 1 8 2 7 3 6 4 5 5 3 6 4 7 2 8 1 9 77 10 78 11 86 12 79 13
REMARK SMILES IDX 84 14 80 15 85 16 81 17 82 18 83 19 10 20 11 21 12 22 13 23
REMARK SMILES IDX 14 24 15 25 76 26 16 27 75 28 17 29 18 30 19 31 69 32 20 33
REMARK SMILES IDX 74 34 68 35 70 36 21 37 73 38 67 39 66 40 22 42 54 43 34 44
REMARK SMILES IDX 53 45 35 46 38 47 52 48 71 49 36 50 37 51 51 53 72 54 39 55
REMARK SMILES IDX 23 56 24 57 32 58 25 59 31 60 33 61 30 62 26 63 27 64 28 65
REMARK SMILES IDX 29 66 55 67 56 68 64 69 57 70 63 71 65 72 62 73 58 74 59 75
REMARK SMILES IDX 60 76 61 77 40 78 41 79 49 80 42 81 48 82 50 83 47 84 43 85
REMARK SMILES IDX 44 86 45 87 46 88
REMARK H PARENT 70 41 38 52
REMARK Flexibility Score: inf
ROOT
ATOM      1  C   UNL     1       0.457   0.470   3.638  1.00  0.00     0.202 C 
ENDROOT
BRANCH   1   2
ATOM      2  O   UNL     1       0.862  -0.403   4.693  1.00  0.00    -0.374 OA
BRANCH   2   3
ATOM      3  C   UNL     1       2.139  -1.030   4.576  1.00  0.00     0.202 C 
BRANCH   3   4
ATOM      4  C   UNL     1       2.222  -2.210   3.604  1.00  0.00     0.261 C 
BRANCH   4   5
ATOM      5  O   UNL     1       1.937  -1.787   2.259  1.00  0.00    -0.463 OA
BRANCH   5   6
ATOM      6  C   UNL     1       0.929  -2.446   1.629  1.00  0.00     0.313 C 
ATOM      7  O   UNL     1       0.387  -3.457   2.064  1.00  0.00    -0.252 OA
BRANCH   6   8
ATOM      8  C   UNL     1       0.519  -1.780   0.301  1.00  0.00     0.126 C 
ATOM      9  C   UNL     1       1.385  -0.573  -0.088  1.00  0.00     0.025 C 
BRANCH   8  10
ATOM     10  C   UNL     1      -0.987  -1.500   0.316  1.00  0.00    -0.027 A 
ATOM     11  C   UNL     1      -1.865  -2.659   0.253  1.00  0.00     0.023 A 
ATOM     12  C   UNL     1      -1.556  -0.280   0.353  1.00  0.00     0.076 A 
ATOM     13  C   UNL     1      -3.195  -2.520   0.249  1.00  0.00     0.095 A 
ATOM     14  C   UNL     1      -3.041  -0.105   0.331  1.00  0.00     0.255 A 
ATOM     15  N   UNL     1      -3.784  -1.272   0.283  1.00  0.00    -0.258 N 
ATOM     16  O   UNL     1      -3.498   1.034   0.348  1.00  0.00    -0.269 OA
BRANCH  15  17
ATOM     17  C   UNL     1      -5.216  -1.143   0.227  1.00  0.00     0.451 C 
ATOM     18  F   UNL     1      -5.696  -0.425   1.272  1.00  0.00    -0.185 F 
ATOM     19  F   UNL     1      -5.602  -0.524  -0.917  1.00  0.00    -0.185 F 
ENDBRANCH  15  17
ENDBRANCH   8  10
ENDBRANCH   6   8
ENDBRANCH   5   6
ENDBRANCH   4   5
ENDBRANCH   3   4
ENDBRANCH   2   3
ENDBRANCH   1   2
BRANCH   1  20
ATOM     20  C   UNL     1       1.129   1.849   3.575  1.00  0.00     0.261 C 
BRANCH  20  21
ATOM     21  O   UNL     1       2.539   1.769   3.294  1.00  0.00    -0.460 OA
BRANCH  21  22
ATOM     22  C   UNL     1       3.338   2.156   4.318  1.00  0.00     0.338 C 
ATOM     23  O   UNL     1       2.976   2.617   5.394  1.00  0.00    -0.246 OA
BRANCH  22  24
ATOM     24  C   UNL     1       4.739   1.772   4.060  1.00  0.00     0.060 A 
ATOM     25  C   UNL     1       5.398   1.040   5.057  1.00  0.00     0.016 A 
ATOM     26  C   UNL     1       5.425   2.182   2.915  1.00  0.00     0.016 A 
ATOM     27  C   UNL     1       6.757   0.760   4.938  1.00  0.00     0.010 A 
ATOM     28  C   UNL     1       6.795   1.906   2.801  1.00  0.00     0.010 A 
ATOM     29  C   UNL     1       7.474   1.226   3.829  1.00  0.00    -0.014 A 
BRANCH  29  30
ATOM     30  C   UNL     1       8.957   1.135   3.834  1.00  0.00     0.031 A 
ATOM     31  C   UNL     1       9.759   2.349   4.221  1.00  0.00     0.074 A 
ATOM     32  C   UNL     1       9.580  -0.023   3.549  1.00  0.00     0.049 A 
ATOM     33  N   UNL     1      11.057   2.505   4.280  1.00  0.00    -0.248 NA
ATOM     34  C   UNL     1       8.990   3.547   4.590  1.00  0.00     0.031 C 
ATOM     35  C   UNL     1       8.910  -1.278   3.209  1.00  0.00     0.029 A 
ATOM     36  N   UNL     1      10.916  -0.331   3.499  1.00  0.00    -0.354 N 
ATOM     37  C   UNL     1      11.262   3.817   4.694  1.00  0.00     0.074 A 
ATOM     38  C   UNL     1       9.954   4.423   4.829  1.00  0.00     0.031 C 
ATOM     39  C   UNL     1       9.841  -2.219   2.975  1.00  0.00     0.029 A 
ATOM     40  C   UNL     1      11.171  -1.626   3.114  1.00  0.00     0.049 A 
ATOM     41  H   UNL     1      11.626   0.315   3.719  1.00  0.00     0.167 HD
ATOM     42  C   UNL     1      12.432   4.455   4.950  1.00  0.00     0.034 A 
ATOM     43  C   UNL     1      12.341  -2.254   2.876  1.00  0.00     0.034 A 
ATOM     44  C   UNL     1      13.730   3.843   4.796  1.00  0.00     0.049 A 
ATOM     45  C   UNL     1      13.633  -1.499   3.078  1.00  0.00     0.074 A 
ATOM     46  C   UNL     1      14.978   4.395   5.030  1.00  0.00     0.029 A 
ATOM     47  N   UNL     1      13.950   2.544   4.355  1.00  0.00    -0.354 N 
ATOM     48  N   UNL     1      13.813  -0.259   3.472  1.00  0.00    -0.248 NA
ATOM     49  C   UNL     1      14.878  -2.231   2.811  1.00  0.00     0.031 C 
ATOM     50  C   UNL     1      15.950   3.456   4.665  1.00  0.00     0.029 A 
ATOM     51  C   UNL     1      15.311   2.289   4.278  1.00  0.00     0.049 A 
ATOM     52  H   UNL     1      13.242   1.898   4.129  1.00  0.00     0.167 HD
ATOM     53  C   UNL     1      15.193  -0.074   3.528  1.00  0.00     0.074 A 
ATOM     54  C   UNL     1      15.795  -1.333   3.140  1.00  0.00     0.031 C 
ATOM     55  C   UNL     1      15.899   1.032   3.875  1.00  0.00     0.034 A 
BRANCH  42  56
ATOM     56  C   UNL     1      12.352   5.903   5.369  1.00  0.00     0.023 A 
ATOM     57  C   UNL     1      11.740   6.293   6.574  1.00  0.00     0.031 A 
ATOM     58  C   UNL     1      12.864   6.913   4.535  1.00  0.00     0.131 A 
ATOM     59  C   UNL     1      11.591   7.655   6.875  1.00  0.00     0.055 A 
ATOM     60  C   UNL     1      12.783   8.264   4.878  1.00  0.00     0.041 A 
ATOM     61  F   UNL     1      13.438   6.604   3.362  1.00  0.00    -0.206 F 
ATOM     62  C   UNL     1      12.130   8.643   6.047  1.00  0.00     0.022 A 
BRANCH  59  63
ATOM     63  S   UNL     1      10.556   8.123   8.290  1.00  0.00     0.124 S 
ATOM     64  O   UNL     1       9.278   7.510   7.936  1.00  0.00    -0.237 OA
ATOM     65  O   UNL     1      11.265   7.520   9.412  1.00  0.00    -0.237 OA
ATOM     66  O   UNL     1      10.568   9.584   8.255  1.00  0.00    -0.744 OA
ENDBRANCH  59  63
ENDBRANCH  42  56
BRANCH  43  67
ATOM     67  C   UNL     1      12.354  -3.658   2.373  1.00  0.00     0.023 A 
ATOM     68  C   UNL     1      12.917  -4.700   3.126  1.00  0.00     0.031 A 
ATOM     69  C   UNL     1      11.845  -3.967   1.098  1.00  0.00     0.131 A 
ATOM     70  C   UNL     1      12.998  -5.992   2.581  1.00  0.00     0.055 A 
ATOM     71  C   UNL     1      11.882  -5.263   0.581  1.00  0.00     0.041 A 
ATOM     72  F   UNL     1      11.296  -3.007   0.335  1.00  0.00    -0.206 F 
ATOM     73  C   UNL     1      12.473  -6.282   1.320  1.00  0.00     0.022 A 
BRANCH  70  74
ATOM     74  S   UNL     1      13.876  -7.276   3.514  1.00  0.00     0.124 S 
ATOM     75  O   UNL     1      15.202  -6.687   3.655  1.00  0.00    -0.237 OA
ATOM     76  O   UNL     1      13.078  -7.362   4.733  1.00  0.00    -0.237 OA
ATOM     77  O   UNL     1      13.799  -8.444   2.639  1.00  0.00    -0.744 OA
ENDBRANCH  70  74
ENDBRANCH  43  67
BRANCH  55  78
ATOM     78  C   UNL     1      17.404   0.911   3.892  1.00  0.00     0.023 A 
ATOM     79  C   UNL     1      18.147   0.724   2.712  1.00  0.00     0.031 A 
ATOM     80  C   UNL     1      18.104   0.976   5.110  1.00  0.00     0.131 A 
ATOM     81  C   UNL     1      19.538   0.554   2.782  1.00  0.00     0.055 A 
ATOM     82  C   UNL     1      19.494   0.865   5.167  1.00  0.00     0.041 A 
ATOM     83  F   UNL     1      17.446   1.151   6.267  1.00  0.00    -0.206 F 
ATOM     84  C   UNL     1      20.218   0.640   4.000  1.00  0.00     0.022 A 
BRANCH  81  85
ATOM     85  S   UNL     1      20.442   0.130   1.268  1.00  0.00     0.124 S 
ATOM     86  O   UNL     1      19.788  -1.110   0.861  1.00  0.00    -0.237 OA
ATOM     87  O   UNL     1      20.193   1.291   0.419  1.00  0.00    -0.237 OA
ATOM     88  O   UNL     1      21.824  -0.018   1.722  1.00  0.00    -0.744 OA
ENDBRANCH  81  85
ENDBRANCH  55  78
ENDBRANCH  29  30
ENDBRANCH  22  24
ENDBRANCH  21  22
ENDBRANCH  20  21
ENDBRANCH   1  20
TORSDOF 19
