REMARK SMILES O=C(C[C@H](C(=O)OCCOCCOC(=O)c1ccc(-c2c3nc(c(-c4cc(S(=O)(=O)[O-])ccc4F)c4ccc([nH]4)c(-c4cc(S(=O)(=O)[O-])ccc4F)c4nc(c(-c5cc(S(=O)(=O)[O-])ccc5F)c5ccc2[nH]5)C=C4)C=C3)cc1)c1ccccc1)Nc1ccc(Cl)cc1Cl
REMARK SMILES IDX 10 1 9 2 8 3 7 4 5 5 6 6 4 7 3 8 2 9 1 10 85 11 86 13 87 14
REMARK SMILES IDX 92 15 88 16 91 17 93 18 89 19 90 20 79 21 80 22 84 23 81 24
REMARK SMILES IDX 83 25 82 26 11 27 12 28 13 29 14 30 15 31 16 32 17 33 78 34
REMARK SMILES IDX 18 35 77 36 19 37 20 38 21 39 71 40 22 41 76 42 70 43 72 44
REMARK SMILES IDX 23 45 75 46 69 47 68 48 24 50 56 51 36 52 55 53 37 54 40 55
REMARK SMILES IDX 54 56 73 57 38 58 39 59 53 61 74 62 41 63 25 64 26 65 34 66
REMARK SMILES IDX 27 67 33 68 35 69 32 70 28 71 29 72 30 73 31 74 57 75 58 76
REMARK SMILES IDX 66 77 59 78 65 79 67 80 64 81 60 82 61 83 62 84 63 85 42 86
REMARK SMILES IDX 43 87 51 88 44 89 50 90 52 91 49 92 45 93 46 94 47 95 48 96
REMARK H PARENT 85 12 72 49 40 60
REMARK Flexibility Score: inf
ROOT
ATOM      1  O   UNL     1       0.019  -0.461  -0.890  1.00  0.00    -0.374 OA
ENDROOT
BRANCH   1   2
ATOM      2  C   UNL     1       0.454  -1.596  -0.146  1.00  0.00     0.202 C 
BRANCH   2   3
ATOM      3  C   UNL     1       1.714  -2.295  -0.684  1.00  0.00     0.261 C 
BRANCH   3   4
ATOM      4  O   UNL     1       2.840  -1.398  -0.776  1.00  0.00    -0.463 OA
BRANCH   4   5
ATOM      5  C   UNL     1       3.086  -0.922  -2.022  1.00  0.00     0.314 C 
ATOM      6  O   UNL     1       2.435  -1.245  -3.013  1.00  0.00    -0.252 OA
BRANCH   5   7
ATOM      7  C   UNL     1       4.206   0.126  -2.102  1.00  0.00     0.138 C 
BRANCH   7   8
ATOM      8  C   UNL     1       4.787   0.774  -0.831  1.00  0.00     0.120 C 
BRANCH   8   9
ATOM      9  C   UNL     1       5.182  -0.180   0.269  1.00  0.00     0.225 C 
ATOM     10  O   UNL     1       6.093  -0.984   0.105  1.00  0.00    -0.275 OA
ATOM     11  N   UNL     1       4.361  -0.098   1.395  1.00  0.00    -0.325 N 
ATOM     12  H   UNL     1       3.783   0.687   1.535  1.00  0.00     0.169 HD
BRANCH  11  13
ATOM     13  C   UNL     1       4.370  -1.157   2.329  1.00  0.00     0.060 A 
ATOM     14  C   UNL     1       3.177  -1.869   2.436  1.00  0.00     0.029 A 
ATOM     15  C   UNL     1       5.517  -1.641   2.966  1.00  0.00     0.066 A 
ATOM     16  C   UNL     1       3.171  -3.160   2.948  1.00  0.00     0.023 A 
ATOM     17  C   UNL     1       5.511  -2.924   3.513  1.00  0.00     0.043 A 
ATOM     18  Cl  UNL     1       6.911  -0.645   3.185  1.00  0.00    -0.082 Cl
ATOM     19  C   UNL     1       4.359  -3.707   3.420  1.00  0.00     0.042 A 
ATOM     20  Cl  UNL     1       4.379  -5.352   3.911  1.00  0.00    -0.084 Cl
ENDBRANCH  11  13
ENDBRANCH   8   9
ENDBRANCH   7   8
BRANCH   7  21
ATOM     21  C   UNL     1       5.229  -0.246  -3.171  1.00  0.00    -0.033 A 
ATOM     22  C   UNL     1       5.500  -1.583  -3.503  1.00  0.00     0.004 A 
ATOM     23  C   UNL     1       5.811   0.770  -3.946  1.00  0.00     0.004 A 
ATOM     24  C   UNL     1       6.246  -1.895  -4.640  1.00  0.00     0.000 A 
ATOM     25  C   UNL     1       6.575   0.455  -5.071  1.00  0.00     0.000 A 
ATOM     26  C   UNL     1       6.771  -0.876  -5.431  1.00  0.00     0.000 A 
ENDBRANCH   7  21
ENDBRANCH   5   7
ENDBRANCH   4   5
ENDBRANCH   3   4
ENDBRANCH   2   3
ENDBRANCH   1   2
BRANCH   1  27
ATOM     27  C   UNL     1       0.713   0.766  -0.675  1.00  0.00     0.202 C 
BRANCH  27  28
ATOM     28  C   UNL     1       0.265   1.595   0.528  1.00  0.00     0.261 C 
BRANCH  28  29
ATOM     29  O   UNL     1       0.832   1.091   1.758  1.00  0.00    -0.460 OA
BRANCH  29  30
ATOM     30  C   UNL     1      -0.076   0.543   2.611  1.00  0.00     0.338 C 
ATOM     31  O   UNL     1      -1.258   0.389   2.393  1.00  0.00    -0.246 OA
BRANCH  30  32
ATOM     32  C   UNL     1       0.597   0.001   3.819  1.00  0.00     0.060 A 
ATOM     33  C   UNL     1       0.109  -1.209   4.324  1.00  0.00     0.016 A 
ATOM     34  C   UNL     1       1.648   0.657   4.470  1.00  0.00     0.016 A 
ATOM     35  C   UNL     1       0.642  -1.746   5.496  1.00  0.00     0.010 A 
ATOM     36  C   UNL     1       2.177   0.120   5.656  1.00  0.00     0.010 A 
ATOM     37  C   UNL     1       1.654  -1.069   6.192  1.00  0.00    -0.014 A 
BRANCH  37  38
ATOM     38  C   UNL     1       2.008  -1.550   7.557  1.00  0.00     0.031 A 
ATOM     39  C   UNL     1       1.238  -1.024   8.725  1.00  0.00     0.074 A 
ATOM     40  C   UNL     1       2.940  -2.498   7.753  1.00  0.00     0.049 A 
ATOM     41  N   UNL     1       1.270  -1.406   9.973  1.00  0.00    -0.248 NA
ATOM     42  C   UNL     1       0.342   0.106   8.450  1.00  0.00     0.031 C 
ATOM     43  C   UNL     1       3.796  -3.012   6.703  1.00  0.00     0.029 A 
ATOM     44  N   UNL     1       3.311  -3.217   8.862  1.00  0.00    -0.354 N 
ATOM     45  C   UNL     1       0.414  -0.546  10.647  1.00  0.00     0.074 A 
ATOM     46  C   UNL     1      -0.102   0.386   9.664  1.00  0.00     0.031 C 
ATOM     47  C   UNL     1       4.527  -4.031   7.178  1.00  0.00     0.029 A 
ATOM     48  C   UNL     1       4.221  -4.219   8.590  1.00  0.00     0.049 A 
ATOM     49  H   UNL     1       2.962  -3.035   9.764  1.00  0.00     0.167 HD
ATOM     50  C   UNL     1       0.105  -0.532  11.967  1.00  0.00     0.034 A 
ATOM     51  C   UNL     1       4.738  -5.180   9.384  1.00  0.00     0.034 A 
ATOM     52  C   UNL     1       0.673  -1.445  12.931  1.00  0.00     0.049 A 
ATOM     53  C   UNL     1       4.355  -5.163  10.842  1.00  0.00     0.074 A 
ATOM     54  C   UNL     1       0.433  -1.521  14.291  1.00  0.00     0.029 A 
ATOM     55  N   UNL     1       1.615  -2.428  12.642  1.00  0.00    -0.354 N 
ATOM     56  N   UNL     1       3.519  -4.363  11.466  1.00  0.00    -0.248 NA
ATOM     57  C   UNL     1       5.004  -6.153  11.708  1.00  0.00     0.031 C 
ATOM     58  C   UNL     1       1.282  -2.494  14.834  1.00  0.00     0.029 A 
ATOM     59  C   UNL     1       1.989  -3.092  13.803  1.00  0.00     0.049 A 
ATOM     60  H   UNL     1       1.966  -2.625  11.744  1.00  0.00     0.167 HD
ATOM     61  C   UNL     1       3.553  -4.747  12.802  1.00  0.00     0.074 A 
ATOM     62  C   UNL     1       4.447  -5.886  12.880  1.00  0.00     0.031 C 
ATOM     63  C   UNL     1       2.920  -4.198  13.871  1.00  0.00     0.034 A 
BRANCH  50  64
ATOM     64  C   UNL     1      -0.815   0.571  12.427  1.00  0.00     0.023 A 
ATOM     65  C   UNL     1      -2.126   0.696  11.932  1.00  0.00     0.031 A 
ATOM     66  C   UNL     1      -0.338   1.576  13.286  1.00  0.00     0.131 A 
ATOM     67  C   UNL     1      -2.870   1.852  12.211  1.00  0.00     0.055 A 
ATOM     68  C   UNL     1      -1.122   2.675  13.640  1.00  0.00     0.041 A 
ATOM     69  F   UNL     1       0.916   1.529  13.764  1.00  0.00    -0.206 F 
ATOM     70  C   UNL     1      -2.388   2.829  13.084  1.00  0.00     0.022 A 
BRANCH  67  71
ATOM     71  S   UNL     1      -4.382   2.154  11.255  1.00  0.00     0.124 S 
ATOM     72  O   UNL     1      -3.867   2.163   9.887  1.00  0.00    -0.237 OA
ATOM     73  O   UNL     1      -5.217   1.015  11.616  1.00  0.00    -0.237 OA
ATOM     74  O   UNL     1      -4.845   3.450  11.746  1.00  0.00    -0.744 OA
ENDBRANCH  67  71
ENDBRANCH  50  64
BRANCH  51  75
ATOM     75  C   UNL     1       5.676  -6.221   8.852  1.00  0.00     0.023 A 
ATOM     76  C   UNL     1       5.365  -7.591   8.938  1.00  0.00     0.031 A 
ATOM     77  C   UNL     1       6.921  -5.873   8.299  1.00  0.00     0.131 A 
ATOM     78  C   UNL     1       6.296  -8.556   8.514  1.00  0.00     0.055 A 
ATOM     79  C   UNL     1       7.816  -6.833   7.818  1.00  0.00     0.041 A 
ATOM     80  F   UNL     1       7.288  -4.585   8.208  1.00  0.00    -0.206 F 
ATOM     81  C   UNL     1       7.510  -8.185   7.934  1.00  0.00     0.022 A 
BRANCH  78  82
ATOM     82  S   UNL     1       5.944 -10.313   8.818  1.00  0.00     0.124 S 
ATOM     83  O   UNL     1       5.809 -10.342  10.270  1.00  0.00    -0.237 OA
ATOM     84  O   UNL     1       4.717 -10.516   8.055  1.00  0.00    -0.237 OA
ATOM     85  O   UNL     1       7.123 -10.994   8.288  1.00  0.00    -0.744 OA
ENDBRANCH  78  82
ENDBRANCH  51  75
BRANCH  63  86
ATOM     86  C   UNL     1       3.184  -4.845  15.210  1.00  0.00     0.023 A 
ATOM     87  C   UNL     1       4.469  -4.852  15.785  1.00  0.00     0.031 A 
ATOM     88  C   UNL     1       2.154  -5.517  15.890  1.00  0.00     0.131 A 
ATOM     89  C   UNL     1       4.709  -5.590  16.953  1.00  0.00     0.055 A 
ATOM     90  C   UNL     1       2.383  -6.186  17.094  1.00  0.00     0.041 A 
ATOM     91  F   UNL     1       0.910  -5.548  15.388  1.00  0.00    -0.206 F 
ATOM     92  C   UNL     1       3.670  -6.243  17.621  1.00  0.00     0.022 A 
BRANCH  89  93
ATOM     93  S   UNL     1       6.423  -5.807  17.509  1.00  0.00     0.124 S 
ATOM     94  O   UNL     1       7.051  -6.398  16.332  1.00  0.00    -0.237 OA
ATOM     95  O   UNL     1       6.823  -4.440  17.828  1.00  0.00    -0.237 OA
ATOM     96  O   UNL     1       6.299  -6.700  18.660  1.00  0.00    -0.744 OA
ENDBRANCH  89  93
ENDBRANCH  63  86
ENDBRANCH  37  38
ENDBRANCH  30  32
ENDBRANCH  29  30
ENDBRANCH  28  29
ENDBRANCH  27  28
ENDBRANCH   1  27
TORSDOF 21
