REMARK SMILES Cc1ccc(C(N)=O)c(NCc2ccc(C(=O)OCCOCCOC(=O)c3ccc(-c4c5nc(c(-c6cc(S(=O)(=O)[O-])ccc6F)c6ccc([nH]6)c(-c6cc(S(=O)(=O)[O-])ccc6F)c6nc(c(-c7cc(S(=O)(=O)[O-])ccc7F)c7ccc4[nH]7)C=C6)C=C5)cc3)o2)n1
REMARK SMILES IDX 20 1 19 2 18 3 16 4 17 5 15 6 12 7 13 8 90 9 14 10 11 11
REMARK SMILES IDX 10 12 9 14 1 15 2 16 3 17 91 18 4 19 5 20 6 21 7 22 8 23
REMARK SMILES IDX 21 26 22 27 23 28 24 29 25 30 26 31 27 32 28 33 89 34 29 35
REMARK SMILES IDX 88 36 30 37 31 38 32 39 82 40 33 41 87 42 81 43 83 44 34 45
REMARK SMILES IDX 86 46 80 47 79 48 35 50 67 51 47 52 66 53 48 54 51 55 65 56
REMARK SMILES IDX 84 57 49 58 50 59 64 61 85 62 52 63 36 64 37 65 45 66 38 67
REMARK SMILES IDX 44 68 46 69 43 70 39 71 40 72 41 73 42 74 68 75 69 76 77 77
REMARK SMILES IDX 70 78 76 79 78 80 75 81 71 82 72 83 73 84 74 85 53 86 54 87
REMARK SMILES IDX 62 88 55 89 61 90 63 91 60 92 56 93 57 94 58 95 59 96
REMARK H PARENT 10 13 7 24 7 25 83 49 51 60
REMARK Flexibility Score: inf
ROOT
ATOM      1  C   UNL     1      -1.367   9.937  -4.142  1.00  0.00     0.202 C 
ENDROOT
BRANCH   1   2
ATOM      2  C   UNL     1      -0.048   9.193  -4.371  1.00  0.00     0.261 C 
BRANCH   2   3
ATOM      3  O   UNL     1      -0.232   7.783  -4.153  1.00  0.00    -0.457 OA
BRANCH   3   4
ATOM      4  C   UNL     1       0.368   7.270  -3.042  1.00  0.00     0.374 C 
ATOM      5  O   UNL     1       1.196   7.860  -2.356  1.00  0.00    -0.242 OA
BRANCH   4   6
ATOM      6  C   UNL     1      -0.206   5.981  -2.733  1.00  0.00     0.211 A 
ATOM      7  C   UNL     1      -0.724   4.337  -1.351  1.00  0.00     0.124 A 
ATOM      8  C   UNL     1      -1.320   4.032  -2.557  1.00  0.00     0.048 A 
ATOM      9  O   UNL     1      -0.032   5.504  -1.463  1.00  0.00    -0.452 OA
ATOM     10  C   UNL     1      -1.001   5.095  -3.441  1.00  0.00     0.058 A 
BRANCH   7  11
ATOM     11  C   UNL     1      -0.703   3.716   0.005  1.00  0.00     0.190 C 
BRANCH  11  12
ATOM     12  N   UNL     1      -1.572   2.560   0.181  1.00  0.00    -0.362 N 
ATOM     13  H   UNL     1      -2.529   2.686   0.376  1.00  0.00     0.162 HD
BRANCH  12  14
ATOM     14  C   UNL     1      -1.043   1.278   0.073  1.00  0.00     0.139 A 
ATOM     15  C   UNL     1       2.371  -0.101  -0.098  1.00  0.00     0.067 C 
ATOM     16  C   UNL     1       0.874  -0.064  -0.058  1.00  0.00     0.040 A 
ATOM     17  C   UNL     1       0.126  -1.230  -0.054  1.00  0.00     0.024 A 
ATOM     18  N   UNL     1       0.303   1.164  -0.008  1.00  0.00    -0.236 NA
ATOM     19  C   UNL     1      -1.259  -1.122   0.003  1.00  0.00     0.019 A 
ATOM     20  C   UNL     1      -1.863   0.141   0.058  1.00  0.00     0.081 A 
BRANCH  20  21
ATOM     21  C   UNL     1      -3.348   0.175   0.107  1.00  0.00     0.252 C 
ATOM     22  N   UNL     1      -3.979   1.304  -0.333  1.00  0.00    -0.365 N 
ATOM     23  O   UNL     1      -3.997  -0.787   0.501  1.00  0.00    -0.269 OA
ATOM     24  H   UNL     1      -3.450   2.073  -0.647  1.00  0.00     0.159 HD
ATOM     25  H   UNL     1      -4.962   1.350  -0.335  1.00  0.00     0.159 HD
ENDBRANCH  20  21
ENDBRANCH  12  14
ENDBRANCH  11  12
ENDBRANCH   7  11
ENDBRANCH   4   6
ENDBRANCH   3   4
ENDBRANCH   2   3
ENDBRANCH   1   2
BRANCH   1  26
ATOM     26  O   UNL     1      -1.790   9.965  -2.776  1.00  0.00    -0.374 OA
BRANCH  26  27
ATOM     27  C   UNL     1      -2.596   8.866  -2.344  1.00  0.00     0.202 C 
BRANCH  27  28
ATOM     28  C   UNL     1      -4.092   9.001  -2.647  1.00  0.00     0.261 C 
BRANCH  28  29
ATOM     29  O   UNL     1      -4.353   8.840  -4.054  1.00  0.00    -0.460 OA
BRANCH  29  30
ATOM     30  C   UNL     1      -4.695   9.979  -4.705  1.00  0.00     0.338 C 
ATOM     31  O   UNL     1      -4.892  11.074  -4.205  1.00  0.00    -0.246 OA
BRANCH  30  32
ATOM     32  C   UNL     1      -4.623   9.764  -6.165  1.00  0.00     0.060 A 
ATOM     33  C   UNL     1      -3.983  10.748  -6.928  1.00  0.00     0.016 A 
ATOM     34  C   UNL     1      -5.200   8.653  -6.787  1.00  0.00     0.016 A 
ATOM     35  C   UNL     1      -3.958  10.650  -8.319  1.00  0.00     0.010 A 
ATOM     36  C   UNL     1      -5.178   8.559  -8.185  1.00  0.00     0.010 A 
ATOM     37  C   UNL     1      -4.585   9.573  -8.958  1.00  0.00    -0.014 A 
BRANCH  37  38
ATOM     38  C   UNL     1      -4.740   9.588 -10.435  1.00  0.00     0.031 A 
ATOM     39  C   UNL     1      -6.051  10.035 -11.024  1.00  0.00     0.074 A 
ATOM     40  C   UNL     1      -3.720   9.242 -11.240  1.00  0.00     0.049 A 
ATOM     41  N   UNL     1      -6.420  10.103 -12.277  1.00  0.00    -0.248 NA
ATOM     42  C   UNL     1      -7.085  10.457 -10.067  1.00  0.00     0.031 C 
ATOM     43  C   UNL     1      -2.391   8.833 -10.787  1.00  0.00     0.029 A 
ATOM     44  N   UNL     1      -3.644   9.175 -12.608  1.00  0.00    -0.354 N 
ATOM     45  C   UNL     1      -7.727  10.577 -12.262  1.00  0.00     0.074 A 
ATOM     46  C   UNL     1      -8.098  10.739 -10.871  1.00  0.00     0.031 C 
ATOM     47  C   UNL     1      -1.634   8.548 -11.861  1.00  0.00     0.029 A 
ATOM     48  C   UNL     1      -2.433   8.721 -13.073  1.00  0.00     0.049 A 
ATOM     49  H   UNL     1      -4.388   9.429 -13.201  1.00  0.00     0.167 HD
ATOM     50  C   UNL     1      -8.540  10.861 -13.310  1.00  0.00     0.034 A 
ATOM     51  C   UNL     1      -2.024   8.454 -14.331  1.00  0.00     0.034 A 
ATOM     52  C   UNL     1      -8.162  10.682 -14.691  1.00  0.00     0.049 A 
ATOM     53  C   UNL     1      -2.975   8.694 -15.479  1.00  0.00     0.074 A 
ATOM     54  C   UNL     1      -8.902  10.950 -15.830  1.00  0.00     0.029 A 
ATOM     55  N   UNL     1      -6.943  10.175 -15.123  1.00  0.00    -0.354 N 
ATOM     56  N   UNL     1      -4.206   9.151 -15.451  1.00  0.00    -0.248 NA
ATOM     57  C   UNL     1      -2.478   8.389 -16.827  1.00  0.00     0.031 C 
ATOM     58  C   UNL     1      -8.159  10.542 -16.944  1.00  0.00     0.029 A 
ATOM     59  C   UNL     1      -6.924  10.090 -16.507  1.00  0.00     0.049 A 
ATOM     60  H   UNL     1      -6.200   9.914 -14.532  1.00  0.00     0.167 HD
ATOM     61  C   UNL     1      -4.617   9.217 -16.781  1.00  0.00     0.074 A 
ATOM     62  C   UNL     1      -3.499   8.763 -17.583  1.00  0.00     0.031 C 
ATOM     63  C   UNL     1      -5.807   9.623 -17.294  1.00  0.00     0.034 A 
BRANCH  50  64
ATOM     64  C   UNL     1      -9.934  11.343 -12.992  1.00  0.00     0.023 A 
ATOM     65  C   UNL     1     -10.163  12.568 -12.339  1.00  0.00     0.031 A 
ATOM     66  C   UNL     1     -11.050  10.550 -13.314  1.00  0.00     0.131 A 
ATOM     67  C   UNL     1     -11.467  12.930 -11.968  1.00  0.00     0.055 A 
ATOM     68  C   UNL     1     -12.352  10.953 -13.011  1.00  0.00     0.041 A 
ATOM     69  F   UNL     1     -10.892   9.361 -13.916  1.00  0.00    -0.206 F 
ATOM     70  C   UNL     1     -12.565  12.142 -12.320  1.00  0.00     0.022 A 
BRANCH  67  71
ATOM     71  S   UNL     1     -11.693  14.374 -10.893  1.00  0.00     0.124 S 
ATOM     72  O   UNL     1     -10.893  14.003  -9.729  1.00  0.00    -0.237 OA
ATOM     73  O   UNL     1     -11.167  15.461 -11.711  1.00  0.00    -0.237 OA
ATOM     74  O   UNL     1     -13.136  14.407 -10.664  1.00  0.00    -0.744 OA
ENDBRANCH  67  71
ENDBRANCH  50  64
BRANCH  51  75
ATOM     75  C   UNL     1      -0.668   7.886 -14.579  1.00  0.00     0.023 A 
ATOM     76  C   UNL     1       0.297   8.598 -15.309  1.00  0.00     0.031 A 
ATOM     77  C   UNL     1      -0.338   6.593 -14.133  1.00  0.00     0.131 A 
ATOM     78  C   UNL     1       1.529   7.995 -15.611  1.00  0.00     0.055 A 
ATOM     79  C   UNL     1       0.906   6.018 -14.393  1.00  0.00     0.041 A 
ATOM     80  F   UNL     1      -1.225   5.871 -13.431  1.00  0.00    -0.206 F 
ATOM     81  C   UNL     1       1.844   6.716 -15.147  1.00  0.00     0.022 A 
BRANCH  78  82
ATOM     82  S   UNL     1       2.688   8.880 -16.689  1.00  0.00     0.124 S 
ATOM     83  O   UNL     1       1.890   9.062 -17.897  1.00  0.00    -0.237 OA
ATOM     84  O   UNL     1       2.963  10.085 -15.914  1.00  0.00    -0.237 OA
ATOM     85  O   UNL     1       3.811   7.953 -16.815  1.00  0.00    -0.744 OA
ENDBRANCH  78  82
ENDBRANCH  51  75
BRANCH  63  86
ATOM     86  C   UNL     1      -5.938   9.635 -18.798  1.00  0.00     0.023 A 
ATOM     87  C   UNL     1      -5.951   8.448 -19.551  1.00  0.00     0.031 A 
ATOM     88  C   UNL     1      -6.043  10.857 -19.487  1.00  0.00     0.131 A 
ATOM     89  C   UNL     1      -6.013   8.510 -20.952  1.00  0.00     0.055 A 
ATOM     90  C   UNL     1      -6.161  10.910 -20.876  1.00  0.00     0.041 A 
ATOM     91  F   UNL     1      -6.034  12.021 -18.818  1.00  0.00    -0.206 F 
ATOM     92  C   UNL     1      -6.134   9.733 -21.618  1.00  0.00     0.022 A 
BRANCH  89  93
ATOM     93  S   UNL     1      -5.848   6.973 -21.902  1.00  0.00     0.124 S 
ATOM     94  O   UNL     1      -4.543   6.486 -21.466  1.00  0.00    -0.237 OA
ATOM     95  O   UNL     1      -7.000   6.201 -21.450  1.00  0.00    -0.237 OA
ATOM     96  O   UNL     1      -5.909   7.421 -23.292  1.00  0.00    -0.744 OA
ENDBRANCH  89  93
ENDBRANCH  63  86
ENDBRANCH  37  38
ENDBRANCH  30  32
ENDBRANCH  29  30
ENDBRANCH  28  29
ENDBRANCH  27  28
ENDBRANCH  26  27
ENDBRANCH   1  26
TORSDOF 21
