REMARK SMILES CC(C)[C@H](CNc1ncnc2c1CCCCC2)C(=O)OCCOCCOC(=O)c1ccc(-c2c3nc(c(-c4cc(S(=O)(=O)[O-])ccc4F)c4ccc([nH]4)c(-c4cc(S(=O)(=O)[O-])ccc4F)c4nc(c(-c5cc(S(=O)(=O)[O-])ccc5F)c5ccc2[nH]5)C=C4)C=C3)cc1
REMARK SMILES IDX 21 1 20 2 18 3 19 4 4 5 2 6 1 7 3 8 5 9 6 10 7 12 8 13 12 14
REMARK SMILES IDX 9 15 11 16 10 17 13 18 14 19 15 20 16 21 17 23 22 25 23 26
REMARK SMILES IDX 24 27 25 28 26 29 27 30 28 31 29 32 30 33 91 34 31 35 90 36
REMARK SMILES IDX 32 37 33 38 34 39 84 40 35 41 89 42 83 43 85 44 36 45 88 46
REMARK SMILES IDX 82 47 81 48 37 50 69 51 49 52 68 53 50 54 53 55 67 56 86 57
REMARK SMILES IDX 51 58 52 59 66 61 87 62 54 63 38 64 39 65 47 66 40 67 46 68
REMARK SMILES IDX 48 69 45 70 41 71 42 72 43 73 44 74 70 75 71 76 79 77 72 78
REMARK SMILES IDX 78 79 80 80 77 81 73 82 74 83 75 84 76 85 55 86 56 87 64 88
REMARK SMILES IDX 57 89 63 90 65 91 62 92 58 93 59 94 60 95 61 96
REMARK H PARENT 6 11 85 49 53 60
REMARK Flexibility Score: 80.00
ROOT
ATOM      1  C   UNL     1      -2.638  -0.689   4.550  1.00  0.00     0.261 C 
ENDROOT
BRANCH   1   2
ATOM      2  O   UNL     1      -1.544  -0.634   3.619  1.00  0.00    -0.463 OA
BRANCH   2   3
ATOM      3  C   UNL     1      -1.840  -0.141   2.387  1.00  0.00     0.311 C 
ATOM      4  O   UNL     1      -2.905   0.390   2.087  1.00  0.00    -0.252 OA
BRANCH   3   5
ATOM      5  C   UNL     1      -0.764  -0.417   1.347  1.00  0.00     0.121 C 
BRANCH   5   6
ATOM      6  C   UNL     1      -1.274  -1.616   0.495  1.00  0.00    -0.001 C 
ATOM      7  C   UNL     1      -0.529  -1.737  -0.836  1.00  0.00     0.008 C 
ATOM      8  C   UNL     1      -1.240  -2.949   1.249  1.00  0.00     0.008 C 
ENDBRANCH   5   6
BRANCH   5   9
ATOM      9  C   UNL     1       0.659  -0.595   1.912  1.00  0.00     0.130 C 
BRANCH   9  10
ATOM     10  N   UNL     1       1.374   0.686   1.998  1.00  0.00    -0.369 N 
ATOM     11  H   UNL     1       1.052   1.481   1.515  1.00  0.00     0.162 HD
BRANCH  10  12
ATOM     12  C   UNL     1       2.521   0.740   2.784  1.00  0.00     0.132 A 
ATOM     13  N   UNL     1       2.482   1.702   3.718  1.00  0.00    -0.219 NA
ATOM     14  C   UNL     1       3.593  -0.137   2.680  1.00  0.00     0.016 A 
ATOM     15  C   UNL     1       3.454   1.689   4.640  1.00  0.00     0.224 A 
ATOM     16  C   UNL     1       4.461  -0.155   3.766  1.00  0.00     0.049 A 
ATOM     17  N   UNL     1       4.417   0.770   4.744  1.00  0.00    -0.241 NA
BRANCH  14  18
ATOM     18  C   UNL     1       3.892  -0.945   1.448  1.00  0.00     0.041 C 
BRANCH  18  19
ATOM     19  C   UNL     1       5.303  -0.658   0.903  1.00  0.00     0.005 C 
BRANCH  19  20
ATOM     20  C   UNL     1       6.423  -1.447   1.582  1.00  0.00     0.001 C 
BRANCH  20  21
ATOM     21  C   UNL     1       6.686  -1.087   3.043  1.00  0.00     0.006 CG0
ATOM     22  G   UNL     1       5.473  -1.258   3.942  1.00  0.00     0.000 G0
ENDBRANCH  20  21
ENDBRANCH  19  20
ENDBRANCH  18  19
ENDBRANCH  14  18
BRANCH  16  23
ATOM     23  C   UNL     1       5.473  -1.258   3.942  1.00  0.00     0.057 CG0
ATOM     24  G   UNL     1       6.686  -1.087   3.043  1.00  0.00     0.000 G0
ENDBRANCH  16  23
ENDBRANCH  10  12
ENDBRANCH   9  10
ENDBRANCH   5   9
ENDBRANCH   3   5
ENDBRANCH   2   3
ENDBRANCH   1   2
BRANCH   1  25
ATOM     25  C   UNL     1      -2.617   0.391   5.636  1.00  0.00     0.202 C 
BRANCH  25  26
ATOM     26  O   UNL     1      -2.652   1.741   5.183  1.00  0.00    -0.374 OA
BRANCH  26  27
ATOM     27  C   UNL     1      -1.443   2.292   4.655  1.00  0.00     0.202 C 
BRANCH  27  28
ATOM     28  C   UNL     1      -0.246   2.299   5.606  1.00  0.00     0.261 C 
BRANCH  28  29
ATOM     29  O   UNL     1       0.277   0.968   5.785  1.00  0.00    -0.460 OA
BRANCH  29  30
ATOM     30  C   UNL     1       0.813   0.753   7.007  1.00  0.00     0.338 C 
ATOM     31  O   UNL     1       0.982   1.591   7.886  1.00  0.00    -0.246 OA
BRANCH  30  32
ATOM     32  C   UNL     1       1.061  -0.681   7.222  1.00  0.00     0.060 A 
ATOM     33  C   UNL     1       0.350  -1.333   8.233  1.00  0.00     0.016 A 
ATOM     34  C   UNL     1       2.082  -1.345   6.540  1.00  0.00     0.016 A 
ATOM     35  C   UNL     1       0.702  -2.633   8.600  1.00  0.00     0.010 A 
ATOM     36  C   UNL     1       2.442  -2.643   6.913  1.00  0.00     0.010 A 
ATOM     37  C   UNL     1       1.776  -3.281   7.970  1.00  0.00    -0.014 A 
BRANCH  37  38
ATOM     38  C   UNL     1       2.237  -4.594   8.481  1.00  0.00     0.031 A 
ATOM     39  C   UNL     1       3.364  -4.658   9.475  1.00  0.00     0.074 A 
ATOM     40  C   UNL     1       1.612  -5.719   8.091  1.00  0.00     0.049 A 
ATOM     41  N   UNL     1       3.826  -5.691  10.132  1.00  0.00    -0.248 NA
ATOM     42  C   UNL     1       4.061  -3.397   9.770  1.00  0.00     0.031 C 
ATOM     43  C   UNL     1       0.509  -5.777   7.132  1.00  0.00     0.029 A 
ATOM     44  N   UNL     1       1.801  -7.025   8.466  1.00  0.00    -0.354 N 
ATOM     45  C   UNL     1       4.844  -5.202  10.943  1.00  0.00     0.074 A 
ATOM     46  C   UNL     1       4.969  -3.789  10.655  1.00  0.00     0.031 C 
ATOM     47  C   UNL     1       0.102  -7.052   7.013  1.00  0.00     0.029 A 
ATOM     48  C   UNL     1       0.920  -7.900   7.878  1.00  0.00     0.049 A 
ATOM     49  H   UNL     1       2.502  -7.308   9.097  1.00  0.00     0.167 HD
ATOM     50  C   UNL     1       5.588  -5.868  11.860  1.00  0.00     0.034 A 
ATOM     51  C   UNL     1       0.776  -9.231   8.032  1.00  0.00     0.034 A 
ATOM     52  C   UNL     1       5.468  -7.279  12.127  1.00  0.00     0.049 A 
ATOM     53  C   UNL     1       1.657  -9.961   9.012  1.00  0.00     0.074 A 
ATOM     54  C   UNL     1       6.159  -8.043  13.052  1.00  0.00     0.029 A 
ATOM     55  N   UNL     1       4.608  -8.141  11.463  1.00  0.00    -0.354 N 
ATOM     56  N   UNL     1       2.594  -9.477   9.792  1.00  0.00    -0.248 NA
ATOM     57  C   UNL     1       1.454 -11.411   9.140  1.00  0.00     0.031 C 
ATOM     58  C   UNL     1       5.756  -9.375  12.910  1.00  0.00     0.029 A 
ATOM     59  C   UNL     1       4.772  -9.432  11.937  1.00  0.00     0.049 A 
ATOM     60  H   UNL     1       3.974  -7.875  10.757  1.00  0.00     0.167 HD
ATOM     61  C   UNL     1       3.072 -10.559  10.525  1.00  0.00     0.074 A 
ATOM     62  C   UNL     1       2.326 -11.722  10.090  1.00  0.00     0.031 C 
ATOM     63  C   UNL     1       4.031 -10.582  11.483  1.00  0.00     0.034 A 
BRANCH  50  64
ATOM     64  C   UNL     1       6.606  -5.082  12.643  1.00  0.00     0.023 A 
ATOM     65  C   UNL     1       6.213  -4.148  13.616  1.00  0.00     0.031 A 
ATOM     66  C   UNL     1       7.981  -5.304  12.452  1.00  0.00     0.131 A 
ATOM     67  C   UNL     1       7.186  -3.446  14.342  1.00  0.00     0.055 A 
ATOM     68  C   UNL     1       8.944  -4.641  13.216  1.00  0.00     0.041 A 
ATOM     69  F   UNL     1       8.409  -6.177  11.527  1.00  0.00    -0.206 F 
ATOM     70  C   UNL     1       8.548  -3.703  14.165  1.00  0.00     0.022 A 
BRANCH  67  71
ATOM     71  S   UNL     1       6.650  -2.152  15.495  1.00  0.00     0.124 S 
ATOM     72  O   UNL     1       6.096  -1.156  14.582  1.00  0.00    -0.237 OA
ATOM     73  O   UNL     1       5.686  -2.853  16.335  1.00  0.00    -0.237 OA
ATOM     74  O   UNL     1       7.887  -1.757  16.165  1.00  0.00    -0.744 OA
ENDBRANCH  67  71
ENDBRANCH  50  64
BRANCH  51  75
ATOM     75  C   UNL     1      -0.263  -9.955   7.253  1.00  0.00     0.023 A 
ATOM     76  C   UNL     1      -1.411 -10.460   7.881  1.00  0.00     0.031 A 
ATOM     77  C   UNL     1      -0.126 -10.138   5.866  1.00  0.00     0.131 A 
ATOM     78  C   UNL     1      -2.374 -11.143   7.123  1.00  0.00     0.055 A 
ATOM     79  C   UNL     1      -1.101 -10.792   5.112  1.00  0.00     0.041 A 
ATOM     80  F   UNL     1       0.951  -9.661   5.222  1.00  0.00    -0.206 F 
ATOM     81  C   UNL     1      -2.232 -11.303   5.742  1.00  0.00     0.022 A 
BRANCH  78  82
ATOM     82  S   UNL     1      -3.815 -11.841   7.975  1.00  0.00     0.124 S 
ATOM     83  O   UNL     1      -3.192 -12.813   8.865  1.00  0.00    -0.237 OA
ATOM     84  O   UNL     1      -4.392 -10.662   8.611  1.00  0.00    -0.237 OA
ATOM     85  O   UNL     1      -4.609 -12.409   6.887  1.00  0.00    -0.744 OA
ENDBRANCH  78  82
ENDBRANCH  51  75
BRANCH  63  86
ATOM     86  C   UNL     1       4.316 -11.900  12.149  1.00  0.00     0.023 A 
ATOM     87  C   UNL     1       5.061 -12.899  11.502  1.00  0.00     0.031 A 
ATOM     88  C   UNL     1       3.890 -12.128  13.469  1.00  0.00     0.131 A 
ATOM     89  C   UNL     1       5.343 -14.098  12.174  1.00  0.00     0.055 A 
ATOM     90  C   UNL     1       4.205 -13.307  14.144  1.00  0.00     0.041 A 
ATOM     91  F   UNL     1       3.182 -11.197  14.127  1.00  0.00    -0.206 F 
ATOM     92  C   UNL     1       4.934 -14.301  13.496  1.00  0.00     0.022 A 
BRANCH  89  93
ATOM     93  S   UNL     1       6.258 -15.398  11.301  1.00  0.00     0.124 S 
ATOM     94  O   UNL     1       5.277 -15.848  10.319  1.00  0.00    -0.237 OA
ATOM     95  O   UNL     1       7.408 -14.676  10.767  1.00  0.00    -0.237 OA
ATOM     96  O   UNL     1       6.571 -16.363  12.354  1.00  0.00    -0.744 OA
ENDBRANCH  89  93
ENDBRANCH  63  86
ENDBRANCH  37  38
ENDBRANCH  30  32
ENDBRANCH  29  30
ENDBRANCH  28  29
ENDBRANCH  27  28
ENDBRANCH  26  27
ENDBRANCH  25  26
ENDBRANCH   1  25
TORSDOF 21
