REMARK SMILES CC(=O)Nc1cnc(N2CC=C(c3ccccc3C)CC2)c(C(=O)OCCOCCOC(=O)c2ccc(-c3c4nc(c(-c5cc(S(=O)(=O)[O-])ccc5F)c5ccc([nH]5)c(-c5cc(S(=O)(=O)[O-])ccc5F)c5nc(c(-c6cc(S(=O)(=O)[O-])ccc6F)c6ccc3[nH]6)C=C5)C=C4)cc2)c1
REMARK SMILES IDX 29 1 28 2 27 3 26 4 25 5 23 6 24 7 22 8 5 9 6 10 97 11 7 12
REMARK SMILES IDX 8 13 4 14 1 15 2 16 3 17 9 19 10 20 21 21 11 22 20 23 12 24
REMARK SMILES IDX 13 25 14 26 18 27 15 28 17 29 19 30 16 31 30 32 31 33 32 34
REMARK SMILES IDX 33 35 34 36 35 37 96 38 36 39 95 40 37 41 38 42 39 43 89 44
REMARK SMILES IDX 40 45 94 46 88 47 90 48 41 49 93 50 87 51 86 52 42 54 74 55
REMARK SMILES IDX 54 56 73 57 55 58 58 59 72 60 91 61 56 62 57 63 71 65 92 66
REMARK SMILES IDX 59 67 43 68 44 69 52 70 45 71 51 72 53 73 50 74 46 75 47 76
REMARK SMILES IDX 48 77 49 78 75 79 76 80 84 81 77 82 83 83 85 84 82 85 78 86
REMARK SMILES IDX 79 87 80 88 81 89 60 90 61 91 69 92 62 93 68 94 70 95 67 96
REMARK SMILES IDX 63 97 64 98 65 99 66 100
REMARK H PARENT 4 18 90 53 58 64
REMARK Flexibility Score: inf
ROOT
ATOM      1  C   UNL     1       7.907  -0.043  -4.502  1.00  0.00     0.202 C 
ENDROOT
BRANCH   1   2
ATOM      2  O   UNL     1       7.080   0.558  -3.527  1.00  0.00    -0.374 OA
BRANCH   2   3
ATOM      3  C   UNL     1       6.710  -0.351  -2.492  1.00  0.00     0.202 C 
BRANCH   3   4
ATOM      4  C   UNL     1       5.901   0.446  -1.544  1.00  0.00     0.261 C 
BRANCH   4   5
ATOM      5  O   UNL     1       4.562   0.543  -2.012  1.00  0.00    -0.460 OA
BRANCH   5   6
ATOM      6  C   UNL     1       4.156   1.681  -2.630  1.00  0.00     0.342 C 
ATOM      7  O   UNL     1       4.676   2.762  -2.611  1.00  0.00    -0.246 OA
BRANCH   6   8
ATOM      8  C   UNL     1       2.968   1.276  -3.392  1.00  0.00     0.104 A 
ATOM      9  C   UNL     1       1.066  -0.198  -3.503  1.00  0.00     0.060 A 
ATOM     10  C   UNL     1       0.925   0.229  -4.812  1.00  0.00     0.139 A 
ATOM     11  C   UNL     1       2.127   0.326  -2.803  1.00  0.00     0.047 A 
ATOM     12  N   UNL     1       1.694   1.192  -5.395  1.00  0.00    -0.236 NA
ATOM     13  C   UNL     1       2.729   1.724  -4.687  1.00  0.00     0.143 A 
BRANCH   9  14
ATOM     14  N   UNL     1       0.228  -1.164  -2.929  1.00  0.00    -0.325 N 
ATOM     15  C   UNL     1       0.043  -0.093  -0.685  1.00  0.00     0.114 C 
ATOM     16  C   UNL     1      -0.143  -1.279  -1.609  1.00  0.00     0.221 C 
ATOM     17  O   UNL     1      -0.730  -2.295  -1.229  1.00  0.00    -0.275 OA
ATOM     18  H   UNL     1      -0.139  -1.840  -3.543  1.00  0.00     0.169 HD
ENDBRANCH   9  14
BRANCH  13  19
ATOM     19  N   UNL     1       3.521   2.628  -5.368  1.00  0.00    -0.352 N 
ATOM     20  C   UNL     1       3.108   4.026  -5.291  1.00  0.00     0.146 C 
ATOM     21  C   UNL     1       4.965   2.417  -5.443  1.00  0.00     0.123 C 
ATOM     22  C   UNL     1       3.801   4.791  -6.394  1.00  0.00    -0.002 C 
ATOM     23  C   UNL     1       5.481   2.987  -6.760  1.00  0.00     0.057 C 
ATOM     24  C   UNL     1       4.853   4.321  -7.098  1.00  0.00    -0.041 C 
BRANCH  24  25
ATOM     25  C   UNL     1       5.385   5.078  -8.250  1.00  0.00    -0.020 A 
ATOM     26  C   UNL     1       5.814   6.402  -8.044  1.00  0.00     0.008 A 
ATOM     27  C   UNL     1       5.446   4.538  -9.554  1.00  0.00    -0.044 A 
ATOM     28  C   UNL     1       6.284   7.181  -9.103  1.00  0.00     0.001 A 
ATOM     29  C   UNL     1       5.937   5.331 -10.606  1.00  0.00     0.004 A 
ATOM     30  C   UNL     1       5.015   3.134  -9.881  1.00  0.00     0.045 C 
ATOM     31  C   UNL     1       6.343   6.646 -10.384  1.00  0.00     0.000 A 
ENDBRANCH  24  25
ENDBRANCH  13  19
ENDBRANCH   6   8
ENDBRANCH   5   6
ENDBRANCH   4   5
ENDBRANCH   3   4
ENDBRANCH   2   3
ENDBRANCH   1   2
BRANCH   1  32
ATOM     32  C   UNL     1       9.207  -0.615  -3.913  1.00  0.00     0.261 C 
BRANCH  32  33
ATOM     33  O   UNL     1       9.948   0.447  -3.271  1.00  0.00    -0.460 OA
BRANCH  33  34
ATOM     34  C   UNL     1      10.082   0.356  -1.915  1.00  0.00     0.338 C 
ATOM     35  O   UNL     1      10.530  -0.606  -1.316  1.00  0.00    -0.246 OA
BRANCH  34  36
ATOM     36  C   UNL     1       9.437   1.535  -1.262  1.00  0.00     0.060 A 
ATOM     37  C   UNL     1       9.118   1.504   0.111  1.00  0.00     0.016 A 
ATOM     38  C   UNL     1       8.900   2.531  -2.074  1.00  0.00     0.016 A 
ATOM     39  C   UNL     1       8.145   2.372   0.634  1.00  0.00     0.010 A 
ATOM     40  C   UNL     1       7.881   3.315  -1.577  1.00  0.00     0.010 A 
ATOM     41  C   UNL     1       7.470   3.228  -0.234  1.00  0.00    -0.014 A 
BRANCH  41  42
ATOM     42  C   UNL     1       6.245   3.979   0.081  1.00  0.00     0.031 A 
ATOM     43  C   UNL     1       6.281   5.446  -0.064  1.00  0.00     0.074 A 
ATOM     44  C   UNL     1       5.050   3.353   0.235  1.00  0.00     0.049 A 
ATOM     45  N   UNL     1       5.429   6.246   0.470  1.00  0.00    -0.248 NA
ATOM     46  C   UNL     1       7.327   6.159  -0.793  1.00  0.00     0.031 C 
ATOM     47  C   UNL     1       3.693   3.886   0.108  1.00  0.00     0.029 A 
ATOM     48  N   UNL     1       4.809   2.010   0.517  1.00  0.00    -0.354 N 
ATOM     49  C   UNL     1       5.572   7.470  -0.143  1.00  0.00     0.074 A 
ATOM     50  C   UNL     1       6.858   7.406  -0.781  1.00  0.00     0.031 C 
ATOM     51  C   UNL     1       2.805   2.993   0.592  1.00  0.00     0.029 A 
ATOM     52  C   UNL     1       3.562   1.871   1.128  1.00  0.00     0.049 A 
ATOM     53  H   UNL     1       5.426   1.270   0.315  1.00  0.00     0.167 HD
ATOM     54  C   UNL     1       4.499   8.310  -0.177  1.00  0.00     0.034 A 
ATOM     55  C   UNL     1       3.494   1.284   2.350  1.00  0.00     0.034 A 
ATOM     56  C   UNL     1       3.354   7.697   0.533  1.00  0.00     0.049 A 
ATOM     57  C   UNL     1       3.153   2.411   3.288  1.00  0.00     0.074 A 
ATOM     58  C   UNL     1       2.155   7.153   0.101  1.00  0.00     0.029 A 
ATOM     59  N   UNL     1       3.511   7.269   1.856  1.00  0.00    -0.354 N 
ATOM     60  N   UNL     1       3.438   3.662   3.016  1.00  0.00    -0.248 NA
ATOM     61  C   UNL     1       2.272   2.265   4.438  1.00  0.00     0.031 C 
ATOM     62  C   UNL     1       1.657   6.309   1.141  1.00  0.00     0.029 A 
ATOM     63  C   UNL     1       2.539   6.351   2.214  1.00  0.00     0.049 A 
ATOM     64  H   UNL     1       4.225   7.582   2.458  1.00  0.00     0.167 HD
ATOM     65  C   UNL     1       2.645   4.467   3.772  1.00  0.00     0.074 A 
ATOM     66  C   UNL     1       1.993   3.553   4.705  1.00  0.00     0.031 C 
ATOM     67  C   UNL     1       2.486   5.809   3.567  1.00  0.00     0.034 A 
BRANCH  54  68
ATOM     68  C   UNL     1       4.370   9.538  -1.073  1.00  0.00     0.023 A 
ATOM     69  C   UNL     1       3.096  10.120  -1.246  1.00  0.00     0.031 A 
ATOM     70  C   UNL     1       5.403  10.181  -1.795  1.00  0.00     0.131 A 
ATOM     71  C   UNL     1       2.885  11.208  -2.119  1.00  0.00     0.055 A 
ATOM     72  C   UNL     1       5.190  11.240  -2.689  1.00  0.00     0.041 A 
ATOM     73  F   UNL     1       6.692   9.874  -1.648  1.00  0.00    -0.206 F 
ATOM     74  C   UNL     1       3.924  11.761  -2.858  1.00  0.00     0.022 A 
BRANCH  71  75
ATOM     75  S   UNL     1       1.224  11.917  -2.259  1.00  0.00     0.124 S 
ATOM     76  O   UNL     1       0.475  10.820  -2.863  1.00  0.00    -0.237 OA
ATOM     77  O   UNL     1       0.904  12.236  -0.872  1.00  0.00    -0.237 OA
ATOM     78  O   UNL     1       1.424  13.079  -3.125  1.00  0.00    -0.744 OA
ENDBRANCH  71  75
ENDBRANCH  54  68
BRANCH  55  79
ATOM     79  C   UNL     1       4.466   0.138   2.460  1.00  0.00     0.023 A 
ATOM     80  C   UNL     1       4.226  -0.985   1.613  1.00  0.00     0.031 A 
ATOM     81  C   UNL     1       5.774   0.291   2.945  1.00  0.00     0.131 A 
ATOM     82  C   UNL     1       5.281  -1.815   1.176  1.00  0.00     0.055 A 
ATOM     83  C   UNL     1       6.820  -0.555   2.525  1.00  0.00     0.041 A 
ATOM     84  F   UNL     1       6.098   1.340   3.714  1.00  0.00    -0.206 F 
ATOM     85  C   UNL     1       6.587  -1.586   1.611  1.00  0.00     0.022 A 
BRANCH  82  86
ATOM     86  S   UNL     1       5.012  -2.946  -0.244  1.00  0.00     0.124 S 
ATOM     87  O   UNL     1       4.623  -4.186   0.413  1.00  0.00    -0.237 OA
ATOM     88  O   UNL     1       3.966  -2.269  -1.006  1.00  0.00    -0.237 OA
ATOM     89  O   UNL     1       6.316  -2.965  -0.906  1.00  0.00    -0.744 OA
ENDBRANCH  82  86
ENDBRANCH  55  79
BRANCH  67  90
ATOM     90  C   UNL     1       2.170   6.719   4.712  1.00  0.00     0.023 A 
ATOM     91  C   UNL     1       2.365   6.295   6.031  1.00  0.00     0.031 A 
ATOM     92  C   UNL     1       1.805   8.068   4.533  1.00  0.00     0.131 A 
ATOM     93  C   UNL     1       2.053   7.124   7.105  1.00  0.00     0.055 A 
ATOM     94  C   UNL     1       1.625   8.937   5.607  1.00  0.00     0.041 A 
ATOM     95  F   UNL     1       1.629   8.601   3.315  1.00  0.00    -0.206 F 
ATOM     96  C   UNL     1       1.717   8.459   6.908  1.00  0.00     0.022 A 
BRANCH  93  97
ATOM     97  S   UNL     1       1.969   6.348   8.731  1.00  0.00     0.124 S 
ATOM     98  O   UNL     1       0.893   5.378   8.537  1.00  0.00    -0.237 OA
ATOM     99  O   UNL     1       3.306   5.782   8.884  1.00  0.00    -0.237 OA
ATOM    100  O   UNL     1       1.654   7.460   9.623  1.00  0.00    -0.744 OA
ENDBRANCH  93  97
ENDBRANCH  67  90
ENDBRANCH  41  42
ENDBRANCH  34  36
ENDBRANCH  33  34
ENDBRANCH  32  33
ENDBRANCH   1  32
TORSDOF 20
