REMARK SMILES Cc1ccccc1/C=C1\SC(=O)N(CC(=O)Nc2ccccc2C(=O)OCCOCCOC(=O)c2ccc(-c3c4nc(c(-c5cc(S(=O)(=O)[O-])ccc5F)c5ccc([nH]5)c(-c5cc(S(=O)(=O)[O-])ccc5F)c5nc(c(-c6cc(S(=O)(=O)[O-])ccc6F)c6ccc3[nH]6)C=C5)C=C4)cc2)C1=O
REMARK SMILES IDX 28 1 27 2 26 3 24 4 25 5 23 6 18 7 19 8 20 9 22 10 21 11
REMARK SMILES IDX 17 12 15 13 16 14 14 16 13 17 8 18 9 19 10 20 98 21 11 22
REMARK SMILES IDX 99 23 12 24 7 25 1 26 2 27 3 28 4 29 6 30 5 31 29 32 30 33
REMARK SMILES IDX 31 34 32 35 33 36 34 37 35 38 36 39 97 40 37 41 96 42 38 43
REMARK SMILES IDX 39 44 40 45 90 46 41 47 95 48 89 49 91 50 42 51 94 52 88 53
REMARK SMILES IDX 87 54 43 56 75 57 55 58 74 59 56 60 59 61 73 62 92 63 57 64
REMARK SMILES IDX 58 65 72 67 93 68 60 69 44 70 45 71 53 72 46 73 52 74 54 75
REMARK SMILES IDX 51 76 47 77 48 78 49 79 50 80 76 81 77 82 85 83 78 84 84 85
REMARK SMILES IDX 86 86 83 87 79 88 80 89 81 90 82 91 61 92 62 93 70 94 63 95
REMARK SMILES IDX 69 96 71 97 68 98 64 99 65 100 66 101 67 102
REMARK H PARENT 17 15 91 55 59 66
REMARK Flexibility Score: inf
ROOT
ATOM      1  C   UNL     1       5.652   2.848  -2.147  1.00  0.00     0.202 C 
ENDROOT
BRANCH   1   2
ATOM      2  C   UNL     1       4.227   2.135  -2.276  1.00  0.00     0.261 C 
BRANCH   2   3
ATOM      3  O   UNL     1       2.525   2.704  -3.266  1.00  0.00    -0.460 OA
BRANCH   3   4
ATOM      4  C   UNL     1       1.667   3.741  -3.890  1.00  0.00     0.340 C 
ATOM      5  O   UNL     1       0.932   4.466  -3.236  1.00  0.00    -0.246 OA
BRANCH   4   6
ATOM      6  C   UNL     1       1.855   4.185  -5.272  1.00  0.00     0.083 A 
ATOM      7  C   UNL     1       2.118   5.553  -5.529  1.00  0.00     0.055 A 
ATOM      8  C   UNL     1       2.124   6.021  -6.840  1.00  0.00     0.027 A 
ATOM      9  C   UNL     1       1.942   5.119  -7.883  1.00  0.00     0.002 A 
ATOM     10  C   UNL     1       1.568   3.310  -6.308  1.00  0.00     0.018 A 
ATOM     11  C   UNL     1       1.654   3.775  -7.617  1.00  0.00     0.001 A 
BRANCH   7  12
ATOM     12  N   UNL     1       2.427   6.499  -4.537  1.00  0.00    -0.324 N 
ATOM     13  C   UNL     1       3.393   6.381  -3.574  1.00  0.00     0.244 C 
ATOM     14  O   UNL     1       3.617   7.347  -2.834  1.00  0.00    -0.273 OA
ATOM     15  H   UNL     1       1.897   7.329  -4.535  1.00  0.00     0.170 HD
BRANCH  13  16
ATOM     16  C   UNL     1       4.368   5.196  -3.631  1.00  0.00     0.230 C 
BRANCH  16  17
ATOM     17  N   UNL     1       3.890   3.866  -3.276  1.00  0.00    -0.259 N 
ATOM     18  C   UNL     1       1.520   1.144  -0.658  1.00  0.00     0.029 C 
ATOM     19  C   UNL     1       2.257   1.772  -1.633  1.00  0.00     0.083 C 
ATOM     20  S   UNL     1       2.811   0.694  -3.517  1.00  0.00    -0.022 SA
ATOM     21  C   UNL     1       2.935   3.669  -1.764  1.00  0.00     0.268 C 
ATOM     22  C   UNL     1       4.009   2.477  -4.364  1.00  0.00     0.294 C 
ATOM     23  O   UNL     1       2.605   4.705  -1.206  1.00  0.00    -0.268 OA
ATOM     24  O   UNL     1       4.662   2.373  -5.389  1.00  0.00    -0.261 OA
BRANCH  18  25
ATOM     25  C   UNL     1       0.731   0.041   0.011  1.00  0.00    -0.021 A 
ATOM     26  C   UNL     1       2.732  -1.372   0.616  1.00  0.00     0.045 C 
ATOM     27  C   UNL     1       1.261  -1.120   0.573  1.00  0.00    -0.044 A 
ATOM     28  C   UNL     1       0.407  -2.057   1.223  1.00  0.00     0.004 A 
ATOM     29  C   UNL     1      -0.949  -1.807   1.437  1.00  0.00     0.000 A 
ATOM     30  C   UNL     1      -0.622   0.327   0.394  1.00  0.00     0.008 A 
ATOM     31  C   UNL     1      -1.454  -0.575   1.081  1.00  0.00     0.001 A 
ENDBRANCH  18  25
ENDBRANCH  16  17
ENDBRANCH  13  16
ENDBRANCH   7  12
ENDBRANCH   4   6
ENDBRANCH   3   4
ENDBRANCH   2   3
ENDBRANCH   1   2
BRANCH   1  32
ATOM     32  O   UNL     1       5.521   3.922  -1.222  1.00  0.00    -0.374 OA
BRANCH  32  33
ATOM     33  C   UNL     1       6.734   4.549  -0.861  1.00  0.00     0.202 C 
BRANCH  33  34
ATOM     34  C   UNL     1       7.551   3.617   0.033  1.00  0.00     0.261 C 
BRANCH  34  35
ATOM     35  O   UNL     1       6.852   3.480   1.301  1.00  0.00    -0.460 OA
BRANCH  35  36
ATOM     36  C   UNL     1       5.992   2.428   1.463  1.00  0.00     0.338 C 
ATOM     37  O   UNL     1       6.295   1.257   1.301  1.00  0.00    -0.246 OA
BRANCH  36  38
ATOM     38  C   UNL     1       4.590   2.912   1.752  1.00  0.00     0.060 A 
ATOM     39  C   UNL     1       3.513   2.061   2.024  1.00  0.00     0.016 A 
ATOM     40  C   UNL     1       4.275   4.238   1.544  1.00  0.00     0.016 A 
ATOM     41  C   UNL     1       2.155   2.501   1.863  1.00  0.00     0.010 A 
ATOM     42  C   UNL     1       2.953   4.597   1.239  1.00  0.00     0.010 A 
ATOM     43  C   UNL     1       1.857   3.699   1.193  1.00  0.00    -0.014 A 
BRANCH  43  44
ATOM     44  C   UNL     1       0.504   4.097   0.352  1.00  0.00     0.031 A 
ATOM     45  C   UNL     1      -0.167   5.193   1.069  1.00  0.00     0.074 A 
ATOM     46  C   UNL     1      -0.236   3.692  -0.792  1.00  0.00     0.049 A 
ATOM     47  N   UNL     1      -1.295   5.048   1.700  1.00  0.00    -0.248 NA
ATOM     48  C   UNL     1       0.533   6.452   1.361  1.00  0.00     0.031 C 
ATOM     49  C   UNL     1      -1.257   4.477  -1.521  1.00  0.00     0.029 A 
ATOM     50  N   UNL     1      -0.185   2.581  -1.707  1.00  0.00    -0.354 N 
ATOM     51  C   UNL     1      -1.552   6.325   2.140  1.00  0.00     0.074 A 
ATOM     52  C   UNL     1      -0.247   6.893   2.340  1.00  0.00     0.031 C 
ATOM     53  C   UNL     1      -1.787   3.785  -2.566  1.00  0.00     0.029 A 
ATOM     54  C   UNL     1      -1.235   2.428  -2.613  1.00  0.00     0.049 A 
ATOM     55  H   UNL     1       0.569   1.948  -1.693  1.00  0.00     0.167 HD
ATOM     56  C   UNL     1      -2.625   7.027   1.661  1.00  0.00     0.034 A 
ATOM     57  C   UNL     1      -1.827   1.250  -3.031  1.00  0.00     0.034 A 
ATOM     58  C   UNL     1      -3.392   6.270   0.654  1.00  0.00     0.049 A 
ATOM     59  C   UNL     1      -3.183   1.298  -2.317  1.00  0.00     0.074 A 
ATOM     60  C   UNL     1      -3.698   6.517  -0.678  1.00  0.00     0.029 A 
ATOM     61  N   UNL     1      -3.778   4.953   0.887  1.00  0.00    -0.354 N 
ATOM     62  N   UNL     1      -3.447   2.264  -1.485  1.00  0.00    -0.248 NA
ATOM     63  C   UNL     1      -4.300   0.359  -2.390  1.00  0.00     0.031 C 
ATOM     64  C   UNL     1      -4.352   5.377  -1.209  1.00  0.00     0.029 A 
ATOM     65  C   UNL     1      -4.422   4.421  -0.212  1.00  0.00     0.049 A 
ATOM     66  H   UNL     1      -3.614   4.465   1.726  1.00  0.00     0.167 HD
ATOM     67  C   UNL     1      -4.686   2.164  -0.967  1.00  0.00     0.074 A 
ATOM     68  C   UNL     1      -5.179   0.917  -1.526  1.00  0.00     0.031 C 
ATOM     69  C   UNL     1      -5.123   3.147  -0.127  1.00  0.00     0.034 A 
BRANCH  56  70
ATOM     70  C   UNL     1      -2.754   8.544   1.799  1.00  0.00     0.023 A 
ATOM     71  C   UNL     1      -3.740   9.197   1.041  1.00  0.00     0.031 A 
ATOM     72  C   UNL     1      -1.999   9.401   2.633  1.00  0.00     0.131 A 
ATOM     73  C   UNL     1      -3.873  10.595   1.031  1.00  0.00     0.055 A 
ATOM     74  C   UNL     1      -2.094  10.799   2.594  1.00  0.00     0.041 A 
ATOM     75  F   UNL     1      -1.186   8.944   3.593  1.00  0.00    -0.206 F 
ATOM     76  C   UNL     1      -3.035  11.406   1.785  1.00  0.00     0.022 A 
BRANCH  73  77
ATOM     77  S   UNL     1      -5.202  11.323   0.046  1.00  0.00     0.124 S 
ATOM     78  O   UNL     1      -4.743  11.069  -1.315  1.00  0.00    -0.237 OA
ATOM     79  O   UNL     1      -6.369  10.567   0.488  1.00  0.00    -0.237 OA
ATOM     80  O   UNL     1      -5.190  12.727   0.454  1.00  0.00    -0.744 OA
ENDBRANCH  73  77
ENDBRANCH  56  70
BRANCH  57  81
ATOM     81  C   UNL     1      -1.056  -0.061  -3.313  1.00  0.00     0.023 A 
ATOM     82  C   UNL     1      -0.223  -0.298  -4.452  1.00  0.00     0.031 A 
ATOM     83  C   UNL     1      -1.040  -1.107  -2.384  1.00  0.00     0.131 A 
ATOM     84  C   UNL     1       0.710  -1.395  -4.489  1.00  0.00     0.055 A 
ATOM     85  C   UNL     1      -0.055  -2.116  -2.366  1.00  0.00     0.041 A 
ATOM     86  F   UNL     1      -2.000  -1.183  -1.457  1.00  0.00    -0.206 F 
ATOM     87  C   UNL     1       0.870  -2.227  -3.387  1.00  0.00     0.022 A 
BRANCH  84  88
ATOM     88  S   UNL     1       1.912  -1.669  -5.869  1.00  0.00     0.124 S 
ATOM     89  O   UNL     1       1.422  -2.908  -6.466  1.00  0.00    -0.237 OA
ATOM     90  O   UNL     1       1.758  -0.468  -6.686  1.00  0.00    -0.237 OA
ATOM     91  O   UNL     1       3.204  -1.806  -5.194  1.00  0.00    -0.744 OA
ENDBRANCH  84  88
ENDBRANCH  57  81
BRANCH  69  92
ATOM     92  C   UNL     1      -6.333   3.081   0.744  1.00  0.00     0.023 A 
ATOM     93  C   UNL     1      -6.974   1.877   1.017  1.00  0.00     0.031 A 
ATOM     94  C   UNL     1      -6.854   4.235   1.384  1.00  0.00     0.131 A 
ATOM     95  C   UNL     1      -8.154   1.861   1.766  1.00  0.00     0.055 A 
ATOM     96  C   UNL     1      -7.961   4.198   2.223  1.00  0.00     0.041 A 
ATOM     97  F   UNL     1      -6.317   5.453   1.226  1.00  0.00    -0.206 F 
ATOM     98  C   UNL     1      -8.643   3.007   2.392  1.00  0.00     0.022 A 
BRANCH  95  99
ATOM     99  S   UNL     1      -9.097   0.326   1.773  1.00  0.00     0.124 S 
ATOM    100  O   UNL     1      -9.362   0.133   0.348  1.00  0.00    -0.237 OA
ATOM    101  O   UNL     1      -8.158  -0.616   2.373  1.00  0.00    -0.237 OA
ATOM    102  O   UNL     1     -10.268   0.647   2.585  1.00  0.00    -0.744 OA
ENDBRANCH  95  99
ENDBRANCH  69  92
ENDBRANCH  43  44
ENDBRANCH  36  38
ENDBRANCH  35  36
ENDBRANCH  34  35
ENDBRANCH  33  34
ENDBRANCH  32  33
ENDBRANCH   1  32
TORSDOF 21
