REMARK SMILES CC(C)[C@H](NC(=O)[C@@H]1CC2=c3ccccc3=N[C@H]2[C@@H]2c3ccccc3C(=O)N12)C(=O)N[C@H](C)C(=O)OCCOCCOC(=O)c1ccc(-c2c3nc(c(-c4cc(S(=O)(=O)[O-])ccc4F)c4ccc([nH]4)c(-c4cc(S(=O)(=O)[O-])ccc4F)c4nc(c(-c5cc(S(=O)(=O)[O-])ccc5F)c5ccc2[nH]5)C=C4)C=C3)cc1
REMARK SMILES IDX 38 1 37 2 36 3 34 4 35 5 32 6 33 7 31 8 29 9 30 10 4 12 2 13
REMARK SMILES IDX 1 14 3 15 5 16 6 17 7 19 8 20 9 21 28 22 10 23 19 24 26 25
REMARK SMILES IDX 11 26 18 27 20 28 25 29 27 30 12 31 16 32 17 33 21 34 24 35
REMARK SMILES IDX 13 36 15 37 22 38 23 39 14 40 39 41 40 42 41 43 42 44 43 45
REMARK SMILES IDX 44 46 45 47 46 48 107 49 47 50 106 51 48 52 49 53 50 54
REMARK SMILES IDX 100 55 51 56 105 57 99 58 101 59 52 60 104 61 98 62 97 63
REMARK SMILES IDX 53 65 85 66 65 67 84 68 66 69 69 70 83 71 102 72 67 73 68 74
REMARK SMILES IDX 82 76 103 77 70 78 54 79 55 80 63 81 56 82 62 83 64 84 61 85
REMARK SMILES IDX 57 86 58 87 59 88 60 89 86 90 87 91 95 92 88 93 94 94 96 95
REMARK SMILES IDX 93 96 89 97 90 98 91 99 92 100 71 101 72 102 80 103 73 104
REMARK SMILES IDX 79 105 81 106 78 107 74 108 75 109 76 110 77 111
REMARK H PARENT 31 11 5 18 101 64 69 75
REMARK Flexibility Score: inf
ROOT
ATOM      1  C   UNL     1      -3.149  -4.638   5.551  1.00  0.00     0.202 C 
ENDROOT
BRANCH   1   2
ATOM      2  C   UNL     1      -1.728  -4.569   6.122  1.00  0.00     0.261 C 
BRANCH   2   3
ATOM      3  O   UNL     1      -1.229  -3.227   6.014  1.00  0.00    -0.462 OA
BRANCH   3   4
ATOM      4  C   UNL     1       0.069  -3.049   5.629  1.00  0.00     0.328 C 
ATOM      5  O   UNL     1       0.894  -3.944   5.497  1.00  0.00    -0.250 OA
BRANCH   4   6
ATOM      6  C   UNL     1       0.305  -1.572   5.247  1.00  0.00     0.189 C 
ATOM      7  C   UNL     1      -0.623  -0.637   6.042  1.00  0.00     0.043 C 
BRANCH   6   8
ATOM      8  N   UNL     1       1.700  -1.119   5.393  1.00  0.00    -0.341 N 
ATOM      9  C   UNL     1       2.683  -0.768   4.520  1.00  0.00     0.243 C 
ATOM     10  O   UNL     1       3.633  -0.138   5.009  1.00  0.00    -0.273 OA
ATOM     11  H   UNL     1       1.984  -1.056   6.333  1.00  0.00     0.164 HD
BRANCH   9  12
ATOM     12  C   UNL     1       2.742  -1.120   2.998  1.00  0.00     0.174 C 
BRANCH  12  13
ATOM     13  C   UNL     1       3.173   0.046   2.060  1.00  0.00     0.015 C 
ATOM     14  C   UNL     1       3.542  -0.388   0.633  1.00  0.00     0.010 C 
ATOM     15  C   UNL     1       2.245   1.247   2.040  1.00  0.00     0.010 C 
ENDBRANCH  12  13
BRANCH  12  16
ATOM     16  N   UNL     1       1.858  -2.171   2.525  1.00  0.00    -0.342 N 
ATOM     17  C   UNL     1       0.608  -2.328   2.091  1.00  0.00     0.243 C 
ATOM     18  H   UNL     1       2.329  -3.036   2.525  1.00  0.00     0.164 HD
ATOM     19  O   UNL     1       0.198  -3.492   2.251  1.00  0.00    -0.273 OA
BRANCH  17  20
ATOM     20  C   UNL     1      -0.342  -1.292   1.456  1.00  0.00     0.179 C 
ATOM     21  C   UNL     1       0.069  -0.742   0.056  1.00  0.00     0.069 C 
ATOM     22  N   UNL     1      -1.376  -0.416   2.000  1.00  0.00    -0.317 N 
ATOM     23  C   UNL     1      -1.081  -1.131  -0.859  1.00  0.00    -0.031 C 
ATOM     24  C   UNL     1      -2.488  -0.059   1.059  1.00  0.00     0.146 C 
ATOM     25  C   UNL     1      -0.975   0.682   2.730  1.00  0.00     0.255 C 
ATOM     26  C   UNL     1      -0.997  -2.338  -1.437  1.00  0.00     0.001 A 
ATOM     27  C   UNL     1      -2.478  -0.863  -0.314  1.00  0.00     0.160 C 
ATOM     28  C   UNL     1      -2.344   1.446   1.020  1.00  0.00    -0.010 A 
ATOM     29  C   UNL     1      -1.533   1.858   2.082  1.00  0.00     0.045 A 
ATOM     30  O   UNL     1      -0.126   0.746   3.596  1.00  0.00    -0.269 OA
ATOM     31  C   UNL     1       0.205  -3.046  -1.793  1.00  0.00     0.010 A 
ATOM     32  C   UNL     1      -2.086  -3.013  -0.677  1.00  0.00     0.066 A 
ATOM     33  N   UNL     1      -3.008  -2.265  -0.127  1.00  0.00    -0.274 NA
ATOM     34  C   UNL     1      -2.821   2.404   0.147  1.00  0.00     0.007 A 
ATOM     35  C   UNL     1      -1.111   3.160   2.286  1.00  0.00     0.014 A 
ATOM     36  C   UNL     1       0.374  -4.313  -1.397  1.00  0.00     0.001 A 
ATOM     37  C   UNL     1      -1.859  -4.456  -0.371  1.00  0.00     0.028 A 
ATOM     38  C   UNL     1      -2.414   3.740   0.331  1.00  0.00     0.000 A 
ATOM     39  C   UNL     1      -1.558   4.114   1.384  1.00  0.00     0.001 A 
ATOM     40  C   UNL     1      -0.665  -5.009  -0.664  1.00  0.00     0.002 A 
ENDBRANCH  17  20
ENDBRANCH  12  16
ENDBRANCH   9  12
ENDBRANCH   6   8
ENDBRANCH   4   6
ENDBRANCH   3   4
ENDBRANCH   2   3
ENDBRANCH   1   2
BRANCH   1  41
ATOM     41  O   UNL     1      -3.263  -4.468   4.138  1.00  0.00    -0.374 OA
BRANCH  41  42
ATOM     42  C   UNL     1      -3.098  -3.145   3.623  1.00  0.00     0.202 C 
BRANCH  42  43
ATOM     43  C   UNL     1      -4.296  -2.203   3.789  1.00  0.00     0.261 C 
BRANCH  43  44
ATOM     44  O   UNL     1      -4.508  -1.826   5.155  1.00  0.00    -0.460 OA
BRANCH  44  45
ATOM     45  C   UNL     1      -5.647  -2.297   5.718  1.00  0.00     0.338 C 
ATOM     46  O   UNL     1      -6.526  -2.954   5.191  1.00  0.00    -0.246 OA
BRANCH  45  47
ATOM     47  C   UNL     1      -5.546  -2.056   7.167  1.00  0.00     0.060 A 
ATOM     48  C   UNL     1      -5.362  -0.765   7.665  1.00  0.00     0.016 A 
ATOM     49  C   UNL     1      -5.609  -3.159   8.025  1.00  0.00     0.016 A 
ATOM     50  C   UNL     1      -5.244  -0.581   9.041  1.00  0.00     0.010 A 
ATOM     51  C   UNL     1      -5.491  -2.972   9.399  1.00  0.00     0.010 A 
ATOM     52  C   UNL     1      -5.322  -1.681   9.916  1.00  0.00    -0.014 A 
BRANCH  52  53
ATOM     53  C   UNL     1      -5.389  -1.457  11.378  1.00  0.00     0.031 A 
ATOM     54  C   UNL     1      -4.243  -1.793  12.279  1.00  0.00     0.074 A 
ATOM     55  C   UNL     1      -6.539  -0.967  11.879  1.00  0.00     0.049 A 
ATOM     56  N   UNL     1      -4.131  -1.591  13.565  1.00  0.00    -0.248 NA
ATOM     57  C   UNL     1      -3.076  -2.446  11.666  1.00  0.00     0.031 C 
ATOM     58  C   UNL     1      -7.727  -0.665  11.079  1.00  0.00     0.029 A 
ATOM     59  N   UNL     1      -6.902  -0.635  13.158  1.00  0.00    -0.354 N 
ATOM     60  C   UNL     1      -2.879  -2.076  13.920  1.00  0.00     0.074 A 
ATOM     61  C   UNL     1      -2.289  -2.631  12.720  1.00  0.00     0.031 C 
ATOM     62  C   UNL     1      -8.675  -0.159  11.879  1.00  0.00     0.029 A 
ATOM     63  C   UNL     1      -8.181  -0.141  13.253  1.00  0.00     0.049 A 
ATOM     64  H   UNL     1      -6.304  -0.741  13.933  1.00  0.00     0.167 HD
ATOM     65  C   UNL     1      -2.281  -2.037  15.134  1.00  0.00     0.034 A 
ATOM     66  C   UNL     1      -8.880   0.284  14.325  1.00  0.00     0.034 A 
ATOM     67  C   UNL     1      -2.906  -1.486  16.314  1.00  0.00     0.049 A 
ATOM     68  C   UNL     1      -8.195   0.303  15.666  1.00  0.00     0.074 A 
ATOM     69  C   UNL     1      -2.366  -1.350  17.581  1.00  0.00     0.029 A 
ATOM     70  N   UNL     1      -4.204  -0.995  16.382  1.00  0.00    -0.354 N 
ATOM     71  N   UNL     1      -6.966  -0.046  15.967  1.00  0.00    -0.248 NA
ATOM     72  C   UNL     1      -8.976   0.789  16.810  1.00  0.00     0.031 C 
ATOM     73  C   UNL     1      -3.358  -0.860  18.429  1.00  0.00     0.029 A 
ATOM     74  C   UNL     1      -4.492  -0.594  17.678  1.00  0.00     0.049 A 
ATOM     75  H   UNL     1      -4.827  -0.940  15.622  1.00  0.00     0.167 HD
ATOM     76  C   UNL     1      -6.819   0.199  17.328  1.00  0.00     0.074 A 
ATOM     77  C   UNL     1      -8.075   0.758  17.784  1.00  0.00     0.031 C 
ATOM     78  C   UNL     1      -5.744  -0.026  18.126  1.00  0.00     0.034 A 
BRANCH  65  79
ATOM     79  C   UNL     1      -0.874  -2.569  15.276  1.00  0.00     0.023 A 
ATOM     80  C   UNL     1      -0.602  -3.614  16.180  1.00  0.00     0.031 A 
ATOM     81  C   UNL     1       0.215  -1.938  14.647  1.00  0.00     0.131 A 
ATOM     82  C   UNL     1       0.725  -3.962  16.467  1.00  0.00     0.055 A 
ATOM     83  C   UNL     1       1.533  -2.323  14.897  1.00  0.00     0.041 A 
ATOM     84  F   UNL     1       0.013  -0.931  13.782  1.00  0.00    -0.206 F 
ATOM     85  C   UNL     1       1.793  -3.328  15.824  1.00  0.00     0.022 A 
BRANCH  82  86
ATOM     86  S   UNL     1       1.119  -5.184  17.749  1.00  0.00     0.124 S 
ATOM     87  O   UNL     1       1.886  -6.173  16.994  1.00  0.00    -0.237 OA
ATOM     88  O   UNL     1       1.891  -4.389  18.700  1.00  0.00    -0.237 OA
ATOM     89  O   UNL     1      -0.187  -5.636  18.216  1.00  0.00    -0.744 OA
ENDBRANCH  82  86
ENDBRANCH  65  79
BRANCH  66  90
ATOM     90  C   UNL     1     -10.271   0.787  14.127  1.00  0.00     0.023 A 
ATOM     91  C   UNL     1     -11.270  -0.047  13.591  1.00  0.00     0.031 A 
ATOM     92  C   UNL     1     -10.587   2.138  14.345  1.00  0.00     0.131 A 
ATOM     93  C   UNL     1     -12.506   0.496  13.219  1.00  0.00     0.055 A 
ATOM     94  C   UNL     1     -11.848   2.657  14.048  1.00  0.00     0.041 A 
ATOM     95  F   UNL     1      -9.662   2.978  14.835  1.00  0.00    -0.206 F 
ATOM     96  C   UNL     1     -12.809   1.838  13.463  1.00  0.00     0.022 A 
BRANCH  93  97
ATOM     97  S   UNL     1     -13.701  -0.484  12.268  1.00  0.00     0.124 S 
ATOM     98  O   UNL     1     -14.874  -0.462  13.137  1.00  0.00    -0.237 OA
ATOM     99  O   UNL     1     -13.812   0.296  11.037  1.00  0.00    -0.237 OA
ATOM    100  O   UNL     1     -13.047  -1.780  12.123  1.00  0.00    -0.744 OA
ENDBRANCH  93  97
ENDBRANCH  66  90
BRANCH  78 101
ATOM    101  C   UNL     1      -5.847   0.324  19.594  1.00  0.00     0.023 A 
ATOM    102  C   UNL     1      -4.955   1.257  20.159  1.00  0.00     0.031 A 
ATOM    103  C   UNL     1      -6.709  -0.375  20.458  1.00  0.00     0.131 A 
ATOM    104  C   UNL     1      -4.907   1.425  21.548  1.00  0.00     0.055 A 
ATOM    105  C   UNL     1      -6.701  -0.156  21.837  1.00  0.00     0.041 A 
ATOM    106  F   UNL     1      -7.570  -1.285  19.974  1.00  0.00    -0.206 F 
ATOM    107  C   UNL     1      -5.784   0.734  22.389  1.00  0.00     0.022 A 
BRANCH 104 108
ATOM    108  S   UNL     1      -3.636   2.463  22.322  1.00  0.00     0.124 S 
ATOM    109  O   UNL     1      -4.444   3.459  23.023  1.00  0.00    -0.237 OA
ATOM    110  O   UNL     1      -2.942   1.507  23.182  1.00  0.00    -0.237 OA
ATOM    111  O   UNL     1      -2.862   2.972  21.196  1.00  0.00    -0.744 OA
ENDBRANCH 104 108
ENDBRANCH  78 101
ENDBRANCH  52  53
ENDBRANCH  45  47
ENDBRANCH  44  45
ENDBRANCH  43  44
ENDBRANCH  42  43
ENDBRANCH  41  42
ENDBRANCH   1  41
TORSDOF 22
