REMARK SMILES O=C(OCCOCCOC(=O)[C@@H]1[C@@H](C(=O)NCCn2cc(Cl)cn2)[C@H]2CC[C@@H]1O2)c1ccc(-c2c3nc(c(-c4cc(S(=O)(=O)[O-])ccc4F)c4ccc([nH]4)c(-c4cc(S(=O)(=O)[O-])ccc4F)c4nc(c(-c5cc(S(=O)(=O)[O-])ccc5F)c5ccc2[nH]5)C=C4)C=C3)cc1
REMARK SMILES IDX 7 1 6 2 5 3 4 4 3 5 2 6 1 7 30 8 31 9 92 10 32 11 91 12
REMARK SMILES IDX 33 13 34 14 35 15 85 16 36 17 90 18 84 19 86 20 37 21 89 22
REMARK SMILES IDX 83 23 82 24 38 26 70 27 50 28 69 29 51 30 54 31 68 32 87 33
REMARK SMILES IDX 52 34 53 35 67 37 88 38 55 39 39 40 40 41 48 42 41 43 47 44
REMARK SMILES IDX 49 45 46 46 42 47 43 48 44 49 45 50 71 51 72 52 80 53 73 54
REMARK SMILES IDX 79 55 81 56 78 57 74 58 75 59 76 60 77 61 56 62 57 63 65 64
REMARK SMILES IDX 58 65 64 66 66 67 63 68 59 69 60 70 61 71 62 72 8 73 9 74
REMARK SMILES IDX 10 75 11 76 12 77 13 78 28 79 25 80 27 81 29 82 26 83 14 84
REMARK SMILES IDX 15 85 16 86 17 88 18 89 19 90 20 91 24 92 21 93 23 94 22 95
REMARK H PARENT 86 25 54 36 16 87
REMARK Flexibility Score: inf
ROOT
ATOM      1  C   UNL     1       3.066   1.052  -1.740  1.00  0.00     0.202 C 
ENDROOT
BRANCH   1   2
ATOM      2  O   UNL     1       4.351   0.919  -1.128  1.00  0.00    -0.374 OA
BRANCH   2   3
ATOM      3  C   UNL     1       4.867  -0.345  -0.736  1.00  0.00     0.202 C 
BRANCH   3   4
ATOM      4  C   UNL     1       4.378  -1.101   0.501  1.00  0.00     0.261 C 
BRANCH   4   5
ATOM      5  O   UNL     1       2.985  -1.406   0.446  1.00  0.00    -0.460 OA
BRANCH   5   6
ATOM      6  C   UNL     1       1.966  -0.555   0.684  1.00  0.00     0.338 C 
ATOM      7  O   UNL     1       0.891  -0.754   0.121  1.00  0.00    -0.246 OA
BRANCH   6   8
ATOM      8  C   UNL     1       2.068   0.558   1.670  1.00  0.00     0.060 A 
ATOM      9  C   UNL     1       3.244   1.137   2.151  1.00  0.00     0.016 A 
ATOM     10  C   UNL     1       0.840   1.013   2.172  1.00  0.00     0.016 A 
ATOM     11  C   UNL     1       3.220   1.887   3.309  1.00  0.00     0.010 A 
ATOM     12  C   UNL     1       0.800   1.840   3.276  1.00  0.00     0.010 A 
ATOM     13  C   UNL     1       1.995   2.179   3.900  1.00  0.00    -0.014 A 
BRANCH  13  14
ATOM     14  C   UNL     1       1.995   3.033   5.074  1.00  0.00     0.031 A 
ATOM     15  C   UNL     1       2.555   4.377   4.787  1.00  0.00     0.074 A 
ATOM     16  C   UNL     1       1.422   2.654   6.233  1.00  0.00     0.049 A 
ATOM     17  N   UNL     1       3.651   4.889   5.239  1.00  0.00    -0.248 NA
ATOM     18  C   UNL     1       1.960   5.145   3.675  1.00  0.00     0.031 C 
ATOM     19  C   UNL     1       0.673   1.421   6.488  1.00  0.00     0.029 A 
ATOM     20  N   UNL     1       1.277   3.337   7.400  1.00  0.00    -0.354 N 
ATOM     21  C   UNL     1       3.700   6.171   4.702  1.00  0.00     0.074 A 
ATOM     22  C   UNL     1       2.823   6.154   3.568  1.00  0.00     0.031 C 
ATOM     23  C   UNL     1      -0.056   1.569   7.616  1.00  0.00     0.029 A 
ATOM     24  C   UNL     1       0.255   2.856   8.218  1.00  0.00     0.049 A 
ATOM     25  H   UNL     1       1.844   4.103   7.646  1.00  0.00     0.167 HD
ATOM     26  C   UNL     1       4.160   7.209   5.455  1.00  0.00     0.034 A 
ATOM     27  C   UNL     1      -0.350   3.506   9.252  1.00  0.00     0.034 A 
ATOM     28  C   UNL     1       5.001   6.719   6.534  1.00  0.00     0.049 A 
ATOM     29  C   UNL     1       0.578   4.586   9.679  1.00  0.00     0.074 A 
ATOM     30  C   UNL     1       6.116   5.901   6.588  1.00  0.00     0.029 A 
ATOM     31  N   UNL     1       4.503   6.739   7.821  1.00  0.00    -0.354 N 
ATOM     32  N   UNL     1       1.742   4.349  10.220  1.00  0.00    -0.248 NA
ATOM     33  C   UNL     1       0.455   5.887   9.034  1.00  0.00     0.031 C 
ATOM     34  C   UNL     1       5.923   5.089   7.745  1.00  0.00     0.029 A 
ATOM     35  C   UNL     1       4.766   5.521   8.394  1.00  0.00     0.049 A 
ATOM     36  H   UNL     1       4.041   7.494   8.252  1.00  0.00     0.167 HD
ATOM     37  C   UNL     1       2.612   5.237   9.604  1.00  0.00     0.074 A 
ATOM     38  C   UNL     1       1.747   6.223   8.956  1.00  0.00     0.031 C 
ATOM     39  C   UNL     1       3.929   4.919   9.416  1.00  0.00     0.034 A 
BRANCH  26  40
ATOM     40  C   UNL     1       3.455   8.557   5.522  1.00  0.00     0.023 A 
ATOM     41  C   UNL     1       3.939   9.452   6.490  1.00  0.00     0.031 A 
ATOM     42  C   UNL     1       2.183   8.874   4.987  1.00  0.00     0.131 A 
ATOM     43  C   UNL     1       3.103  10.435   7.041  1.00  0.00     0.055 A 
ATOM     44  C   UNL     1       1.382   9.903   5.489  1.00  0.00     0.041 A 
ATOM     45  F   UNL     1       1.603   8.185   4.000  1.00  0.00    -0.206 F 
ATOM     46  C   UNL     1       1.819  10.659   6.560  1.00  0.00     0.022 A 
BRANCH  43  47
ATOM     47  S   UNL     1       3.659  11.243   8.559  1.00  0.00     0.124 S 
ATOM     48  O   UNL     1       3.860  10.086   9.425  1.00  0.00    -0.237 OA
ATOM     49  O   UNL     1       4.865  11.928   8.105  1.00  0.00    -0.237 OA
ATOM     50  O   UNL     1       2.539  12.111   8.908  1.00  0.00    -0.744 OA
ENDBRANCH  43  47
ENDBRANCH  26  40
BRANCH  27  51
ATOM     51  C   UNL     1      -1.796   3.453   9.638  1.00  0.00     0.023 A 
ATOM     52  C   UNL     1      -2.287   3.919  10.881  1.00  0.00     0.031 A 
ATOM     53  C   UNL     1      -2.772   3.137   8.664  1.00  0.00     0.131 A 
ATOM     54  C   UNL     1      -3.684   4.043  11.101  1.00  0.00     0.055 A 
ATOM     55  C   UNL     1      -4.146   3.254   8.889  1.00  0.00     0.041 A 
ATOM     56  F   UNL     1      -2.426   2.782   7.417  1.00  0.00    -0.206 F 
ATOM     57  C   UNL     1      -4.608   3.718  10.106  1.00  0.00     0.022 A 
BRANCH  54  58
ATOM     58  S   UNL     1      -4.335   4.720  12.667  1.00  0.00     0.124 S 
ATOM     59  O   UNL     1      -4.022   3.660  13.619  1.00  0.00    -0.237 OA
ATOM     60  O   UNL     1      -3.588   5.964  12.809  1.00  0.00    -0.237 OA
ATOM     61  O   UNL     1      -5.763   4.896  12.396  1.00  0.00    -0.744 OA
ENDBRANCH  54  58
ENDBRANCH  27  51
BRANCH  39  62
ATOM     62  C   UNL     1       4.509   3.745  10.180  1.00  0.00     0.023 A 
ATOM     63  C   UNL     1       4.006   2.424  10.155  1.00  0.00     0.031 A 
ATOM     64  C   UNL     1       5.699   3.975  10.895  1.00  0.00     0.131 A 
ATOM     65  C   UNL     1       4.681   1.400  10.850  1.00  0.00     0.055 A 
ATOM     66  C   UNL     1       6.374   2.956  11.563  1.00  0.00     0.041 A 
ATOM     67  F   UNL     1       6.247   5.201  10.932  1.00  0.00    -0.206 F 
ATOM     68  C   UNL     1       5.862   1.665  11.552  1.00  0.00     0.022 A 
BRANCH  65  69
ATOM     69  S   UNL     1       4.023  -0.299  10.885  1.00  0.00     0.124 S 
ATOM     70  O   UNL     1       2.597  -0.112  11.125  1.00  0.00    -0.237 OA
ATOM     71  O   UNL     1       4.388  -0.804   9.564  1.00  0.00    -0.237 OA
ATOM     72  O   UNL     1       4.751  -0.921  11.993  1.00  0.00    -0.744 OA
ENDBRANCH  65  69
ENDBRANCH  39  62
ENDBRANCH  13  14
ENDBRANCH   6   8
ENDBRANCH   5   6
ENDBRANCH   4   5
ENDBRANCH   3   4
ENDBRANCH   2   3
ENDBRANCH   1   2
BRANCH   1  73
ATOM     73  C   UNL     1       2.683   0.263  -3.005  1.00  0.00     0.261 C 
BRANCH  73  74
ATOM     74  O   UNL     1       3.162  -1.084  -2.998  1.00  0.00    -0.463 OA
BRANCH  74  75
ATOM     75  C   UNL     1       4.071  -1.386  -3.971  1.00  0.00     0.312 C 
ATOM     76  O   UNL     1       4.343  -0.661  -4.910  1.00  0.00    -0.252 OA
BRANCH  75  77
ATOM     77  C   UNL     1       4.865  -2.633  -3.598  1.00  0.00     0.143 C 
ATOM     78  C   UNL     1       5.663  -3.157  -4.800  1.00  0.00     0.124 C 
ATOM     79  C   UNL     1       3.931  -3.792  -3.266  1.00  0.00     0.133 C 
ATOM     80  C   UNL     1       5.016  -4.546  -4.990  1.00  0.00     0.132 C 
ATOM     81  C   UNL     1       4.724  -4.956  -2.667  1.00  0.00     0.036 C 
ATOM     82  O   UNL     1       3.640  -4.277  -4.598  1.00  0.00    -0.373 OA
ATOM     83  C   UNL     1       5.365  -5.569  -3.908  1.00  0.00     0.035 C 
BRANCH  78  84
ATOM     84  C   UNL     1       7.173  -3.220  -4.622  1.00  0.00     0.226 C 
ATOM     85  O   UNL     1       7.812  -4.221  -4.954  1.00  0.00    -0.275 OA
ATOM     86  N   UNL     1       7.903  -2.164  -4.171  1.00  0.00    -0.354 N 
ATOM     87  H   UNL     1       8.840  -2.390  -3.968  1.00  0.00     0.163 HD
BRANCH  86  88
ATOM     88  C   UNL     1       7.574  -0.764  -3.928  1.00  0.00     0.139 C 
BRANCH  88  89
ATOM     89  C   UNL     1       8.014  -0.272  -2.548  1.00  0.00     0.165 C 
BRANCH  89  90
ATOM     90  N   UNL     1       9.454  -0.172  -2.410  1.00  0.00    -0.269 N 
ATOM     91  C   UNL     1      10.292   0.643  -3.116  1.00  0.00     0.129 A 
ATOM     92  N   UNL     1      10.094  -0.954  -1.518  1.00  0.00    -0.180 NA
ATOM     93  C   UNL     1      11.558   0.347  -2.676  1.00  0.00     0.079 A 
ATOM     94  C   UNL     1      11.379  -0.621  -1.674  1.00  0.00     0.155 A 
ATOM     95  Cl  UNL     1      13.027   0.988  -3.213  1.00  0.00    -0.081 Cl
ENDBRANCH  89  90
ENDBRANCH  88  89
ENDBRANCH  86  88
ENDBRANCH  78  84
ENDBRANCH  75  77
ENDBRANCH  74  75
ENDBRANCH  73  74
ENDBRANCH   1  73
TORSDOF 21
