REMARK SMILES O=C1NC(=S)S/C1=C\c1ccc(OCc2cn(-c3ccc(C(=O)OCCOCCOC(=O)c4ccc(-c5c6nc(c(-c7cc(S(=O)(=O)[O-])ccc7F)c7ccc([nH]7)c(-c7cc(S(=O)(=O)[O-])ccc7F)c7nc(c(-c8cc(S(=O)(=O)[O-])ccc8F)c8ccc5[nH]8)C=C7)C=C6)cc4)cc3)nn2)cc1
REMARK SMILES IDX 26 1 25 2 24 3 22 4 23 5 21 6 18 7 19 8 97 9 20 10 96 11
REMARK SMILES IDX 17 12 15 13 16 14 99 15 98 16 14 17 13 18 12 19 9 20 10 21
REMARK SMILES IDX 101 22 11 23 100 24 8 25 1 26 2 27 3 28 7 29 4 30 6 32 5 33
REMARK SMILES IDX 27 34 28 35 29 36 30 37 31 38 32 39 33 40 34 41 95 42 35 43
REMARK SMILES IDX 94 44 36 45 37 46 38 47 88 48 39 49 93 50 87 51 89 52 40 53
REMARK SMILES IDX 92 54 86 55 85 56 41 58 73 59 53 60 72 61 54 62 57 63 71 64
REMARK SMILES IDX 90 65 55 66 56 67 70 69 91 70 58 71 42 72 43 73 51 74 44 75
REMARK SMILES IDX 50 76 52 77 49 78 45 79 46 80 47 81 48 82 74 83 75 84 83 85
REMARK SMILES IDX 76 86 82 87 84 88 81 89 77 90 78 91 79 92 80 93 59 94 60 95
REMARK SMILES IDX 68 96 61 97 67 98 69 99 66 100 62 101 63 102 64 103 65 104
REMARK H PARENT 3 31 89 57 57 68
REMARK Flexibility Score: inf
ROOT
ATOM      1  C   UNL     1       9.308   9.974  -0.760  1.00  0.00     0.202 C 
ENDROOT
BRANCH   1   2
ATOM      2  C   UNL     1       8.167  10.979  -0.920  1.00  0.00     0.261 C 
BRANCH   2   3
ATOM      3  O   UNL     1       6.879  10.408  -0.654  1.00  0.00    -0.460 OA
BRANCH   3   4
ATOM      4  C   UNL     1       6.131  10.202  -1.762  1.00  0.00     0.338 C 
ATOM      5  O   UNL     1       6.413  10.495  -2.912  1.00  0.00    -0.246 OA
BRANCH   4   6
ATOM      6  C   UNL     1       4.937   9.404  -1.430  1.00  0.00     0.060 A 
ATOM      7  C   UNL     1       2.523   8.069  -1.124  1.00  0.00     0.066 A 
ATOM      8  C   UNL     1       3.413   7.666  -2.129  1.00  0.00     0.029 A 
ATOM      9  C   UNL     1       2.888   9.063  -0.205  1.00  0.00     0.029 A 
ATOM     10  C   UNL     1       4.604   8.360  -2.301  1.00  0.00     0.018 A 
ATOM     11  C   UNL     1       4.116   9.717  -0.344  1.00  0.00     0.018 A 
BRANCH   7  12
ATOM     12  N   UNL     1       1.215   7.535  -1.136  1.00  0.00    -0.220 N 
ATOM     13  C   UNL     1      -0.955   7.307  -1.151  1.00  0.00     0.120 A 
ATOM     14  C   UNL     1       0.053   8.128  -0.693  1.00  0.00     0.144 A 
ATOM     15  N   UNL     1      -0.390   6.255  -1.821  1.00  0.00    -0.131 NA
ATOM     16  N   UNL     1       0.921   6.404  -1.811  1.00  0.00    -0.062 NA
BRANCH  13  17
ATOM     17  C   UNL     1      -2.439   7.479  -1.130  1.00  0.00     0.289 C 
BRANCH  17  18
ATOM     18  O   UNL     1      -3.135   6.739  -0.115  1.00  0.00    -0.487 OA
BRANCH  18  19
ATOM     19  C   UNL     1      -3.133   5.373  -0.197  1.00  0.00     0.119 A 
ATOM     20  C   UNL     1      -2.903   2.580  -0.017  1.00  0.00    -0.024 A 
ATOM     21  C   UNL     1      -3.388   3.315   1.067  1.00  0.00     0.012 A 
ATOM     22  C   UNL     1      -2.629   3.239  -1.218  1.00  0.00     0.012 A 
ATOM     23  C   UNL     1      -3.498   4.707   0.975  1.00  0.00     0.047 A 
ATOM     24  C   UNL     1      -2.770   4.624  -1.314  1.00  0.00     0.047 A 
BRANCH  20  25
ATOM     25  C   UNL     1      -2.665   1.140   0.096  1.00  0.00     0.029 C 
ATOM     26  O   UNL     1      -2.196  -1.730   0.127  1.00  0.00    -0.268 OA
ATOM     27  C   UNL     1      -1.287  -0.914   0.119  1.00  0.00     0.263 C 
ATOM     28  N   UNL     1       0.043  -1.226   0.084  1.00  0.00    -0.307 N 
ATOM     29  C   UNL     1      -1.455   0.563   0.089  1.00  0.00     0.080 C 
ATOM     30  C   UNL     1       0.941  -0.205   0.009  1.00  0.00     0.145 C 
ATOM     31  H   UNL     1       0.344  -2.163   0.111  1.00  0.00     0.171 HD
ATOM     32  S   UNL     1       0.095   1.324   0.014  1.00  0.00    -0.055 SA
ATOM     33  S   UNL     1       2.576  -0.432  -0.105  1.00  0.00    -0.052 S 
ENDBRANCH  20  25
ENDBRANCH  18  19
ENDBRANCH  17  18
ENDBRANCH  13  17
ENDBRANCH   7  12
ENDBRANCH   4   6
ENDBRANCH   3   4
ENDBRANCH   2   3
ENDBRANCH   1   2
BRANCH   1  34
ATOM     34  O   UNL     1       9.338   8.826  -1.606  1.00  0.00    -0.374 OA
BRANCH  34  35
ATOM     35  C   UNL     1       8.375   7.788  -1.451  1.00  0.00     0.202 C 
BRANCH  35  36
ATOM     36  C   UNL     1       8.398   6.925  -0.199  1.00  0.00     0.261 C 
BRANCH  36  37
ATOM     37  O   UNL     1       8.264   7.700   0.979  1.00  0.00    -0.460 OA
BRANCH  37  38
ATOM     38  C   UNL     1       9.444   7.919   1.612  1.00  0.00     0.338 C 
ATOM     39  O   UNL     1      10.559   7.788   1.153  1.00  0.00    -0.246 OA
BRANCH  38  40
ATOM     40  C   UNL     1       9.156   8.207   3.019  1.00  0.00     0.060 A 
ATOM     41  C   UNL     1      10.269   8.228   3.858  1.00  0.00     0.016 A 
ATOM     42  C   UNL     1       7.850   8.033   3.498  1.00  0.00     0.016 A 
ATOM     43  C   UNL     1      10.105   7.762   5.139  1.00  0.00     0.010 A 
ATOM     44  C   UNL     1       7.694   7.544   4.767  1.00  0.00     0.010 A 
ATOM     45  C   UNL     1       8.838   7.318   5.528  1.00  0.00    -0.014 A 
BRANCH  45  46
ATOM     46  C   UNL     1       8.687   6.760   6.851  1.00  0.00     0.031 A 
ATOM     47  C   UNL     1       8.753   7.832   7.866  1.00  0.00     0.074 A 
ATOM     48  C   UNL     1       8.406   5.461   7.069  1.00  0.00     0.049 A 
ATOM     49  N   UNL     1       9.743   8.101   8.649  1.00  0.00    -0.248 NA
ATOM     50  C   UNL     1       7.743   8.906   7.795  1.00  0.00     0.031 C 
ATOM     51  C   UNL     1       8.112   4.412   6.090  1.00  0.00     0.029 A 
ATOM     52  N   UNL     1       8.237   4.816   8.252  1.00  0.00    -0.354 N 
ATOM     53  C   UNL     1       9.325   9.203   9.380  1.00  0.00     0.074 A 
ATOM     54  C   UNL     1       8.277   9.811   8.614  1.00  0.00     0.031 C 
ATOM     55  C   UNL     1       7.575   3.342   6.727  1.00  0.00     0.029 A 
ATOM     56  C   UNL     1       7.598   3.580   8.162  1.00  0.00     0.049 A 
ATOM     57  H   UNL     1       8.543   5.192   9.108  1.00  0.00     0.167 HD
ATOM     58  C   UNL     1       9.620   9.296  10.704  1.00  0.00     0.034 A 
ATOM     59  C   UNL     1       7.064   2.869   9.199  1.00  0.00     0.034 A 
ATOM     60  C   UNL     1      10.731   8.428  11.039  1.00  0.00     0.049 A 
ATOM     61  C   UNL     1       7.728   3.374  10.433  1.00  0.00     0.074 A 
ATOM     62  C   UNL     1      12.032   8.312  10.583  1.00  0.00     0.029 A 
ATOM     63  N   UNL     1      10.450   7.231  11.664  1.00  0.00    -0.354 N 
ATOM     64  N   UNL     1       9.004   3.211  10.667  1.00  0.00    -0.248 NA
ATOM     65  C   UNL     1       7.119   4.510  11.113  1.00  0.00     0.031 C 
ATOM     66  C   UNL     1      12.274   6.909  10.514  1.00  0.00     0.029 A 
ATOM     67  C   UNL     1      11.161   6.241  11.028  1.00  0.00     0.049 A 
ATOM     68  H   UNL     1       9.846   7.108  12.431  1.00  0.00     0.167 HD
ATOM     69  C   UNL     1       9.445   4.437  11.146  1.00  0.00     0.074 A 
ATOM     70  C   UNL     1       8.223   5.179  11.464  1.00  0.00     0.031 C 
ATOM     71  C   UNL     1      10.732   4.855  10.950  1.00  0.00     0.034 A 
BRANCH  58  72
ATOM     72  C   UNL     1       8.641   9.808  11.740  1.00  0.00     0.023 A 
ATOM     73  C   UNL     1       9.082   9.795  13.074  1.00  0.00     0.031 A 
ATOM     74  C   UNL     1       7.252  10.018  11.558  1.00  0.00     0.131 A 
ATOM     75  C   UNL     1       8.166   9.856  14.136  1.00  0.00     0.055 A 
ATOM     76  C   UNL     1       6.353  10.143  12.619  1.00  0.00     0.041 A 
ATOM     77  F   UNL     1       6.655  10.032  10.362  1.00  0.00    -0.206 F 
ATOM     78  C   UNL     1       6.802  10.025  13.919  1.00  0.00     0.022 A 
BRANCH  75  79
ATOM     79  S   UNL     1       8.777   9.521  15.803  1.00  0.00     0.124 S 
ATOM     80  O   UNL     1       9.409   8.219  15.623  1.00  0.00    -0.237 OA
ATOM     81  O   UNL     1       9.675  10.650  16.022  1.00  0.00    -0.237 OA
ATOM     82  O   UNL     1       7.562   9.523  16.613  1.00  0.00    -0.744 OA
ENDBRANCH  75  79
ENDBRANCH  58  72
BRANCH  59  83
ATOM     83  C   UNL     1       5.764   2.121   9.211  1.00  0.00     0.023 A 
ATOM     84  C   UNL     1       5.409   1.174  10.203  1.00  0.00     0.031 A 
ATOM     85  C   UNL     1       4.726   2.529   8.342  1.00  0.00     0.131 A 
ATOM     86  C   UNL     1       4.079   0.681  10.285  1.00  0.00     0.055 A 
ATOM     87  C   UNL     1       3.418   2.043   8.430  1.00  0.00     0.041 A 
ATOM     88  F   UNL     1       4.922   3.488   7.423  1.00  0.00    -0.206 F 
ATOM     89  C   UNL     1       3.087   1.123   9.408  1.00  0.00     0.022 A 
BRANCH  86  90
ATOM     90  S   UNL     1       3.581  -0.502  11.587  1.00  0.00     0.124 S 
ATOM     91  O   UNL     1       4.329  -1.700  11.225  1.00  0.00    -0.237 OA
ATOM     92  O   UNL     1       3.994   0.179  12.808  1.00  0.00    -0.237 OA
ATOM     93  O   UNL     1       2.131  -0.613  11.414  1.00  0.00    -0.744 OA
ENDBRANCH  86  90
ENDBRANCH  59  83
BRANCH  71  94
ATOM     94  C   UNL     1      11.754   3.848  10.450  1.00  0.00     0.023 A 
ATOM     95  C   UNL     1      11.672   3.119   9.239  1.00  0.00     0.031 A 
ATOM     96  C   UNL     1      12.934   3.720  11.205  1.00  0.00     0.131 A 
ATOM     97  C   UNL     1      12.747   2.296   8.838  1.00  0.00     0.055 A 
ATOM     98  C   UNL     1      14.002   2.928  10.792  1.00  0.00     0.041 A 
ATOM     99  F   UNL     1      13.083   4.402  12.353  1.00  0.00    -0.206 F 
ATOM    100  C   UNL     1      13.911   2.208   9.608  1.00  0.00     0.022 A 
BRANCH  97 101
ATOM    101  S   UNL     1      12.651   1.299   7.312  1.00  0.00     0.124 S 
ATOM    102  O   UNL     1      11.343   0.660   7.406  1.00  0.00    -0.237 OA
ATOM    103  O   UNL     1      12.798   2.307   6.266  1.00  0.00    -0.237 OA
ATOM    104  O   UNL     1      13.786   0.381   7.434  1.00  0.00    -0.744 OA
ENDBRANCH  97 101
ENDBRANCH  71  94
ENDBRANCH  45  46
ENDBRANCH  38  40
ENDBRANCH  37  38
ENDBRANCH  36  37
ENDBRANCH  35  36
ENDBRANCH  34  35
ENDBRANCH   1  34
TORSDOF 22
