REMARK SMILES C=C(c1ccccc1)[C@@H](C(=O)OCCOCCOC(=O)c1ccc(-c2c3nc(c(-c4cc(S(=O)(=O)[O-])ccc4F)c4ccc([nH]4)c(-c4cc(S(=O)(=O)[O-])ccc4F)c4nc(c(-c5cc(S(=O)(=O)[O-])ccc5F)c5ccc2[nH]5)C=C4)C=C3)cc1)S(C)(=O)=O
REMARK SMILES IDX 16 1 15 2 14 3 13 4 12 5 10 6 11 7 9 8 2 9 1 10 3 11 4 12
REMARK SMILES IDX 8 13 5 14 7 15 6 16 84 17 85 18 86 19 87 20 17 21 18 22
REMARK SMILES IDX 19 23 20 24 21 25 22 26 83 27 23 28 82 29 24 30 25 31 26 32
REMARK SMILES IDX 76 33 27 34 81 35 75 36 77 37 28 38 80 39 74 40 73 41 29 43
REMARK SMILES IDX 61 44 41 45 60 46 42 47 45 48 59 49 78 50 43 51 44 52 58 54
REMARK SMILES IDX 79 55 46 56 30 57 31 58 39 59 32 60 38 61 40 62 37 63 33 64
REMARK SMILES IDX 34 65 35 66 36 67 62 68 63 69 71 70 64 71 70 72 72 73 69 74
REMARK SMILES IDX 65 75 66 76 67 77 68 78 47 79 48 80 56 81 49 82 55 83 57 84
REMARK SMILES IDX 54 85 50 86 51 87 52 88 53 89
REMARK H PARENT 77 42 45 53
REMARK Flexibility Score: inf
ROOT
ATOM      1  C   UNL     1       3.739  -1.217  -1.330  1.00  0.00     0.202 C 
ENDROOT
BRANCH   1   2
ATOM      2  O   UNL     1       4.231  -2.431  -1.893  1.00  0.00    -0.374 OA
BRANCH   2   3
ATOM      3  C   UNL     1       3.299  -3.257  -2.584  1.00  0.00     0.202 C 
BRANCH   3   4
ATOM      4  C   UNL     1       2.300  -4.055  -1.739  1.00  0.00     0.261 C 
BRANCH   4   5
ATOM      5  O   UNL     1       1.524  -3.229  -0.849  1.00  0.00    -0.462 OA
BRANCH   5   6
ATOM      6  C   UNL     1       1.740  -3.448   0.481  1.00  0.00     0.328 C 
ATOM      7  O   UNL     1       2.453  -4.352   0.902  1.00  0.00    -0.250 OA
BRANCH   6   8
ATOM      8  C   UNL     1       0.935  -2.531   1.391  1.00  0.00     0.247 C 
BRANCH   8   9
ATOM      9  C   UNL     1       0.259  -1.299   0.778  1.00  0.00    -0.019 C 
ATOM     10  C   UNL     1       0.835  -0.108   0.518  1.00  0.00     0.015 C 
BRANCH   9  11
ATOM     11  C   UNL     1      -1.206  -1.374   0.536  1.00  0.00    -0.021 A 
ATOM     12  C   UNL     1      -2.086  -1.804   1.540  1.00  0.00     0.008 A 
ATOM     13  C   UNL     1      -1.750  -0.957  -0.691  1.00  0.00     0.008 A 
ATOM     14  C   UNL     1      -3.468  -1.807   1.327  1.00  0.00     0.001 A 
ATOM     15  C   UNL     1      -3.132  -0.948  -0.898  1.00  0.00     0.001 A 
ATOM     16  C   UNL     1      -3.990  -1.372   0.112  1.00  0.00     0.000 A 
ENDBRANCH   9  11
ENDBRANCH   8   9
BRANCH   8  17
ATOM     17  S   UNL     1       2.024  -2.086   2.766  1.00  0.00     0.165 S 
ATOM     18  C   UNL     1       1.025  -1.057   3.814  1.00  0.00     0.159 C 
ATOM     19  O   UNL     1       2.293  -3.262   3.575  1.00  0.00    -0.228 OA
ATOM     20  O   UNL     1       3.123  -1.261   2.292  1.00  0.00    -0.228 OA
ENDBRANCH   8  17
ENDBRANCH   6   8
ENDBRANCH   5   6
ENDBRANCH   4   5
ENDBRANCH   3   4
ENDBRANCH   2   3
ENDBRANCH   1   2
BRANCH   1  21
ATOM     21  C   UNL     1       3.385  -0.080  -2.300  1.00  0.00     0.261 C 
BRANCH  21  22
ATOM     22  O   UNL     1       2.295  -0.414  -3.180  1.00  0.00    -0.460 OA
BRANCH  22  23
ATOM     23  C   UNL     1       2.637  -0.495  -4.490  1.00  0.00     0.338 C 
ATOM     24  O   UNL     1       3.727  -0.225  -4.980  1.00  0.00    -0.246 OA
BRANCH  23  25
ATOM     25  C   UNL     1       1.567  -1.147  -5.270  1.00  0.00     0.060 A 
ATOM     26  C   UNL     1       1.928  -2.240  -6.068  1.00  0.00     0.016 A 
ATOM     27  C   UNL     1       0.259  -0.657  -5.292  1.00  0.00     0.016 A 
ATOM     28  C   UNL     1       1.000  -2.814  -6.935  1.00  0.00     0.010 A 
ATOM     29  C   UNL     1      -0.670  -1.229  -6.171  1.00  0.00     0.010 A 
ATOM     30  C   UNL     1      -0.293  -2.285  -7.024  1.00  0.00    -0.014 A 
BRANCH  30  31
ATOM     31  C   UNL     1      -1.191  -2.730  -8.120  1.00  0.00     0.031 A 
ATOM     32  C   UNL     1      -1.307  -1.873  -9.354  1.00  0.00     0.074 A 
ATOM     33  C   UNL     1      -1.867  -3.891  -8.033  1.00  0.00     0.049 A 
ATOM     34  N   UNL     1      -2.056  -2.038 -10.412  1.00  0.00    -0.248 NA
ATOM     35  C   UNL     1      -0.466  -0.665  -9.395  1.00  0.00     0.031 C 
ATOM     36  C   UNL     1      -1.795  -4.826  -6.910  1.00  0.00     0.029 A 
ATOM     37  N   UNL     1      -2.753  -4.479  -8.901  1.00  0.00    -0.354 N 
ATOM     38  C   UNL     1      -1.793  -0.949 -11.238  1.00  0.00     0.074 A 
ATOM     39  C   UNL     1      -0.828  -0.120 -10.547  1.00  0.00     0.031 C 
ATOM     40  C   UNL     1      -2.618  -5.861  -7.151  1.00  0.00     0.029 A 
ATOM     41  C   UNL     1      -3.305  -5.646  -8.423  1.00  0.00     0.049 A 
ATOM     42  H   UNL     1      -2.975  -4.101  -9.783  1.00  0.00     0.167 HD
ATOM     43  C   UNL     1      -2.310  -0.669 -12.459  1.00  0.00     0.034 A 
ATOM     44  C   UNL     1      -4.273  -6.431  -8.940  1.00  0.00     0.034 A 
ATOM     45  C   UNL     1      -3.261  -1.512 -13.139  1.00  0.00     0.049 A 
ATOM     46  C   UNL     1      -4.879  -6.060 -10.275  1.00  0.00     0.074 A 
ATOM     47  C   UNL     1      -3.808  -1.347 -14.400  1.00  0.00     0.029 A 
ATOM     48  N   UNL     1      -3.817  -2.670 -12.613  1.00  0.00    -0.354 N 
ATOM     49  N   UNL     1      -4.593  -5.045 -11.060  1.00  0.00    -0.248 NA
ATOM     50  C   UNL     1      -5.931  -6.942 -10.799  1.00  0.00     0.031 C 
ATOM     51  C   UNL     1      -4.751  -2.360 -14.604  1.00  0.00     0.029 A 
ATOM     52  C   UNL     1      -4.734  -3.204 -13.505  1.00  0.00     0.049 A 
ATOM     53  H   UNL     1      -3.594  -3.055 -11.735  1.00  0.00     0.167 HD
ATOM     54  C   UNL     1      -5.403  -5.194 -12.184  1.00  0.00     0.074 A 
ATOM     55  C   UNL     1      -6.179  -6.399 -11.981  1.00  0.00     0.031 C 
ATOM     56  C   UNL     1      -5.497  -4.409 -13.288  1.00  0.00     0.034 A 
BRANCH  43  57
ATOM     57  C   UNL     1      -1.909   0.630 -13.113  1.00  0.00     0.023 A 
ATOM     58  C   UNL     1      -0.600   0.869 -13.564  1.00  0.00     0.031 A 
ATOM     59  C   UNL     1      -2.868   1.643 -13.299  1.00  0.00     0.131 A 
ATOM     60  C   UNL     1      -0.276   2.108 -14.138  1.00  0.00     0.055 A 
ATOM     61  C   UNL     1      -2.555   2.847 -13.930  1.00  0.00     0.041 A 
ATOM     62  F   UNL     1      -4.128   1.477 -12.866  1.00  0.00    -0.206 F 
ATOM     63  C   UNL     1      -1.249   3.089 -14.346  1.00  0.00     0.022 A 
BRANCH  60  64
ATOM     64  S   UNL     1       1.461   2.464 -14.521  1.00  0.00     0.124 S 
ATOM     65  O   UNL     1       2.080   2.369 -13.201  1.00  0.00    -0.237 OA
ATOM     66  O   UNL     1       1.800   1.405 -15.464  1.00  0.00    -0.237 OA
ATOM     67  O   UNL     1       1.419   3.812 -15.085  1.00  0.00    -0.744 OA
ENDBRANCH  60  64
ENDBRANCH  43  57
BRANCH  44  68
ATOM     68  C   UNL     1      -4.785  -7.613  -8.184  1.00  0.00     0.023 A 
ATOM     69  C   UNL     1      -4.702  -8.910  -8.715  1.00  0.00     0.031 A 
ATOM     70  C   UNL     1      -5.450  -7.449  -6.955  1.00  0.00     0.131 A 
ATOM     71  C   UNL     1      -5.330  -9.979  -8.054  1.00  0.00     0.055 A 
ATOM     72  C   UNL     1      -6.017  -8.525  -6.270  1.00  0.00     0.041 A 
ATOM     73  F   UNL     1      -5.564  -6.231  -6.401  1.00  0.00    -0.206 F 
ATOM     74  C   UNL     1      -5.975  -9.798  -6.829  1.00  0.00     0.022 A 
BRANCH  71  75
ATOM     75  S   UNL     1      -5.401 -11.591  -8.885  1.00  0.00     0.124 S 
ATOM     76  O   UNL     1      -6.013 -11.239 -10.162  1.00  0.00    -0.237 OA
ATOM     77  O   UNL     1      -3.993 -11.969  -8.930  1.00  0.00    -0.237 OA
ATOM     78  O   UNL     1      -6.234 -12.395  -7.994  1.00  0.00    -0.744 OA
ENDBRANCH  71  75
ENDBRANCH  44  68
BRANCH  56  79
ATOM     79  C   UNL     1      -6.428  -4.866 -14.383  1.00  0.00     0.023 A 
ATOM     80  C   UNL     1      -7.823  -4.885 -14.212  1.00  0.00     0.031 A 
ATOM     81  C   UNL     1      -5.907  -5.286 -15.621  1.00  0.00     0.131 A 
ATOM     82  C   UNL     1      -8.647  -5.363 -15.243  1.00  0.00     0.055 A 
ATOM     83  C   UNL     1      -6.735  -5.704 -16.663  1.00  0.00     0.041 A 
ATOM     84  F   UNL     1      -4.582  -5.287 -15.839  1.00  0.00    -0.206 F 
ATOM     85  C   UNL     1      -8.112  -5.755 -16.473  1.00  0.00     0.022 A 
BRANCH  82  86
ATOM     86  S   UNL     1     -10.424  -5.539 -14.928  1.00  0.00     0.124 S 
ATOM     87  O   UNL     1     -10.443  -6.468 -13.803  1.00  0.00    -0.237 OA
ATOM     88  O   UNL     1     -10.827  -4.168 -14.630  1.00  0.00    -0.237 OA
ATOM     89  O   UNL     1     -10.944  -6.076 -16.185  1.00  0.00    -0.744 OA
ENDBRANCH  82  86
ENDBRANCH  56  79
ENDBRANCH  30  31
ENDBRANCH  23  25
ENDBRANCH  22  23
ENDBRANCH  21  22
ENDBRANCH   1  21
TORSDOF 20
