REMARK SMILES CC(C)[C@@H](NC(=O)/C(=C\c1ccccc1F)NC(=O)c1ccccc1)C(=O)OCCOCCOC(=O)c1ccc(-c2c3nc(c(-c4cc(S(=O)(=O)[O-])ccc4F)c4ccc([nH]4)c(-c4cc(S(=O)(=O)[O-])ccc4F)c4nc(c(-c5cc(S(=O)(=O)[O-])ccc5F)c5ccc2[nH]5)C=C4)C=C3)cc1
REMARK SMILES IDX 30 1 29 2 28 3 26 4 27 5 4 6 2 7 1 8 3 9 5 10 6 11 7 13 8 14
REMARK SMILES IDX 9 15 17 16 18 17 19 19 20 20 21 21 25 22 22 23 24 24 23 25
REMARK SMILES IDX 10 26 11 27 15 28 12 29 14 30 16 31 13 32 31 33 32 34 33 35
REMARK SMILES IDX 34 36 35 37 36 38 37 39 38 40 99 41 39 42 98 43 40 44 41 45
REMARK SMILES IDX 42 46 92 47 43 48 97 49 91 50 93 51 44 52 96 53 90 54 89 55
REMARK SMILES IDX 45 57 77 58 57 59 76 60 58 61 61 62 75 63 94 64 59 65 60 66
REMARK SMILES IDX 74 68 95 69 62 70 46 71 47 72 55 73 48 74 54 75 56 76 53 77
REMARK SMILES IDX 49 78 50 79 51 80 52 81 78 82 79 83 87 84 80 85 86 86 88 87
REMARK SMILES IDX 85 88 81 89 82 90 83 91 84 92 63 93 64 94 72 95 65 96 71 97
REMARK SMILES IDX 73 98 70 99 66 100 67 101 68 102 69 103
REMARK H PARENT 5 12 17 18 93 56 61 67
REMARK Flexibility Score: inf
ROOT
ATOM      1  C   UNL     1      -1.367   5.384   2.799  1.00  0.00     0.202 C 
ENDROOT
BRANCH   1   2
ATOM      2  C   UNL     1      -1.518   3.974   3.404  1.00  0.00     0.261 C 
BRANCH   2   3
ATOM      3  O   UNL     1      -0.684   2.892   2.902  1.00  0.00    -0.462 OA
BRANCH   3   4
ATOM      4  C   UNL     1      -0.871   2.543   1.612  1.00  0.00     0.328 C 
ATOM      5  O   UNL     1      -1.386   3.261   0.770  1.00  0.00    -0.250 OA
BRANCH   4   6
ATOM      6  C   UNL     1      -0.508   1.111   1.231  1.00  0.00     0.195 C 
BRANCH   6   7
ATOM      7  C   UNL     1       0.993   0.777   1.393  1.00  0.00     0.017 C 
ATOM      8  C   UNL     1       1.308  -0.612   0.808  1.00  0.00     0.010 C 
ATOM      9  C   UNL     1       1.867   1.805   0.658  1.00  0.00     0.010 C 
ENDBRANCH   6   7
BRANCH   6  10
ATOM     10  N   UNL     1      -1.403   0.106   1.813  1.00  0.00    -0.337 N 
ATOM     11  C   UNL     1      -2.735  -0.067   1.528  1.00  0.00     0.268 C 
ATOM     12  H   UNL     1      -1.010  -0.506   2.477  1.00  0.00     0.164 HD
ATOM     13  O   UNL     1      -3.197  -1.204   1.469  1.00  0.00    -0.268 OA
BRANCH  11  14
ATOM     14  C   UNL     1      -3.630   1.136   1.459  1.00  0.00     0.107 C 
ATOM     15  C   UNL     1      -3.887   1.760   0.287  1.00  0.00     0.043 C 
BRANCH  14  16
ATOM     16  N   UNL     1      -4.144   1.677   2.628  1.00  0.00    -0.317 N 
ATOM     17  C   UNL     1      -4.125   1.267   3.946  1.00  0.00     0.255 C 
ATOM     18  H   UNL     1      -4.620   2.527   2.490  1.00  0.00     0.170 HD
ATOM     19  O   UNL     1      -4.504   2.036   4.827  1.00  0.00    -0.269 OA
BRANCH  17  20
ATOM     20  C   UNL     1      -3.745  -0.098   4.330  1.00  0.00     0.040 A 
ATOM     21  C   UNL     1      -4.734  -1.085   4.348  1.00  0.00     0.014 A 
ATOM     22  C   UNL     1      -2.433  -0.392   4.712  1.00  0.00     0.014 A 
ATOM     23  C   UNL     1      -4.389  -2.396   4.677  1.00  0.00     0.001 A 
ATOM     24  C   UNL     1      -2.090  -1.711   5.016  1.00  0.00     0.001 A 
ATOM     25  C   UNL     1      -3.065  -2.711   4.989  1.00  0.00     0.000 A 
ENDBRANCH  17  20
ENDBRANCH  14  16
BRANCH  15  26
ATOM     26  C   UNL     1      -3.276   1.463  -1.021  1.00  0.00     0.012 A 
ATOM     27  C   UNL     1      -2.522   2.468  -1.648  1.00  0.00     0.011 A 
ATOM     28  C   UNL     1      -3.336   0.212  -1.632  1.00  0.00     0.130 A 
ATOM     29  C   UNL     1      -1.711   2.179  -2.747  1.00  0.00     0.001 A 
ATOM     30  C   UNL     1      -2.557  -0.076  -2.751  1.00  0.00     0.040 A 
ATOM     31  F   UNL     1      -4.140  -0.744  -1.148  1.00  0.00    -0.206 F 
ATOM     32  C   UNL     1      -1.713   0.897  -3.287  1.00  0.00     0.003 A 
ENDBRANCH  15  26
ENDBRANCH  11  14
ENDBRANCH   6  10
ENDBRANCH   4   6
ENDBRANCH   3   4
ENDBRANCH   2   3
ENDBRANCH   1   2
BRANCH   1  33
ATOM     33  O   UNL     1      -1.836   5.507   1.460  1.00  0.00    -0.374 OA
BRANCH  33  34
ATOM     34  C   UNL     1      -1.044   6.309   0.573  1.00  0.00     0.202 C 
BRANCH  34  35
ATOM     35  C   UNL     1       0.340   5.736   0.180  1.00  0.00     0.261 C 
BRANCH  35  36
ATOM     36  O   UNL     1       1.265   5.693   1.279  1.00  0.00    -0.460 OA
BRANCH  36  37
ATOM     37  C   UNL     1       1.620   6.914   1.752  1.00  0.00     0.338 C 
ATOM     38  O   UNL     1       1.475   7.981   1.179  1.00  0.00    -0.246 OA
BRANCH  37  39
ATOM     39  C   UNL     1       1.885   6.765   3.197  1.00  0.00     0.060 A 
ATOM     40  C   UNL     1       1.179   7.609   4.065  1.00  0.00     0.016 A 
ATOM     41  C   UNL     1       2.703   5.746   3.699  1.00  0.00     0.016 A 
ATOM     42  C   UNL     1       1.327   7.468   5.439  1.00  0.00     0.010 A 
ATOM     43  C   UNL     1       2.872   5.621   5.080  1.00  0.00     0.010 A 
ATOM     44  C   UNL     1       2.216   6.510   5.948  1.00  0.00    -0.014 A 
BRANCH  44  45
ATOM     45  C   UNL     1       2.664   6.668   7.349  1.00  0.00     0.031 A 
ATOM     46  C   UNL     1       3.831   7.588   7.586  1.00  0.00     0.074 A 
ATOM     47  C   UNL     1       1.993   6.114   8.373  1.00  0.00     0.049 A 
ATOM     48  N   UNL     1       4.350   8.000   8.710  1.00  0.00    -0.248 NA
ATOM     49  C   UNL     1       4.487   8.133   6.383  1.00  0.00     0.031 C 
ATOM     50  C   UNL     1       0.811   5.262   8.249  1.00  0.00     0.029 A 
ATOM     51  N   UNL     1       2.194   6.217   9.726  1.00  0.00    -0.354 N 
ATOM     52  C   UNL     1       5.366   8.878   8.350  1.00  0.00     0.074 A 
ATOM     53  C   UNL     1       5.426   8.901   6.907  1.00  0.00     0.031 C 
ATOM     54  C   UNL     1       0.377   4.938   9.481  1.00  0.00     0.029 A 
ATOM     55  C   UNL     1       1.260   5.543  10.477  1.00  0.00     0.049 A 
ATOM     56  H   UNL     1       2.938   6.726  10.122  1.00  0.00     0.167 HD
ATOM     57  C   UNL     1       6.167   9.615   9.153  1.00  0.00     0.034 A 
ATOM     58  C   UNL     1       1.138   5.436  11.816  1.00  0.00     0.034 A 
ATOM     59  C   UNL     1       6.122   9.550  10.587  1.00  0.00     0.049 A 
ATOM     60  C   UNL     1       2.128   6.162  12.694  1.00  0.00     0.074 A 
ATOM     61  C   UNL     1       6.913  10.212  11.507  1.00  0.00     0.029 A 
ATOM     62  N   UNL     1       5.239   8.758  11.309  1.00  0.00    -0.354 N 
ATOM     63  N   UNL     1       3.107   6.964  12.342  1.00  0.00    -0.248 NA
ATOM     64  C   UNL     1       2.004   5.965  14.145  1.00  0.00     0.031 C 
ATOM     65  C   UNL     1       6.546   9.776  12.784  1.00  0.00     0.029 A 
ATOM     66  C   UNL     1       5.486   8.890  12.663  1.00  0.00     0.049 A 
ATOM     67  H   UNL     1       4.540   8.187  10.915  1.00  0.00     0.167 HD
ATOM     68  C   UNL     1       3.705   7.380  13.527  1.00  0.00     0.074 A 
ATOM     69  C   UNL     1       2.977   6.742  14.606  1.00  0.00     0.031 C 
ATOM     70  C   UNL     1       4.754   8.221  13.711  1.00  0.00     0.034 A 
BRANCH  57  71
ATOM     71  C   UNL     1       7.180  10.502   8.482  1.00  0.00     0.023 A 
ATOM     72  C   UNL     1       6.788  11.636   7.748  1.00  0.00     0.031 A 
ATOM     73  C   UNL     1       8.547  10.185   8.538  1.00  0.00     0.131 A 
ATOM     74  C   UNL     1       7.751  12.384   7.057  1.00  0.00     0.055 A 
ATOM     75  C   UNL     1       9.507  10.971   7.899  1.00  0.00     0.041 A 
ATOM     76  F   UNL     1       8.968   9.095   9.198  1.00  0.00    -0.206 F 
ATOM     77  C   UNL     1       9.111  12.073   7.146  1.00  0.00     0.022 A 
BRANCH  74  78
ATOM     78  S   UNL     1       7.197  13.716   5.957  1.00  0.00     0.124 S 
ATOM     79  O   UNL     1       6.479  12.968   4.929  1.00  0.00    -0.237 OA
ATOM     80  O   UNL     1       6.377  14.538   6.840  1.00  0.00    -0.237 OA
ATOM     81  O   UNL     1       8.445  14.334   5.513  1.00  0.00    -0.744 OA
ENDBRANCH  74  78
ENDBRANCH  57  71
BRANCH  58  82
ATOM     82  C   UNL     1       0.055   4.599  12.405  1.00  0.00     0.023 A 
ATOM     83  C   UNL     1      -1.014   5.175  13.110  1.00  0.00     0.031 A 
ATOM     84  C   UNL     1       0.078   3.199  12.265  1.00  0.00     0.131 A 
ATOM     85  C   UNL     1      -2.013   4.352  13.658  1.00  0.00     0.055 A 
ATOM     86  C   UNL     1      -0.933   2.389  12.784  1.00  0.00     0.041 A 
ATOM     87  F   UNL     1       1.079   2.601  11.601  1.00  0.00    -0.206 F 
ATOM     88  C   UNL     1      -1.986   2.965  13.489  1.00  0.00     0.022 A 
BRANCH  85  89
ATOM     89  S   UNL     1      -3.351   5.117  14.615  1.00  0.00     0.124 S 
ATOM     90  O   UNL     1      -2.627   5.654  15.762  1.00  0.00    -0.237 OA
ATOM     91  O   UNL     1      -3.880   6.098  13.673  1.00  0.00    -0.237 OA
ATOM     92  O   UNL     1      -4.243   3.998  14.909  1.00  0.00    -0.744 OA
ENDBRANCH  85  89
ENDBRANCH  58  82
BRANCH  70  93
ATOM     93  C   UNL     1       5.175   8.508  15.125  1.00  0.00     0.023 A 
ATOM     94  C   UNL     1       5.894   7.564  15.875  1.00  0.00     0.031 A 
ATOM     95  C   UNL     1       4.927   9.770  15.693  1.00  0.00     0.131 A 
ATOM     96  C   UNL     1       6.330   7.893  17.166  1.00  0.00     0.055 A 
ATOM     97  C   UNL     1       5.397  10.104  16.962  1.00  0.00     0.041 A 
ATOM     98  F   UNL     1       4.253  10.706  15.005  1.00  0.00    -0.206 F 
ATOM     99  C   UNL     1       6.102   9.162  17.707  1.00  0.00     0.022 A 
BRANCH  96 100
ATOM    100  S   UNL     1       7.202   6.636  18.139  1.00  0.00     0.124 S 
ATOM    101  O   UNL     1       6.146   5.658  18.382  1.00  0.00    -0.237 OA
ATOM    102  O   UNL     1       8.265   6.213  17.234  1.00  0.00    -0.237 OA
ATOM    103  O   UNL     1       7.653   7.369  19.321  1.00  0.00    -0.744 OA
ENDBRANCH  96 100
ENDBRANCH  70  93
ENDBRANCH  44  45
ENDBRANCH  37  39
ENDBRANCH  36  37
ENDBRANCH  35  36
ENDBRANCH  34  35
ENDBRANCH  33  34
ENDBRANCH   1  33
TORSDOF 23
