REMARK SMILES CC1(C)CCCC[C@@]1(C(=O)OCCOCCOC(=O)c1ccc(-c2c3nc(c(-c4cc(S(=O)(=O)[O-])ccc4F)c4ccc([nH]4)c(-c4cc(S(=O)(=O)[O-])ccc4F)c4nc(c(-c5cc(S(=O)(=O)[O-])ccc5F)c5ccc2[nH]5)C=C4)C=C3)cc1)[NH+]1CC[NH2+]CC1
REMARK SMILES IDX 15 1 14 2 13 3 12 4 11 5 9 6 10 7 8 8 1 9 2 10 3 11 4 12
REMARK SMILES IDX 5 13 7 14 6 15 83 16 84 17 88 18 85 20 87 21 86 22 16 25
REMARK SMILES IDX 17 26 18 27 19 28 20 29 21 30 82 31 22 32 81 33 23 34 24 35
REMARK SMILES IDX 25 36 75 37 26 38 80 39 74 40 76 41 27 42 79 43 73 44 72 45
REMARK SMILES IDX 28 47 60 48 40 49 59 50 41 51 44 52 58 53 77 54 42 55 43 56
REMARK SMILES IDX 57 58 78 59 45 60 29 61 30 62 38 63 31 64 37 65 39 66 36 67
REMARK SMILES IDX 32 68 33 69 34 70 35 71 61 72 62 73 70 74 63 75 69 76 71 77
REMARK SMILES IDX 68 78 64 79 65 80 66 81 67 82 46 83 47 84 55 85 48 86 54 87
REMARK SMILES IDX 56 88 53 89 49 90 50 91 51 92 52 93
REMARK H PARENT 83 19 86 23 86 24 76 46 44 57
REMARK Flexibility Score: inf
ROOT
ATOM      1  C   UNL     1       1.245   4.242  -4.399  1.00  0.00     0.202 C 
ENDROOT
BRANCH   1   2
ATOM      2  O   UNL     1      -0.106   4.698  -4.334  1.00  0.00    -0.374 OA
BRANCH   2   3
ATOM      3  C   UNL     1      -0.431   5.685  -3.363  1.00  0.00     0.202 C 
BRANCH   3   4
ATOM      4  C   UNL     1      -0.529   5.280  -1.883  1.00  0.00     0.261 C 
BRANCH   4   5
ATOM      5  O   UNL     1       0.502   4.423  -1.369  1.00  0.00    -0.459 OA
BRANCH   5   6
ATOM      6  C   UNL     1       0.224   3.089  -1.505  1.00  0.00     0.368 C 
ATOM      7  O   UNL     1      -0.707   2.696  -2.199  1.00  0.00    -0.245 OA
BRANCH   6   8
ATOM      8  C   UNL     1       1.203   2.143  -0.665  1.00  0.00     0.201 C 
ATOM      9  C   UNL     1       1.128  -0.294   0.495  1.00  0.00     0.018 C 
ATOM     10  C   UNL     1       0.386   0.748  -0.402  1.00  0.00     0.031 C 
ATOM     11  C   UNL     1       0.023  -0.017  -1.705  1.00  0.00     0.018 C 
ATOM     12  C   UNL     1      -0.938   1.077   0.364  1.00  0.00     0.013 C 
ATOM     13  C   UNL     1      -0.687   1.773   1.699  1.00  0.00     0.001 C 
ATOM     14  C   UNL     1       1.430   2.827   0.728  1.00  0.00     0.082 C 
ATOM     15  C   UNL     1       0.153   3.030   1.549  1.00  0.00     0.007 C 
BRANCH   8  16
ATOM     16  N   UNL     1       2.504   2.031  -1.457  1.00  0.00    -0.311 N 
ATOM     17  C   UNL     1       3.369   0.877  -1.156  1.00  0.00     0.325 C 
ATOM     18  C   UNL     1       3.356   3.252  -1.431  1.00  0.00     0.325 C 
ATOM     19  H   UNL     1       2.116   1.893  -2.391  1.00  0.00     0.349 HD
ATOM     20  C   UNL     1       4.663   0.799  -2.008  1.00  0.00     0.322 C 
ATOM     21  C   UNL     1       4.596   3.146  -2.352  1.00  0.00     0.322 C 
ATOM     22  N   UNL     1       5.470   2.024  -1.981  1.00  0.00    -0.337 N 
ATOM     23  H   UNL     1       6.238   1.948  -2.648  1.00  0.00     0.346 HD
ATOM     24  H   UNL     1       5.864   2.171  -1.052  1.00  0.00     0.346 HD
ENDBRANCH   8  16
ENDBRANCH   6   8
ENDBRANCH   5   6
ENDBRANCH   4   5
ENDBRANCH   3   4
ENDBRANCH   2   3
ENDBRANCH   1   2
BRANCH   1  25
ATOM     25  C   UNL     1       2.307   5.287  -4.750  1.00  0.00     0.261 C 
BRANCH  25  26
ATOM     26  O   UNL     1       2.474   6.249  -3.688  1.00  0.00    -0.460 OA
BRANCH  26  27
ATOM     27  C   UNL     1       2.539   7.532  -4.122  1.00  0.00     0.338 C 
ATOM     28  O   UNL     1       2.653   7.906  -5.281  1.00  0.00    -0.246 OA
BRANCH  27  29
ATOM     29  C   UNL     1       2.244   8.467  -3.023  1.00  0.00     0.060 A 
ATOM     30  C   UNL     1       1.100   9.265  -3.152  1.00  0.00     0.016 A 
ATOM     31  C   UNL     1       3.124   8.658  -1.956  1.00  0.00     0.016 A 
ATOM     32  C   UNL     1       0.868  10.303  -2.254  1.00  0.00     0.010 A 
ATOM     33  C   UNL     1       2.891   9.708  -1.056  1.00  0.00     0.010 A 
ATOM     34  C   UNL     1       1.788  10.565  -1.229  1.00  0.00    -0.014 A 
BRANCH  34  35
ATOM     35  C   UNL     1       1.656  11.835  -0.468  1.00  0.00     0.031 A 
ATOM     36  C   UNL     1       2.499  13.019  -0.872  1.00  0.00     0.074 A 
ATOM     37  C   UNL     1       0.739  11.960   0.510  1.00  0.00     0.049 A 
ATOM     38  N   UNL     1       2.487  14.242  -0.407  1.00  0.00    -0.248 NA
ATOM     39  C   UNL     1       3.482  12.795  -1.943  1.00  0.00     0.031 C 
ATOM     40  C   UNL     1      -0.152  10.895   0.969  1.00  0.00     0.029 A 
ATOM     41  N   UNL     1       0.399  13.040   1.287  1.00  0.00    -0.354 N 
ATOM     42  C   UNL     1       3.458  14.932  -1.125  1.00  0.00     0.074 A 
ATOM     43  C   UNL     1       4.061  13.983  -2.036  1.00  0.00     0.031 C 
ATOM     44  C   UNL     1      -0.935  11.375   1.952  1.00  0.00     0.029 A 
ATOM     45  C   UNL     1      -0.587  12.771   2.208  1.00  0.00     0.049 A 
ATOM     46  H   UNL     1       0.822  13.924   1.193  1.00  0.00     0.167 HD
ATOM     47  C   UNL     1       3.809  16.239  -1.038  1.00  0.00     0.034 A 
ATOM     48  C   UNL     1      -1.136  13.558   3.157  1.00  0.00     0.034 A 
ATOM     49  C   UNL     1       3.195  17.180  -0.134  1.00  0.00     0.049 A 
ATOM     50  C   UNL     1      -0.693  14.999   3.260  1.00  0.00     0.074 A 
ATOM     51  C   UNL     1       3.438  18.538  -0.011  1.00  0.00     0.029 A 
ATOM     52  N   UNL     1       2.231  16.863   0.812  1.00  0.00    -0.354 N 
ATOM     53  N   UNL     1       0.186  15.649   2.532  1.00  0.00    -0.248 NA
ATOM     54  C   UNL     1      -1.330  15.816   4.303  1.00  0.00     0.031 C 
ATOM     55  C   UNL     1       2.678  19.024   1.058  1.00  0.00     0.029 A 
ATOM     56  C   UNL     1       1.903  17.989   1.553  1.00  0.00     0.049 A 
ATOM     57  H   UNL     1       1.837  15.970   0.939  1.00  0.00     0.167 HD
ATOM     58  C   UNL     1       0.186  16.956   3.015  1.00  0.00     0.074 A 
ATOM     59  C   UNL     1      -0.798  17.007   4.075  1.00  0.00     0.031 C 
ATOM     60  C   UNL     1       0.931  18.021   2.620  1.00  0.00     0.034 A 
BRANCH  47  61
ATOM     61  C   UNL     1       4.944  16.721  -1.906  1.00  0.00     0.023 A 
ATOM     62  C   UNL     1       4.832  16.810  -3.304  1.00  0.00     0.031 A 
ATOM     63  C   UNL     1       6.157  17.117  -1.314  1.00  0.00     0.131 A 
ATOM     64  C   UNL     1       5.928  17.245  -4.066  1.00  0.00     0.055 A 
ATOM     65  C   UNL     1       7.222  17.606  -2.071  1.00  0.00     0.041 A 
ATOM     66  F   UNL     1       6.326  17.032   0.016  1.00  0.00    -0.206 F 
ATOM     67  C   UNL     1       7.114  17.665  -3.457  1.00  0.00     0.022 A 
BRANCH  64  68
ATOM     68  S   UNL     1       5.820  17.170  -5.875  1.00  0.00     0.124 S 
ATOM     69  O   UNL     1       5.623  15.740  -6.100  1.00  0.00    -0.237 OA
ATOM     70  O   UNL     1       4.673  18.025  -6.159  1.00  0.00    -0.237 OA
ATOM     71  O   UNL     1       7.111  17.692  -6.319  1.00  0.00    -0.744 OA
ENDBRANCH  64  68
ENDBRANCH  47  61
BRANCH  48  72
ATOM     72  C   UNL     1      -2.129  13.004   4.124  1.00  0.00     0.023 A 
ATOM     73  C   UNL     1      -3.436  13.510   4.208  1.00  0.00     0.031 A 
ATOM     74  C   UNL     1      -1.749  12.011   5.046  1.00  0.00     0.131 A 
ATOM     75  C   UNL     1      -4.294  13.068   5.228  1.00  0.00     0.055 A 
ATOM     76  C   UNL     1      -2.625  11.532   6.021  1.00  0.00     0.041 A 
ATOM     77  F   UNL     1      -0.511  11.492   5.014  1.00  0.00    -0.206 F 
ATOM     78  C   UNL     1      -3.901  12.075   6.128  1.00  0.00     0.022 A 
BRANCH  75  79
ATOM     79  S   UNL     1      -5.895  13.897   5.439  1.00  0.00     0.124 S 
ATOM     80  O   UNL     1      -5.493  15.294   5.562  1.00  0.00    -0.237 OA
ATOM     81  O   UNL     1      -6.585  13.534   4.205  1.00  0.00    -0.237 OA
ATOM     82  O   UNL     1      -6.433  13.292   6.655  1.00  0.00    -0.744 OA
ENDBRANCH  75  79
ENDBRANCH  48  72
BRANCH  60  83
ATOM     83  C   UNL     1       0.681  19.332   3.326  1.00  0.00     0.023 A 
ATOM     84  C   UNL     1       0.979  19.503   4.690  1.00  0.00     0.031 A 
ATOM     85  C   UNL     1       0.112  20.416   2.633  1.00  0.00     0.131 A 
ATOM     86  C   UNL     1       0.646  20.704   5.333  1.00  0.00     0.055 A 
ATOM     87  C   UNL     1      -0.158  21.631   3.264  1.00  0.00     0.041 A 
ATOM     88  F   UNL     1      -0.194  20.310   1.330  1.00  0.00    -0.206 F 
ATOM     89  C   UNL     1       0.094  21.775   4.625  1.00  0.00     0.022 A 
BRANCH  86  90
ATOM     90  S   UNL     1       0.845  20.811   7.133  1.00  0.00     0.124 S 
ATOM     91  O   UNL     1       0.023  19.699   7.597  1.00  0.00    -0.237 OA
ATOM     92  O   UNL     1       2.286  20.650   7.297  1.00  0.00    -0.237 OA
ATOM     93  O   UNL     1       0.330  22.141   7.457  1.00  0.00    -0.744 OA
ENDBRANCH  86  90
ENDBRANCH  60  83
ENDBRANCH  34  35
ENDBRANCH  27  29
ENDBRANCH  26  27
ENDBRANCH  25  26
ENDBRANCH   1  25
TORSDOF 18
