REMARK SMILES Cc1c(NC(=O)[C@@H]2CC=CC[C@@H]2C(=O)OCCOCCOC(=O)c2ccc(-c3c4nc(c(-c5cc(S(=O)(=O)[O-])ccc5F)c5ccc([nH]5)c(-c5cc(S(=O)(=O)[O-])ccc5F)c5nc(c(-c6cc(S(=O)(=O)[O-])ccc6F)c6ccc3[nH]6)C=C5)C=C4)cc2)cccc1C(=O)N1CCOCC1
REMARK SMILES IDX 18 1 17 2 16 3 15 4 13 5 14 6 12 7 7 8 8 9 9 10 11 11 10 12
REMARK SMILES IDX 5 13 4 14 6 16 3 17 1 18 2 19 90 20 87 21 89 22 88 23 91 24
REMARK SMILES IDX 92 25 93 26 94 27 98 28 95 29 97 30 96 31 19 32 20 33 21 34
REMARK SMILES IDX 22 35 23 36 24 37 25 38 86 39 26 40 85 41 27 42 28 43 29 44
REMARK SMILES IDX 79 45 30 46 84 47 78 48 80 49 31 50 83 51 77 52 76 53 32 55
REMARK SMILES IDX 64 56 44 57 63 58 45 59 48 60 62 61 81 62 46 63 47 64 61 66
REMARK SMILES IDX 82 67 49 68 33 69 34 70 42 71 35 72 41 73 43 74 40 75 36 76
REMARK SMILES IDX 37 77 38 78 39 79 65 80 66 81 74 82 67 83 73 84 75 85 72 86
REMARK SMILES IDX 68 87 69 88 70 89 71 90 50 91 51 92 59 93 52 94 58 95 60 96
REMARK SMILES IDX 57 97 53 98 54 99 55 100 56 101
REMARK H PARENT 4 15 80 54 48 65
REMARK Flexibility Score: inf
ROOT
ATOM      1  O   UNL     1      -4.216  -0.642   0.557  1.00  0.00    -0.374 OA
ENDROOT
BRANCH   1   2
ATOM      2  C   UNL     1      -3.985  -1.729   1.439  1.00  0.00     0.202 C 
BRANCH   2   3
ATOM      3  C   UNL     1      -3.839  -2.933   0.571  1.00  0.00     0.261 C 
BRANCH   3   4
ATOM      4  O   UNL     1      -2.636  -2.962  -0.220  1.00  0.00    -0.463 OA
BRANCH   4   5
ATOM      5  C   UNL     1      -2.330  -2.050  -1.179  1.00  0.00     0.310 C 
ATOM      6  O   UNL     1      -3.112  -1.428  -1.858  1.00  0.00    -0.252 OA
BRANCH   5   7
ATOM      7  C   UNL     1      -0.806  -1.882  -1.239  1.00  0.00     0.116 C 
ATOM      8  C   UNL     1      -0.016  -2.798  -0.242  1.00  0.00     0.097 C 
ATOM      9  C   UNL     1      -0.409  -2.481   1.221  1.00  0.00     0.041 C 
ATOM     10  C   UNL     1      -0.502  -0.998   1.473  1.00  0.00    -0.030 C 
ATOM     11  C   UNL     1      -0.488  -0.409  -0.961  1.00  0.00     0.043 C 
ATOM     12  C   UNL     1      -0.500  -0.072   0.504  1.00  0.00    -0.030 C 
BRANCH   8  13
ATOM     13  C   UNL     1      -0.165  -4.248  -0.696  1.00  0.00     0.228 C 
ATOM     14  N   UNL     1       0.194  -5.346   0.007  1.00  0.00    -0.326 N 
ATOM     15  H   UNL     1      -0.327  -6.144  -0.243  1.00  0.00     0.169 HD
ATOM     16  O   UNL     1      -0.569  -4.485  -1.841  1.00  0.00    -0.274 OA
BRANCH  14  17
ATOM     17  C   UNL     1       1.141  -5.609   1.012  1.00  0.00     0.044 A 
ATOM     18  C   UNL     1       0.174  -7.931   1.190  1.00  0.00     0.047 C 
ATOM     19  C   UNL     1       1.263  -6.941   1.503  1.00  0.00    -0.015 A 
ATOM     20  C   UNL     1       2.385  -7.278   2.296  1.00  0.00     0.045 A 
ATOM     21  C   UNL     1       2.038  -4.633   1.443  1.00  0.00     0.026 A 
ATOM     22  C   UNL     1       3.226  -6.241   2.748  1.00  0.00     0.014 A 
ATOM     23  C   UNL     1       3.031  -4.926   2.360  1.00  0.00     0.003 A 
BRANCH  20  24
ATOM     24  C   UNL     1       2.754  -8.633   2.834  1.00  0.00     0.254 C 
ATOM     25  O   UNL     1       3.540  -8.697   3.784  1.00  0.00    -0.269 OA
ATOM     26  N   UNL     1       2.182  -9.795   2.342  1.00  0.00    -0.334 N 
ATOM     27  C   UNL     1       2.249 -10.248   0.947  1.00  0.00     0.148 C 
ATOM     28  C   UNL     1       1.952 -10.866   3.302  1.00  0.00     0.148 C 
ATOM     29  C   UNL     1       1.077 -11.191   0.605  1.00  0.00     0.181 C 
ATOM     30  C   UNL     1       0.717 -11.660   2.895  1.00  0.00     0.181 C 
ATOM     31  O   UNL     1       0.912 -12.230   1.589  1.00  0.00    -0.378 OA
ENDBRANCH  20  24
ENDBRANCH  14  17
ENDBRANCH   8  13
ENDBRANCH   5   7
ENDBRANCH   4   5
ENDBRANCH   3   4
ENDBRANCH   2   3
ENDBRANCH   1   2
BRANCH   1  32
ATOM     32  C   UNL     1      -4.283   0.622   1.173  1.00  0.00     0.202 C 
BRANCH  32  33
ATOM     33  C   UNL     1      -5.396   0.711   2.224  1.00  0.00     0.261 C 
BRANCH  33  34
ATOM     34  O   UNL     1      -6.693   0.570   1.603  1.00  0.00    -0.460 OA
BRANCH  34  35
ATOM     35  C   UNL     1      -7.298  -0.643   1.758  1.00  0.00     0.338 C 
ATOM     36  O   UNL     1      -7.639  -1.120   2.829  1.00  0.00    -0.246 OA
BRANCH  35  37
ATOM     37  C   UNL     1      -7.361  -1.361   0.454  1.00  0.00     0.060 A 
ATOM     38  C   UNL     1      -7.677  -2.733   0.406  1.00  0.00     0.016 A 
ATOM     39  C   UNL     1      -6.823  -0.729  -0.664  1.00  0.00     0.016 A 
ATOM     40  C   UNL     1      -7.305  -3.497  -0.708  1.00  0.00     0.010 A 
ATOM     41  C   UNL     1      -6.333  -1.507  -1.684  1.00  0.00     0.010 A 
ATOM     42  C   UNL     1      -6.551  -2.891  -1.707  1.00  0.00    -0.014 A 
BRANCH  42  43
ATOM     43  C   UNL     1      -5.893  -3.569  -2.818  1.00  0.00     0.031 A 
ATOM     44  C   UNL     1      -6.402  -3.265  -4.164  1.00  0.00     0.074 A 
ATOM     45  C   UNL     1      -4.727  -4.239  -2.647  1.00  0.00     0.049 A 
ATOM     46  N   UNL     1      -6.147  -3.979  -5.199  1.00  0.00    -0.248 NA
ATOM     47  C   UNL     1      -7.327  -2.164  -4.462  1.00  0.00     0.031 C 
ATOM     48  C   UNL     1      -3.704  -4.610  -3.621  1.00  0.00     0.029 A 
ATOM     49  N   UNL     1      -4.223  -4.792  -1.468  1.00  0.00    -0.354 N 
ATOM     50  C   UNL     1      -6.450  -3.195  -6.282  1.00  0.00     0.074 A 
ATOM     51  C   UNL     1      -7.405  -2.245  -5.792  1.00  0.00     0.031 C 
ATOM     52  C   UNL     1      -2.920  -5.572  -3.090  1.00  0.00     0.029 A 
ATOM     53  C   UNL     1      -3.480  -5.929  -1.790  1.00  0.00     0.049 A 
ATOM     54  H   UNL     1      -4.368  -4.438  -0.561  1.00  0.00     0.167 HD
ATOM     55  C   UNL     1      -5.671  -3.309  -7.393  1.00  0.00     0.034 A 
ATOM     56  C   UNL     1      -3.914  -7.136  -1.341  1.00  0.00     0.034 A 
ATOM     57  C   UNL     1      -4.764  -4.475  -7.279  1.00  0.00     0.049 A 
ATOM     58  C   UNL     1      -4.382  -7.905  -2.559  1.00  0.00     0.074 A 
ATOM     59  C   UNL     1      -3.393  -4.663  -7.283  1.00  0.00     0.029 A 
ATOM     60  N   UNL     1      -5.292  -5.688  -6.826  1.00  0.00    -0.354 N 
ATOM     61  N   UNL     1      -4.570  -7.335  -3.722  1.00  0.00    -0.248 NA
ATOM     62  C   UNL     1      -4.620  -9.337  -2.614  1.00  0.00     0.031 C 
ATOM     63  C   UNL     1      -3.122  -5.975  -6.755  1.00  0.00     0.029 A 
ATOM     64  C   UNL     1      -4.324  -6.604  -6.469  1.00  0.00     0.049 A 
ATOM     65  H   UNL     1      -6.258  -5.870  -6.767  1.00  0.00     0.167 HD
ATOM     66  C   UNL     1      -4.770  -8.260  -4.690  1.00  0.00     0.074 A 
ATOM     67  C   UNL     1      -4.936  -9.493  -3.916  1.00  0.00     0.031 C 
ATOM     68  C   UNL     1      -4.736  -7.941  -6.027  1.00  0.00     0.034 A 
BRANCH  55  69
ATOM     69  C   UNL     1      -5.603  -2.257  -8.493  1.00  0.00     0.023 A 
ATOM     70  C   UNL     1      -4.840  -2.532  -9.644  1.00  0.00     0.031 A 
ATOM     71  C   UNL     1      -6.182  -0.962  -8.466  1.00  0.00     0.131 A 
ATOM     72  C   UNL     1      -4.705  -1.585 -10.684  1.00  0.00     0.055 A 
ATOM     73  C   UNL     1      -6.106  -0.050  -9.528  1.00  0.00     0.041 A 
ATOM     74  F   UNL     1      -6.800  -0.458  -7.393  1.00  0.00    -0.206 F 
ATOM     75  C   UNL     1      -5.362  -0.358 -10.647  1.00  0.00     0.022 A 
BRANCH  72  76
ATOM     76  S   UNL     1      -3.617  -1.953 -12.084  1.00  0.00     0.124 S 
ATOM     77  O   UNL     1      -2.305  -1.999 -11.445  1.00  0.00    -0.237 OA
ATOM     78  O   UNL     1      -4.149  -3.222 -12.567  1.00  0.00    -0.237 OA
ATOM     79  O   UNL     1      -3.824  -0.818 -12.983  1.00  0.00    -0.744 OA
ENDBRANCH  72  76
ENDBRANCH  55  69
BRANCH  56  80
ATOM     80  C   UNL     1      -4.512  -7.043   0.049  1.00  0.00     0.023 A 
ATOM     81  C   UNL     1      -3.672  -6.648   1.132  1.00  0.00     0.031 A 
ATOM     82  C   UNL     1      -5.888  -6.896   0.256  1.00  0.00     0.131 A 
ATOM     83  C   UNL     1      -4.189  -6.055   2.306  1.00  0.00     0.055 A 
ATOM     84  C   UNL     1      -6.404  -6.292   1.421  1.00  0.00     0.041 A 
ATOM     85  F   UNL     1      -6.757  -7.205  -0.717  1.00  0.00    -0.206 F 
ATOM     86  C   UNL     1      -5.558  -5.839   2.435  1.00  0.00     0.022 A 
BRANCH  83  87
ATOM     87  S   UNL     1      -3.085  -5.287   3.556  1.00  0.00     0.124 S 
ATOM     88  O   UNL     1      -3.336  -6.101   4.739  1.00  0.00    -0.237 OA
ATOM     89  O   UNL     1      -1.758  -5.422   2.965  1.00  0.00    -0.237 OA
ATOM     90  O   UNL     1      -3.579  -3.912   3.627  1.00  0.00    -0.744 OA
ENDBRANCH  83  87
ENDBRANCH  56  80
BRANCH  68  91
ATOM     91  C   UNL     1      -5.180  -8.924  -7.067  1.00  0.00     0.023 A 
ATOM     92  C   UNL     1      -4.978 -10.290  -6.900  1.00  0.00     0.031 A 
ATOM     93  C   UNL     1      -5.912  -8.525  -8.207  1.00  0.00     0.131 A 
ATOM     94  C   UNL     1      -5.724 -11.198  -7.653  1.00  0.00     0.055 A 
ATOM     95  C   UNL     1      -6.527  -9.441  -9.056  1.00  0.00     0.041 A 
ATOM     96  F   UNL     1      -6.122  -7.240  -8.519  1.00  0.00    -0.206 F 
ATOM     97  C   UNL     1      -6.488 -10.789  -8.743  1.00  0.00     0.022 A 
BRANCH  94  98
ATOM     98  S   UNL     1      -5.830 -12.889  -7.030  1.00  0.00     0.124 S 
ATOM     99  O   UNL     1      -4.429 -13.245  -6.829  1.00  0.00    -0.237 OA
ATOM    100  O   UNL     1      -6.611 -12.700  -5.809  1.00  0.00    -0.237 OA
ATOM    101  O   UNL     1      -6.513 -13.605  -8.103  1.00  0.00    -0.744 OA
ENDBRANCH  94  98
ENDBRANCH  68  91
ENDBRANCH  42  43
ENDBRANCH  35  37
ENDBRANCH  34  35
ENDBRANCH  33  34
ENDBRANCH  32  33
ENDBRANCH   1  32
TORSDOF 20
