REMARK SMILES CC(C)(C)[NH2+]CC(=O)N1Cc2nc[nH]c2C[C@@H]1C(=O)OCCOCCOC(=O)c1ccc(-c2c3nc(c(-c4cc(S(=O)(=O)[O-])ccc4F)c4ccc([nH]4)c(-c4cc(S(=O)(=O)[O-])ccc4F)c4nc(c(-c5cc(S(=O)(=O)[O-])ccc5F)c5ccc2[nH]5)C=C4)C=C3)cc1
REMARK SMILES IDX 22 1 21 2 20 3 18 4 19 5 17 6 9 7 10 8 11 9 16 10 12 11
REMARK SMILES IDX 15 12 13 13 14 14 7 16 8 17 6 18 5 19 2 22 1 23 3 24 4 25
REMARK SMILES IDX 23 26 24 27 25 28 26 29 27 30 28 31 29 32 30 33 91 34 31 35
REMARK SMILES IDX 90 36 32 37 33 38 34 39 84 40 35 41 89 42 83 43 85 44 36 45
REMARK SMILES IDX 88 46 82 47 81 48 37 50 69 51 49 52 68 53 50 54 53 55 67 56
REMARK SMILES IDX 86 57 51 58 52 59 66 61 87 62 54 63 38 64 39 65 47 66 40 67
REMARK SMILES IDX 46 68 48 69 45 70 41 71 42 72 43 73 44 74 70 75 71 76 79 77
REMARK SMILES IDX 72 78 78 79 80 80 77 81 73 82 74 83 75 84 76 85 55 86 56 87
REMARK SMILES IDX 64 88 57 89 63 90 65 91 62 92 58 93 59 94 60 95 61 96
REMARK H PARENT 14 15 5 20 5 21 85 49 53 60
REMARK Flexibility Score: inf
ROOT
ATOM      1  C   UNL     1      -1.542  -0.341  -1.308  1.00  0.00     0.202 C 
ENDROOT
BRANCH   1   2
ATOM      2  C   UNL     1      -1.690  -0.390   0.310  1.00  0.00     0.261 C 
BRANCH   2   3
ATOM      3  O   UNL     1      -0.510  -0.358   1.220  1.00  0.00    -0.462 OA
BRANCH   3   4
ATOM      4  C   UNL     1      -0.502  -1.234   2.290  1.00  0.00     0.329 C 
ATOM      5  O   UNL     1      -1.552  -1.740   2.694  1.00  0.00    -0.250 OA
BRANCH   4   6
ATOM      6  C   UNL     1       0.906  -1.466   3.099  1.00  0.00     0.201 C 
ATOM      7  N   UNL     1       2.402  -1.833   2.657  1.00  0.00    -0.318 N 
ATOM      8  C   UNL     1       3.393  -1.386   3.667  1.00  0.00     0.178 C 
ATOM      9  C   UNL     1       2.970  -1.902   5.011  1.00  0.00     0.081 A 
ATOM     10  C   UNL     1       0.538  -2.318   4.375  1.00  0.00     0.093 C 
ATOM     11  N   UNL     1       3.783  -2.056   6.104  1.00  0.00    -0.240 NA
ATOM     12  C   UNL     1       1.688  -2.310   5.310  1.00  0.00     0.042 A 
ATOM     13  C   UNL     1       3.010  -2.578   7.034  1.00  0.00     0.197 A 
ATOM     14  N   UNL     1       1.725  -2.759   6.594  1.00  0.00    -0.348 N 
ATOM     15  H   UNL     1       0.975  -3.139   7.107  1.00  0.00     0.167 HD
BRANCH   7  16
ATOM     16  C   UNL     1       2.823  -3.106   2.150  1.00  0.00     0.278 C 
ATOM     17  O   UNL     1       2.914  -4.107   2.867  1.00  0.00    -0.268 OA
BRANCH  16  18
ATOM     18  C   UNL     1       3.265  -3.209   0.652  1.00  0.00     0.362 C 
BRANCH  18  19
ATOM     19  N   UNL     1       2.237  -3.840  -0.249  1.00  0.00    -0.334 N 
ATOM     20  H   UNL     1       2.535  -3.722  -1.217  1.00  0.00     0.347 HD
ATOM     21  H   UNL     1       2.166  -4.825   0.004  1.00  0.00     0.347 HD
BRANCH  19  22
ATOM     22  C   UNL     1       0.906  -3.240  -0.089  1.00  0.00     0.088 C 
ATOM     23  C   UNL     1       1.270  -1.760  -0.146  1.00  0.00     0.078 C 
ATOM     24  C   UNL     1       0.212  -3.911   1.114  1.00  0.00     0.078 C 
ATOM     25  C   UNL     1      -0.117  -3.561  -1.202  1.00  0.00     0.078 C 
ENDBRANCH  19  22
ENDBRANCH  18  19
ENDBRANCH  16  18
ENDBRANCH   7  16
ENDBRANCH   4   6
ENDBRANCH   3   4
ENDBRANCH   2   3
ENDBRANCH   1   2
BRANCH   1  26
ATOM     26  O   UNL     1      -0.464  -0.973  -1.997  1.00  0.00    -0.374 OA
BRANCH  26  27
ATOM     27  C   UNL     1       0.540  -0.361  -2.831  1.00  0.00     0.202 C 
BRANCH  27  28
ATOM     28  C   UNL     1       1.458   0.742  -2.261  1.00  0.00     0.261 C 
BRANCH  28  29
ATOM     29  O   UNL     1       0.696   1.696  -1.572  1.00  0.00    -0.460 OA
BRANCH  29  30
ATOM     30  C   UNL     1      -0.275   2.214  -2.355  1.00  0.00     0.338 C 
ATOM     31  O   UNL     1      -0.397   2.117  -3.556  1.00  0.00    -0.246 OA
BRANCH  30  32
ATOM     32  C   UNL     1      -1.243   2.869  -1.459  1.00  0.00     0.060 A 
ATOM     33  C   UNL     1      -2.010   3.769  -2.174  1.00  0.00     0.016 A 
ATOM     34  C   UNL     1      -0.840   3.054  -0.126  1.00  0.00     0.016 A 
ATOM     35  C   UNL     1      -1.803   5.059  -1.810  1.00  0.00     0.010 A 
ATOM     36  C   UNL     1      -0.656   4.343   0.255  1.00  0.00     0.010 A 
ATOM     37  C   UNL     1      -1.013   5.306  -0.675  1.00  0.00    -0.014 A 
BRANCH  37  38
ATOM     38  C   UNL     1      -0.658   6.669  -0.447  1.00  0.00     0.031 A 
ATOM     39  C   UNL     1      -1.846   7.409  -0.012  1.00  0.00     0.074 A 
ATOM     40  C   UNL     1       0.580   7.139  -0.634  1.00  0.00     0.049 A 
ATOM     41  N   UNL     1      -2.609   8.133  -0.754  1.00  0.00    -0.248 NA
ATOM     42  C   UNL     1      -2.439   7.005   1.272  1.00  0.00     0.031 C 
ATOM     43  C   UNL     1       1.848   6.432  -0.806  1.00  0.00     0.029 A 
ATOM     44  N   UNL     1       0.949   8.433  -0.617  1.00  0.00    -0.354 N 
ATOM     45  C   UNL     1      -3.670   8.477   0.063  1.00  0.00     0.074 A 
ATOM     46  C   UNL     1      -3.650   7.545   1.154  1.00  0.00     0.031 C 
ATOM     47  C   UNL     1       2.862   7.312  -0.612  1.00  0.00     0.029 A 
ATOM     48  C   UNL     1       2.303   8.647  -0.449  1.00  0.00     0.049 A 
ATOM     49  H   UNL     1       0.304   9.171  -0.715  1.00  0.00     0.167 HD
ATOM     50  C   UNL     1      -4.290   9.674  -0.084  1.00  0.00     0.034 A 
ATOM     51  C   UNL     1       2.843   9.832  -0.061  1.00  0.00     0.034 A 
ATOM     52  C   UNL     1      -3.990  10.250  -1.379  1.00  0.00     0.049 A 
ATOM     53  C   UNL     1       1.821  10.881  -0.372  1.00  0.00     0.074 A 
ATOM     54  C   UNL     1      -4.236   9.854  -2.681  1.00  0.00     0.029 A 
ATOM     55  N   UNL     1      -2.966  11.173  -1.456  1.00  0.00    -0.354 N 
ATOM     56  N   UNL     1       1.442  11.167  -1.593  1.00  0.00    -0.248 NA
ATOM     57  C   UNL     1       0.842  11.217   0.659  1.00  0.00     0.031 C 
ATOM     58  C   UNL     1      -3.051  10.188  -3.402  1.00  0.00     0.029 A 
ATOM     59  C   UNL     1      -2.172  10.834  -2.528  1.00  0.00     0.049 A 
ATOM     60  H   UNL     1      -2.829  11.938  -0.852  1.00  0.00     0.167 HD
ATOM     61  C   UNL     1       0.063  11.338  -1.530  1.00  0.00     0.074 A 
ATOM     62  C   UNL     1      -0.239  11.428  -0.102  1.00  0.00     0.031 C 
ATOM     63  C   UNL     1      -0.742  11.090  -2.608  1.00  0.00     0.034 A 
BRANCH  50  64
ATOM     64  C   UNL     1      -4.822  10.475   1.076  1.00  0.00     0.023 A 
ATOM     65  C   UNL     1      -5.387  11.720   0.764  1.00  0.00     0.031 A 
ATOM     66  C   UNL     1      -4.576  10.238   2.451  1.00  0.00     0.131 A 
ATOM     67  C   UNL     1      -5.572  12.693   1.757  1.00  0.00     0.055 A 
ATOM     68  C   UNL     1      -4.825  11.186   3.444  1.00  0.00     0.041 A 
ATOM     69  F   UNL     1      -4.002   9.126   2.921  1.00  0.00    -0.206 F 
ATOM     70  C   UNL     1      -5.293  12.436   3.096  1.00  0.00     0.022 A 
BRANCH  67  71
ATOM     71  S   UNL     1      -6.015  14.363   1.232  1.00  0.00     0.124 S 
ATOM     72  O   UNL     1      -4.989  14.640   0.232  1.00  0.00    -0.237 OA
ATOM     73  O   UNL     1      -7.371  14.166   0.729  1.00  0.00    -0.237 OA
ATOM     74  O   UNL     1      -5.912  15.140   2.465  1.00  0.00    -0.744 OA
ENDBRANCH  67  71
ENDBRANCH  50  64
BRANCH  51  75
ATOM     75  C   UNL     1       3.925   9.985   0.950  1.00  0.00     0.023 A 
ATOM     76  C   UNL     1       4.706  11.152   1.057  1.00  0.00     0.031 A 
ATOM     77  C   UNL     1       4.067   9.032   1.988  1.00  0.00     0.131 A 
ATOM     78  C   UNL     1       5.586  11.322   2.153  1.00  0.00     0.055 A 
ATOM     79  C   UNL     1       4.941   9.201   3.063  1.00  0.00     0.041 A 
ATOM     80  F   UNL     1       3.298   7.932   2.036  1.00  0.00    -0.206 F 
ATOM     81  C   UNL     1       5.701  10.354   3.154  1.00  0.00     0.022 A 
BRANCH  78  82
ATOM     82  S   UNL     1       6.547  12.858   2.332  1.00  0.00     0.124 S 
ATOM     83  O   UNL     1       7.475  12.774   1.210  1.00  0.00    -0.237 OA
ATOM     84  O   UNL     1       5.514  13.884   2.244  1.00  0.00    -0.237 OA
ATOM     85  O   UNL     1       7.164  12.723   3.652  1.00  0.00    -0.744 OA
ENDBRANCH  78  82
ENDBRANCH  51  75
BRANCH  63  86
ATOM     86  C   UNL     1      -0.093  10.864  -3.963  1.00  0.00     0.023 A 
ATOM     87  C   UNL     1       0.799   9.809  -4.272  1.00  0.00     0.031 A 
ATOM     88  C   UNL     1      -0.535  11.674  -5.024  1.00  0.00     0.131 A 
ATOM     89  C   UNL     1       1.209   9.602  -5.606  1.00  0.00     0.055 A 
ATOM     90  C   UNL     1      -0.144  11.452  -6.343  1.00  0.00     0.041 A 
ATOM     91  F   UNL     1      -1.403  12.674  -4.798  1.00  0.00    -0.206 F 
ATOM     92  C   UNL     1       0.732  10.415  -6.640  1.00  0.00     0.022 A 
BRANCH  89  93
ATOM     93  S   UNL     1       2.376   8.265  -6.030  1.00  0.00     0.124 S 
ATOM     94  O   UNL     1       3.458   8.445  -5.070  1.00  0.00    -0.237 OA
ATOM     95  O   UNL     1       1.559   7.068  -5.858  1.00  0.00    -0.237 OA
ATOM     96  O   UNL     1       2.740   8.557  -7.418  1.00  0.00    -0.744 OA
ENDBRANCH  89  93
ENDBRANCH  63  86
ENDBRANCH  37  38
ENDBRANCH  30  32
ENDBRANCH  29  30
ENDBRANCH  28  29
ENDBRANCH  27  28
ENDBRANCH  26  27
ENDBRANCH   1  26
TORSDOF 21
