REMARK SMILES C[N@@H+]1CCC[C@@H](C[NH2+]CC(=O)OCCOCCOC(=O)c2ccc(-c3c4nc(c(-c5cc(S(=O)(=O)[O-])ccc5F)c5ccc([nH]5)c(-c5cc(S(=O)(=O)[O-])ccc5F)c5nc(c(-c6cc(S(=O)(=O)[O-])ccc6F)c6ccc3[nH]6)C=C5)C=C4)cc2)C1
REMARK SMILES IDX 15 1 14 2 13 3 12 4 10 5 11 6 9 7 8 8 7 11 6 12 1 13 2 14
REMARK SMILES IDX 3 15 84 16 4 18 5 19 16 20 17 21 18 22 19 23 20 24 21 25
REMARK SMILES IDX 22 26 83 27 23 28 82 29 24 30 25 31 26 32 76 33 27 34 81 35
REMARK SMILES IDX 75 36 77 37 28 38 80 39 74 40 73 41 29 43 61 44 41 45 60 46
REMARK SMILES IDX 42 47 45 48 59 49 78 50 43 51 44 52 58 54 79 55 46 56 30 57
REMARK SMILES IDX 31 58 39 59 32 60 38 61 40 62 37 63 33 64 34 65 35 66 36 67
REMARK SMILES IDX 62 68 63 69 71 70 64 71 70 72 72 73 69 74 65 75 66 76 67 77
REMARK SMILES IDX 68 78 47 79 48 80 56 81 49 82 55 83 57 84 54 85 50 86 51 87
REMARK SMILES IDX 52 88 53 89
REMARK H PARENT 8 9 8 10 2 17 77 42 45 53
REMARK Flexibility Score: inf
ROOT
ATOM      1  O   UNL     1      -2.290  -0.023   5.239  1.00  0.00    -0.374 OA
ENDROOT
BRANCH   1   2
ATOM      2  C   UNL     1      -1.295   0.995   5.280  1.00  0.00     0.202 C 
BRANCH   2   3
ATOM      3  C   UNL     1       0.174   0.569   5.392  1.00  0.00     0.261 C 
BRANCH   3   4
ATOM      4  O   UNL     1       0.579  -0.423   4.435  1.00  0.00    -0.459 OA
BRANCH   4   5
ATOM      5  C   UNL     1       0.842  -1.660   4.935  1.00  0.00     0.361 C 
ATOM      6  O   UNL     1       0.761  -1.959   6.123  1.00  0.00    -0.245 OA
BRANCH   5   7
ATOM      7  C   UNL     1       1.313  -2.672   3.891  1.00  0.00     0.384 C 
BRANCH   7   8
ATOM      8  N   UNL     1       0.808  -2.531   2.509  1.00  0.00    -0.337 N 
ATOM      9  H   UNL     1       1.019  -3.389   1.999  1.00  0.00     0.346 HD
ATOM     10  H   UNL     1      -0.195  -2.356   2.571  1.00  0.00     0.346 HD
BRANCH   8  11
ATOM     11  C   UNL     1       1.400  -1.404   1.785  1.00  0.00     0.270 C 
BRANCH  11  12
ATOM     12  C   UNL     1       1.412  -1.635   0.257  1.00  0.00     0.099 C 
ATOM     13  C   UNL     1      -2.090  -0.694  -0.907  1.00  0.00     0.332 C 
ATOM     14  N   UNL     1      -0.740  -0.525  -0.371  1.00  0.00    -0.337 N 
ATOM     15  C   UNL     1      -0.007   0.486  -1.146  1.00  0.00     0.262 C 
ATOM     16  C   UNL     1       0.009  -1.790  -0.373  1.00  0.00     0.271 C 
ATOM     17  H   UNL     1      -0.833  -0.215   0.596  1.00  0.00     0.347 HD
ATOM     18  C   UNL     1       1.336   0.786  -0.487  1.00  0.00     0.062 C 
ATOM     19  C   UNL     1       2.175  -0.486  -0.432  1.00  0.00     0.021 C 
ENDBRANCH  11  12
ENDBRANCH   8  11
ENDBRANCH   7   8
ENDBRANCH   5   7
ENDBRANCH   4   5
ENDBRANCH   3   4
ENDBRANCH   2   3
ENDBRANCH   1   2
BRANCH   1  20
ATOM     20  C   UNL     1      -2.373  -0.819   4.060  1.00  0.00     0.202 C 
BRANCH  20  21
ATOM     21  C   UNL     1      -2.783  -0.142   2.748  1.00  0.00     0.261 C 
BRANCH  21  22
ATOM     22  O   UNL     1      -1.941   0.957   2.378  1.00  0.00    -0.460 OA
BRANCH  22  23
ATOM     23  C   UNL     1      -2.569   2.154   2.247  1.00  0.00     0.338 C 
ATOM     24  O   UNL     1      -3.743   2.406   2.439  1.00  0.00    -0.246 OA
BRANCH  23  25
ATOM     25  C   UNL     1      -1.578   3.150   1.812  1.00  0.00     0.060 A 
ATOM     26  C   UNL     1      -0.957   4.014   2.714  1.00  0.00     0.016 A 
ATOM     27  C   UNL     1      -1.316   3.250   0.453  1.00  0.00     0.016 A 
ATOM     28  C   UNL     1      -0.075   4.996   2.237  1.00  0.00     0.010 A 
ATOM     29  C   UNL     1      -0.355   4.150  -0.005  1.00  0.00     0.010 A 
ATOM     30  C   UNL     1       0.234   5.081   0.869  1.00  0.00    -0.014 A 
BRANCH  30  31
ATOM     31  C   UNL     1       1.023   6.215   0.290  1.00  0.00     0.031 A 
ATOM     32  C   UNL     1       0.390   7.051  -0.805  1.00  0.00     0.074 A 
ATOM     33  C   UNL     1       2.287   6.486   0.677  1.00  0.00     0.049 A 
ATOM     34  N   UNL     1       0.936   7.915  -1.622  1.00  0.00    -0.248 NA
ATOM     35  C   UNL     1      -1.043   6.825  -1.052  1.00  0.00     0.031 C 
ATOM     36  C   UNL     1       3.033   5.774   1.714  1.00  0.00     0.029 A 
ATOM     37  N   UNL     1       3.175   7.438   0.229  1.00  0.00    -0.354 N 
ATOM     38  C   UNL     1      -0.068   8.270  -2.522  1.00  0.00     0.074 A 
ATOM     39  C   UNL     1      -1.224   7.467  -2.194  1.00  0.00     0.031 C 
ATOM     40  C   UNL     1       4.249   6.332   1.844  1.00  0.00     0.029 A 
ATOM     41  C   UNL     1       4.400   7.400   0.859  1.00  0.00     0.049 A 
ATOM     42  H   UNL     1       2.955   8.087  -0.477  1.00  0.00     0.167 HD
ATOM     43  C   UNL     1      -0.046   9.204  -3.506  1.00  0.00     0.034 A 
ATOM     44  C   UNL     1       5.519   8.126   0.651  1.00  0.00     0.034 A 
ATOM     45  C   UNL     1       1.079  10.068  -3.754  1.00  0.00     0.049 A 
ATOM     46  C   UNL     1       5.521   9.180  -0.434  1.00  0.00     0.074 A 
ATOM     47  C   UNL     1       1.189  11.099  -4.670  1.00  0.00     0.029 A 
ATOM     48  N   UNL     1       2.284  10.017  -3.064  1.00  0.00    -0.354 N 
ATOM     49  N   UNL     1       4.567   9.498  -1.279  1.00  0.00    -0.248 NA
ATOM     50  C   UNL     1       6.746   9.977  -0.589  1.00  0.00     0.031 C 
ATOM     51  C   UNL     1       2.477  11.633  -4.575  1.00  0.00     0.029 A 
ATOM     52  C   UNL     1       3.143  10.992  -3.543  1.00  0.00     0.049 A 
ATOM     53  H   UNL     1       2.495   9.383  -2.342  1.00  0.00     0.167 HD
ATOM     54  C   UNL     1       5.062  10.564  -2.029  1.00  0.00     0.074 A 
ATOM     55  C   UNL     1       6.397  10.832  -1.540  1.00  0.00     0.031 C 
ATOM     56  C   UNL     1       4.463  11.263  -3.026  1.00  0.00     0.034 A 
BRANCH  43  57
ATOM     57  C   UNL     1      -1.272   9.330  -4.385  1.00  0.00     0.023 A 
ATOM     58  C   UNL     1      -2.535   9.651  -3.860  1.00  0.00     0.031 A 
ATOM     59  C   UNL     1      -1.183   9.087  -5.768  1.00  0.00     0.131 A 
ATOM     60  C   UNL     1      -3.669   9.615  -4.685  1.00  0.00     0.055 A 
ATOM     61  C   UNL     1      -2.300   9.157  -6.604  1.00  0.00     0.041 A 
ATOM     62  F   UNL     1      -0.009   8.759  -6.332  1.00  0.00    -0.206 F 
ATOM     63  C   UNL     1      -3.557   9.401  -6.060  1.00  0.00     0.022 A 
BRANCH  60  64
ATOM     64  S   UNL     1      -5.304   9.676  -3.903  1.00  0.00     0.124 S 
ATOM     65  O   UNL     1      -5.257   8.500  -3.037  1.00  0.00    -0.237 OA
ATOM     66  O   UNL     1      -5.284  10.968  -3.228  1.00  0.00    -0.237 OA
ATOM     67  O   UNL     1      -6.228   9.574  -5.031  1.00  0.00    -0.744 OA
ENDBRANCH  60  64
ENDBRANCH  43  57
BRANCH  44  68
ATOM     68  C   UNL     1       6.744   7.889   1.474  1.00  0.00     0.023 A 
ATOM     69  C   UNL     1       7.257   8.893   2.313  1.00  0.00     0.031 A 
ATOM     70  C   UNL     1       7.452   6.676   1.397  1.00  0.00     0.131 A 
ATOM     71  C   UNL     1       8.466   8.688   2.998  1.00  0.00     0.055 A 
ATOM     72  C   UNL     1       8.622   6.455   2.127  1.00  0.00     0.041 A 
ATOM     73  F   UNL     1       7.010   5.681   0.612  1.00  0.00    -0.206 F 
ATOM     74  C   UNL     1       9.144   7.469   2.923  1.00  0.00     0.022 A 
BRANCH  71  75
ATOM     75  S   UNL     1       9.193  10.075   3.914  1.00  0.00     0.124 S 
ATOM     76  O   UNL     1       9.332  11.080   2.867  1.00  0.00    -0.237 OA
ATOM     77  O   UNL     1       8.174  10.337   4.925  1.00  0.00    -0.237 OA
ATOM     78  O   UNL     1      10.448   9.525   4.424  1.00  0.00    -0.744 OA
ENDBRANCH  71  75
ENDBRANCH  44  68
BRANCH  56  79
ATOM     79  C   UNL     1       5.202  12.448  -3.595  1.00  0.00     0.023 A 
ATOM     80  C   UNL     1       6.362  12.306  -4.373  1.00  0.00     0.031 A 
ATOM     81  C   UNL     1       4.699  13.746  -3.384  1.00  0.00     0.131 A 
ATOM     82  C   UNL     1       7.002  13.446  -4.885  1.00  0.00     0.055 A 
ATOM     83  C   UNL     1       5.307  14.870  -3.942  1.00  0.00     0.041 A 
ATOM     84  F   UNL     1       3.593  13.939  -2.647  1.00  0.00    -0.206 F 
ATOM     85  C   UNL     1       6.471  14.724  -4.691  1.00  0.00     0.022 A 
BRANCH  82  86
ATOM     86  S   UNL     1       8.578  13.245  -5.760  1.00  0.00     0.124 S 
ATOM     87  O   UNL     1       9.416  12.626  -4.737  1.00  0.00    -0.237 OA
ATOM     88  O   UNL     1       8.206  12.390  -6.882  1.00  0.00    -0.237 OA
ATOM     89  O   UNL     1       8.948  14.613  -6.120  1.00  0.00    -0.744 OA
ENDBRANCH  82  86
ENDBRANCH  56  79
ENDBRANCH  30  31
ENDBRANCH  23  25
ENDBRANCH  22  23
ENDBRANCH  21  22
ENDBRANCH  20  21
ENDBRANCH   1  20
TORSDOF 20
