REMARK SMILES Cc1ccc(C(=O)Nc2cccc(F)c2C(=O)OCCOCCOC(=O)c2ccc(-c3c4nc(c(-c5cc(S(=O)(=O)[O-])ccc5F)c5ccc([nH]5)c(-c5cc(S(=O)(=O)[O-])ccc5F)c5nc(c(-c6cc(S(=O)(=O)[O-])ccc6F)c6ccc3[nH]6)C=C5)C=C4)cc2)c(F)c1
REMARK SMILES IDX 22 1 21 2 20 3 19 4 18 5 16 6 17 7 15 8 9 9 10 10 11 11
REMARK SMILES IDX 13 12 12 13 14 14 8 15 6 16 7 17 5 19 1 20 2 21 3 22 92 23
REMARK SMILES IDX 4 24 90 25 91 26 23 27 24 28 25 29 26 30 27 31 28 32 89 33
REMARK SMILES IDX 29 34 88 35 30 36 31 37 32 38 82 39 33 40 87 41 81 42 83 43
REMARK SMILES IDX 34 44 86 45 80 46 79 47 35 49 67 50 47 51 66 52 48 53 51 54
REMARK SMILES IDX 65 55 84 56 49 57 50 58 64 60 85 61 52 62 36 63 37 64 45 65
REMARK SMILES IDX 38 66 44 67 46 68 43 69 39 70 40 71 41 72 42 73 68 74 69 75
REMARK SMILES IDX 77 76 70 77 76 78 78 79 75 80 71 81 72 82 73 83 74 84 53 85
REMARK SMILES IDX 54 86 62 87 55 88 61 89 63 90 60 91 56 92 57 93 58 94 59 95
REMARK H PARENT 8 18 83 48 51 59
REMARK Flexibility Score: inf
ROOT
ATOM      1  C   UNL     1      -3.714  -6.732  -0.211  1.00  0.00     0.202 C 
ENDROOT
BRANCH   1   2
ATOM      2  O   UNL     1      -4.500  -6.668  -1.401  1.00  0.00    -0.374 OA
BRANCH   2   3
ATOM      3  C   UNL     1      -3.969  -7.273  -2.582  1.00  0.00     0.202 C 
BRANCH   3   4
ATOM      4  C   UNL     1      -2.876  -6.487  -3.308  1.00  0.00     0.261 C 
BRANCH   4   5
ATOM      5  O   UNL     1      -1.719  -6.360  -2.466  1.00  0.00    -0.460 OA
BRANCH   5   6
ATOM      6  C   UNL     1      -1.284  -5.097  -2.273  1.00  0.00     0.343 C 
ATOM      7  O   UNL     1      -1.649  -4.091  -2.865  1.00  0.00    -0.246 OA
BRANCH   6   8
ATOM      8  C   UNL     1      -0.467  -5.045  -1.052  1.00  0.00     0.119 A 
ATOM      9  C   UNL     1      -0.756  -4.092  -0.057  1.00  0.00     0.059 A 
ATOM     10  C   UNL     1       0.079  -3.993   1.064  1.00  0.00     0.027 A 
ATOM     11  C   UNL     1       1.207  -4.811   1.173  1.00  0.00     0.005 A 
ATOM     12  C   UNL     1       0.664  -5.848  -0.938  1.00  0.00     0.139 A 
ATOM     13  C   UNL     1       1.503  -5.733   0.168  1.00  0.00     0.040 A 
ATOM     14  F   UNL     1       0.997  -6.709  -1.908  1.00  0.00    -0.206 F 
BRANCH   9  15
ATOM     15  N   UNL     1      -1.878  -3.251  -0.190  1.00  0.00    -0.321 N 
ATOM     16  C   UNL     1      -1.992  -1.884  -0.031  1.00  0.00     0.258 C 
ATOM     17  O   UNL     1      -3.122  -1.400   0.014  1.00  0.00    -0.269 OA
ATOM     18  H   UNL     1      -2.713  -3.711  -0.436  1.00  0.00     0.170 HD
BRANCH  16  19
ATOM     19  C   UNL     1      -0.799  -0.989  -0.051  1.00  0.00     0.075 A 
ATOM     20  C   UNL     1       2.616   1.664  -0.003  1.00  0.00     0.044 C 
ATOM     21  C   UNL     1       1.428   0.753  -0.032  1.00  0.00    -0.048 A 
ATOM     22  C   UNL     1       1.522  -0.508  -0.622  1.00  0.00     0.004 A 
ATOM     23  C   UNL     1       0.190   1.171   0.467  1.00  0.00     0.043 A 
ATOM     24  C   UNL     1       0.409  -1.350  -0.665  1.00  0.00     0.017 A 
ATOM     25  C   UNL     1      -0.904   0.302   0.470  1.00  0.00     0.136 A 
ATOM     26  F   UNL     1      -2.051   0.758   0.993  1.00  0.00    -0.206 F 
ENDBRANCH  16  19
ENDBRANCH   9  15
ENDBRANCH   6   8
ENDBRANCH   5   6
ENDBRANCH   4   5
ENDBRANCH   3   4
ENDBRANCH   2   3
ENDBRANCH   1   2
BRANCH   1  27
ATOM     27  C   UNL     1      -3.644  -8.077   0.524  1.00  0.00     0.261 C 
BRANCH  27  28
ATOM     28  O   UNL     1      -2.996  -9.101  -0.248  1.00  0.00    -0.460 OA
BRANCH  28  29
ATOM     29  C   UNL     1      -3.812 -10.099  -0.671  1.00  0.00     0.338 C 
ATOM     30  O   UNL     1      -4.998 -10.240  -0.412  1.00  0.00    -0.246 OA
BRANCH  29  31
ATOM     31  C   UNL     1      -3.105 -10.927  -1.665  1.00  0.00     0.060 A 
ATOM     32  C   UNL     1      -3.664 -11.037  -2.946  1.00  0.00     0.016 A 
ATOM     33  C   UNL     1      -1.937 -11.617  -1.339  1.00  0.00     0.016 A 
ATOM     34  C   UNL     1      -3.056 -11.844  -3.906  1.00  0.00     0.010 A 
ATOM     35  C   UNL     1      -1.339 -12.441  -2.299  1.00  0.00     0.010 A 
ATOM     36  C   UNL     1      -1.900 -12.567  -3.583  1.00  0.00    -0.014 A 
BRANCH  36  37
ATOM     37  C   UNL     1      -1.308 -13.511  -4.560  1.00  0.00     0.031 A 
ATOM     38  C   UNL     1      -1.612 -14.978  -4.449  1.00  0.00     0.074 A 
ATOM     39  C   UNL     1      -0.513 -13.056  -5.546  1.00  0.00     0.049 A 
ATOM     40  N   UNL     1      -1.099 -15.980  -5.113  1.00  0.00    -0.248 NA
ATOM     41  C   UNL     1      -2.635 -15.366  -3.464  1.00  0.00     0.031 C 
ATOM     42  C   UNL     1      -0.217 -11.647  -5.809  1.00  0.00     0.029 A 
ATOM     43  N   UNL     1       0.190 -13.732  -6.511  1.00  0.00    -0.354 N 
ATOM     44  C   UNL     1      -1.739 -17.118  -4.637  1.00  0.00     0.074 A 
ATOM     45  C   UNL     1      -2.660 -16.684  -3.607  1.00  0.00     0.031 C 
ATOM     46  C   UNL     1       0.609 -11.565  -6.866  1.00  0.00     0.029 A 
ATOM     47  C   UNL     1       0.942 -12.913  -7.321  1.00  0.00     0.049 A 
ATOM     48  H   UNL     1       0.159 -14.710  -6.614  1.00  0.00     0.167 HD
ATOM     49  C   UNL     1      -1.573 -18.404  -5.027  1.00  0.00     0.034 A 
ATOM     50  C   UNL     1       1.821 -13.219  -8.297  1.00  0.00     0.034 A 
ATOM     51  C   UNL     1      -0.638 -18.827  -6.038  1.00  0.00     0.049 A 
ATOM     52  C   UNL     1       2.080 -14.668  -8.626  1.00  0.00     0.074 A 
ATOM     53  C   UNL     1      -0.351 -20.113  -6.463  1.00  0.00     0.029 A 
ATOM     54  N   UNL     1       0.158 -17.975  -6.790  1.00  0.00    -0.354 N 
ATOM     55  N   UNL     1       1.541 -15.742  -8.099  1.00  0.00    -0.248 NA
ATOM     56  C   UNL     1       3.069 -14.945  -9.677  1.00  0.00     0.031 C 
ATOM     57  C   UNL     1       0.651 -20.042  -7.435  1.00  0.00     0.029 A 
ATOM     58  C   UNL     1       0.939 -18.708  -7.669  1.00  0.00     0.049 A 
ATOM     59  H   UNL     1       0.167 -16.993  -6.711  1.00  0.00     0.167 HD
ATOM     60  C   UNL     1       2.093 -16.820  -8.787  1.00  0.00     0.074 A 
ATOM     61  C   UNL     1       3.013 -16.267  -9.759  1.00  0.00     0.031 C 
ATOM     62  C   UNL     1       1.849 -18.145  -8.637  1.00  0.00     0.034 A 
BRANCH  49  63
ATOM     63  C   UNL     1      -2.394 -19.458  -4.333  1.00  0.00     0.023 A 
ATOM     64  C   UNL     1      -3.773 -19.582  -4.565  1.00  0.00     0.031 A 
ATOM     65  C   UNL     1      -1.778 -20.379  -3.467  1.00  0.00     0.131 A 
ATOM     66  C   UNL     1      -4.499 -20.595  -3.919  1.00  0.00     0.055 A 
ATOM     67  C   UNL     1      -2.495 -21.416  -2.870  1.00  0.00     0.041 A 
ATOM     68  F   UNL     1      -0.466 -20.290  -3.198  1.00  0.00    -0.206 F 
ATOM     69  C   UNL     1      -3.865 -21.527  -3.093  1.00  0.00     0.022 A 
BRANCH  66  70
ATOM     70  S   UNL     1      -6.299 -20.652  -4.133  1.00  0.00     0.124 S 
ATOM     71  O   UNL     1      -6.713 -19.422  -3.464  1.00  0.00    -0.237 OA
ATOM     72  O   UNL     1      -6.447 -20.671  -5.584  1.00  0.00    -0.237 OA
ATOM     73  O   UNL     1      -6.685 -21.887  -3.453  1.00  0.00    -0.744 OA
ENDBRANCH  66  70
ENDBRANCH  49  63
BRANCH  50  74
ATOM     74  C   UNL     1       2.550 -12.140  -9.020  1.00  0.00     0.023 A 
ATOM     75  C   UNL     1       2.337 -11.919 -10.389  1.00  0.00     0.031 A 
ATOM     76  C   UNL     1       3.502 -11.340  -8.361  1.00  0.00     0.131 A 
ATOM     77  C   UNL     1       3.090 -10.948 -11.066  1.00  0.00     0.055 A 
ATOM     78  C   UNL     1       4.215 -10.344  -9.028  1.00  0.00     0.041 A 
ATOM     79  F   UNL     1       3.743 -11.512  -7.051  1.00  0.00    -0.206 F 
ATOM     80  C   UNL     1       4.018 -10.150 -10.392  1.00  0.00     0.022 A 
BRANCH  77  81
ATOM     81  S   UNL     1       2.881 -10.780 -12.859  1.00  0.00     0.124 S 
ATOM     82  O   UNL     1       3.322 -12.087 -13.332  1.00  0.00    -0.237 OA
ATOM     83  O   UNL     1       1.453 -10.502 -12.974  1.00  0.00    -0.237 OA
ATOM     84  O   UNL     1       3.759  -9.663 -13.200  1.00  0.00    -0.744 OA
ENDBRANCH  77  81
ENDBRANCH  50  74
BRANCH  62  85
ATOM     85  C   UNL     1       2.528 -19.091  -9.593  1.00  0.00     0.023 A 
ATOM     86  C   UNL     1       3.909 -19.341  -9.538  1.00  0.00     0.031 A 
ATOM     87  C   UNL     1       1.766 -19.770 -10.561  1.00  0.00     0.131 A 
ATOM     88  C   UNL     1       4.494 -20.221 -10.462  1.00  0.00     0.055 A 
ATOM     89  C   UNL     1       2.345 -20.681 -11.445  1.00  0.00     0.041 A 
ATOM     90  F   UNL     1       0.442 -19.566 -10.653  1.00  0.00    -0.206 F 
ATOM     91  C   UNL     1       3.718 -20.904 -11.404  1.00  0.00     0.022 A 
BRANCH  88  92
ATOM     92  S   UNL     1       6.295 -20.427 -10.453  1.00  0.00     0.124 S 
ATOM     93  O   UNL     1       6.756 -19.081 -10.778  1.00  0.00    -0.237 OA
ATOM     94  O   UNL     1       6.554 -20.876  -9.088  1.00  0.00    -0.237 OA
ATOM     95  O   UNL     1       6.533 -21.431 -11.488  1.00  0.00    -0.744 OA
ENDBRANCH  88  92
ENDBRANCH  62  85
ENDBRANCH  36  37
ENDBRANCH  29  31
ENDBRANCH  28  29
ENDBRANCH  27  28
ENDBRANCH   1  27
TORSDOF 19
