REMARK SMILES C[C@@](COc1ccccc1)(NC(=O)CN1CSCC1=O)C(=O)OCCOCCOC(=O)c1ccc(-c2c3nc(c(-c4cc(S(=O)(=O)[O-])ccc4F)c4ccc([nH]4)c(-c4cc(S(=O)(=O)[O-])ccc4F)c4nc(c(-c5cc(S(=O)(=O)[O-])ccc5F)c5ccc2[nH]5)C=C4)C=C3)cc1
REMARK SMILES IDX 26 1 25 2 24 3 23 4 21 5 22 6 2 7 1 8 3 9 4 10 5 11 6 12
REMARK SMILES IDX 10 13 7 14 9 15 8 16 11 17 12 18 13 20 14 21 15 22 16 23
REMARK SMILES IDX 19 24 17 25 18 26 20 27 27 28 28 29 29 30 30 31 31 32 32 33
REMARK SMILES IDX 33 34 94 35 34 36 93 37 35 38 36 39 37 40 87 41 38 42 92 43
REMARK SMILES IDX 86 44 88 45 39 46 91 47 85 48 84 49 40 51 72 52 52 53 71 54
REMARK SMILES IDX 53 55 56 56 70 57 89 58 54 59 55 60 69 62 90 63 57 64 41 65
REMARK SMILES IDX 42 66 50 67 43 68 49 69 51 70 48 71 44 72 45 73 46 74 47 75
REMARK SMILES IDX 73 76 74 77 82 78 75 79 81 80 83 81 80 82 76 83 77 84 78 85
REMARK SMILES IDX 79 86 58 87 59 88 67 89 60 90 66 91 68 92 65 93 61 94 62 95
REMARK SMILES IDX 63 96 64 97
REMARK H PARENT 11 19 88 50 56 61
REMARK Flexibility Score: inf
ROOT
ATOM      1  O   UNL     1       2.127  -4.345   1.032  1.00  0.00    -0.374 OA
ENDROOT
BRANCH   1   2
ATOM      2  C   UNL     1       2.074  -4.296   2.489  1.00  0.00     0.202 C 
BRANCH   2   3
ATOM      3  C   UNL     1       2.622  -3.101   3.237  1.00  0.00     0.261 C 
BRANCH   3   4
ATOM      4  O   UNL     1       1.697  -2.032   3.072  1.00  0.00    -0.461 OA
BRANCH   4   5
ATOM      5  C   UNL     1       2.228  -0.877   2.633  1.00  0.00     0.335 C 
ATOM      6  O   UNL     1       3.427  -0.621   2.609  1.00  0.00    -0.249 OA
BRANCH   5   7
ATOM      7  C   UNL     1       1.162  -0.006   1.978  1.00  0.00     0.169 C 
ATOM      8  C   UNL     1       1.507  -0.014   0.477  1.00  0.00     0.051 C 
BRANCH   7   9
ATOM      9  C   UNL     1       1.422   1.416   2.574  1.00  0.00     0.269 C 
BRANCH   9  10
ATOM     10  O   UNL     1       0.373   2.345   2.216  1.00  0.00    -0.491 OA
BRANCH  10  11
ATOM     11  C   UNL     1       0.654   3.023   1.064  1.00  0.00     0.119 A 
ATOM     12  C   UNL     1       1.640   4.005   1.030  1.00  0.00     0.046 A 
ATOM     13  C   UNL     1      -0.084   2.720  -0.079  1.00  0.00     0.046 A 
ATOM     14  C   UNL     1       1.951   4.623  -0.180  1.00  0.00     0.004 A 
ATOM     15  C   UNL     1       0.251   3.312  -1.294  1.00  0.00     0.004 A 
ATOM     16  C   UNL     1       1.274   4.259  -1.346  1.00  0.00     0.000 A 
ENDBRANCH  10  11
ENDBRANCH   9  10
ENDBRANCH   7   9
BRANCH   7  17
ATOM     17  N   UNL     1      -0.279  -0.302   2.285  1.00  0.00    -0.336 N 
ATOM     18  C   UNL     1      -1.213  -1.274   2.334  1.00  0.00     0.240 C 
ATOM     19  H   UNL     1      -0.709   0.542   2.554  1.00  0.00     0.164 HD
ATOM     20  O   UNL     1      -2.366  -0.838   2.510  1.00  0.00    -0.273 OA
BRANCH  18  21
ATOM     21  C   UNL     1      -1.020  -2.812   2.364  1.00  0.00     0.220 C 
BRANCH  21  22
ATOM     22  N   UNL     1      -0.455  -3.501   1.193  1.00  0.00    -0.323 N 
ATOM     23  C   UNL     1       0.108  -5.365   0.990  1.00  0.00     0.190 C 
ATOM     24  C   UNL     1      -0.612  -2.521  -0.307  1.00  0.00     0.233 C 
ATOM     25  S   UNL     1       0.824  -5.621  -1.271  1.00  0.00    -0.130 SA
ATOM     26  C   UNL     1       0.124  -3.455  -1.881  1.00  0.00     0.171 C 
ATOM     27  O   UNL     1      -1.119  -1.408  -0.369  1.00  0.00    -0.274 OA
ENDBRANCH  21  22
ENDBRANCH  18  21
ENDBRANCH   7  17
ENDBRANCH   5   7
ENDBRANCH   4   5
ENDBRANCH   3   4
ENDBRANCH   2   3
ENDBRANCH   1   2
BRANCH   1  28
ATOM     28  C   UNL     1       1.016  -3.801   0.041  1.00  0.00     0.202 C 
BRANCH  28  29
ATOM     29  C   UNL     1      -0.994  -4.517  -0.413  1.00  0.00     0.261 C 
BRANCH  29  30
ATOM     30  O   UNL     1      -2.238  -4.604   0.735  1.00  0.00    -0.460 OA
BRANCH  30  31
ATOM     31  C   UNL     1      -2.812  -5.761   1.182  1.00  0.00     0.338 C 
ATOM     32  O   UNL     1      -2.929  -6.771   0.508  1.00  0.00    -0.246 OA
BRANCH  31  33
ATOM     33  C   UNL     1      -2.826  -5.798   2.696  1.00  0.00     0.060 A 
ATOM     34  C   UNL     1      -1.899  -6.627   3.363  1.00  0.00     0.016 A 
ATOM     35  C   UNL     1      -3.762  -5.111   3.470  1.00  0.00     0.016 A 
ATOM     36  C   UNL     1      -1.942  -6.823   4.757  1.00  0.00     0.010 A 
ATOM     37  C   UNL     1      -3.820  -5.326   4.872  1.00  0.00     0.010 A 
ATOM     38  C   UNL     1      -2.953  -6.234   5.522  1.00  0.00    -0.014 A 
BRANCH  38  39
ATOM     39  C   UNL     1      -3.302  -6.836   6.862  1.00  0.00     0.031 A 
ATOM     40  C   UNL     1      -4.462  -7.816   6.904  1.00  0.00     0.074 A 
ATOM     41  C   UNL     1      -2.608  -6.633   8.004  1.00  0.00     0.049 A 
ATOM     42  N   UNL     1      -4.986  -8.460   7.918  1.00  0.00    -0.248 NA
ATOM     43  C   UNL     1      -5.115  -8.100   5.617  1.00  0.00     0.031 C 
ATOM     44  C   UNL     1      -1.427  -5.786   8.149  1.00  0.00     0.029 A 
ATOM     45  N   UNL     1      -2.807  -7.138   9.276  1.00  0.00    -0.354 N 
ATOM     46  C   UNL     1      -6.040  -9.205   7.394  1.00  0.00     0.074 A 
ATOM     47  C   UNL     1      -6.102  -8.901   5.981  1.00  0.00     0.031 C 
ATOM     48  C   UNL     1      -1.017  -5.819   9.433  1.00  0.00     0.029 A 
ATOM     49  C   UNL     1      -1.918  -6.667  10.220  1.00  0.00     0.049 A 
ATOM     50  H   UNL     1      -3.523  -7.779   9.490  1.00  0.00     0.167 HD
ATOM     51  C   UNL     1      -6.879 -10.074   8.013  1.00  0.00     0.034 A 
ATOM     52  C   UNL     1      -1.842  -6.872  11.557  1.00  0.00     0.034 A 
ATOM     53  C   UNL     1      -6.830 -10.404   9.416  1.00  0.00     0.049 A 
ATOM     54  C   UNL     1      -2.838  -7.789  12.246  1.00  0.00     0.074 A 
ATOM     55  C   UNL     1      -7.634 -11.288  10.117  1.00  0.00     0.029 A 
ATOM     56  N   UNL     1      -5.940  -9.869  10.335  1.00  0.00    -0.354 N 
ATOM     57  N   UNL     1      -3.826  -8.483  11.730  1.00  0.00    -0.248 NA
ATOM     58  C   UNL     1      -2.694  -7.959  13.702  1.00  0.00     0.031 C 
ATOM     59  C   UNL     1      -7.282 -11.230  11.469  1.00  0.00     0.029 A 
ATOM     60  C   UNL     1      -6.197 -10.381  11.600  1.00  0.00     0.049 A 
ATOM     61  H   UNL     1      -5.231  -9.221  10.122  1.00  0.00     0.167 HD
ATOM     62  C   UNL     1      -4.385  -9.201  12.791  1.00  0.00     0.074 A 
ATOM     63  C   UNL     1      -3.618  -8.869  13.970  1.00  0.00     0.031 C 
ATOM     64  C   UNL     1      -5.436 -10.062  12.784  1.00  0.00     0.034 A 
BRANCH  51  65
ATOM     65  C   UNL     1      -7.970 -10.696   7.174  1.00  0.00     0.023 A 
ATOM     66  C   UNL     1      -7.687 -11.575   6.115  1.00  0.00     0.031 A 
ATOM     67  C   UNL     1      -9.318 -10.387   7.433  1.00  0.00     0.131 A 
ATOM     68  C   UNL     1      -8.730 -12.061   5.313  1.00  0.00     0.055 A 
ATOM     69  C   UNL     1     -10.357 -10.939   6.683  1.00  0.00     0.041 A 
ATOM     70  F   UNL     1      -9.647  -9.536   8.418  1.00  0.00    -0.206 F 
ATOM     71  C   UNL     1     -10.065 -11.771   5.606  1.00  0.00     0.022 A 
BRANCH  68  72
ATOM     72  S   UNL     1      -8.311 -12.966   3.798  1.00  0.00     0.124 S 
ATOM     73  O   UNL     1      -7.511 -11.979   3.077  1.00  0.00    -0.237 OA
ATOM     74  O   UNL     1      -7.587 -14.123   4.312  1.00  0.00    -0.237 OA
ATOM     75  O   UNL     1      -9.613 -13.258   3.202  1.00  0.00    -0.744 OA
ENDBRANCH  68  72
ENDBRANCH  51  65
BRANCH  52  76
ATOM     76  C   UNL     1      -0.818  -6.160  12.391  1.00  0.00     0.023 A 
ATOM     77  C   UNL     1       0.143  -6.862  13.143  1.00  0.00     0.031 A 
ATOM     78  C   UNL     1      -0.870  -4.762  12.543  1.00  0.00     0.131 A 
ATOM     79  C   UNL     1       0.967  -6.173  14.051  1.00  0.00     0.055 A 
ATOM     80  C   UNL     1      -0.008  -4.076  13.402  1.00  0.00     0.041 A 
ATOM     81  F   UNL     1      -1.775  -4.039  11.864  1.00  0.00    -0.206 F 
ATOM     82  C   UNL     1       0.907  -4.784  14.175  1.00  0.00     0.022 A 
BRANCH  79  83
ATOM     83  S   UNL     1       2.045  -7.130  15.157  1.00  0.00     0.124 S 
ATOM     84  O   UNL     1       1.081  -7.961  15.866  1.00  0.00    -0.237 OA
ATOM     85  O   UNL     1       2.914  -7.819  14.208  1.00  0.00    -0.237 OA
ATOM     86  O   UNL     1       2.701  -6.103  15.965  1.00  0.00    -0.744 OA
ENDBRANCH  79  83
ENDBRANCH  52  76
BRANCH  64  87
ATOM     87  C   UNL     1      -5.778 -10.771  14.079  1.00  0.00     0.023 A 
ATOM     88  C   UNL     1      -6.211 -10.079  15.226  1.00  0.00     0.031 A 
ATOM     89  C   UNL     1      -5.645 -12.170  14.173  1.00  0.00     0.131 A 
ATOM     90  C   UNL     1      -6.426 -10.774  16.428  1.00  0.00     0.055 A 
ATOM     91  C   UNL     1      -5.927 -12.864  15.352  1.00  0.00     0.041 A 
ATOM     92  F   UNL     1      -5.236 -12.890  13.117  1.00  0.00    -0.206 F 
ATOM     93  C   UNL     1      -6.302 -12.164  16.494  1.00  0.00     0.022 A 
BRANCH  90  94
ATOM     94  S   UNL     1      -6.749  -9.826  17.942  1.00  0.00     0.124 S 
ATOM     95  O   UNL     1      -5.614  -8.910  17.977  1.00  0.00    -0.237 OA
ATOM     96  O   UNL     1      -8.047  -9.221  17.659  1.00  0.00    -0.237 OA
ATOM     97  O   UNL     1      -6.756 -10.844  18.991  1.00  0.00    -0.744 OA
ENDBRANCH  90  94
ENDBRANCH  64  87
ENDBRANCH  38  39
ENDBRANCH  31  33
ENDBRANCH  30  31
ENDBRANCH  29  30
ENDBRANCH  28  29
ENDBRANCH   1  28
TORSDOF 23
