REMARK SMILES CCc1ccc(C[NH+]2CCC(Oc3ccccc3OC)(C(=O)OCCOCCOC(=O)c3ccc(-c4c5nc(c(-c6cc(S(=O)(=O)[O-])ccc6F)c6ccc([nH]6)c(-c6cc(S(=O)(=O)[O-])ccc6F)c6nc(c(-c7cc(S(=O)(=O)[O-])ccc7F)c7ccc4[nH]7)C=C6)C=C5)cc3)CC2)nc1
REMARK SMILES IDX 26 1 25 2 24 3 23 4 21 5 22 6 11 7 8 8 9 9 96 10 10 12 95 13
REMARK SMILES IDX 7 14 6 15 3 16 4 17 98 18 5 19 97 20 2 21 1 22 12 23 13 24
REMARK SMILES IDX 14 25 18 26 15 27 17 28 16 29 19 30 20 31 27 32 28 33 29 34
REMARK SMILES IDX 30 35 31 36 32 37 33 38 94 39 34 40 93 41 35 42 36 43 37 44
REMARK SMILES IDX 87 45 38 46 92 47 86 48 88 49 39 50 91 51 85 52 84 53 40 55
REMARK SMILES IDX 72 56 52 57 71 58 53 59 56 60 70 61 89 62 54 63 55 64 69 66
REMARK SMILES IDX 90 67 57 68 41 69 42 70 50 71 43 72 49 73 51 74 48 75 44 76
REMARK SMILES IDX 45 77 46 78 47 79 73 80 74 81 82 82 75 83 81 84 83 85 80 86
REMARK SMILES IDX 76 87 77 88 78 89 79 90 58 91 59 92 67 93 60 94 66 95 68 96
REMARK SMILES IDX 65 97 61 98 62 99 63 100 64 101
REMARK H PARENT 8 11 88 54 56 65
REMARK Flexibility Score: inf
ROOT
ATOM      1  O   UNL     1       4.708   1.347   2.119  1.00  0.00    -0.374 OA
ENDROOT
BRANCH   1   2
ATOM      2  C   UNL     1       5.677   1.892   3.010  1.00  0.00     0.202 C 
BRANCH   2   3
ATOM      3  C   UNL     1       6.713   2.874   2.454  1.00  0.00     0.261 C 
BRANCH   3   4
ATOM      4  O   UNL     1       6.165   4.153   2.054  1.00  0.00    -0.460 OA
BRANCH   4   5
ATOM      5  C   UNL     1       6.367   4.494   0.746  1.00  0.00     0.351 C 
ATOM      6  O   UNL     1       6.794   3.701  -0.094  1.00  0.00    -0.247 OA
BRANCH   5   7
ATOM      7  C   UNL     1       6.155   5.992   0.445  1.00  0.00     0.216 C 
ATOM      8  N   UNL     1       3.584   6.547  -0.948  1.00  0.00    -0.330 N 
ATOM      9  C   UNL     1       3.625   6.742   0.494  1.00  0.00     0.267 C 
ATOM     10  C   UNL     1       4.592   5.642  -1.483  1.00  0.00     0.267 C 
ATOM     11  H   UNL     1       3.859   7.456  -1.322  1.00  0.00     0.348 HD
ATOM     12  C   UNL     1       5.000   6.692   1.179  1.00  0.00     0.122 C 
ATOM     13  C   UNL     1       5.985   6.134  -1.075  1.00  0.00     0.122 C 
BRANCH   8  14
ATOM     14  C   UNL     1       2.218   6.291  -1.470  1.00  0.00     0.319 C 
BRANCH  14  15
ATOM     15  C   UNL     1       1.534   4.990  -1.058  1.00  0.00     0.095 A 
ATOM     16  C   UNL     1       0.484   2.567  -0.187  1.00  0.00    -0.030 A 
ATOM     17  C   UNL     1       0.025   3.769   0.363  1.00  0.00     0.007 A 
ATOM     18  C   UNL     1       1.403   2.674  -1.224  1.00  0.00     0.115 A 
ATOM     19  C   UNL     1       0.553   4.988  -0.067  1.00  0.00     0.030 A 
ATOM     20  N   UNL     1       1.936   3.843  -1.662  1.00  0.00    -0.255 NA
BRANCH  16  21
ATOM     21  C   UNL     1       0.073   1.263   0.456  1.00  0.00     0.034 C 
ATOM     22  C   UNL     1       0.704  -0.010  -0.099  1.00  0.00     0.009 C 
ENDBRANCH  16  21
ENDBRANCH  14  15
ENDBRANCH   8  14
BRANCH   7  23
ATOM     23  O   UNL     1       7.458   6.391   0.973  1.00  0.00    -0.471 OA
BRANCH  23  24
ATOM     24  C   UNL     1       7.937   7.632   0.689  1.00  0.00     0.162 A 
ATOM     25  C   UNL     1       8.830   7.731  -0.382  1.00  0.00     0.050 A 
ATOM     26  C   UNL     1       7.697   8.746   1.502  1.00  0.00     0.160 A 
ATOM     27  C   UNL     1       9.405   8.959  -0.708  1.00  0.00     0.004 A 
ATOM     28  C   UNL     1       8.238   9.982   1.141  1.00  0.00     0.050 A 
ATOM     29  C   UNL     1       9.092  10.090   0.042  1.00  0.00     0.004 A 
BRANCH  26  30
ATOM     30  O   UNL     1       6.877   8.770   2.598  1.00  0.00    -0.493 OA
ATOM     31  C   UNL     1       7.184   7.817   3.613  1.00  0.00     0.278 C 
ENDBRANCH  26  30
ENDBRANCH  23  24
ENDBRANCH   7  23
ENDBRANCH   5   7
ENDBRANCH   4   5
ENDBRANCH   3   4
ENDBRANCH   2   3
ENDBRANCH   1   2
BRANCH   1  32
ATOM     32  C   UNL     1       3.993   2.243   1.290  1.00  0.00     0.202 C 
BRANCH  32  33
ATOM     33  C   UNL     1       3.102   3.295   1.949  1.00  0.00     0.261 C 
BRANCH  33  34
ATOM     34  O   UNL     1       3.400   3.627   3.300  1.00  0.00    -0.460 OA
BRANCH  34  35
ATOM     35  C   UNL     1       2.493   3.159   4.186  1.00  0.00     0.338 C 
ATOM     36  O   UNL     1       1.422   2.611   3.954  1.00  0.00    -0.246 OA
BRANCH  35  37
ATOM     37  C   UNL     1       3.048   3.287   5.530  1.00  0.00     0.060 A 
ATOM     38  C   UNL     1       3.492   2.120   6.158  1.00  0.00     0.016 A 
ATOM     39  C   UNL     1       3.067   4.521   6.182  1.00  0.00     0.016 A 
ATOM     40  C   UNL     1       3.928   2.179   7.475  1.00  0.00     0.010 A 
ATOM     41  C   UNL     1       3.505   4.577   7.505  1.00  0.00     0.010 A 
ATOM     42  C   UNL     1       3.906   3.400   8.163  1.00  0.00    -0.014 A 
BRANCH  42  43
ATOM     43  C   UNL     1       4.180   3.406   9.616  1.00  0.00     0.031 A 
ATOM     44  C   UNL     1       3.022   3.424  10.571  1.00  0.00     0.074 A 
ATOM     45  C   UNL     1       5.447   3.344  10.059  1.00  0.00     0.049 A 
ATOM     46  N   UNL     1       3.025   3.415  11.878  1.00  0.00    -0.248 NA
ATOM     47  C   UNL     1       1.679   3.456   9.970  1.00  0.00     0.031 C 
ATOM     48  C   UNL     1       6.634   3.285   9.205  1.00  0.00     0.029 A 
ATOM     49  N   UNL     1       5.947   3.315  11.334  1.00  0.00    -0.354 N 
ATOM     50  C   UNL     1       1.688   3.436  12.258  1.00  0.00     0.074 A 
ATOM     51  C   UNL     1       0.904   3.503  11.043  1.00  0.00     0.031 C 
ATOM     52  C   UNL     1       7.728   3.225   9.984  1.00  0.00     0.029 A 
ATOM     53  C   UNL     1       7.320   3.278  11.385  1.00  0.00     0.049 A 
ATOM     54  H   UNL     1       5.378   3.320  12.137  1.00  0.00     0.167 HD
ATOM     55  C   UNL     1       1.166   3.392  13.509  1.00  0.00     0.034 A 
ATOM     56  C   UNL     1       8.149   3.303  12.447  1.00  0.00     0.034 A 
ATOM     57  C   UNL     1       1.973   3.345  14.704  1.00  0.00     0.049 A 
ATOM     58  C   UNL     1       7.546   3.335  13.830  1.00  0.00     0.074 A 
ATOM     59  C   UNL     1       1.561   3.294  16.023  1.00  0.00     0.029 A 
ATOM     60  N   UNL     1       3.364   3.359  14.723  1.00  0.00    -0.354 N 
ATOM     61  N   UNL     1       6.279   3.340  14.180  1.00  0.00    -0.248 NA
ATOM     62  C   UNL     1       8.483   3.353  14.960  1.00  0.00     0.031 C 
ATOM     63  C   UNL     1       2.697   3.349  16.839  1.00  0.00     0.029 A 
ATOM     64  C   UNL     1       3.824   3.353  16.030  1.00  0.00     0.049 A 
ATOM     65  H   UNL     1       3.938   3.372  13.923  1.00  0.00     0.167 HD
ATOM     66  C   UNL     1       6.269   3.333  15.572  1.00  0.00     0.074 A 
ATOM     67  C   UNL     1       7.655   3.307  15.994  1.00  0.00     0.031 C 
ATOM     68  C   UNL     1       5.213   3.342  16.426  1.00  0.00     0.034 A 
BRANCH  55  69
ATOM     69  C   UNL     1      -0.338   3.450  13.634  1.00  0.00     0.023 A 
ATOM     70  C   UNL     1      -1.166   2.437  13.118  1.00  0.00     0.031 A 
ATOM     71  C   UNL     1      -0.956   4.557  14.243  1.00  0.00     0.131 A 
ATOM     72  C   UNL     1      -2.561   2.584  13.157  1.00  0.00     0.055 A 
ATOM     73  C   UNL     1      -2.344   4.660  14.349  1.00  0.00     0.041 A 
ATOM     74  F   UNL     1      -0.220   5.568  14.731  1.00  0.00    -0.206 F 
ATOM     75  C   UNL     1      -3.156   3.678  13.790  1.00  0.00     0.022 A 
BRANCH  72  76
ATOM     76  S   UNL     1      -3.586   1.400  12.241  1.00  0.00     0.124 S 
ATOM     77  O   UNL     1      -3.077   1.560  10.880  1.00  0.00    -0.237 OA
ATOM     78  O   UNL     1      -3.272   0.137  12.896  1.00  0.00    -0.237 OA
ATOM     79  O   UNL     1      -4.947   1.891  12.450  1.00  0.00    -0.744 OA
ENDBRANCH  72  76
ENDBRANCH  55  69
BRANCH  56  80
ATOM     80  C   UNL     1       9.627   3.332  12.251  1.00  0.00     0.023 A 
ATOM     81  C   UNL     1      10.444   2.286  12.706  1.00  0.00     0.031 A 
ATOM     82  C   UNL     1      10.248   4.434  11.635  1.00  0.00     0.131 A 
ATOM     83  C   UNL     1      11.839   2.383  12.579  1.00  0.00     0.055 A 
ATOM     84  C   UNL     1      11.631   4.502  11.464  1.00  0.00     0.041 A 
ATOM     85  F   UNL     1       9.513   5.461  11.179  1.00  0.00    -0.206 F 
ATOM     86  C   UNL     1      12.437   3.477  11.950  1.00  0.00     0.022 A 
BRANCH  83  87
ATOM     87  S   UNL     1      12.871   1.091  13.324  1.00  0.00     0.124 S 
ATOM     88  O   UNL     1      12.452   1.143  14.720  1.00  0.00    -0.237 OA
ATOM     89  O   UNL     1      12.462  -0.092  12.575  1.00  0.00    -0.237 OA
ATOM     90  O   UNL     1      14.233   1.551  13.063  1.00  0.00    -0.744 OA
ENDBRANCH  83  87
ENDBRANCH  56  80
BRANCH  68  91
ATOM     91  C   UNL     1       5.530   3.283  17.900  1.00  0.00     0.023 A 
ATOM     92  C   UNL     1       6.173   4.343  18.562  1.00  0.00     0.031 A 
ATOM     93  C   UNL     1       5.192   2.142  18.649  1.00  0.00     0.131 A 
ATOM     94  C   UNL     1       6.510   4.218  19.918  1.00  0.00     0.055 A 
ATOM     95  C   UNL     1       5.474   2.048  20.013  1.00  0.00     0.041 A 
ATOM     96  F   UNL     1       4.577   1.099  18.067  1.00  0.00    -0.206 F 
ATOM     97  C   UNL     1       6.149   3.084  20.651  1.00  0.00     0.022 A 
BRANCH  94  98
ATOM     98  S   UNL     1       7.512   5.518  20.689  1.00  0.00     0.124 S 
ATOM     99  O   UNL     1       8.710   5.512  19.855  1.00  0.00    -0.237 OA
ATOM    100  O   UNL     1       6.653   6.690  20.563  1.00  0.00    -0.237 OA
ATOM    101  O   UNL     1       7.706   5.036  22.055  1.00  0.00    -0.744 OA
ENDBRANCH  94  98
ENDBRANCH  68  91
ENDBRANCH  42  43
ENDBRANCH  35  37
ENDBRANCH  34  35
ENDBRANCH  33  34
ENDBRANCH  32  33
ENDBRANCH   1  32
TORSDOF 23
