REMARK SMILES Cc1cccc(-c2ncc(C[NH+]3CCC4(CC3)NC(=O)C[C@H]4C(=O)OCCOCCOC(=O)c3ccc(-c4c5nc(c(-c6cc(S(=O)(=O)[O-])ccc6F)c6ccc([nH]6)c(-c6cc(S(=O)(=O)[O-])ccc6F)c6nc(c(-c7cc(S(=O)(=O)[O-])ccc7F)c7ccc4[nH]7)C=C6)C=C5)cc3)cn2)c1
REMARK SMILES IDX 28 1 27 2 26 3 25 4 23 5 24 6 22 7 12 8 13 9 17 10 14 12
REMARK SMILES IDX 16 13 15 14 18 15 19 16 21 18 20 19 11 20 10 21 7 22 8 23
REMARK SMILES IDX 98 24 9 25 97 26 6 27 1 28 2 29 3 30 99 31 4 32 5 33 29 34
REMARK SMILES IDX 30 35 31 36 32 37 33 38 34 39 35 40 96 41 36 42 95 43 37 44
REMARK SMILES IDX 38 45 39 46 89 47 40 48 94 49 88 50 90 51 41 52 93 53 87 54
REMARK SMILES IDX 86 55 42 57 74 58 54 59 73 60 55 61 58 62 72 63 91 64 56 65
REMARK SMILES IDX 57 66 71 68 92 69 59 70 43 71 44 72 52 73 45 74 51 75 53 76
REMARK SMILES IDX 50 77 46 78 47 79 48 80 49 81 75 82 76 83 84 84 77 85 83 86
REMARK SMILES IDX 85 87 82 88 78 89 79 90 80 91 81 92 60 93 61 94 69 95 62 96
REMARK SMILES IDX 68 97 70 98 67 99 63 100 64 101 65 102 66 103
REMARK H PARENT 12 11 18 17 90 56 58 67
REMARK Flexibility Score: inf
ROOT
ATOM      1  O   UNL     1      -2.238   7.087  -3.150  1.00  0.00    -0.374 OA
ENDROOT
BRANCH   1   2
ATOM      2  C   UNL     1      -2.131   5.672  -3.214  1.00  0.00     0.202 C 
BRANCH   2   3
ATOM      3  C   UNL     1      -0.658   5.351  -3.178  1.00  0.00     0.261 C 
BRANCH   3   4
ATOM      4  O   UNL     1       0.118   5.560  -1.969  1.00  0.00    -0.463 OA
BRANCH   4   5
ATOM      5  C   UNL     1       0.376   6.802  -1.482  1.00  0.00     0.311 C 
ATOM      6  O   UNL     1       0.379   7.838  -2.132  1.00  0.00    -0.252 OA
BRANCH   5   7
ATOM      7  C   UNL     1       0.576   6.771   0.043  1.00  0.00     0.134 C 
ATOM      8  N   UNL     1      -3.222   6.774   1.409  1.00  0.00    -0.331 N 
ATOM      9  C   UNL     1      -2.123   7.046   2.342  1.00  0.00     0.264 C 
ATOM     10  C   UNL     1      -2.700   6.627   0.062  1.00  0.00     0.264 C 
ATOM     11  H   UNL     1      -3.796   7.612   1.499  1.00  0.00     0.348 HD
ATOM     12  C   UNL     1      -0.810   6.228   2.211  1.00  0.00     0.091 C 
ATOM     13  C   UNL     1      -1.680   5.514   0.037  1.00  0.00     0.091 C 
ATOM     14  C   UNL     1      -0.400   5.820   0.771  1.00  0.00     0.064 C 
ATOM     15  N   UNL     1       0.390   4.606   0.838  1.00  0.00    -0.349 N 
ATOM     16  C   UNL     1       1.742   4.776   0.650  1.00  0.00     0.221 C 
ATOM     17  H   UNL     1      -0.012   3.724   1.006  1.00  0.00     0.164 HD
ATOM     18  C   UNL     1       1.974   6.248   0.417  1.00  0.00     0.117 C 
ATOM     19  O   UNL     1       2.579   3.913   0.725  1.00  0.00    -0.275 OA
BRANCH   8  20
ATOM     20  C   UNL     1      -4.269   5.777   1.748  1.00  0.00     0.302 C 
BRANCH  20  21
ATOM     21  C   UNL     1      -3.934   4.309   1.658  1.00  0.00     0.043 A 
ATOM     22  C   UNL     1      -2.710   1.893   1.262  1.00  0.00     0.159 A 
ATOM     23  N   UNL     1      -2.534   2.507   2.451  1.00  0.00    -0.236 NA
ATOM     24  N   UNL     1      -3.583   2.320   0.327  1.00  0.00    -0.236 NA
ATOM     25  C   UNL     1      -3.177   3.682   2.626  1.00  0.00     0.124 A 
ATOM     26  C   UNL     1      -4.148   3.534   0.525  1.00  0.00     0.124 A 
BRANCH  22  27
ATOM     27  C   UNL     1      -1.838   0.745   0.948  1.00  0.00     0.019 A 
ATOM     28  C   UNL     1       1.894   0.048   0.366  1.00  0.00     0.044 C 
ATOM     29  C   UNL     1       0.417  -0.177   0.534  1.00  0.00    -0.050 A 
ATOM     30  C   UNL     1      -0.149  -1.406   0.198  1.00  0.00     0.003 A 
ATOM     31  C   UNL     1      -0.429   0.859   0.965  1.00  0.00     0.015 A 
ATOM     32  C   UNL     1      -1.535  -1.562   0.214  1.00  0.00     0.001 A 
ATOM     33  C   UNL     1      -2.369  -0.490   0.554  1.00  0.00     0.012 A 
ENDBRANCH  22  27
ENDBRANCH  20  21
ENDBRANCH   8  20
ENDBRANCH   5   7
ENDBRANCH   4   5
ENDBRANCH   3   4
ENDBRANCH   2   3
ENDBRANCH   1   2
BRANCH   1  34
ATOM     34  C   UNL     1      -3.523   7.665  -3.267  1.00  0.00     0.202 C 
BRANCH  34  35
ATOM     35  C   UNL     1      -4.535   6.955  -4.178  1.00  0.00     0.261 C 
BRANCH  35  36
ATOM     36  O   UNL     1      -4.297   7.262  -5.570  1.00  0.00    -0.460 OA
BRANCH  36  37
ATOM     37  C   UNL     1      -3.727   6.274  -6.318  1.00  0.00     0.338 C 
ATOM     38  O   UNL     1      -4.303   5.265  -6.683  1.00  0.00    -0.246 OA
BRANCH  37  39
ATOM     39  C   UNL     1      -2.283   6.572  -6.546  1.00  0.00     0.060 A 
ATOM     40  C   UNL     1      -1.398   5.569  -6.985  1.00  0.00     0.016 A 
ATOM     41  C   UNL     1      -1.780   7.764  -6.041  1.00  0.00     0.016 A 
ATOM     42  C   UNL     1      -0.017   5.707  -6.769  1.00  0.00     0.010 A 
ATOM     43  C   UNL     1      -0.455   7.815  -5.680  1.00  0.00     0.010 A 
ATOM     44  C   UNL     1       0.444   6.794  -6.034  1.00  0.00    -0.014 A 
BRANCH  44  45
ATOM     45  C   UNL     1       1.795   6.986  -5.487  1.00  0.00     0.031 A 
ATOM     46  C   UNL     1       2.492   8.221  -5.898  1.00  0.00     0.074 A 
ATOM     47  C   UNL     1       2.302   6.242  -4.468  1.00  0.00     0.049 A 
ATOM     48  N   UNL     1       3.716   8.469  -5.613  1.00  0.00    -0.248 NA
ATOM     49  C   UNL     1       1.889   9.273  -6.719  1.00  0.00     0.031 C 
ATOM     50  C   UNL     1       3.376   6.572  -3.525  1.00  0.00     0.029 A 
ATOM     51  N   UNL     1       1.964   4.943  -4.080  1.00  0.00    -0.354 N 
ATOM     52  C   UNL     1       3.950   9.792  -5.876  1.00  0.00     0.074 A 
ATOM     53  C   UNL     1       2.843  10.205  -6.693  1.00  0.00     0.031 C 
ATOM     54  C   UNL     1       3.793   5.446  -2.915  1.00  0.00     0.029 A 
ATOM     55  C   UNL     1       3.106   4.334  -3.545  1.00  0.00     0.049 A 
ATOM     56  H   UNL     1       1.076   4.527  -4.168  1.00  0.00     0.167 HD
ATOM     57  C   UNL     1       5.005  10.377  -5.247  1.00  0.00     0.034 A 
ATOM     58  C   UNL     1       3.607   3.232  -4.161  1.00  0.00     0.034 A 
ATOM     59  C   UNL     1       5.863   9.344  -4.618  1.00  0.00     0.049 A 
ATOM     60  C   UNL     1       4.945   3.603  -4.766  1.00  0.00     0.074 A 
ATOM     61  C   UNL     1       6.201   8.972  -3.329  1.00  0.00     0.029 A 
ATOM     62  N   UNL     1       6.286   8.284  -5.418  1.00  0.00    -0.354 N 
ATOM     63  N   UNL     1       5.497   4.780  -4.617  1.00  0.00    -0.248 NA
ATOM     64  C   UNL     1       5.742   2.735  -5.617  1.00  0.00     0.031 C 
ATOM     65  C   UNL     1       6.775   7.651  -3.381  1.00  0.00     0.029 A 
ATOM     66  C   UNL     1       6.841   7.241  -4.703  1.00  0.00     0.049 A 
ATOM     67  H   UNL     1       6.197   8.279  -6.399  1.00  0.00     0.167 HD
ATOM     68  C   UNL     1       6.616   4.895  -5.374  1.00  0.00     0.074 A 
ATOM     69  C   UNL     1       6.725   3.574  -5.995  1.00  0.00     0.031 C 
ATOM     70  C   UNL     1       7.325   6.070  -5.446  1.00  0.00     0.034 A 
BRANCH  57  71
ATOM     71  C   UNL     1       5.196  11.875  -5.088  1.00  0.00     0.023 A 
ATOM     72  C   UNL     1       6.298  12.331  -4.338  1.00  0.00     0.031 A 
ATOM     73  C   UNL     1       4.336  12.901  -5.553  1.00  0.00     0.131 A 
ATOM     74  C   UNL     1       6.504  13.704  -4.087  1.00  0.00     0.055 A 
ATOM     75  C   UNL     1       4.565  14.267  -5.340  1.00  0.00     0.041 A 
ATOM     76  F   UNL     1       3.195  12.664  -6.203  1.00  0.00    -0.206 F 
ATOM     77  C   UNL     1       5.652  14.678  -4.599  1.00  0.00     0.022 A 
BRANCH  74  78
ATOM     78  S   UNL     1       7.896  14.210  -3.046  1.00  0.00     0.124 S 
ATOM     79  O   UNL     1       7.542  13.622  -1.758  1.00  0.00    -0.237 OA
ATOM     80  O   UNL     1       9.034  13.619  -3.740  1.00  0.00    -0.237 OA
ATOM     81  O   UNL     1       7.839  15.671  -3.091  1.00  0.00    -0.744 OA
ENDBRANCH  74  78
ENDBRANCH  57  71
BRANCH  58  82
ATOM     82  C   UNL     1       2.482   2.388  -4.725  1.00  0.00     0.023 A 
ATOM     83  C   UNL     1       1.505   1.911  -3.802  1.00  0.00     0.031 A 
ATOM     84  C   UNL     1       2.088   2.482  -6.069  1.00  0.00     0.131 A 
ATOM     85  C   UNL     1       0.165   1.721  -4.202  1.00  0.00     0.055 A 
ATOM     86  C   UNL     1       0.765   2.222  -6.471  1.00  0.00     0.041 A 
ATOM     87  F   UNL     1       2.925   2.976  -6.992  1.00  0.00    -0.206 F 
ATOM     88  C   UNL     1      -0.211   1.892  -5.533  1.00  0.00     0.022 A 
BRANCH  85  89
ATOM     89  S   UNL     1      -1.162   1.601  -2.943  1.00  0.00     0.124 S 
ATOM     90  O   UNL     1      -1.356   0.159  -2.860  1.00  0.00    -0.237 OA
ATOM     91  O   UNL     1      -0.567   2.267  -1.788  1.00  0.00    -0.237 OA
ATOM     92  O   UNL     1      -2.260   2.354  -3.554  1.00  0.00    -0.744 OA
ENDBRANCH  85  89
ENDBRANCH  58  82
BRANCH  70  93
ATOM     93  C   UNL     1       8.526   6.207  -6.347  1.00  0.00     0.023 A 
ATOM     94  C   UNL     1       9.350   5.110  -6.610  1.00  0.00     0.031 A 
ATOM     95  C   UNL     1       8.883   7.415  -6.989  1.00  0.00     0.131 A 
ATOM     96  C   UNL     1      10.299   5.161  -7.636  1.00  0.00     0.055 A 
ATOM     97  C   UNL     1       9.918   7.497  -7.920  1.00  0.00     0.041 A 
ATOM     98  F   UNL     1       8.227   8.564  -6.787  1.00  0.00    -0.206 F 
ATOM     99  C   UNL     1      10.602   6.352  -8.287  1.00  0.00     0.022 A 
BRANCH  96 100
ATOM    100  S   UNL     1      11.009   3.598  -8.195  1.00  0.00     0.124 S 
ATOM    101  O   UNL     1      11.459   2.986  -6.949  1.00  0.00    -0.237 OA
ATOM    102  O   UNL     1       9.854   2.964  -8.828  1.00  0.00    -0.237 OA
ATOM    103  O   UNL     1      12.071   4.013  -9.107  1.00  0.00    -0.744 OA
ENDBRANCH  96 100
ENDBRANCH  70  93
ENDBRANCH  44  45
ENDBRANCH  37  39
ENDBRANCH  36  37
ENDBRANCH  35  36
ENDBRANCH  34  35
ENDBRANCH   1  34
TORSDOF 20
