REMARK SMILES O=C1OC(c2ccc(Cl)cc2)=N/C1=C/Nc1ccc(O)c(C(=O)OCCOCCOC(=O)c2ccc(-c3c4nc(c(-c5cc(S(=O)(=O)[O-])ccc5F)c5ccc([nH]5)c(-c5cc(S(=O)(=O)[O-])ccc5F)c5nc(c(-c6cc(S(=O)(=O)[O-])ccc6F)c6ccc3[nH]6)C=C5)C=C4)cc2)c1
REMARK SMILES IDX 27 1 26 2 25 3 24 4 22 5 23 6 21 7 16 8 17 9 96 10 18 11
REMARK SMILES IDX 19 12 15 13 14 15 1 16 2 17 3 18 13 19 4 20 12 21 5 22 6 23
REMARK SMILES IDX 11 24 7 25 10 26 8 27 9 28 20 29 28 31 29 32 30 33 31 34
REMARK SMILES IDX 32 35 33 36 34 37 95 38 35 39 94 40 36 41 37 42 38 43 88 44
REMARK SMILES IDX 39 45 93 46 87 47 89 48 40 49 92 50 86 51 85 52 41 54 73 55
REMARK SMILES IDX 53 56 72 57 54 58 57 59 71 60 90 61 55 62 56 63 70 65 91 66
REMARK SMILES IDX 58 67 42 68 43 69 51 70 44 71 50 72 52 73 49 74 45 75 46 76
REMARK SMILES IDX 47 77 48 78 74 79 75 80 83 81 76 82 82 83 84 84 81 85 77 86
REMARK SMILES IDX 78 87 79 88 80 89 59 90 60 91 68 92 61 93 67 94 69 95 66 96
REMARK SMILES IDX 62 97 63 98 64 99 65 100
REMARK H PARENT 15 14 20 30 89 53 57 64
REMARK Flexibility Score: inf
ROOT
ATOM      1  O   UNL     1      -5.333  -7.273  -2.515  1.00  0.00    -0.374 OA
ENDROOT
BRANCH   1   2
ATOM      2  C   UNL     1      -4.790  -8.561  -2.804  1.00  0.00     0.202 C 
BRANCH   2   3
ATOM      3  C   UNL     1      -3.306  -8.638  -3.170  1.00  0.00     0.261 C 
BRANCH   3   4
ATOM      4  O   UNL     1      -2.481  -8.150  -2.104  1.00  0.00    -0.460 OA
BRANCH   4   5
ATOM      5  C   UNL     1      -1.796  -7.016  -2.375  1.00  0.00     0.342 C 
ATOM      6  O   UNL     1      -1.754  -6.429  -3.447  1.00  0.00    -0.246 OA
BRANCH   5   7
ATOM      7  C   UNL     1      -1.248  -6.413  -1.139  1.00  0.00     0.103 A 
ATOM      8  C   UNL     1      -0.773  -4.324   0.023  1.00  0.00     0.039 A 
ATOM      9  C   UNL     1      -0.120  -5.056   1.019  1.00  0.00     0.030 A 
ATOM     10  C   UNL     1      -1.333  -5.013  -1.052  1.00  0.00     0.045 A 
ATOM     11  C   UNL     1      -0.084  -6.455   0.977  1.00  0.00     0.049 A 
ATOM     12  C   UNL     1      -0.652  -7.134  -0.102  1.00  0.00     0.130 A 
BRANCH   8  13
ATOM     13  N   UNL     1      -0.784  -2.923   0.023  1.00  0.00    -0.360 N 
ATOM     14  H   UNL     1      -1.659  -2.473  -0.012  1.00  0.00     0.166 HD
BRANCH  13  15
ATOM     15  C   UNL     1       0.339  -2.135   0.069  1.00  0.00     0.119 C 
ATOM     16  O   UNL     1      -1.903  -0.107   0.022  1.00  0.00    -0.244 OA
ATOM     17  C   UNL     1      -0.715   0.132   0.041  1.00  0.00     0.365 C 
ATOM     18  O   UNL     1      -0.113   1.357   0.078  1.00  0.00    -0.402 OA
ATOM     19  C   UNL     1       0.443  -0.803   0.035  1.00  0.00     0.168 C 
ATOM     20  C   UNL     1       1.217   1.118   0.040  1.00  0.00     0.231 C 
ATOM     21  N   UNL     1       1.623  -0.108   0.006  1.00  0.00    -0.204 NA
BRANCH  20  22
ATOM     22  C   UNL     1       2.053   2.312  -0.006  1.00  0.00     0.037 A 
ATOM     23  C   UNL     1       1.952   3.279   0.997  1.00  0.00     0.015 A 
ATOM     24  C   UNL     1       2.981   2.447  -1.043  1.00  0.00     0.015 A 
ATOM     25  C   UNL     1       2.796   4.391   0.963  1.00  0.00     0.021 A 
ATOM     26  C   UNL     1       3.809   3.570  -1.083  1.00  0.00     0.021 A 
ATOM     27  C   UNL     1       3.717   4.534  -0.078  1.00  0.00     0.041 A 
ATOM     28  Cl  UNL     1       4.753   5.907  -0.116  1.00  0.00    -0.084 Cl
ENDBRANCH  20  22
ENDBRANCH  13  15
ENDBRANCH   8  13
BRANCH  12  29
ATOM     29  O   UNL     1      -0.582  -8.495  -0.143  1.00  0.00    -0.507 OA
ATOM     30  H   UNL     1      -0.179  -8.965   0.560  1.00  0.00     0.293 HD
ENDBRANCH  12  29
ENDBRANCH   5   7
ENDBRANCH   4   5
ENDBRANCH   3   4
ENDBRANCH   2   3
ENDBRANCH   1   2
BRANCH   1  31
ATOM     31  C   UNL     1      -5.017  -6.685  -1.254  1.00  0.00     0.202 C 
BRANCH  31  32
ATOM     32  C   UNL     1      -5.697  -7.243   0.004  1.00  0.00     0.261 C 
BRANCH  32  33
ATOM     33  O   UNL     1      -5.382  -8.620   0.266  1.00  0.00    -0.460 OA
BRANCH  33  34
ATOM     34  C   UNL     1      -6.384  -9.487  -0.029  1.00  0.00     0.338 C 
ATOM     35  O   UNL     1      -7.495  -9.208  -0.448  1.00  0.00    -0.246 OA
BRANCH  34  36
ATOM     36  C   UNL     1      -5.888 -10.873   0.051  1.00  0.00     0.060 A 
ATOM     37  C   UNL     1      -6.038 -11.687  -1.080  1.00  0.00     0.016 A 
ATOM     38  C   UNL     1      -5.361 -11.391   1.234  1.00  0.00     0.016 A 
ATOM     39  C   UNL     1      -5.706 -13.038  -1.017  1.00  0.00     0.010 A 
ATOM     40  C   UNL     1      -5.034 -12.750   1.297  1.00  0.00     0.010 A 
ATOM     41  C   UNL     1      -5.239 -13.587   0.183  1.00  0.00    -0.014 A 
BRANCH  41  42
ATOM     42  C   UNL     1      -5.110 -15.060   0.323  1.00  0.00     0.031 A 
ATOM     43  C   UNL     1      -6.163 -15.810   1.094  1.00  0.00     0.074 A 
ATOM     44  C   UNL     1      -4.084 -15.720  -0.243  1.00  0.00     0.049 A 
ATOM     45  N   UNL     1      -6.213 -17.076   1.417  1.00  0.00    -0.248 NA
ATOM     46  C   UNL     1      -7.309 -15.020   1.569  1.00  0.00     0.031 C 
ATOM     47  C   UNL     1      -3.037 -15.110  -1.060  1.00  0.00     0.029 A 
ATOM     48  N   UNL     1      -3.751 -17.052  -0.208  1.00  0.00    -0.354 N 
ATOM     49  C   UNL     1      -7.387 -17.234   2.146  1.00  0.00     0.074 A 
ATOM     50  C   UNL     1      -7.997 -15.925   2.248  1.00  0.00     0.031 C 
ATOM     51  C   UNL     1      -2.172 -16.064  -1.443  1.00  0.00     0.029 A 
ATOM     52  C   UNL     1      -2.573 -17.342  -0.857  1.00  0.00     0.049 A 
ATOM     53  H   UNL     1      -4.302 -17.734   0.238  1.00  0.00     0.167 HD
ATOM     54  C   UNL     1      -7.911 -18.369   2.673  1.00  0.00     0.034 A 
ATOM     55  C   UNL     1      -1.882 -18.497  -0.938  1.00  0.00     0.034 A 
ATOM     56  C   UNL     1      -7.283 -19.665   2.565  1.00  0.00     0.049 A 
ATOM     57  C   UNL     1      -2.433 -19.729  -0.258  1.00  0.00     0.074 A 
ATOM     58  C   UNL     1      -7.732 -20.881   3.049  1.00  0.00     0.029 A 
ATOM     59  N   UNL     1      -6.066 -19.912   1.942  1.00  0.00    -0.354 N 
ATOM     60  N   UNL     1      -3.543 -19.868   0.432  1.00  0.00    -0.248 NA
ATOM     61  C   UNL     1      -1.642 -20.962  -0.374  1.00  0.00     0.031 C 
ATOM     62  C   UNL     1      -6.749 -21.843   2.797  1.00  0.00     0.029 A 
ATOM     63  C   UNL     1      -5.731 -21.252   2.066  1.00  0.00     0.049 A 
ATOM     64  H   UNL     1      -5.521 -19.235   1.481  1.00  0.00     0.167 HD
ATOM     65  C   UNL     1      -3.600 -21.212   0.795  1.00  0.00     0.074 A 
ATOM     66  C   UNL     1      -2.419 -21.841   0.241  1.00  0.00     0.031 C 
ATOM     67  C   UNL     1      -4.547 -21.870   1.513  1.00  0.00     0.034 A 
BRANCH  54  68
ATOM     68  C   UNL     1      -9.194 -18.246   3.461  1.00  0.00     0.023 A 
ATOM     69  C   UNL     1     -10.393 -17.811   2.869  1.00  0.00     0.031 A 
ATOM     70  C   UNL     1      -9.212 -18.547   4.835  1.00  0.00     0.131 A 
ATOM     71  C   UNL     1     -11.536 -17.621   3.660  1.00  0.00     0.055 A 
ATOM     72  C   UNL     1     -10.376 -18.441   5.598  1.00  0.00     0.041 A 
ATOM     73  F   UNL     1      -8.094 -18.942   5.463  1.00  0.00    -0.206 F 
ATOM     74  C   UNL     1     -11.544 -17.960   5.015  1.00  0.00     0.022 A 
BRANCH  71  75
ATOM     75  S   UNL     1     -12.967 -16.781   2.928  1.00  0.00     0.124 S 
ATOM     76  O   UNL     1     -12.379 -15.512   2.505  1.00  0.00    -0.237 OA
ATOM     77  O   UNL     1     -13.356 -17.694   1.859  1.00  0.00    -0.237 OA
ATOM     78  O   UNL     1     -13.911 -16.681   4.039  1.00  0.00    -0.744 OA
ENDBRANCH  71  75
ENDBRANCH  54  68
BRANCH  55  79
ATOM     79  C   UNL     1      -0.571 -18.546  -1.649  1.00  0.00     0.023 A 
ATOM     80  C   UNL     1      -0.381 -19.373  -2.767  1.00  0.00     0.031 A 
ATOM     81  C   UNL     1       0.533 -17.811  -1.180  1.00  0.00     0.131 A 
ATOM     82  C   UNL     1       0.893 -19.485  -3.346  1.00  0.00     0.055 A 
ATOM     83  C   UNL     1       1.783 -17.876  -1.799  1.00  0.00     0.041 A 
ATOM     84  F   UNL     1       0.412 -17.009  -0.109  1.00  0.00    -0.206 F 
ATOM     85  C   UNL     1       1.972 -18.729  -2.881  1.00  0.00     0.022 A 
BRANCH  82  86
ATOM     86  S   UNL     1       1.147 -20.718  -4.653  1.00  0.00     0.124 S 
ATOM     87  O   UNL     1       0.756 -21.949  -3.976  1.00  0.00    -0.237 OA
ATOM     88  O   UNL     1       0.243 -20.243  -5.696  1.00  0.00    -0.237 OA
ATOM     89  O   UNL     1       2.570 -20.598  -4.961  1.00  0.00    -0.744 OA
ENDBRANCH  82  86
ENDBRANCH  55  79
BRANCH  67  90
ATOM     90  C   UNL     1      -4.378 -23.362   1.686  1.00  0.00     0.023 A 
ATOM     91  C   UNL     1      -3.312 -23.915   2.417  1.00  0.00     0.031 A 
ATOM     92  C   UNL     1      -5.306 -24.246   1.105  1.00  0.00     0.131 A 
ATOM     93  C   UNL     1      -3.168 -25.309   2.498  1.00  0.00     0.055 A 
ATOM     94  C   UNL     1      -5.197 -25.630   1.249  1.00  0.00     0.041 A 
ATOM     95  F   UNL     1      -6.342 -23.778   0.390  1.00  0.00    -0.206 F 
ATOM     96  C   UNL     1      -4.115 -26.169   1.938  1.00  0.00     0.022 A 
BRANCH  93  97
ATOM     97  S   UNL     1      -1.669 -25.988   3.261  1.00  0.00     0.124 S 
ATOM     98  O   UNL     1      -0.616 -25.390   2.446  1.00  0.00    -0.237 OA
ATOM     99  O   UNL     1      -1.767 -25.500   4.633  1.00  0.00    -0.237 OA
ATOM    100  O   UNL     1      -1.828 -27.433   3.105  1.00  0.00    -0.744 OA
ENDBRANCH  93  97
ENDBRANCH  67  90
ENDBRANCH  41  42
ENDBRANCH  34  36
ENDBRANCH  33  34
ENDBRANCH  32  33
ENDBRANCH  31  32
ENDBRANCH   1  31
TORSDOF 21
