REMARK SMILES O=C(OCCOCCOC(=O)c1ccccc1Nc1nc(Cl)nc(Nc2ccc(N3CCOCC3=O)cc2)n1)c1ccc(-c2c3nc(c(-c4cc(S(=O)(=O)[O-])ccc4F)c4ccc([nH]4)c(-c4cc(S(=O)(=O)[O-])ccc4F)c4nc(c(-c5cc(S(=O)(=O)[O-])ccc5F)c5ccc2[nH]5)C=C4)C=C3)cc1
REMARK SMILES IDX 7 1 6 2 5 3 4 4 3 5 2 6 1 7 40 8 41 9 102 10 42 11 101 12
REMARK SMILES IDX 43 13 44 14 45 15 95 16 46 17 100 18 94 19 96 20 47 21 99 22
REMARK SMILES IDX 93 23 92 24 48 26 80 27 60 28 79 29 61 30 64 31 78 32 97 33
REMARK SMILES IDX 62 34 63 35 77 37 98 38 65 39 49 40 50 41 58 42 51 43 57 44
REMARK SMILES IDX 59 45 56 46 52 47 53 48 54 49 55 50 81 51 82 52 90 53 83 54
REMARK SMILES IDX 89 55 91 56 88 57 84 58 85 59 86 60 87 61 66 62 67 63 75 64
REMARK SMILES IDX 68 65 74 66 76 67 73 68 69 69 70 70 71 71 72 72 8 73 9 74
REMARK SMILES IDX 10 75 11 76 12 77 13 78 17 79 14 80 16 81 15 82 18 83 19 85
REMARK SMILES IDX 20 86 39 87 21 88 24 89 22 90 23 91 25 92 26 94 27 95 38 96
REMARK SMILES IDX 28 97 37 98 29 99 30 100 31 101 35 102 32 103 34 104 36 105
REMARK SMILES IDX 33 106
REMARK H PARENT 96 25 64 36 18 84 25 93
REMARK Flexibility Score: inf
ROOT
ATOM      1  C   UNL     1       2.930  -2.119   0.204  1.00  0.00     0.202 C 
ENDROOT
BRANCH   1   2
ATOM      2  O   UNL     1       4.229  -1.542   0.365  1.00  0.00    -0.374 OA
BRANCH   2   3
ATOM      3  C   UNL     1       4.398  -0.637   1.453  1.00  0.00     0.202 C 
BRANCH   3   4
ATOM      4  C   UNL     1       4.056   0.815   1.117  1.00  0.00     0.261 C 
BRANCH   4   5
ATOM      5  O   UNL     1       2.672   0.919   0.742  1.00  0.00    -0.460 OA
BRANCH   5   6
ATOM      6  C   UNL     1       2.150   1.103  -0.492  1.00  0.00     0.338 C 
ATOM      7  O   UNL     1       0.933   1.252  -0.595  1.00  0.00    -0.246 OA
BRANCH   6   8
ATOM      8  C   UNL     1       2.964   1.117  -1.746  1.00  0.00     0.060 A 
ATOM      9  C   UNL     1       4.170   0.438  -1.920  1.00  0.00     0.016 A 
ATOM     10  C   UNL     1       2.415   1.775  -2.860  1.00  0.00     0.016 A 
ATOM     11  C   UNL     1       4.838   0.432  -3.132  1.00  0.00     0.010 A 
ATOM     12  C   UNL     1       3.065   1.751  -4.099  1.00  0.00     0.010 A 
ATOM     13  C   UNL     1       4.285   1.080  -4.229  1.00  0.00    -0.014 A 
BRANCH  13  14
ATOM     14  C   UNL     1       5.084   1.114  -5.463  1.00  0.00     0.031 A 
ATOM     15  C   UNL     1       5.841   2.364  -5.775  1.00  0.00     0.074 A 
ATOM     16  C   UNL     1       5.232  -0.013  -6.182  1.00  0.00     0.049 A 
ATOM     17  N   UNL     1       6.582   2.648  -6.809  1.00  0.00    -0.248 NA
ATOM     18  C   UNL     1       5.761   3.436  -4.770  1.00  0.00     0.031 C 
ATOM     19  C   UNL     1       4.634  -1.308  -5.843  1.00  0.00     0.029 A 
ATOM     20  N   UNL     1       5.949  -0.265  -7.318  1.00  0.00    -0.354 N 
ATOM     21  C   UNL     1       7.038   3.943  -6.595  1.00  0.00     0.074 A 
ATOM     22  C   UNL     1       6.481   4.390  -5.337  1.00  0.00     0.031 C 
ATOM     23  C   UNL     1       5.021  -2.220  -6.749  1.00  0.00     0.029 A 
ATOM     24  C   UNL     1       5.823  -1.558  -7.771  1.00  0.00     0.049 A 
ATOM     25  H   UNL     1       6.502   0.413  -7.769  1.00  0.00     0.167 HD
ATOM     26  C   UNL     1       7.840   4.684  -7.395  1.00  0.00     0.034 A 
ATOM     27  C   UNL     1       6.270  -2.119  -8.911  1.00  0.00     0.034 A 
ATOM     28  C   UNL     1       8.344   4.192  -8.654  1.00  0.00     0.049 A 
ATOM     29  C   UNL     1       7.061  -1.238  -9.846  1.00  0.00     0.074 A 
ATOM     30  C   UNL     1       9.091   4.852  -9.610  1.00  0.00     0.029 A 
ATOM     31  N   UNL     1       8.131   2.901  -9.133  1.00  0.00    -0.354 N 
ATOM     32  N   UNL     1       7.421   0.018  -9.687  1.00  0.00    -0.248 NA
ATOM     33  C   UNL     1       7.496  -1.835 -11.111  1.00  0.00     0.031 C 
ATOM     34  C   UNL     1       9.270   3.983 -10.694  1.00  0.00     0.029 A 
ATOM     35  C   UNL     1       8.706   2.753 -10.383  1.00  0.00     0.049 A 
ATOM     36  H   UNL     1       7.643   2.195  -8.651  1.00  0.00     0.167 HD
ATOM     37  C   UNL     1       8.138   0.357 -10.828  1.00  0.00     0.074 A 
ATOM     38  C   UNL     1       8.178  -0.837 -11.654  1.00  0.00     0.031 C 
ATOM     39  C   UNL     1       8.709   1.541 -11.173  1.00  0.00     0.034 A 
BRANCH  26  40
ATOM     40  C   UNL     1       8.090   6.111  -6.969  1.00  0.00     0.023 A 
ATOM     41  C   UNL     1       8.759   6.427  -5.772  1.00  0.00     0.031 A 
ATOM     42  C   UNL     1       7.534   7.170  -7.710  1.00  0.00     0.131 A 
ATOM     43  C   UNL     1       8.765   7.751  -5.303  1.00  0.00     0.055 A 
ATOM     44  C   UNL     1       7.622   8.496  -7.281  1.00  0.00     0.041 A 
ATOM     45  F   UNL     1       6.855   6.929  -8.842  1.00  0.00    -0.206 F 
ATOM     46  C   UNL     1       8.222   8.791  -6.061  1.00  0.00     0.022 A 
BRANCH  43  47
ATOM     47  S   UNL     1       9.320   8.067  -3.603  1.00  0.00     0.124 S 
ATOM     48  O   UNL     1       8.395   7.240  -2.832  1.00  0.00    -0.237 OA
ATOM     49  O   UNL     1      10.706   7.616  -3.633  1.00  0.00    -0.237 OA
ATOM     50  O   UNL     1       9.136   9.508  -3.443  1.00  0.00    -0.744 OA
ENDBRANCH  43  47
ENDBRANCH  26  40
BRANCH  27  51
ATOM     51  C   UNL     1       5.905  -3.523  -9.266  1.00  0.00     0.023 A 
ATOM     52  C   UNL     1       6.878  -4.511  -9.483  1.00  0.00     0.031 A 
ATOM     53  C   UNL     1       4.554  -3.891  -9.431  1.00  0.00     0.131 A 
ATOM     54  C   UNL     1       6.491  -5.802  -9.883  1.00  0.00     0.055 A 
ATOM     55  C   UNL     1       4.172  -5.189  -9.772  1.00  0.00     0.041 A 
ATOM     56  F   UNL     1       3.576  -2.989  -9.248  1.00  0.00    -0.206 F 
ATOM     57  C   UNL     1       5.144  -6.151 -10.013  1.00  0.00     0.022 A 
BRANCH  54  58
ATOM     58  S   UNL     1       7.777  -7.006 -10.319  1.00  0.00     0.124 S 
ATOM     59  O   UNL     1       8.508  -6.296 -11.363  1.00  0.00    -0.237 OA
ATOM     60  O   UNL     1       8.476  -7.177  -9.049  1.00  0.00    -0.237 OA
ATOM     61  O   UNL     1       7.016  -8.169 -10.771  1.00  0.00    -0.744 OA
ENDBRANCH  54  58
ENDBRANCH  27  51
BRANCH  39  62
ATOM     62  C   UNL     1       9.450   1.570 -12.484  1.00  0.00     0.023 A 
ATOM     63  C   UNL     1       8.777   1.461 -13.712  1.00  0.00     0.031 A 
ATOM     64  C   UNL     1      10.848   1.712 -12.499  1.00  0.00     0.131 A 
ATOM     65  C   UNL     1       9.511   1.441 -14.906  1.00  0.00     0.055 A 
ATOM     66  C   UNL     1      11.566   1.756 -13.693  1.00  0.00     0.041 A 
ATOM     67  F   UNL     1      11.536   1.819 -11.351  1.00  0.00    -0.206 F 
ATOM     68  C   UNL     1      10.899   1.608 -14.905  1.00  0.00     0.022 A 
BRANCH  65  69
ATOM     69  S   UNL     1       8.635   1.104 -16.457  1.00  0.00     0.124 S 
ATOM     70  O   UNL     1       8.059  -0.211 -16.199  1.00  0.00    -0.237 OA
ATOM     71  O   UNL     1       7.689   2.212 -16.529  1.00  0.00    -0.237 OA
ATOM     72  O   UNL     1       9.697   1.130 -17.462  1.00  0.00    -0.744 OA
ENDBRANCH  65  69
ENDBRANCH  39  62
ENDBRANCH  13  14
ENDBRANCH   6   8
ENDBRANCH   5   6
ENDBRANCH   4   5
ENDBRANCH   3   4
ENDBRANCH   2   3
ENDBRANCH   1   2
BRANCH   1  73
ATOM     73  C   UNL     1       3.106  -3.615  -0.076  1.00  0.00     0.261 C 
BRANCH  73  74
ATOM     74  O   UNL     1       3.702  -4.213   1.088  1.00  0.00    -0.460 OA
BRANCH  74  75
ATOM     75  C   UNL     1       5.053  -4.081   1.192  1.00  0.00     0.340 C 
ATOM     76  O   UNL     1       5.843  -4.021   0.266  1.00  0.00    -0.246 OA
BRANCH  75  77
ATOM     77  C   UNL     1       5.416  -3.860   2.624  1.00  0.00     0.083 A 
ATOM     78  C   UNL     1       6.587  -3.126   2.867  1.00  0.00     0.018 A 
ATOM     79  C   UNL     1       4.620  -4.316   3.703  1.00  0.00     0.055 A 
ATOM     80  C   UNL     1       6.967  -2.821   4.171  1.00  0.00     0.001 A 
ATOM     81  C   UNL     1       5.020  -3.990   5.005  1.00  0.00     0.027 A 
ATOM     82  C   UNL     1       6.184  -3.251   5.237  1.00  0.00     0.002 A 
BRANCH  79  83
ATOM     83  N   UNL     1       3.497  -5.108   3.450  1.00  0.00    -0.323 N 
ATOM     84  H   UNL     1       3.310  -5.195   2.487  1.00  0.00     0.170 HD
BRANCH  83  85
ATOM     85  C   UNL     1       2.588  -5.797   4.223  1.00  0.00     0.233 A 
ATOM     86  N   UNL     1       2.176  -5.363   5.399  1.00  0.00    -0.182 NA
ATOM     87  N   UNL     1       2.188  -6.926   3.655  1.00  0.00    -0.176 NA
ATOM     88  C   UNL     1       1.269  -6.154   5.947  1.00  0.00     0.228 A 
ATOM     89  C   UNL     1       1.356  -7.681   4.345  1.00  0.00     0.233 A 
ATOM     90  Cl  UNL     1       0.632  -5.639   7.448  1.00  0.00    -0.041 Cl
ATOM     91  N   UNL     1       0.821  -7.314   5.498  1.00  0.00    -0.182 NA
BRANCH  89  92
ATOM     92  N   UNL     1       1.168  -8.958   3.832  1.00  0.00    -0.324 N 
ATOM     93  H   UNL     1       1.682  -9.179   3.022  1.00  0.00     0.170 HD
BRANCH  92  94
ATOM     94  C   UNL     1       0.344  -9.962   4.324  1.00  0.00     0.041 A 
ATOM     95  C   UNL     1       0.876 -11.216   4.638  1.00  0.00     0.028 A 
ATOM     96  C   UNL     1      -0.992  -9.696   4.627  1.00  0.00     0.028 A 
ATOM     97  C   UNL     1       0.093 -12.170   5.293  1.00  0.00     0.028 A 
ATOM     98  C   UNL     1      -1.790 -10.664   5.224  1.00  0.00     0.028 A 
ATOM     99  C   UNL     1      -1.247 -11.898   5.588  1.00  0.00     0.044 A 
BRANCH  99 100
ATOM    100  N   UNL     1      -2.031 -12.817   6.336  1.00  0.00    -0.308 N 
ATOM    101  C   UNL     1      -1.496 -13.203   7.647  1.00  0.00     0.154 C 
ATOM    102  C   UNL     1      -3.380 -13.010   6.025  1.00  0.00     0.253 C 
ATOM    103  C   UNL     1      -2.299 -14.306   8.320  1.00  0.00     0.183 C 
ATOM    104  C   UNL     1      -4.185 -13.826   7.044  1.00  0.00     0.260 C 
ATOM    105  O   UNL     1      -3.916 -12.647   4.976  1.00  0.00    -0.272 OA
ATOM    106  O   UNL     1      -3.674 -13.935   8.364  1.00  0.00    -0.370 OA
ENDBRANCH  99 100
ENDBRANCH  92  94
ENDBRANCH  89  92
ENDBRANCH  83  85
ENDBRANCH  79  83
ENDBRANCH  75  77
ENDBRANCH  74  75
ENDBRANCH  73  74
ENDBRANCH   1  73
TORSDOF 22
