REMARK SMILES Cc1cc2c(c(C)c1Br)C=C(C(=O)OCCOCCOC(=O)c1ccc(-c3c4nc(c(-c5cc(S(=O)(=O)[O-])ccc5F)c5ccc([nH]5)c(-c5cc(S(=O)(=O)[O-])ccc5F)c5nc(c(-c6cc(S(=O)(=O)[O-])ccc6F)c6ccc3[nH]6)C=C5)C=C4)cc1)[C@@H](C(F)(F)F)O2
REMARK SMILES IDX 18 1 17 2 16 3 15 4 14 5 12 6 13 7 11 8 1 9 2 10 3 11 8 12
REMARK SMILES IDX 4 13 6 14 9 15 5 16 91 17 7 18 10 19 86 20 87 21 88 22 89 23
REMARK SMILES IDX 90 24 19 25 20 26 21 27 22 28 23 29 24 30 85 31 25 32 84 33
REMARK SMILES IDX 26 34 27 35 28 36 78 37 29 38 83 39 77 40 79 41 30 42 82 43
REMARK SMILES IDX 76 44 75 45 31 47 63 48 43 49 62 50 44 51 47 52 61 53 80 54
REMARK SMILES IDX 45 55 46 56 60 58 81 59 48 60 32 61 33 62 41 63 34 64 40 65
REMARK SMILES IDX 42 66 39 67 35 68 36 69 37 70 38 71 64 72 65 73 73 74 66 75
REMARK SMILES IDX 72 76 74 77 71 78 67 79 68 80 69 81 70 82 49 83 50 84 58 85
REMARK SMILES IDX 51 86 57 87 59 88 56 89 52 90 53 91 54 92 55 93
REMARK H PARENT 79 46 47 57
REMARK Flexibility Score: inf
ROOT
ATOM      1  C   UNL     1       0.800   5.084   7.289  1.00  0.00     0.202 C 
ENDROOT
BRANCH   1   2
ATOM      2  O   UNL     1      -0.067   6.109   7.779  1.00  0.00    -0.374 OA
BRANCH   2   3
ATOM      3  C   UNL     1      -1.169   5.719   8.595  1.00  0.00     0.202 C 
BRANCH   3   4
ATOM      4  C   UNL     1      -2.393   5.132   7.884  1.00  0.00     0.261 C 
BRANCH   4   5
ATOM      5  O   UNL     1      -2.044   4.047   7.011  1.00  0.00    -0.460 OA
BRANCH   5   6
ATOM      6  C   UNL     1      -2.155   4.332   5.694  1.00  0.00     0.338 C 
ATOM      7  O   UNL     1      -2.624   5.345   5.195  1.00  0.00    -0.246 OA
BRANCH   6   8
ATOM      8  C   UNL     1      -1.490   3.285   4.896  1.00  0.00     0.087 C 
ATOM      9  C   UNL     1       1.069  -0.256   0.128  1.00  0.00     0.046 C 
ATOM     10  C   UNL     1       0.714   0.823   1.117  1.00  0.00    -0.033 A 
ATOM     11  C   UNL     1       0.057   0.451   2.297  1.00  0.00     0.051 A 
ATOM     12  C   UNL     1       1.007   2.185   0.897  1.00  0.00     0.024 A 
ATOM     13  C   UNL     1      -0.370   1.411   3.212  1.00  0.00     0.128 A 
ATOM     14  C   UNL     1       0.602   3.173   1.825  1.00  0.00    -0.026 A 
ATOM     15  Br  UNL     1       1.945   2.668  -0.702  1.00  0.00    -0.050 Br
ATOM     16  C   UNL     1      -0.136   2.768   2.969  1.00  0.00     0.021 A 
ATOM     17  O   UNL     1      -1.006   0.920   4.317  1.00  0.00    -0.475 OA
ATOM     18  C   UNL     1       0.920   4.640   1.642  1.00  0.00     0.046 C 
ATOM     19  C   UNL     1      -0.729   3.731   3.889  1.00  0.00     0.027 C 
ATOM     20  C   UNL     1      -1.699   1.835   5.211  1.00  0.00     0.316 C 
BRANCH  20  21
ATOM     21  C   UNL     1      -3.183   1.443   5.246  1.00  0.00     0.430 C 
ATOM     22  F   UNL     1      -3.333   0.117   5.480  1.00  0.00    -0.167 F 
ATOM     23  F   UNL     1      -3.853   2.092   6.225  1.00  0.00    -0.167 F 
ATOM     24  F   UNL     1      -3.804   1.720   4.076  1.00  0.00    -0.167 F 
ENDBRANCH  20  21
ENDBRANCH   6   8
ENDBRANCH   5   6
ENDBRANCH   4   5
ENDBRANCH   3   4
ENDBRANCH   2   3
ENDBRANCH   1   2
BRANCH   1  25
ATOM     25  C   UNL     1       1.669   4.330   8.303  1.00  0.00     0.261 C 
BRANCH  25  26
ATOM     26  O   UNL     1       0.889   3.472   9.157  1.00  0.00    -0.460 OA
BRANCH  26  27
ATOM     27  C   UNL     1       0.957   3.769  10.477  1.00  0.00     0.338 C 
ATOM     28  O   UNL     1       1.652   4.632  11.003  1.00  0.00    -0.246 OA
BRANCH  27  29
ATOM     29  C   UNL     1      -0.086   3.034  11.208  1.00  0.00     0.060 A 
ATOM     30  C   UNL     1      -1.084   3.778  11.850  1.00  0.00     0.016 A 
ATOM     31  C   UNL     1      -0.042   1.644  11.332  1.00  0.00     0.016 A 
ATOM     32  C   UNL     1      -2.027   3.134  12.647  1.00  0.00     0.010 A 
ATOM     33  C   UNL     1      -0.982   1.001  12.146  1.00  0.00     0.010 A 
ATOM     34  C   UNL     1      -1.959   1.747  12.830  1.00  0.00    -0.014 A 
BRANCH  34  35
ATOM     35  C   UNL     1      -2.813   1.117  13.865  1.00  0.00     0.031 A 
ATOM     36  C   UNL     1      -2.229   0.861  15.228  1.00  0.00     0.074 A 
ATOM     37  C   UNL     1      -4.109   0.853  13.620  1.00  0.00     0.049 A 
ATOM     38  N   UNL     1      -2.797   0.351  16.289  1.00  0.00    -0.248 NA
ATOM     39  C   UNL     1      -0.819   1.236  15.421  1.00  0.00     0.031 C 
ATOM     40  C   UNL     1      -4.798   1.115  12.356  1.00  0.00     0.029 A 
ATOM     41  N   UNL     1      -5.082   0.320  14.428  1.00  0.00    -0.354 N 
ATOM     42  C   UNL     1      -1.821   0.356  17.279  1.00  0.00     0.074 A 
ATOM     43  C   UNL     1      -0.612   0.877  16.679  1.00  0.00     0.031 C 
ATOM     44  C   UNL     1      -6.087   0.756  12.480  1.00  0.00     0.029 A 
ATOM     45  C   UNL     1      -6.309   0.208  13.818  1.00  0.00     0.049 A 
ATOM     46  H   UNL     1      -4.916   0.043  15.358  1.00  0.00     0.167 HD
ATOM     47  C   UNL     1      -1.930  -0.022  18.575  1.00  0.00     0.034 A 
ATOM     48  C   UNL     1      -7.473  -0.288  14.283  1.00  0.00     0.034 A 
ATOM     49  C   UNL     1      -3.136  -0.542  19.162  1.00  0.00     0.049 A 
ATOM     50  C   UNL     1      -7.537  -0.812  15.696  1.00  0.00     0.074 A 
ATOM     51  C   UNL     1      -3.351  -0.948  20.467  1.00  0.00     0.029 A 
ATOM     52  N   UNL     1      -4.330  -0.737  18.482  1.00  0.00    -0.354 N 
ATOM     53  N   UNL     1      -6.600  -0.816  16.616  1.00  0.00    -0.248 NA
ATOM     54  C   UNL     1      -8.809  -1.407  16.131  1.00  0.00     0.031 C 
ATOM     55  C   UNL     1      -4.653  -1.447  20.560  1.00  0.00     0.029 A 
ATOM     56  C   UNL     1      -5.272  -1.293  19.330  1.00  0.00     0.049 A 
ATOM     57  H   UNL     1      -4.484  -0.512  17.536  1.00  0.00     0.167 HD
ATOM     58  C   UNL     1      -7.176  -1.398  17.742  1.00  0.00     0.074 A 
ATOM     59  C   UNL     1      -8.542  -1.727  17.390  1.00  0.00     0.031 C 
ATOM     60  C   UNL     1      -6.624  -1.633  18.958  1.00  0.00     0.034 A 
BRANCH  47  61
ATOM     61  C   UNL     1      -0.701   0.088  19.437  1.00  0.00     0.023 A 
ATOM     62  C   UNL     1      -0.176   1.337  19.808  1.00  0.00     0.031 A 
ATOM     63  C   UNL     1      -0.057  -1.070  19.906  1.00  0.00     0.131 A 
ATOM     64  C   UNL     1       0.985   1.400  20.591  1.00  0.00     0.055 A 
ATOM     65  C   UNL     1       1.062  -1.001  20.736  1.00  0.00     0.041 A 
ATOM     66  F   UNL     1      -0.508  -2.287  19.564  1.00  0.00    -0.206 F 
ATOM     67  C   UNL     1       1.594   0.240  21.078  1.00  0.00     0.022 A 
BRANCH  64  68
ATOM     68  S   UNL     1       1.738   3.019  20.901  1.00  0.00     0.124 S 
ATOM     69  O   UNL     1       2.121   3.429  19.552  1.00  0.00    -0.237 OA
ATOM     70  O   UNL     1       0.644   3.768  21.509  1.00  0.00    -0.237 OA
ATOM     71  O   UNL     1       2.854   2.713  21.794  1.00  0.00    -0.744 OA
ENDBRANCH  64  68
ENDBRANCH  47  61
BRANCH  48  72
ATOM     72  C   UNL     1      -8.669  -0.342  13.397  1.00  0.00     0.023 A 
ATOM     73  C   UNL     1      -9.799   0.448  13.656  1.00  0.00     0.031 A 
ATOM     74  C   UNL     1      -8.702  -1.200  12.284  1.00  0.00     0.131 A 
ATOM     75  C   UNL     1     -10.925   0.349  12.823  1.00  0.00     0.055 A 
ATOM     76  C   UNL     1      -9.809  -1.267  11.436  1.00  0.00     0.041 A 
ATOM     77  F   UNL     1      -7.645  -1.976  11.994  1.00  0.00    -0.206 F 
ATOM     78  C   UNL     1     -10.932  -0.493  11.708  1.00  0.00     0.022 A 
BRANCH  75  79
ATOM     79  S   UNL     1     -12.402   1.318  13.235  1.00  0.00     0.124 S 
ATOM     80  O   UNL     1     -12.791   0.736  14.514  1.00  0.00    -0.237 OA
ATOM     81  O   UNL     1     -11.873   2.677  13.282  1.00  0.00    -0.237 OA
ATOM     82  O   UNL     1     -13.309   1.045  12.122  1.00  0.00    -0.744 OA
ENDBRANCH  75  79
ENDBRANCH  48  72
BRANCH  60  83
ATOM     83  C   UNL     1      -7.491  -2.272  20.009  1.00  0.00     0.023 A 
ATOM     84  C   UNL     1      -7.830  -3.633  19.945  1.00  0.00     0.031 A 
ATOM     85  C   UNL     1      -7.914  -1.531  21.127  1.00  0.00     0.131 A 
ATOM     86  C   UNL     1      -8.585  -4.212  20.975  1.00  0.00     0.055 A 
ATOM     87  C   UNL     1      -8.629  -2.121  22.169  1.00  0.00     0.041 A 
ATOM     88  F   UNL     1      -7.608  -0.228  21.237  1.00  0.00    -0.206 F 
ATOM     89  C   UNL     1      -8.970  -3.469  22.095  1.00  0.00     0.022 A 
BRANCH  86  90
ATOM     90  S   UNL     1      -9.070  -5.953  20.831  1.00  0.00     0.124 S 
ATOM     91  O   UNL     1      -9.980  -5.920  19.690  1.00  0.00    -0.237 OA
ATOM     92  O   UNL     1      -7.792  -6.621  20.607  1.00  0.00    -0.237 OA
ATOM     93  O   UNL     1      -9.700  -6.242  22.118  1.00  0.00    -0.744 OA
ENDBRANCH  86  90
ENDBRANCH  60  83
ENDBRANCH  34  35
ENDBRANCH  27  29
ENDBRANCH  26  27
ENDBRANCH  25  26
ENDBRANCH   1  25
TORSDOF 18
