REMARK SMILES NS(=O)(=O)c1ccc(-n2nc(C(F)(F)F)cc2-c2ccc(C(=O)OCCOCCOC(=O)c3ccc(-c4c5nc(c(-c6cc(S(=O)(=O)[O-])ccc6F)c6ccc([nH]6)c(-c6cc(S(=O)(=O)[O-])ccc6F)c6nc(c(-c7cc(S(=O)(=O)[O-])ccc7F)c7ccc4[nH]7)C=C6)C=C5)cc3)cc2)cc1
REMARK SMILES IDX 26 1 25 2 24 3 22 4 23 5 21 6 18 7 19 8 97 9 20 10 96 11
REMARK SMILES IDX 17 12 9 13 10 14 11 15 16 16 8 17 5 18 6 19 99 20 7 21 98 22
REMARK SMILES IDX 2 23 3 24 4 25 1 26 12 29 13 30 14 31 15 32 27 33 28 34
REMARK SMILES IDX 29 35 30 36 31 37 32 38 33 39 34 40 95 41 35 42 94 43 36 44
REMARK SMILES IDX 37 45 38 46 88 47 39 48 93 49 87 50 89 51 40 52 92 53 86 54
REMARK SMILES IDX 85 55 41 57 73 58 53 59 72 60 54 61 57 62 71 63 90 64 55 65
REMARK SMILES IDX 56 66 70 68 91 69 58 70 42 71 43 72 51 73 44 74 50 75 52 76
REMARK SMILES IDX 49 77 45 78 46 79 47 80 48 81 74 82 75 83 83 84 76 85 82 86
REMARK SMILES IDX 84 87 81 88 77 89 78 90 79 91 80 92 59 93 60 94 68 95 61 96
REMARK SMILES IDX 67 97 69 98 66 99 62 100 63 101 64 102 65 103
REMARK H PARENT 1 27 1 28 89 56 57 67
REMARK Flexibility Score: inf
ROOT
ATOM      1  C   UNL     1       9.861   1.913   2.226  1.00  0.00     0.202 C 
ENDROOT
BRANCH   1   2
ATOM      2  C   UNL     1       9.884   3.312   2.839  1.00  0.00     0.261 C 
BRANCH   2   3
ATOM      3  O   UNL     1       8.572   3.858   3.034  1.00  0.00    -0.460 OA
BRANCH   3   4
ATOM      4  C   UNL     1       8.253   4.846   2.165  1.00  0.00     0.338 C 
ATOM      5  O   UNL     1       8.971   5.330   1.304  1.00  0.00    -0.246 OA
BRANCH   4   6
ATOM      6  C   UNL     1       6.821   5.189   2.274  1.00  0.00     0.060 A 
ATOM      7  C   UNL     1       4.199   6.149   2.350  1.00  0.00     0.000 A 
ATOM      8  C   UNL     1       4.830   5.926   1.119  1.00  0.00     0.011 A 
ATOM      9  C   UNL     1       4.867   5.818   3.539  1.00  0.00     0.011 A 
ATOM     10  C   UNL     1       6.139   5.454   1.082  1.00  0.00     0.016 A 
ATOM     11  C   UNL     1       6.175   5.324   3.504  1.00  0.00     0.016 A 
BRANCH   7  12
ATOM     12  C   UNL     1       2.922   6.858   2.386  1.00  0.00     0.075 A 
ATOM     13  N   UNL     1       1.783   6.546   1.655  1.00  0.00    -0.233 N 
ATOM     14  N   UNL     1       0.923   7.598   1.594  1.00  0.00    -0.163 NA
ATOM     15  C   UNL     1       1.399   8.487   2.488  1.00  0.00     0.167 A 
ATOM     16  C   UNL     1       2.659   8.076   2.980  1.00  0.00     0.064 A 
BRANCH  13  17
ATOM     17  C   UNL     1       1.459   5.318   1.020  1.00  0.00     0.065 A 
ATOM     18  C   UNL     1       0.875   2.910  -0.255  1.00  0.00     0.082 A 
ATOM     19  C   UNL     1       1.536   2.895   0.975  1.00  0.00     0.024 A 
ATOM     20  C   UNL     1       0.478   4.120  -0.838  1.00  0.00     0.024 A 
ATOM     21  C   UNL     1       1.843   4.102   1.605  1.00  0.00     0.030 A 
ATOM     22  C   UNL     1       0.746   5.327  -0.186  1.00  0.00     0.030 A 
BRANCH  18  23
ATOM     23  S   UNL     1       0.533   1.412  -1.135  1.00  0.00     0.238 S 
ATOM     24  O   UNL     1       1.323   1.431  -2.346  1.00  0.00    -0.207 OA
ATOM     25  O   UNL     1      -0.895   1.213  -1.139  1.00  0.00    -0.207 OA
BRANCH  23  26
ATOM     26  N   UNL     1       1.183   0.197  -0.180  1.00  0.00    -0.225 NA
ATOM     27  H   UNL     1       1.024  -0.707  -0.626  1.00  0.00     0.137 HD
ATOM     28  H   UNL     1       0.734   0.208   0.736  1.00  0.00     0.137 HD
ENDBRANCH  23  26
ENDBRANCH  18  23
ENDBRANCH  13  17
BRANCH  15  29
ATOM     29  C   UNL     1       0.682   9.757   2.859  1.00  0.00     0.435 C 
ATOM     30  F   UNL     1       0.238  10.456   1.782  1.00  0.00    -0.164 F 
ATOM     31  F   UNL     1      -0.392   9.526   3.659  1.00  0.00    -0.164 F 
ATOM     32  F   UNL     1       1.495  10.604   3.553  1.00  0.00    -0.164 F 
ENDBRANCH  15  29
ENDBRANCH   7  12
ENDBRANCH   4   6
ENDBRANCH   3   4
ENDBRANCH   2   3
ENDBRANCH   1   2
BRANCH   1  33
ATOM     33  O   UNL     1       9.289   1.730   0.932  1.00  0.00    -0.374 OA
BRANCH  33  34
ATOM     34  C   UNL     1       7.887   1.879   0.721  1.00  0.00     0.202 C 
BRANCH  34  35
ATOM     35  C   UNL     1       6.925   0.854   1.308  1.00  0.00     0.261 C 
BRANCH  35  36
ATOM     36  O   UNL     1       7.053   0.773   2.715  1.00  0.00    -0.460 OA
BRANCH  36  37
ATOM     37  C   UNL     1       7.833  -0.249   3.131  1.00  0.00     0.338 C 
ATOM     38  O   UNL     1       8.532  -0.974   2.434  1.00  0.00    -0.246 OA
BRANCH  37  39
ATOM     39  C   UNL     1       7.653  -0.414   4.575  1.00  0.00     0.060 A 
ATOM     40  C   UNL     1       8.188  -1.590   5.100  1.00  0.00     0.016 A 
ATOM     41  C   UNL     1       6.620   0.296   5.201  1.00  0.00     0.016 A 
ATOM     42  C   UNL     1       7.432  -2.261   6.027  1.00  0.00     0.010 A 
ATOM     43  C   UNL     1       5.856  -0.386   6.106  1.00  0.00     0.010 A 
ATOM     44  C   UNL     1       6.209  -1.701   6.399  1.00  0.00    -0.014 A 
BRANCH  44  45
ATOM     45  C   UNL     1       5.290  -2.499   7.171  1.00  0.00     0.031 A 
ATOM     46  C   UNL     1       5.648  -2.489   8.602  1.00  0.00     0.074 A 
ATOM     47  C   UNL     1       4.187  -3.041   6.622  1.00  0.00     0.049 A 
ATOM     48  N   UNL     1       6.199  -3.438   9.281  1.00  0.00    -0.248 NA
ATOM     49  C   UNL     1       5.656  -1.181   9.284  1.00  0.00     0.031 C 
ATOM     50  C   UNL     1       3.654  -2.889   5.265  1.00  0.00     0.029 A 
ATOM     51  N   UNL     1       3.240  -3.799   7.226  1.00  0.00    -0.354 N 
ATOM     52  C   UNL     1       6.376  -2.907  10.551  1.00  0.00     0.074 A 
ATOM     53  C   UNL     1       6.321  -1.483  10.397  1.00  0.00     0.031 C 
ATOM     54  C   UNL     1       2.376  -3.339   5.232  1.00  0.00     0.029 A 
ATOM     55  C   UNL     1       2.046  -3.922   6.523  1.00  0.00     0.049 A 
ATOM     56  H   UNL     1       3.387  -4.231   8.099  1.00  0.00     0.167 HD
ATOM     57  C   UNL     1       6.226  -3.676  11.662  1.00  0.00     0.034 A 
ATOM     58  C   UNL     1       0.869  -4.395   7.027  1.00  0.00     0.034 A 
ATOM     59  C   UNL     1       6.301  -5.081  11.325  1.00  0.00     0.049 A 
ATOM     60  C   UNL     1       1.234  -5.200   8.230  1.00  0.00     0.074 A 
ATOM     61  C   UNL     1       7.278  -5.885  10.769  1.00  0.00     0.029 A 
ATOM     62  N   UNL     1       5.118  -5.768  11.159  1.00  0.00    -0.354 N 
ATOM     63  N   UNL     1       1.947  -6.294   8.156  1.00  0.00    -0.248 NA
ATOM     64  C   UNL     1       1.294  -4.516   9.516  1.00  0.00     0.031 C 
ATOM     65  C   UNL     1       6.579  -6.747   9.873  1.00  0.00     0.029 A 
ATOM     66  C   UNL     1       5.210  -6.493   9.992  1.00  0.00     0.049 A 
ATOM     67  H   UNL     1       4.343  -5.745  11.767  1.00  0.00     0.167 HD
ATOM     68  C   UNL     1       2.854  -6.215   9.204  1.00  0.00     0.074 A 
ATOM     69  C   UNL     1       2.356  -5.130  10.052  1.00  0.00     0.031 C 
ATOM     70  C   UNL     1       4.082  -6.814   9.132  1.00  0.00     0.034 A 
BRANCH  57  71
ATOM     71  C   UNL     1       5.638  -3.171  12.960  1.00  0.00     0.023 A 
ATOM     72  C   UNL     1       5.566  -4.086  14.022  1.00  0.00     0.031 A 
ATOM     73  C   UNL     1       4.920  -1.962  13.145  1.00  0.00     0.131 A 
ATOM     74  C   UNL     1       4.750  -3.833  15.138  1.00  0.00     0.055 A 
ATOM     75  C   UNL     1       4.167  -1.686  14.287  1.00  0.00     0.041 A 
ATOM     76  F   UNL     1       4.817  -1.013  12.209  1.00  0.00    -0.206 F 
ATOM     77  C   UNL     1       4.051  -2.638  15.280  1.00  0.00     0.022 A 
BRANCH  74  78
ATOM     78  S   UNL     1       4.481  -5.174  16.321  1.00  0.00     0.124 S 
ATOM     79  O   UNL     1       4.046  -6.257  15.445  1.00  0.00    -0.237 OA
ATOM     80  O   UNL     1       5.806  -5.316  16.915  1.00  0.00    -0.237 OA
ATOM     81  O   UNL     1       3.452  -4.637  17.208  1.00  0.00    -0.744 OA
ENDBRANCH  74  78
ENDBRANCH  57  71
BRANCH  58  82
ATOM     82  C   UNL     1      -0.493  -3.817   6.793  1.00  0.00     0.023 A 
ATOM     83  C   UNL     1      -1.700  -4.513   7.042  1.00  0.00     0.031 A 
ATOM     84  C   UNL     1      -0.616  -2.434   6.520  1.00  0.00     0.131 A 
ATOM     85  C   UNL     1      -2.945  -3.829   7.001  1.00  0.00     0.055 A 
ATOM     86  C   UNL     1      -1.843  -1.767   6.483  1.00  0.00     0.041 A 
ATOM     87  F   UNL     1       0.467  -1.658   6.358  1.00  0.00    -0.206 F 
ATOM     88  C   UNL     1      -3.014  -2.461   6.730  1.00  0.00     0.022 A 
BRANCH  85  89
ATOM     89  S   UNL     1      -4.512  -4.697   7.363  1.00  0.00     0.124 S 
ATOM     90  O   UNL     1      -4.611  -5.635   6.252  1.00  0.00    -0.237 OA
ATOM     91  O   UNL     1      -4.256  -5.271   8.678  1.00  0.00    -0.237 OA
ATOM     92  O   UNL     1      -5.509  -3.624   7.349  1.00  0.00    -0.744 OA
ENDBRANCH  85  89
ENDBRANCH  58  82
BRANCH  70  93
ATOM     93  C   UNL     1       4.361  -7.739   7.956  1.00  0.00     0.023 A 
ATOM     94  C   UNL     1       4.365  -7.345   6.595  1.00  0.00     0.031 A 
ATOM     95  C   UNL     1       4.783  -9.046   8.251  1.00  0.00     0.131 A 
ATOM     96  C   UNL     1       4.775  -8.253   5.594  1.00  0.00     0.055 A 
ATOM     97  C   UNL     1       5.212  -9.931   7.262  1.00  0.00     0.041 A 
ATOM     98  F   UNL     1       4.831  -9.472   9.524  1.00  0.00    -0.206 F 
ATOM     99  C   UNL     1       5.206  -9.540   5.928  1.00  0.00     0.022 A 
BRANCH  96 100
ATOM    100  S   UNL     1       4.753  -7.775   3.832  1.00  0.00     0.124 S 
ATOM    101  O   UNL     1       3.396  -7.280   3.634  1.00  0.00    -0.237 OA
ATOM    102  O   UNL     1       5.814  -6.775   3.760  1.00  0.00    -0.237 OA
ATOM    103  O   UNL     1       5.052  -9.028   3.135  1.00  0.00    -0.744 OA
ENDBRANCH  96 100
ENDBRANCH  70  93
ENDBRANCH  44  45
ENDBRANCH  37  39
ENDBRANCH  36  37
ENDBRANCH  35  36
ENDBRANCH  34  35
ENDBRANCH  33  34
ENDBRANCH   1  33
TORSDOF 22
