REMARK SMILES CC(C)CSc1cc2c(cc1Cl)C=C(C(=O)OCCOCCOC(=O)c1ccc(-c3c4nc(c(-c5cc(S(=O)(=O)[O-])ccc5F)c5ccc([nH]5)c(-c5cc(S(=O)(=O)[O-])ccc5F)c5nc(c(-c6cc(S(=O)(=O)[O-])ccc6F)c6ccc3[nH]6)C=C5)C=C4)cc1)[C@H](C(F)(F)F)O2
REMARK SMILES IDX 20 1 19 2 18 3 17 4 15 5 16 6 14 7 6 8 7 9 11 10 8 11 10 12
REMARK SMILES IDX 12 13 9 14 94 15 13 16 89 17 5 18 4 19 2 20 1 21 3 22 90 23
REMARK SMILES IDX 91 24 92 25 93 26 21 27 22 28 23 29 24 30 25 31 26 32 27 33
REMARK SMILES IDX 88 34 28 35 87 36 29 37 30 38 31 39 81 40 32 41 86 42 80 43
REMARK SMILES IDX 82 44 33 45 85 46 79 47 78 48 34 50 66 51 46 52 65 53 47 54
REMARK SMILES IDX 50 55 64 56 83 57 48 58 49 59 63 61 84 62 51 63 35 64 36 65
REMARK SMILES IDX 44 66 37 67 43 68 45 69 42 70 38 71 39 72 40 73 41 74 67 75
REMARK SMILES IDX 68 76 76 77 69 78 75 79 77 80 74 81 70 82 71 83 72 84 73 85
REMARK SMILES IDX 52 86 53 87 61 88 54 89 60 90 62 91 59 92 55 93 56 94 57 95
REMARK SMILES IDX 58 96
REMARK H PARENT 82 49 50 60
REMARK Flexibility Score: inf
ROOT
ATOM      1  O   UNL     1      -0.137   8.947   3.696  1.00  0.00    -0.374 OA
ENDROOT
BRANCH   1   2
ATOM      2  C   UNL     1      -0.241  10.076   2.830  1.00  0.00     0.202 C 
BRANCH   2   3
ATOM      3  C   UNL     1       0.370   9.930   1.433  1.00  0.00     0.261 C 
BRANCH   3   4
ATOM      4  O   UNL     1      -0.184   8.809   0.727  1.00  0.00    -0.460 OA
BRANCH   4   5
ATOM      5  C   UNL     1       0.642   7.747   0.622  1.00  0.00     0.338 C 
ATOM      6  O   UNL     1       1.829   7.710   0.904  1.00  0.00    -0.246 OA
BRANCH   5   7
ATOM      7  C   UNL     1      -0.130   6.550   0.262  1.00  0.00     0.087 C 
ATOM      8  C   UNL     1      -1.473   1.750  -0.403  1.00  0.00     0.030 A 
ATOM      9  C   UNL     1      -1.576   2.931  -1.173  1.00  0.00     0.063 A 
ATOM     10  C   UNL     1      -1.033   1.880   0.925  1.00  0.00     0.055 A 
ATOM     11  C   UNL     1      -1.145   4.162  -0.677  1.00  0.00     0.129 A 
ATOM     12  C   UNL     1      -0.500   3.094   1.379  1.00  0.00     0.033 A 
ATOM     13  Cl  UNL     1      -1.153   0.642   2.123  1.00  0.00    -0.083 Cl
ATOM     14  C   UNL     1      -0.519   4.221   0.564  1.00  0.00     0.019 A 
ATOM     15  O   UNL     1      -1.299   5.267  -1.476  1.00  0.00    -0.475 OA
ATOM     16  C   UNL     1       0.171   5.438   0.947  1.00  0.00     0.027 C 
ATOM     17  C   UNL     1      -1.191   6.567  -0.805  1.00  0.00     0.316 C 
BRANCH   8  18
ATOM     18  S   UNL     1      -1.951   0.269  -1.296  1.00  0.00    -0.124 SA
BRANCH  18  19
ATOM     19  C   UNL     1      -1.018  -1.143  -0.590  1.00  0.00     0.078 C 
BRANCH  19  20
ATOM     20  C   UNL     1       0.498  -1.282  -0.836  1.00  0.00    -0.007 C 
ATOM     21  C   UNL     1       1.373  -0.119  -0.378  1.00  0.00     0.008 C 
ATOM     22  C   UNL     1       0.980  -2.561  -0.130  1.00  0.00     0.008 C 
ENDBRANCH  19  20
ENDBRANCH  18  19
ENDBRANCH   8  18
BRANCH  17  23
ATOM     23  C   UNL     1      -2.568   7.037  -0.285  1.00  0.00     0.430 C 
ATOM     24  F   UNL     1      -3.576   6.613  -1.085  1.00  0.00    -0.167 F 
ATOM     25  F   UNL     1      -2.834   6.570   0.961  1.00  0.00    -0.167 F 
ATOM     26  F   UNL     1      -2.653   8.386  -0.236  1.00  0.00    -0.167 F 
ENDBRANCH  17  23
ENDBRANCH   5   7
ENDBRANCH   4   5
ENDBRANCH   3   4
ENDBRANCH   2   3
ENDBRANCH   1   2
BRANCH   1  27
ATOM     27  C   UNL     1      -1.125   7.921   3.558  1.00  0.00     0.202 C 
BRANCH  27  28
ATOM     28  C   UNL     1      -2.546   8.232   4.046  1.00  0.00     0.261 C 
BRANCH  28  29
ATOM     29  O   UNL     1      -3.232   9.114   3.139  1.00  0.00    -0.460 OA
BRANCH  29  30
ATOM     30  C   UNL     1      -3.525  10.345   3.635  1.00  0.00     0.338 C 
ATOM     31  O   UNL     1      -3.352  10.735   4.772  1.00  0.00    -0.246 OA
BRANCH  30  32
ATOM     32  C   UNL     1      -3.857  11.241   2.505  1.00  0.00     0.060 A 
ATOM     33  C   UNL     1      -4.876  10.939   1.601  1.00  0.00     0.016 A 
ATOM     34  C   UNL     1      -3.115  12.421   2.372  1.00  0.00     0.016 A 
ATOM     35  C   UNL     1      -5.170  11.843   0.574  1.00  0.00     0.010 A 
ATOM     36  C   UNL     1      -3.401  13.315   1.341  1.00  0.00     0.010 A 
ATOM     37  C   UNL     1      -4.447  13.044   0.447  1.00  0.00    -0.014 A 
BRANCH  37  38
ATOM     38  C   UNL     1      -4.870  14.095  -0.511  1.00  0.00     0.031 A 
ATOM     39  C   UNL     1      -4.092  14.381  -1.760  1.00  0.00     0.074 A 
ATOM     40  C   UNL     1      -5.940  14.849  -0.192  1.00  0.00     0.049 A 
ATOM     41  N   UNL     1      -4.322  15.283  -2.679  1.00  0.00    -0.248 NA
ATOM     42  C   UNL     1      -2.901  13.555  -2.012  1.00  0.00     0.031 C 
ATOM     43  C   UNL     1      -6.744  14.677   1.018  1.00  0.00     0.029 A 
ATOM     44  N   UNL     1      -6.527  15.910  -0.836  1.00  0.00    -0.354 N 
ATOM     45  C   UNL     1      -3.318  15.130  -3.626  1.00  0.00     0.074 A 
ATOM     46  C   UNL     1      -2.449  14.076  -3.147  1.00  0.00     0.031 C 
ATOM     47  C   UNL     1      -7.725  15.590   1.025  1.00  0.00     0.029 A 
ATOM     48  C   UNL     1      -7.596  16.445  -0.154  1.00  0.00     0.049 A 
ATOM     49  H   UNL     1      -6.214  16.255  -1.703  1.00  0.00     0.167 HD
ATOM     50  C   UNL     1      -3.156  15.799  -4.793  1.00  0.00     0.034 A 
ATOM     51  C   UNL     1      -8.378  17.510  -0.432  1.00  0.00     0.034 A 
ATOM     52  C   UNL     1      -4.035  16.851  -5.244  1.00  0.00     0.049 A 
ATOM     53  C   UNL     1      -8.143  18.271  -1.712  1.00  0.00     0.074 A 
ATOM     54  C   UNL     1      -3.986  17.543  -6.442  1.00  0.00     0.029 A 
ATOM     55  N   UNL     1      -5.103  17.372  -4.528  1.00  0.00    -0.354 N 
ATOM     56  N   UNL     1      -7.260  18.040  -2.655  1.00  0.00    -0.248 NA
ATOM     57  C   UNL     1      -9.008  19.429  -1.978  1.00  0.00     0.031 C 
ATOM     58  C   UNL     1      -4.964  18.536  -6.413  1.00  0.00     0.029 A 
ATOM     59  C   UNL     1      -5.689  18.407  -5.239  1.00  0.00     0.049 A 
ATOM     60  H   UNL     1      -5.401  17.055  -3.645  1.00  0.00     0.167 HD
ATOM     61  C   UNL     1      -7.481  19.003  -3.635  1.00  0.00     0.074 A 
ATOM     62  C   UNL     1      -8.594  19.809  -3.181  1.00  0.00     0.031 C 
ATOM     63  C   UNL     1      -6.816  19.198  -4.801  1.00  0.00     0.034 A 
BRANCH  50  64
ATOM     64  C   UNL     1      -2.015  15.421  -5.708  1.00  0.00     0.023 A 
ATOM     65  C   UNL     1      -1.044  16.380  -6.058  1.00  0.00     0.031 A 
ATOM     66  C   UNL     1      -2.000  14.185  -6.378  1.00  0.00     0.131 A 
ATOM     67  C   UNL     1      -0.133  16.106  -7.086  1.00  0.00     0.055 A 
ATOM     68  C   UNL     1      -1.060  13.900  -7.370  1.00  0.00     0.041 A 
ATOM     69  F   UNL     1      -2.909  13.241  -6.088  1.00  0.00    -0.206 F 
ATOM     70  C   UNL     1      -0.132  14.869  -7.740  1.00  0.00     0.022 A 
BRANCH  67  71
ATOM     71  S   UNL     1       1.024  17.371  -7.679  1.00  0.00     0.124 S 
ATOM     72  O   UNL     1       2.315  16.720  -7.462  1.00  0.00    -0.237 OA
ATOM     73  O   UNL     1       0.627  17.517  -9.076  1.00  0.00    -0.237 OA
ATOM     74  O   UNL     1       0.757  18.520  -6.821  1.00  0.00    -0.744 OA
ENDBRANCH  67  71
ENDBRANCH  50  64
BRANCH  51  75
ATOM     75  C   UNL     1      -9.481  17.863   0.508  1.00  0.00     0.023 A 
ATOM     76  C   UNL     1      -9.210  18.204   1.847  1.00  0.00     0.031 A 
ATOM     77  C   UNL     1     -10.825  17.747   0.117  1.00  0.00     0.131 A 
ATOM     78  C   UNL     1     -10.264  18.339   2.760  1.00  0.00     0.055 A 
ATOM     79  C   UNL     1     -11.875  17.960   1.012  1.00  0.00     0.041 A 
ATOM     80  F   UNL     1     -11.135  17.410  -1.145  1.00  0.00    -0.206 F 
ATOM     81  C   UNL     1     -11.596  18.238   2.347  1.00  0.00     0.022 A 
BRANCH  78  82
ATOM     82  S   UNL     1      -9.938  18.504   4.537  1.00  0.00     0.124 S 
ATOM     83  O   UNL     1     -10.582  19.776   4.849  1.00  0.00    -0.237 OA
ATOM     84  O   UNL     1     -10.598  17.315   5.071  1.00  0.00    -0.237 OA
ATOM     85  O   UNL     1      -8.482  18.495   4.623  1.00  0.00    -0.744 OA
ENDBRANCH  78  82
ENDBRANCH  51  75
BRANCH  63  86
ATOM     86  C   UNL     1      -7.244  20.322  -5.716  1.00  0.00     0.023 A 
ATOM     87  C   UNL     1      -7.681  20.031  -7.024  1.00  0.00     0.031 A 
ATOM     88  C   UNL     1      -7.018  21.666  -5.375  1.00  0.00     0.131 A 
ATOM     89  C   UNL     1      -7.801  21.061  -7.965  1.00  0.00     0.055 A 
ATOM     90  C   UNL     1      -7.197  22.696  -6.300  1.00  0.00     0.041 A 
ATOM     91  F   UNL     1      -6.594  21.995  -4.144  1.00  0.00    -0.206 F 
ATOM     92  C   UNL     1      -7.569  22.393  -7.608  1.00  0.00     0.022 A 
BRANCH  89  93
ATOM     93  S   UNL     1      -8.149  20.699  -9.709  1.00  0.00     0.124 S 
ATOM     94  O   UNL     1      -9.342  21.507  -9.954  1.00  0.00    -0.237 OA
ATOM     95  O   UNL     1      -6.933  21.168 -10.367  1.00  0.00    -0.237 OA
ATOM     96  O   UNL     1      -8.363  19.256  -9.733  1.00  0.00    -0.744 OA
ENDBRANCH  89  93
ENDBRANCH  63  86
ENDBRANCH  37  38
ENDBRANCH  30  32
ENDBRANCH  29  30
ENDBRANCH  28  29
ENDBRANCH  27  28
ENDBRANCH   1  27
TORSDOF 21
