REMARK SMILES CCC[C@H]1CCc2c(sc(NC(=O)[C@H]3[C@@H](C(=O)OCCOCCOC(=O)c4ccc(-c5c6nc(c(-c7cc(S(=O)(=O)[O-])ccc7F)c7ccc([nH]7)c(-c7cc(S(=O)(=O)[O-])ccc7F)c7nc(c(-c8cc(S(=O)(=O)[O-])ccc8F)c8ccc5[nH]8)C=C7)C=C6)cc4)[C@H]4CC[C@@H]3O4)c2C(N)=O)C1
REMARK SMILES IDX 20 1 19 2 18 3 16 4 17 5 15 6 14 7 93 8 90 9 92 10 94 11
REMARK SMILES IDX 91 12 12 13 11 14 13 16 10 17 4 18 5 19 99 20 6 21 8 22 7 23
REMARK SMILES IDX 9 24 95 25 3 26 2 27 1 28 96 29 97 30 98 31 21 34 22 35
REMARK SMILES IDX 23 36 24 37 25 38 26 39 27 40 28 41 89 42 29 43 88 44 30 45
REMARK SMILES IDX 31 46 32 47 82 48 33 49 87 50 81 51 83 52 34 53 86 54 80 55
REMARK SMILES IDX 79 56 35 58 67 59 47 60 66 61 48 62 51 63 65 64 84 65 49 66
REMARK SMILES IDX 50 67 64 69 85 70 52 71 36 72 37 73 45 74 38 75 44 76 46 77
REMARK SMILES IDX 43 78 39 79 40 80 41 81 42 82 68 83 69 84 77 85 70 86 76 87
REMARK SMILES IDX 78 88 75 89 71 90 72 91 73 92 74 93 53 94 54 95 62 96 55 97
REMARK SMILES IDX 61 98 63 99 60 100 56 101 57 102 58 103 59 104
REMARK H PARENT 11 15 97 32 97 33 83 57 51 68
REMARK Flexibility Score: inf
ROOT
ATOM      1  C   UNL     1      -0.736  -8.415   2.828  1.00  0.00     0.202 C 
ENDROOT
BRANCH   1   2
ATOM      2  C   UNL     1      -0.357  -7.010   2.354  1.00  0.00     0.261 C 
BRANCH   2   3
ATOM      3  O   UNL     1       0.184  -7.004   1.037  1.00  0.00    -0.463 OA
BRANCH   3   4
ATOM      4  C   UNL     1       1.530  -7.155   0.993  1.00  0.00     0.312 C 
ATOM      5  O   UNL     1       2.278  -7.198   1.959  1.00  0.00    -0.252 OA
BRANCH   4   6
ATOM      6  C   UNL     1       1.975  -7.192  -0.432  1.00  0.00     0.143 C 
ATOM      7  C   UNL     1       3.352  -7.837  -0.754  1.00  0.00     0.124 C 
ATOM      8  C   UNL     1       4.108  -6.584  -1.033  1.00  0.00     0.132 C 
ATOM      9  C   UNL     1       2.156  -5.718  -0.879  1.00  0.00     0.133 C 
ATOM     10  C   UNL     1       4.221  -5.676   0.199  1.00  0.00     0.035 C 
ATOM     11  O   UNL     1       3.190  -5.854  -1.874  1.00  0.00    -0.373 OA
ATOM     12  C   UNL     1       2.930  -4.880   0.134  1.00  0.00     0.036 C 
BRANCH   7  13
ATOM     13  C   UNL     1       4.057  -8.936   0.061  1.00  0.00     0.231 C 
ATOM     14  N   UNL     1       5.283  -8.923   0.667  1.00  0.00    -0.317 N 
ATOM     15  H   UNL     1       5.481  -9.772   1.126  1.00  0.00     0.170 HD
ATOM     16  O   UNL     1       3.449 -10.017   0.169  1.00  0.00    -0.274 OA
BRANCH  14  17
ATOM     17  C   UNL     1       6.310  -8.008   0.792  1.00  0.00     0.108 A 
ATOM     18  C   UNL     1       8.808  -4.275   2.791  1.00  0.00    -0.006 C 
ATOM     19  C   UNL     1       8.892  -4.157   1.260  1.00  0.00     0.009 C 
ATOM     20  C   UNL     1       8.485  -5.759   3.236  1.00  0.00     0.050 C 
ATOM     21  C   UNL     1       7.594  -4.579   0.643  1.00  0.00     0.038 C 
ATOM     22  C   UNL     1       7.671  -6.504   2.188  1.00  0.00     0.011 A 
ATOM     23  C   UNL     1       7.363  -6.008   0.936  1.00  0.00    -0.019 A 
ATOM     24  S   UNL     1       7.051  -8.083   2.361  1.00  0.00    -0.122 S 
ATOM     25  C   UNL     1       6.958  -7.046   0.030  1.00  0.00     0.077 A 
BRANCH  18  26
ATOM     26  C   UNL     1      10.057  -3.660   3.477  1.00  0.00     0.004 C 
BRANCH  26  27
ATOM     27  C   UNL     1      10.989  -2.808   2.585  1.00  0.00    -0.003 C 
ATOM     28  C   UNL     1      10.426  -1.465   2.118  1.00  0.00     0.004 C 
ENDBRANCH  26  27
ENDBRANCH  18  26
BRANCH  25  29
ATOM     29  C   UNL     1       7.146  -7.026  -1.423  1.00  0.00     0.251 C 
ATOM     30  N   UNL     1       6.866  -5.844  -2.065  1.00  0.00    -0.365 N 
ATOM     31  O   UNL     1       7.508  -8.002  -2.068  1.00  0.00    -0.269 OA
ATOM     32  H   UNL     1       6.575  -5.059  -1.546  1.00  0.00     0.159 HD
ATOM     33  H   UNL     1       6.957  -5.781  -3.043  1.00  0.00     0.159 HD
ENDBRANCH  25  29
ENDBRANCH  14  17
ENDBRANCH   7  13
ENDBRANCH   4   6
ENDBRANCH   3   4
ENDBRANCH   2   3
ENDBRANCH   1   2
BRANCH   1  34
ATOM     34  O   UNL     1       0.206  -9.472   2.875  1.00  0.00    -0.374 OA
BRANCH  34  35
ATOM     35  C   UNL     1       0.834  -9.992   1.711  1.00  0.00     0.202 C 
BRANCH  35  36
ATOM     36  C   UNL     1       0.121 -10.306   0.379  1.00  0.00     0.261 C 
BRANCH  36  37
ATOM     37  O   UNL     1      -0.962  -9.449   0.017  1.00  0.00    -0.460 OA
BRANCH  37  38
ATOM     38  C   UNL     1      -2.179  -9.979   0.283  1.00  0.00     0.338 C 
ATOM     39  O   UNL     1      -2.417 -11.069   0.791  1.00  0.00    -0.246 OA
BRANCH  38  40
ATOM     40  C   UNL     1      -3.207  -8.957   0.068  1.00  0.00     0.060 A 
ATOM     41  C   UNL     1      -3.892  -8.477   1.193  1.00  0.00     0.016 A 
ATOM     42  C   UNL     1      -3.551  -8.541  -1.218  1.00  0.00     0.016 A 
ATOM     43  C   UNL     1      -4.932  -7.578   1.040  1.00  0.00     0.010 A 
ATOM     44  C   UNL     1      -4.629  -7.670  -1.375  1.00  0.00     0.010 A 
ATOM     45  C   UNL     1      -5.337  -7.215  -0.246  1.00  0.00    -0.014 A 
BRANCH  45  46
ATOM     46  C   UNL     1      -6.637  -6.535  -0.397  1.00  0.00     0.031 A 
ATOM     47  C   UNL     1      -7.838  -7.377  -0.717  1.00  0.00     0.074 A 
ATOM     48  C   UNL     1      -6.739  -5.214  -0.180  1.00  0.00     0.049 A 
ATOM     49  N   UNL     1      -9.070  -7.010  -0.941  1.00  0.00    -0.248 NA
ATOM     50  C   UNL     1      -7.618  -8.832  -0.793  1.00  0.00     0.031 C 
ATOM     51  C   UNL     1      -5.639  -4.338   0.224  1.00  0.00     0.029 A 
ATOM     52  N   UNL     1      -7.820  -4.379  -0.269  1.00  0.00    -0.354 N 
ATOM     53  C   UNL     1      -9.768  -8.182  -1.209  1.00  0.00     0.074 A 
ATOM     54  C   UNL     1      -8.820  -9.271  -1.134  1.00  0.00     0.031 C 
ATOM     55  C   UNL     1      -6.102  -3.082   0.333  1.00  0.00     0.029 A 
ATOM     56  C   UNL     1      -7.513  -3.059  -0.043  1.00  0.00     0.049 A 
ATOM     57  H   UNL     1      -8.730  -4.694  -0.476  1.00  0.00     0.167 HD
ATOM     58  C   UNL     1     -11.083  -8.324  -1.496  1.00  0.00     0.034 A 
ATOM     59  C   UNL     1      -8.284  -1.961  -0.167  1.00  0.00     0.034 A 
ATOM     60  C   UNL     1     -12.000  -7.213  -1.560  1.00  0.00     0.049 A 
ATOM     61  C   UNL     1      -9.725  -2.141  -0.586  1.00  0.00     0.074 A 
ATOM     62  C   UNL     1     -13.358  -7.234  -1.815  1.00  0.00     0.029 A 
ATOM     63  N   UNL     1     -11.646  -5.881  -1.385  1.00  0.00    -0.354 N 
ATOM     64  N   UNL     1     -10.382  -3.253  -0.833  1.00  0.00    -0.248 NA
ATOM     65  C   UNL     1     -10.529  -0.923  -0.738  1.00  0.00     0.031 C 
ATOM     66  C   UNL     1     -13.807  -5.913  -1.887  1.00  0.00     0.029 A 
ATOM     67  C   UNL     1     -12.752  -5.069  -1.575  1.00  0.00     0.049 A 
ATOM     68  H   UNL     1     -10.743  -5.561  -1.159  1.00  0.00     0.167 HD
ATOM     69  C   UNL     1     -11.687  -2.866  -1.128  1.00  0.00     0.074 A 
ATOM     70  C   UNL     1     -11.724  -1.422  -1.015  1.00  0.00     0.031 C 
ATOM     71  C   UNL     1     -12.761  -3.630  -1.455  1.00  0.00     0.034 A 
BRANCH  58  72
ATOM     72  C   UNL     1     -11.585  -9.704  -1.839  1.00  0.00     0.023 A 
ATOM     73  C   UNL     1     -11.589 -10.757  -0.909  1.00  0.00     0.031 A 
ATOM     74  C   UNL     1     -12.064  -9.968  -3.135  1.00  0.00     0.131 A 
ATOM     75  C   UNL     1     -12.017 -12.035  -1.302  1.00  0.00     0.055 A 
ATOM     76  C   UNL     1     -12.560 -11.220  -3.498  1.00  0.00     0.041 A 
ATOM     77  F   UNL     1     -12.053  -9.010  -4.076  1.00  0.00    -0.206 F 
ATOM     78  C   UNL     1     -12.529 -12.266  -2.582  1.00  0.00     0.022 A 
BRANCH  75  79
ATOM     79  S   UNL     1     -11.780 -13.423  -0.159  1.00  0.00     0.124 S 
ATOM     80  O   UNL     1     -10.334 -13.398   0.041  1.00  0.00    -0.237 OA
ATOM     81  O   UNL     1     -12.591 -13.029   0.988  1.00  0.00    -0.237 OA
ATOM     82  O   UNL     1     -12.279 -14.574  -0.909  1.00  0.00    -0.744 OA
ENDBRANCH  75  79
ENDBRANCH  58  72
BRANCH  59  83
ATOM     83  C   UNL     1      -7.715  -0.599   0.049  1.00  0.00     0.023 A 
ATOM     84  C   UNL     1      -8.245   0.258   1.024  1.00  0.00     0.031 A 
ATOM     85  C   UNL     1      -6.686  -0.103  -0.773  1.00  0.00     0.131 A 
ATOM     86  C   UNL     1      -7.796   1.585   1.108  1.00  0.00     0.055 A 
ATOM     87  C   UNL     1      -6.194   1.196  -0.638  1.00  0.00     0.041 A 
ATOM     88  F   UNL     1      -6.143  -0.876  -1.727  1.00  0.00    -0.206 F 
ATOM     89  C   UNL     1      -6.763   2.056   0.295  1.00  0.00     0.022 A 
BRANCH  86  90
ATOM     90  S   UNL     1      -8.677   2.726   2.209  1.00  0.00     0.124 S 
ATOM     91  O   UNL     1     -10.046   2.610   1.718  1.00  0.00    -0.237 OA
ATOM     92  O   UNL     1      -8.413   2.143   3.520  1.00  0.00    -0.237 OA
ATOM     93  O   UNL     1      -8.029   4.010   1.956  1.00  0.00    -0.744 OA
ENDBRANCH  86  90
ENDBRANCH  59  83
BRANCH  71  94
ATOM     94  C   UNL     1     -14.078  -2.918  -1.650  1.00  0.00     0.023 A 
ATOM     95  C   UNL     1     -14.288  -2.018  -2.708  1.00  0.00     0.031 A 
ATOM     96  C   UNL     1     -15.142  -3.155  -0.760  1.00  0.00     0.131 A 
ATOM     97  C   UNL     1     -15.513  -1.343  -2.816  1.00  0.00     0.055 A 
ATOM     98  C   UNL     1     -16.382  -2.536  -0.916  1.00  0.00     0.041 A 
ATOM     99  F   UNL     1     -14.995  -4.003   0.271  1.00  0.00    -0.206 F 
ATOM    100  C   UNL     1     -16.569  -1.614  -1.940  1.00  0.00     0.022 A 
BRANCH  97 101
ATOM    101  S   UNL     1     -15.678  -0.032  -4.058  1.00  0.00     0.124 S 
ATOM    102  O   UNL     1     -14.611   0.886  -3.672  1.00  0.00    -0.237 OA
ATOM    103  O   UNL     1     -15.474  -0.757  -5.307  1.00  0.00    -0.237 OA
ATOM    104  O   UNL     1     -17.035   0.470  -3.848  1.00  0.00    -0.744 OA
ENDBRANCH  97 101
ENDBRANCH  71  94
ENDBRANCH  45  46
ENDBRANCH  38  40
ENDBRANCH  37  38
ENDBRANCH  36  37
ENDBRANCH  35  36
ENDBRANCH  34  35
ENDBRANCH   1  34
TORSDOF 22
