REMARK SMILES COC[C@@H](C)CC(=O)Nc1cccc(/C=C/C(=O)OCCOCCOC(=O)c2ccc(-c3c4nc(c(-c5cc(S(=O)(=O)[O-])ccc5F)c5ccc([nH]5)c(-c5cc(S(=O)(=O)[O-])ccc5F)c5nc(c(-c6cc(S(=O)(=O)[O-])ccc6F)c6ccc3[nH]6)C=C5)C=C4)cc2)c1
REMARK SMILES IDX 20 1 19 2 17 3 18 4 16 5 15 6 14 7 10 8 11 9 91 10 12 11
REMARK SMILES IDX 13 12 9 13 7 14 8 15 6 17 4 18 5 19 3 20 2 21 1 22 21 23
REMARK SMILES IDX 22 24 23 25 24 26 25 27 26 28 27 29 28 30 29 31 90 32 30 33
REMARK SMILES IDX 89 34 31 35 32 36 33 37 83 38 34 39 88 40 82 41 84 42 35 43
REMARK SMILES IDX 87 44 81 45 80 46 36 48 68 49 48 50 67 51 49 52 52 53 66 54
REMARK SMILES IDX 85 55 50 56 51 57 65 59 86 60 53 61 37 62 38 63 46 64 39 65
REMARK SMILES IDX 45 66 47 67 44 68 40 69 41 70 42 71 43 72 69 73 70 74 78 75
REMARK SMILES IDX 71 76 77 77 79 78 76 79 72 80 73 81 74 82 75 83 54 84 55 85
REMARK SMILES IDX 63 86 56 87 62 88 64 89 61 90 57 91 58 92 59 93 60 94
REMARK H PARENT 9 16 84 47 52 58
REMARK Flexibility Score: inf
ROOT
ATOM      1  C   UNL     1       2.081  -1.535   3.517  1.00  0.00     0.261 C 
ENDROOT
BRANCH   1   2
ATOM      2  O   UNL     1       2.217  -1.586   2.083  1.00  0.00    -0.460 OA
BRANCH   2   3
ATOM      3  C   UNL     1       3.437  -1.952   1.626  1.00  0.00     0.330 C 
ATOM      4  O   UNL     1       4.437  -2.160   2.295  1.00  0.00    -0.247 OA
BRANCH   3   5
ATOM      5  C   UNL     1       3.482  -2.046   0.152  1.00  0.00     0.094 C 
ATOM      6  C   UNL     1       2.432  -2.153  -0.678  1.00  0.00     0.015 C 
BRANCH   6   7
ATOM      7  C   UNL     1       2.610  -2.123  -2.139  1.00  0.00    -0.023 A 
ATOM      8  C   UNL     1       1.945  -1.074  -4.240  1.00  0.00     0.041 A 
ATOM      9  C   UNL     1       2.953  -1.761  -4.909  1.00  0.00     0.026 A 
ATOM     10  C   UNL     1       1.729  -1.343  -2.890  1.00  0.00     0.034 A 
ATOM     11  C   UNL     1       3.795  -2.621  -4.194  1.00  0.00     0.003 A 
ATOM     12  C   UNL     1       3.636  -2.786  -2.813  1.00  0.00     0.008 A 
BRANCH   8  13
ATOM     13  N   UNL     1       1.131  -0.164  -4.932  1.00  0.00    -0.326 N 
ATOM     14  C   UNL     1       0.512   0.973  -4.460  1.00  0.00     0.224 C 
ATOM     15  O   UNL     1      -0.441   1.438  -5.088  1.00  0.00    -0.275 OA
ATOM     16  H   UNL     1       0.982  -0.366  -5.884  1.00  0.00     0.169 HD
BRANCH  14  17
ATOM     17  C   UNL     1       1.170   1.758  -3.325  1.00  0.00     0.106 C 
BRANCH  17  18
ATOM     18  C   UNL     1       0.254   2.207  -2.169  1.00  0.00     0.021 C 
ATOM     19  C   UNL     1       0.967   3.310  -1.370  1.00  0.00     0.010 C 
BRANCH  18  20
ATOM     20  C   UNL     1      -0.090   1.036  -1.240  1.00  0.00     0.163 C 
BRANCH  20  21
ATOM     21  O   UNL     1      -0.696   1.478  -0.030  1.00  0.00    -0.384 OA
ATOM     22  C   UNL     1      -0.107   0.867   1.114  1.00  0.00     0.194 C 
ENDBRANCH  20  21
ENDBRANCH  18  20
ENDBRANCH  17  18
ENDBRANCH  14  17
ENDBRANCH   8  13
ENDBRANCH   6   7
ENDBRANCH   3   5
ENDBRANCH   2   3
ENDBRANCH   1   2
BRANCH   1  23
ATOM     23  C   UNL     1       0.976  -2.478   3.998  1.00  0.00     0.202 C 
BRANCH  23  24
ATOM     24  O   UNL     1       1.225  -3.865   3.756  1.00  0.00    -0.374 OA
BRANCH  24  25
ATOM     25  C   UNL     1       0.924  -4.342   2.445  1.00  0.00     0.202 C 
BRANCH  25  26
ATOM     26  C   UNL     1      -0.544  -4.693   2.174  1.00  0.00     0.261 C 
BRANCH  26  27
ATOM     27  O   UNL     1      -1.421  -3.560   2.301  1.00  0.00    -0.460 OA
BRANCH  27  28
ATOM     28  C   UNL     1      -2.149  -3.546   3.448  1.00  0.00     0.338 C 
ATOM     29  O   UNL     1      -2.154  -4.400   4.317  1.00  0.00    -0.246 OA
BRANCH  28  30
ATOM     30  C   UNL     1      -2.850  -2.253   3.600  1.00  0.00     0.060 A 
ATOM     31  C   UNL     1      -2.802  -1.640   4.858  1.00  0.00     0.016 A 
ATOM     32  C   UNL     1      -3.597  -1.682   2.566  1.00  0.00     0.016 A 
ATOM     33  C   UNL     1      -3.543  -0.484   5.103  1.00  0.00     0.010 A 
ATOM     34  C   UNL     1      -4.342  -0.522   2.815  1.00  0.00     0.010 A 
ATOM     35  C   UNL     1      -4.345   0.064   4.094  1.00  0.00    -0.014 A 
BRANCH  35  36
ATOM     36  C   UNL     1      -5.276   1.176   4.419  1.00  0.00     0.031 A 
ATOM     37  C   UNL     1      -6.734   0.876   4.641  1.00  0.00     0.074 A 
ATOM     38  C   UNL     1      -4.819   2.435   4.550  1.00  0.00     0.049 A 
ATOM     39  N   UNL     1      -7.720   1.693   4.911  1.00  0.00    -0.248 NA
ATOM     40  C   UNL     1      -7.132  -0.536   4.541  1.00  0.00     0.031 C 
ATOM     41  C   UNL     1      -3.424   2.845   4.397  1.00  0.00     0.029 A 
ATOM     42  N   UNL     1      -5.482   3.602   4.837  1.00  0.00    -0.354 N 
ATOM     43  C   UNL     1      -8.857   0.897   5.013  1.00  0.00     0.074 A 
ATOM     44  C   UNL     1      -8.440  -0.462   4.735  1.00  0.00     0.031 C 
ATOM     45  C   UNL     1      -3.336   4.172   4.587  1.00  0.00     0.029 A 
ATOM     46  C   UNL     1      -4.671   4.713   4.835  1.00  0.00     0.049 A 
ATOM     47  H   UNL     1      -6.447   3.641   5.027  1.00  0.00     0.167 HD
ATOM     48  C   UNL     1     -10.126   1.264   5.319  1.00  0.00     0.034 A 
ATOM     49  C   UNL     1      -4.974   6.018   4.989  1.00  0.00     0.034 A 
ATOM     50  C   UNL     1     -10.530   2.626   5.579  1.00  0.00     0.049 A 
ATOM     51  C   UNL     1      -6.410   6.413   5.240  1.00  0.00     0.074 A 
ATOM     52  C   UNL     1     -11.785   3.105   5.915  1.00  0.00     0.029 A 
ATOM     53  N   UNL     1      -9.690   3.731   5.517  1.00  0.00    -0.354 N 
ATOM     54  N   UNL     1      -7.473   5.649   5.348  1.00  0.00    -0.248 NA
ATOM     55  C   UNL     1      -6.683   7.848   5.396  1.00  0.00     0.031 C 
ATOM     56  C   UNL     1     -11.720   4.501   5.983  1.00  0.00     0.029 A 
ATOM     57  C   UNL     1     -10.407   4.891   5.772  1.00  0.00     0.049 A 
ATOM     58  H   UNL     1      -8.726   3.696   5.321  1.00  0.00     0.167 HD
ATOM     59  C   UNL     1      -8.534   6.511   5.614  1.00  0.00     0.074 A 
ATOM     60  C   UNL     1      -7.980   7.848   5.666  1.00  0.00     0.031 C 
ATOM     61  C   UNL     1      -9.848   6.223   5.805  1.00  0.00     0.034 A 
BRANCH  48  62
ATOM     62  C   UNL     1     -11.177   0.179   5.335  1.00  0.00     0.023 A 
ATOM     63  C   UNL     1     -11.137  -0.879   6.261  1.00  0.00     0.031 A 
ATOM     64  C   UNL     1     -12.222   0.189   4.394  1.00  0.00     0.131 A 
ATOM     65  C   UNL     1     -12.080  -1.916   6.181  1.00  0.00     0.055 A 
ATOM     66  C   UNL     1     -13.202  -0.805   4.369  1.00  0.00     0.041 A 
ATOM     67  F   UNL     1     -12.301   1.161   3.471  1.00  0.00    -0.206 F 
ATOM     68  C   UNL     1     -13.127  -1.873   5.258  1.00  0.00     0.022 A 
BRANCH  65  69
ATOM     69  S   UNL     1     -11.838  -3.391   7.209  1.00  0.00     0.124 S 
ATOM     70  O   UNL     1     -10.514  -3.836   6.780  1.00  0.00    -0.237 OA
ATOM     71  O   UNL     1     -11.924  -2.851   8.561  1.00  0.00    -0.237 OA
ATOM     72  O   UNL     1     -12.939  -4.268   6.816  1.00  0.00    -0.744 OA
ENDBRANCH  65  69
ENDBRANCH  48  62
BRANCH  49  73
ATOM     73  C   UNL     1      -3.912   7.059   4.871  1.00  0.00     0.023 A 
ATOM     74  C   UNL     1      -3.572   7.880   5.957  1.00  0.00     0.031 A 
ATOM     75  C   UNL     1      -3.261   7.284   3.645  1.00  0.00     0.131 A 
ATOM     76  C   UNL     1      -2.641   8.916   5.786  1.00  0.00     0.055 A 
ATOM     77  C   UNL     1      -2.296   8.281   3.493  1.00  0.00     0.041 A 
ATOM     78  F   UNL     1      -3.551   6.529   2.573  1.00  0.00    -0.206 F 
ATOM     79  C   UNL     1      -1.991   9.113   4.565  1.00  0.00     0.022 A 
BRANCH  76  80
ATOM     80  S   UNL     1      -2.351  10.061   7.163  1.00  0.00     0.124 S 
ATOM     81  O   UNL     1      -3.688  10.596   7.391  1.00  0.00    -0.237 OA
ATOM     82  O   UNL     1      -1.831   9.169   8.194  1.00  0.00    -0.237 OA
ATOM     83  O   UNL     1      -1.383  11.010   6.618  1.00  0.00    -0.744 OA
ENDBRANCH  76  80
ENDBRANCH  49  73
BRANCH  61  84
ATOM     84  C   UNL     1     -10.764   7.378   6.133  1.00  0.00     0.023 A 
ATOM     85  C   UNL     1     -11.041   8.395   5.202  1.00  0.00     0.031 A 
ATOM     86  C   UNL     1     -11.358   7.470   7.405  1.00  0.00     0.131 A 
ATOM     87  C   UNL     1     -11.840   9.487   5.575  1.00  0.00     0.055 A 
ATOM     88  C   UNL     1     -12.202   8.527   7.750  1.00  0.00     0.041 A 
ATOM     89  F   UNL     1     -11.128   6.529   8.336  1.00  0.00    -0.206 F 
ATOM     90  C   UNL     1     -12.436   9.551   6.837  1.00  0.00     0.022 A 
BRANCH  87  91
ATOM     91  S   UNL     1     -12.015  10.876   4.420  1.00  0.00     0.124 S 
ATOM     92  O   UNL     1     -10.629  11.285   4.224  1.00  0.00    -0.237 OA
ATOM     93  O   UNL     1     -12.664  10.248   3.273  1.00  0.00    -0.237 OA
ATOM     94  O   UNL     1     -12.845  11.830   5.154  1.00  0.00    -0.744 OA
ENDBRANCH  87  91
ENDBRANCH  61  84
ENDBRANCH  35  36
ENDBRANCH  28  30
ENDBRANCH  27  28
ENDBRANCH  26  27
ENDBRANCH  25  26
ENDBRANCH  24  25
ENDBRANCH  23  24
ENDBRANCH   1  23
TORSDOF 23
