REMARK SMILES O=C(OCCOCCOC(=O)[C@H](c1ccccc1)C(c1ccccc1)c1ccccc1)c1ccc(-c2c3nc(c(-c4cc(S(=O)(=O)[O-])ccc4F)c4ccc([nH]4)c(-c4cc(S(=O)(=O)[O-])ccc4F)c4nc(c(-c5cc(S(=O)(=O)[O-])ccc5F)c5ccc2[nH]5)C=C4)C=C3)cc1
REMARK SMILES IDX 5 1 4 2 3 3 2 4 1 5 32 6 33 7 94 8 34 9 93 10 35 11 36 12
REMARK SMILES IDX 37 13 87 14 38 15 92 16 86 17 88 18 39 19 91 20 85 21 84 22
REMARK SMILES IDX 40 24 72 25 52 26 71 27 53 28 56 29 70 30 89 31 54 32 55 33
REMARK SMILES IDX 69 35 90 36 57 37 41 38 42 39 50 40 43 41 49 42 51 43 48 44
REMARK SMILES IDX 44 45 45 46 46 47 47 48 73 49 74 50 82 51 75 52 81 53 83 54
REMARK SMILES IDX 80 55 76 56 77 57 78 58 79 59 58 60 59 61 67 62 60 63 66 64
REMARK SMILES IDX 68 65 65 66 61 67 62 68 63 69 64 70 6 71 7 72 8 73 9 74
REMARK SMILES IDX 10 75 11 76 12 77 19 78 20 79 21 80 25 81 22 82 24 83 23 84
REMARK SMILES IDX 26 85 27 86 31 87 28 88 30 89 29 90 13 91 14 92 18 93 15 94
REMARK SMILES IDX 17 95 16 96
REMARK H PARENT 88 23 56 34
REMARK Flexibility Score: inf
ROOT
ATOM      1  C   UNL     1       5.246   1.984   0.698  1.00  0.00     0.202 C 
ENDROOT
BRANCH   1   2
ATOM      2  C   UNL     1       5.422   1.991  -0.820  1.00  0.00     0.261 C 
BRANCH   2   3
ATOM      3  O   UNL     1       6.178   3.141  -1.222  1.00  0.00    -0.460 OA
BRANCH   3   4
ATOM      4  C   UNL     1       5.668   4.341  -1.591  1.00  0.00     0.338 C 
ATOM      5  O   UNL     1       6.438   5.285  -1.762  1.00  0.00    -0.246 OA
BRANCH   4   6
ATOM      6  C   UNL     1       4.215   4.564  -1.853  1.00  0.00     0.060 A 
ATOM      7  C   UNL     1       3.178   4.016  -1.096  1.00  0.00     0.016 A 
ATOM      8  C   UNL     1       3.881   5.474  -2.867  1.00  0.00     0.016 A 
ATOM      9  C   UNL     1       1.858   4.341  -1.319  1.00  0.00     0.010 A 
ATOM     10  C   UNL     1       2.548   5.831  -3.088  1.00  0.00     0.010 A 
ATOM     11  C   UNL     1       1.541   5.271  -2.295  1.00  0.00    -0.014 A 
BRANCH  11  12
ATOM     12  C   UNL     1       0.116   5.558  -2.483  1.00  0.00     0.031 A 
ATOM     13  C   UNL     1      -0.577   4.916  -3.636  1.00  0.00     0.074 A 
ATOM     14  C   UNL     1      -0.537   6.244  -1.528  1.00  0.00     0.049 A 
ATOM     15  N   UNL     1      -1.790   5.095  -4.068  1.00  0.00    -0.248 NA
ATOM     16  C   UNL     1       0.202   3.923  -4.399  1.00  0.00     0.031 C 
ATOM     17  C   UNL     1       0.064   6.730  -0.279  1.00  0.00     0.029 A 
ATOM     18  N   UNL     1      -1.846   6.626  -1.432  1.00  0.00    -0.354 N 
ATOM     19  C   UNL     1      -1.910   4.279  -5.185  1.00  0.00     0.074 A 
ATOM     20  C   UNL     1      -0.654   3.583  -5.351  1.00  0.00     0.031 C 
ATOM     21  C   UNL     1      -0.879   7.338   0.457  1.00  0.00     0.029 A 
ATOM     22  C   UNL     1      -2.115   7.378  -0.311  1.00  0.00     0.049 A 
ATOM     23  H   UNL     1      -2.529   6.386  -2.099  1.00  0.00     0.167 HD
ATOM     24  C   UNL     1      -2.980   4.163  -6.003  1.00  0.00     0.034 A 
ATOM     25  C   UNL     1      -3.223   8.076   0.005  1.00  0.00     0.034 A 
ATOM     26  C   UNL     1      -4.200   4.894  -5.776  1.00  0.00     0.049 A 
ATOM     27  C   UNL     1      -4.355   8.028  -0.993  1.00  0.00     0.074 A 
ATOM     28  C   UNL     1      -5.341   4.937  -6.551  1.00  0.00     0.029 A 
ATOM     29  N   UNL     1      -4.424   5.723  -4.680  1.00  0.00    -0.354 N 
ATOM     30  N   UNL     1      -4.444   7.329  -2.105  1.00  0.00    -0.248 NA
ATOM     31  C   UNL     1      -5.521   8.870  -0.715  1.00  0.00     0.031 C 
ATOM     32  C   UNL     1      -6.226   5.847  -5.961  1.00  0.00     0.029 A 
ATOM     33  C   UNL     1      -5.670   6.312  -4.776  1.00  0.00     0.049 A 
ATOM     34  H   UNL     1      -3.787   5.868  -3.943  1.00  0.00     0.167 HD
ATOM     35  C   UNL     1      -5.681   7.641  -2.654  1.00  0.00     0.074 A 
ATOM     36  C   UNL     1      -6.316   8.561  -1.728  1.00  0.00     0.031 C 
ATOM     37  C   UNL     1      -6.247   7.226  -3.817  1.00  0.00     0.034 A 
BRANCH  24  38
ATOM     38  C   UNL     1      -2.808   3.340  -7.250  1.00  0.00     0.023 A 
ATOM     39  C   UNL     1      -2.628   1.946  -7.217  1.00  0.00     0.031 A 
ATOM     40  C   UNL     1      -2.750   3.984  -8.499  1.00  0.00     0.131 A 
ATOM     41  C   UNL     1      -2.344   1.252  -8.405  1.00  0.00     0.055 A 
ATOM     42  C   UNL     1      -2.537   3.280  -9.684  1.00  0.00     0.041 A 
ATOM     43  F   UNL     1      -2.873   5.319  -8.584  1.00  0.00    -0.206 F 
ATOM     44  C   UNL     1      -2.322   1.906  -9.640  1.00  0.00     0.022 A 
BRANCH  41  45
ATOM     45  S   UNL     1      -1.883  -0.500  -8.305  1.00  0.00     0.124 S 
ATOM     46  O   UNL     1      -0.638  -0.434  -7.544  1.00  0.00    -0.237 OA
ATOM     47  O   UNL     1      -3.023  -1.091  -7.614  1.00  0.00    -0.237 OA
ATOM     48  O   UNL     1      -1.730  -0.895  -9.704  1.00  0.00    -0.744 OA
ENDBRANCH  41  45
ENDBRANCH  24  38
BRANCH  25  49
ATOM     49  C   UNL     1      -3.275   8.961   1.209  1.00  0.00     0.023 A 
ATOM     50  C   UNL     1      -4.298   8.838   2.162  1.00  0.00     0.031 A 
ATOM     51  C   UNL     1      -2.352  10.012   1.380  1.00  0.00     0.131 A 
ATOM     52  C   UNL     1      -4.414   9.784   3.195  1.00  0.00     0.055 A 
ATOM     53  C   UNL     1      -2.427  10.905   2.451  1.00  0.00     0.041 A 
ATOM     54  F   UNL     1      -1.357  10.199   0.497  1.00  0.00    -0.206 F 
ATOM     55  C   UNL     1      -3.477  10.807   3.355  1.00  0.00     0.022 A 
BRANCH  52  56
ATOM     56  S   UNL     1      -5.896   9.748   4.242  1.00  0.00     0.124 S 
ATOM     57  O   UNL     1      -6.963   9.768   3.248  1.00  0.00    -0.237 OA
ATOM     58  O   UNL     1      -5.721   8.496   4.970  1.00  0.00    -0.237 OA
ATOM     59  O   UNL     1      -5.772  10.961   5.049  1.00  0.00    -0.744 OA
ENDBRANCH  52  56
ENDBRANCH  25  49
BRANCH  37  60
ATOM     60  C   UNL     1      -7.625   7.752  -4.109  1.00  0.00     0.023 A 
ATOM     61  C   UNL     1      -7.841   9.109  -4.399  1.00  0.00     0.031 A 
ATOM     62  C   UNL     1      -8.728   6.883  -4.098  1.00  0.00     0.131 A 
ATOM     63  C   UNL     1      -9.145   9.571  -4.613  1.00  0.00     0.055 A 
ATOM     64  C   UNL     1     -10.015   7.337  -4.380  1.00  0.00     0.041 A 
ATOM     65  F   UNL     1      -8.569   5.578  -3.825  1.00  0.00    -0.206 F 
ATOM     66  C   UNL     1     -10.230   8.690  -4.627  1.00  0.00     0.022 A 
BRANCH  63  67
ATOM     67  S   UNL     1      -9.413  11.354  -4.783  1.00  0.00     0.124 S 
ATOM     68  O   UNL     1      -8.918  11.857  -3.505  1.00  0.00    -0.237 OA
ATOM     69  O   UNL     1      -8.604  11.682  -5.953  1.00  0.00    -0.237 OA
ATOM     70  O   UNL     1     -10.857  11.466  -4.978  1.00  0.00    -0.744 OA
ENDBRANCH  63  67
ENDBRANCH  37  60
ENDBRANCH  11  12
ENDBRANCH   4   6
ENDBRANCH   3   4
ENDBRANCH   2   3
ENDBRANCH   1   2
BRANCH   1  71
ATOM     71  O   UNL     1       4.676   3.184   1.207  1.00  0.00    -0.374 OA
BRANCH  71  72
ATOM     72  C   UNL     1       5.567   4.185   1.686  1.00  0.00     0.202 C 
BRANCH  72  73
ATOM     73  C   UNL     1       5.277   4.400   3.166  1.00  0.00     0.261 C 
BRANCH  73  74
ATOM     74  O   UNL     1       5.491   3.147   3.834  1.00  0.00    -0.463 OA
BRANCH  74  75
ATOM     75  C   UNL     1       4.385   2.340   3.899  1.00  0.00     0.314 C 
ATOM     76  O   UNL     1       3.243   2.669   3.622  1.00  0.00    -0.252 OA
BRANCH  75  77
ATOM     77  C   UNL     1       4.787   0.957   4.410  1.00  0.00     0.141 C 
BRANCH  77  78
ATOM     78  C   UNL     1       4.268   0.790   5.895  1.00  0.00     0.068 C 
BRANCH  78  79
ATOM     79  C   UNL     1       4.682  -0.543   6.580  1.00  0.00    -0.039 A 
ATOM     80  C   UNL     1       4.595  -1.775   5.904  1.00  0.00     0.004 A 
ATOM     81  C   UNL     1       5.080  -0.623   7.924  1.00  0.00     0.004 A 
ATOM     82  C   UNL     1       5.020  -2.982   6.463  1.00  0.00     0.000 A 
ATOM     83  C   UNL     1       5.510  -1.829   8.498  1.00  0.00     0.000 A 
ATOM     84  C   UNL     1       5.503  -3.006   7.759  1.00  0.00     0.000 A 
ENDBRANCH  78  79
BRANCH  78  85
ATOM     85  C   UNL     1       4.643   2.090   6.671  1.00  0.00    -0.039 A 
ATOM     86  C   UNL     1       5.914   2.309   7.231  1.00  0.00     0.004 A 
ATOM     87  C   UNL     1       3.741   3.176   6.665  1.00  0.00     0.004 A 
ATOM     88  C   UNL     1       6.247   3.540   7.809  1.00  0.00     0.000 A 
ATOM     89  C   UNL     1       4.106   4.429   7.168  1.00  0.00     0.000 A 
ATOM     90  C   UNL     1       5.352   4.605   7.759  1.00  0.00     0.000 A 
ENDBRANCH  78  85
ENDBRANCH  77  78
BRANCH  77  91
ATOM     91  C   UNL     1       4.343  -0.081   3.373  1.00  0.00    -0.033 A 
ATOM     92  C   UNL     1       2.984  -0.359   3.137  1.00  0.00     0.004 A 
ATOM     93  C   UNL     1       5.308  -0.793   2.633  1.00  0.00     0.004 A 
ATOM     94  C   UNL     1       2.606  -1.348   2.226  1.00  0.00     0.000 A 
ATOM     95  C   UNL     1       4.924  -1.770   1.710  1.00  0.00     0.000 A 
ATOM     96  C   UNL     1       3.575  -2.055   1.516  1.00  0.00     0.000 A 
ENDBRANCH  77  91
ENDBRANCH  75  77
ENDBRANCH  74  75
ENDBRANCH  73  74
ENDBRANCH  72  73
ENDBRANCH  71  72
ENDBRANCH   1  71
TORSDOF 21
