REMARK SMILES CN(C)Nc1ncnc(Nc2ccc(C(=O)OCCOCCOC(=O)c3ccc(-c4c5nc(c(-c6cc(S(=O)(=O)[O-])ccc6F)c6ccc([nH]6)c(-c6cc(S(=O)(=O)[O-])ccc6F)c6nc(c(-c7cc(S(=O)(=O)[O-])ccc7F)c7ccc4[nH]7)C=C6)C=C5)cc3)cc2)c1[N+](=O)[O-]
REMARK SMILES IDX 19 1 18 2 17 3 15 4 16 5 14 6 11 7 12 8 90 9 13 10 89 11
REMARK SMILES IDX 10 12 9 14 5 15 6 16 91 17 7 18 8 19 4 20 2 22 1 23 3 24
REMARK SMILES IDX 92 25 93 26 94 27 20 28 21 29 22 30 23 31 24 32 25 33 26 34
REMARK SMILES IDX 27 35 88 36 28 37 87 38 29 39 30 40 31 41 81 42 32 43 86 44
REMARK SMILES IDX 80 45 82 46 33 47 85 48 79 49 78 50 34 52 66 53 46 54 65 55
REMARK SMILES IDX 47 56 50 57 64 58 83 59 48 60 49 61 63 63 84 64 51 65 35 66
REMARK SMILES IDX 36 67 44 68 37 69 43 70 45 71 42 72 38 73 39 74 40 75 41 76
REMARK SMILES IDX 67 77 68 78 76 79 69 80 75 81 77 82 74 83 70 84 71 85 72 86
REMARK SMILES IDX 73 87 52 88 53 89 61 90 54 91 60 92 62 93 59 94 55 95 56 96
REMARK SMILES IDX 57 97 58 98
REMARK H PARENT 10 13 4 21 82 51 50 62
REMARK Flexibility Score: inf
ROOT
ATOM      1  C   UNL     1       9.631  -5.704   7.020  1.00  0.00     0.202 C 
ENDROOT
BRANCH   1   2
ATOM      2  C   UNL     1       9.019  -4.475   7.699  1.00  0.00     0.261 C 
BRANCH   2   3
ATOM      3  O   UNL     1       7.988  -3.898   6.881  1.00  0.00    -0.460 OA
BRANCH   3   4
ATOM      4  C   UNL     1       8.314  -2.720   6.304  1.00  0.00     0.338 C 
ATOM      5  O   UNL     1       9.300  -2.032   6.536  1.00  0.00    -0.246 OA
BRANCH   4   6
ATOM      6  C   UNL     1       7.382  -2.416   5.198  1.00  0.00     0.060 A 
ATOM      7  C   UNL     1       5.697  -1.588   3.111  1.00  0.00     0.040 A 
ATOM      8  C   UNL     1       7.075  -1.368   3.034  1.00  0.00     0.027 A 
ATOM      9  C   UNL     1       5.188  -2.302   4.209  1.00  0.00     0.027 A 
ATOM     10  C   UNL     1       7.911  -1.765   4.077  1.00  0.00     0.018 A 
ATOM     11  C   UNL     1       6.024  -2.731   5.246  1.00  0.00     0.018 A 
BRANCH   7  12
ATOM     12  N   UNL     1       4.859  -0.930   2.189  1.00  0.00    -0.334 N 
ATOM     13  H   UNL     1       5.070  -1.049   1.235  1.00  0.00     0.168 HD
BRANCH  12  14
ATOM     14  C   UNL     1       3.750  -0.119   2.499  1.00  0.00     0.215 A 
ATOM     15  C   UNL     1       1.830   1.166   1.944  1.00  0.00     0.225 A 
ATOM     16  N   UNL     1       1.534   1.315   3.253  1.00  0.00    -0.212 NA
ATOM     17  C   UNL     1       2.981   0.519   1.539  1.00  0.00     0.354 A 
ATOM     18  C   UNL     1       2.354   0.734   4.126  1.00  0.00     0.227 A 
ATOM     19  N   UNL     1       3.419   0.001   3.805  1.00  0.00    -0.212 NA
BRANCH  15  20
ATOM     20  N   UNL     1       0.798   1.631   1.125  1.00  0.00    -0.298 N 
ATOM     21  H   UNL     1       0.336   2.450   1.414  1.00  0.00     0.184 HD
BRANCH  20  22
ATOM     22  N   UNL     1       0.353   1.034  -0.082  1.00  0.00    -0.228 NA
ATOM     23  C   UNL     1       0.218  -0.429   0.037  1.00  0.00     0.130 C 
ATOM     24  C   UNL     1      -0.992   1.583  -0.350  1.00  0.00     0.130 C 
ENDBRANCH  20  22
ENDBRANCH  15  20
BRANCH  17  25
ATOM     25  N   UNL     1       3.463   0.651   0.195  1.00  0.00     0.070 N 
ATOM     26  O   UNL     1       3.833  -0.383  -0.384  1.00  0.00    -0.258 OA
ATOM     27  O   UNL     1       3.605   1.797  -0.255  1.00  0.00    -0.258 OA
ENDBRANCH  17  25
ENDBRANCH  12  14
ENDBRANCH   7  12
ENDBRANCH   4   6
ENDBRANCH   3   4
ENDBRANCH   2   3
ENDBRANCH   1   2
BRANCH   1  28
ATOM     28  O   UNL     1      10.292  -5.460   5.777  1.00  0.00    -0.374 OA
BRANCH  28  29
ATOM     29  C   UNL     1       9.470  -5.421   4.608  1.00  0.00     0.202 C 
BRANCH  29  30
ATOM     30  C   UNL     1       9.065  -6.775   4.014  1.00  0.00     0.261 C 
BRANCH  30  31
ATOM     31  O   UNL     1       8.139  -7.474   4.866  1.00  0.00    -0.460 OA
BRANCH  31  32
ATOM     32  C   UNL     1       8.671  -8.536   5.517  1.00  0.00     0.338 C 
ATOM     33  O   UNL     1       9.801  -8.985   5.378  1.00  0.00    -0.246 OA
BRANCH  32  34
ATOM     34  C   UNL     1       7.762  -8.996   6.586  1.00  0.00     0.060 A 
ATOM     35  C   UNL     1       8.335  -9.265   7.835  1.00  0.00     0.016 A 
ATOM     36  C   UNL     1       6.404  -9.240   6.363  1.00  0.00     0.016 A 
ATOM     37  C   UNL     1       7.575  -9.857   8.840  1.00  0.00     0.010 A 
ATOM     38  C   UNL     1       5.642  -9.841   7.374  1.00  0.00     0.010 A 
ATOM     39  C   UNL     1       6.239 -10.199   8.597  1.00  0.00    -0.014 A 
BRANCH  39  40
ATOM     40  C   UNL     1       5.556 -11.122   9.540  1.00  0.00     0.031 A 
ATOM     41  C   UNL     1       5.494 -12.587   9.190  1.00  0.00     0.074 A 
ATOM     42  C   UNL     1       5.076 -10.685  10.719  1.00  0.00     0.049 A 
ATOM     43  N   UNL     1       4.958 -13.580   9.851  1.00  0.00    -0.248 NA
ATOM     44  C   UNL     1       6.126 -12.982   7.920  1.00  0.00     0.031 C 
ATOM     45  C   UNL     1       5.127  -9.303  11.192  1.00  0.00     0.029 A 
ATOM     46  N   UNL     1       4.457 -11.366  11.738  1.00  0.00    -0.354 N 
ATOM     47  C   UNL     1       5.198 -14.718   9.086  1.00  0.00     0.074 A 
ATOM     48  C   UNL     1       5.879 -14.282   7.886  1.00  0.00     0.031 C 
ATOM     49  C   UNL     1       4.554  -9.236  12.406  1.00  0.00     0.029 A 
ATOM     50  C   UNL     1       4.070 -10.562  12.786  1.00  0.00     0.049 A 
ATOM     51  H   UNL     1       4.303 -12.338  11.720  1.00  0.00     0.167 HD
ATOM     52  C   UNL     1       4.897 -16.010   9.366  1.00  0.00     0.034 A 
ATOM     53  C   UNL     1       3.390 -10.863  13.911  1.00  0.00     0.034 A 
ATOM     54  C   UNL     1       4.203 -16.432  10.557  1.00  0.00     0.049 A 
ATOM     55  C   UNL     1       2.998 -12.302  14.165  1.00  0.00     0.074 A 
ATOM     56  C   UNL     1       3.800 -17.706  10.918  1.00  0.00     0.029 A 
ATOM     57  N   UNL     1       3.811 -15.587  11.587  1.00  0.00    -0.354 N 
ATOM     58  N   UNL     1       3.212 -13.364  13.421  1.00  0.00    -0.248 NA
ATOM     59  C   UNL     1       2.294 -12.585  15.423  1.00  0.00     0.031 C 
ATOM     60  C   UNL     1       3.122 -17.624  12.140  1.00  0.00     0.029 A 
ATOM     61  C   UNL     1       3.167 -16.311  12.578  1.00  0.00     0.049 A 
ATOM     62  H   UNL     1       3.967 -14.615  11.609  1.00  0.00     0.167 HD
ATOM     63  C   UNL     1       2.711 -14.443  14.146  1.00  0.00     0.074 A 
ATOM     64  C   UNL     1       2.200 -13.905  15.389  1.00  0.00     0.031 C 
ATOM     65  C   UNL     1       2.676 -15.761  13.819  1.00  0.00     0.034 A 
BRANCH  52  66
ATOM     66  C   UNL     1       5.289 -17.047   8.342  1.00  0.00     0.023 A 
ATOM     67  C   UNL     1       6.638 -17.317   8.048  1.00  0.00     0.031 A 
ATOM     68  C   UNL     1       4.305 -17.758   7.633  1.00  0.00     0.131 A 
ATOM     69  C   UNL     1       6.964 -18.227   7.032  1.00  0.00     0.055 A 
ATOM     70  C   UNL     1       4.638 -18.718   6.675  1.00  0.00     0.041 A 
ATOM     71  F   UNL     1       3.002 -17.524   7.852  1.00  0.00    -0.206 F 
ATOM     72  C   UNL     1       5.974 -18.948   6.361  1.00  0.00     0.022 A 
BRANCH  69  73
ATOM     73  S   UNL     1       8.697 -18.366   6.513  1.00  0.00     0.124 S 
ATOM     74  O   UNL     1       8.970 -17.012   6.036  1.00  0.00    -0.237 OA
ATOM     75  O   UNL     1       9.367 -18.756   7.747  1.00  0.00    -0.237 OA
ATOM     76  O   UNL     1       8.661 -19.391   5.471  1.00  0.00    -0.744 OA
ENDBRANCH  69  73
ENDBRANCH  52  66
BRANCH  53  77
ATOM     77  C   UNL     1       2.996  -9.794  14.876  1.00  0.00     0.023 A 
ATOM     78  C   UNL     1       3.438  -9.812  16.209  1.00  0.00     0.031 A 
ATOM     79  C   UNL     1       2.086  -8.789  14.500  1.00  0.00     0.131 A 
ATOM     80  C   UNL     1       2.914  -8.895  17.133  1.00  0.00     0.055 A 
ATOM     81  C   UNL     1       1.619  -7.838  15.408  1.00  0.00     0.041 A 
ATOM     82  F   UNL     1       1.629  -8.722  13.239  1.00  0.00    -0.206 F 
ATOM     83  C   UNL     1       2.017  -7.900  16.740  1.00  0.00     0.022 A 
BRANCH  80  84
ATOM     84  S   UNL     1       3.321  -9.104  18.890  1.00  0.00     0.124 S 
ATOM     85  O   UNL     1       2.919 -10.486  19.124  1.00  0.00    -0.237 OA
ATOM     86  O   UNL     1       4.756  -8.842  18.899  1.00  0.00    -0.237 OA
ATOM     87  O   UNL     1       2.499  -8.093  19.551  1.00  0.00    -0.744 OA
ENDBRANCH  80  84
ENDBRANCH  53  77
BRANCH  65  88
ATOM     88  C   UNL     1       2.138 -16.714  14.860  1.00  0.00     0.023 A 
ATOM     89  C   UNL     1       0.797 -16.682  15.280  1.00  0.00     0.031 A 
ATOM     90  C   UNL     1       2.996 -17.652  15.463  1.00  0.00     0.131 A 
ATOM     91  C   UNL     1       0.371 -17.517  16.324  1.00  0.00     0.055 A 
ATOM     92  C   UNL     1       2.550 -18.525  16.456  1.00  0.00     0.041 A 
ATOM     93  F   UNL     1       4.287 -17.729  15.101  1.00  0.00    -0.206 F 
ATOM     94  C   UNL     1       1.236 -18.448  16.905  1.00  0.00     0.022 A 
BRANCH  91  95
ATOM     95  S   UNL     1      -1.298 -17.286  16.997  1.00  0.00     0.124 S 
ATOM     96  O   UNL     1      -1.296 -15.868  17.341  1.00  0.00    -0.237 OA
ATOM     97  O   UNL     1      -2.142 -17.666  15.868  1.00  0.00    -0.237 OA
ATOM     98  O   UNL     1      -1.339 -18.201  18.136  1.00  0.00    -0.744 OA
ENDBRANCH  91  95
ENDBRANCH  65  88
ENDBRANCH  39  40
ENDBRANCH  32  34
ENDBRANCH  31  32
ENDBRANCH  30  31
ENDBRANCH  29  30
ENDBRANCH  28  29
ENDBRANCH   1  28
TORSDOF 22
