REMARK SMILES CC[C@H](C)[NH+]1CCN(C(=O)CC(=O)OCCOCCOC(=O)c2ccc(-c3c4nc(c(-c5cc(S(=O)(=O)[O-])ccc5F)c5ccc([nH]5)c(-c5cc(S(=O)(=O)[O-])ccc5F)c5nc(c(-c6cc(S(=O)(=O)[O-])ccc6F)c6ccc3[nH]6)C=C5)C=C4)cc2)CC1
REMARK SMILES IDX 17 1 16 2 15 3 14 4 12 5 13 6 11 7 9 8 5 9 6 10 87 11 7 13
REMARK SMILES IDX 86 14 8 15 10 16 3 17 4 18 2 19 1 20 18 21 19 22 20 23 21 24
REMARK SMILES IDX 22 25 23 26 24 27 85 28 25 29 84 30 26 31 27 32 28 33 78 34
REMARK SMILES IDX 29 35 83 36 77 37 79 38 30 39 82 40 76 41 75 42 31 44 63 45
REMARK SMILES IDX 43 46 62 47 44 48 47 49 61 50 80 51 45 52 46 53 60 55 81 56
REMARK SMILES IDX 48 57 32 58 33 59 41 60 34 61 40 62 42 63 39 64 35 65 36 66
REMARK SMILES IDX 37 67 38 68 64 69 65 70 73 71 66 72 72 73 74 74 71 75 67 76
REMARK SMILES IDX 68 77 69 78 70 79 49 80 50 81 58 82 51 83 57 84 59 85 56 86
REMARK SMILES IDX 52 87 53 88 54 89 55 90
REMARK H PARENT 5 12 79 43 47 54
REMARK Flexibility Score: inf
ROOT
ATOM      1  O   UNL     1      -4.753  -1.020   0.678  1.00  0.00    -0.374 OA
ENDROOT
BRANCH   1   2
ATOM      2  C   UNL     1      -5.282  -2.241   1.195  1.00  0.00     0.202 C 
BRANCH   2   3
ATOM      3  C   UNL     1      -5.869  -3.247   0.195  1.00  0.00     0.261 C 
BRANCH   3   4
ATOM      4  O   UNL     1      -4.927  -3.675  -0.813  1.00  0.00    -0.463 OA
BRANCH   4   5
ATOM      5  C   UNL     1      -5.395  -3.669  -2.087  1.00  0.00     0.315 C 
ATOM      6  O   UNL     1      -6.532  -3.327  -2.406  1.00  0.00    -0.252 OA
BRANCH   5   7
ATOM      7  C   UNL     1      -4.389  -4.009  -3.144  1.00  0.00     0.222 C 
BRANCH   7   8
ATOM      8  C   UNL     1      -3.050  -4.562  -2.731  1.00  0.00     0.234 C 
ATOM      9  N   UNL     1       0.676  -2.414  -3.225  1.00  0.00    -0.330 N 
ATOM     10  C   UNL     1       0.658  -3.874  -3.350  1.00  0.00     0.284 C 
ATOM     11  C   UNL     1      -0.498  -1.865  -3.898  1.00  0.00     0.284 C 
ATOM     12  H   UNL     1       1.471  -2.034  -3.738  1.00  0.00     0.348 HD
ATOM     13  C   UNL     1      -0.615  -4.551  -2.811  1.00  0.00     0.181 C 
ATOM     14  C   UNL     1      -1.865  -2.475  -3.536  1.00  0.00     0.181 C 
ATOM     15  N   UNL     1      -1.888  -3.882  -3.119  1.00  0.00    -0.331 N 
ATOM     16  O   UNL     1      -2.992  -5.647  -2.147  1.00  0.00    -0.274 OA
BRANCH   9  17
ATOM     17  C   UNL     1       1.179  -1.833  -1.959  1.00  0.00     0.180 C 
ATOM     18  C   UNL     1       0.731  -0.382  -1.716  1.00  0.00     0.075 C 
BRANCH  17  19
ATOM     19  C   UNL     1       1.026  -2.713  -0.691  1.00  0.00     0.061 C 
ATOM     20  C   UNL     1       1.511  -2.087   0.611  1.00  0.00     0.010 C 
ENDBRANCH  17  19
ENDBRANCH   9  17
ENDBRANCH   7   8
ENDBRANCH   5   7
ENDBRANCH   4   5
ENDBRANCH   3   4
ENDBRANCH   2   3
ENDBRANCH   1   2
BRANCH   1  21
ATOM     21  C   UNL     1      -3.702  -1.107  -0.270  1.00  0.00     0.202 C 
BRANCH  21  22
ATOM     22  C   UNL     1      -2.354  -1.684   0.175  1.00  0.00     0.261 C 
BRANCH  22  23
ATOM     23  O   UNL     1      -2.411  -2.805   1.055  1.00  0.00    -0.460 OA
BRANCH  23  24
ATOM     24  C   UNL     1      -1.944  -2.552   2.300  1.00  0.00     0.338 C 
ATOM     25  O   UNL     1      -1.460  -1.506   2.713  1.00  0.00    -0.246 OA
BRANCH  24  26
ATOM     26  C   UNL     1      -2.223  -3.700   3.169  1.00  0.00     0.060 A 
ATOM     27  C   UNL     1      -3.049  -3.485   4.276  1.00  0.00     0.016 A 
ATOM     28  C   UNL     1      -1.632  -4.946   2.939  1.00  0.00     0.016 A 
ATOM     29  C   UNL     1      -3.259  -4.515   5.185  1.00  0.00     0.010 A 
ATOM     30  C   UNL     1      -1.843  -5.978   3.856  1.00  0.00     0.010 A 
ATOM     31  C   UNL     1      -2.633  -5.755   4.997  1.00  0.00    -0.014 A 
BRANCH  31  32
ATOM     32  C   UNL     1      -2.726  -6.766   6.075  1.00  0.00     0.031 A 
ATOM     33  C   UNL     1      -1.594  -6.893   7.053  1.00  0.00     0.074 A 
ATOM     34  C   UNL     1      -3.845  -7.500   6.206  1.00  0.00     0.049 A 
ATOM     35  N   UNL     1      -1.500  -7.640   8.122  1.00  0.00    -0.248 NA
ATOM     36  C   UNL     1      -0.406  -6.066   6.790  1.00  0.00     0.031 C 
ATOM     37  C   UNL     1      -5.002  -7.433   5.313  1.00  0.00     0.029 A 
ATOM     38  N   UNL     1      -4.199  -8.433   7.146  1.00  0.00    -0.354 N 
ATOM     39  C   UNL     1      -0.250  -7.364   8.667  1.00  0.00     0.074 A 
ATOM     40  C   UNL     1       0.397  -6.421   7.781  1.00  0.00     0.031 C 
ATOM     41  C   UNL     1      -5.944  -8.282   5.756  1.00  0.00     0.029 A 
ATOM     42  C   UNL     1      -5.449  -8.969   6.946  1.00  0.00     0.049 A 
ATOM     43  H   UNL     1      -3.613  -8.694   7.893  1.00  0.00     0.167 HD
ATOM     44  C   UNL     1       0.296  -7.846   9.811  1.00  0.00     0.034 A 
ATOM     45  C   UNL     1      -6.112  -9.910   7.646  1.00  0.00     0.034 A 
ATOM     46  C   UNL     1      -0.364  -8.806  10.662  1.00  0.00     0.049 A 
ATOM     47  C   UNL     1      -5.458 -10.476   8.882  1.00  0.00     0.074 A 
ATOM     48  C   UNL     1       0.080  -9.363  11.848  1.00  0.00     0.029 A 
ATOM     49  N   UNL     1      -1.611  -9.367  10.404  1.00  0.00    -0.354 N 
ATOM     50  N   UNL     1      -4.290 -10.182   9.408  1.00  0.00    -0.248 NA
ATOM     51  C   UNL     1      -6.217 -11.488   9.625  1.00  0.00     0.031 C 
ATOM     52  C   UNL     1      -0.864 -10.308  12.269  1.00  0.00     0.029 A 
ATOM     53  C   UNL     1      -1.935 -10.289  11.388  1.00  0.00     0.049 A 
ATOM     54  H   UNL     1      -2.182  -9.142   9.634  1.00  0.00     0.167 HD
ATOM     55  C   UNL     1      -4.183 -10.960  10.556  1.00  0.00     0.074 A 
ATOM     56  C   UNL     1      -5.418 -11.715  10.657  1.00  0.00     0.031 C 
ATOM     57  C   UNL     1      -3.163 -11.048  11.450  1.00  0.00     0.034 A 
BRANCH  44  58
ATOM     58  C   UNL     1       1.689  -7.378  10.162  1.00  0.00     0.023 A 
ATOM     59  C   UNL     1       1.969  -6.027  10.441  1.00  0.00     0.031 A 
ATOM     60  C   UNL     1       2.763  -8.286  10.169  1.00  0.00     0.131 A 
ATOM     61  C   UNL     1       3.296  -5.612  10.642  1.00  0.00     0.055 A 
ATOM     62  C   UNL     1       4.071  -7.879  10.446  1.00  0.00     0.041 A 
ATOM     63  F   UNL     1       2.564  -9.582   9.886  1.00  0.00    -0.206 F 
ATOM     64  C   UNL     1       4.345  -6.533  10.669  1.00  0.00     0.022 A 
BRANCH  61  65
ATOM     65  S   UNL     1       3.648  -3.834  10.721  1.00  0.00     0.124 S 
ATOM     66  O   UNL     1       3.147  -3.375   9.428  1.00  0.00    -0.237 OA
ATOM     67  O   UNL     1       2.885  -3.412  11.889  1.00  0.00    -0.237 OA
ATOM     68  O   UNL     1       5.101  -3.779  10.872  1.00  0.00    -0.744 OA
ENDBRANCH  61  65
ENDBRANCH  44  58
BRANCH  45  69
ATOM     69  C   UNL     1      -7.448 -10.390   7.190  1.00  0.00     0.023 A 
ATOM     70  C   UNL     1      -8.601 -10.195   7.967  1.00  0.00     0.031 A 
ATOM     71  C   UNL     1      -7.582 -11.087   5.975  1.00  0.00     0.131 A 
ATOM     72  C   UNL     1      -9.830 -10.725   7.540  1.00  0.00     0.055 A 
ATOM     73  C   UNL     1      -8.815 -11.569   5.532  1.00  0.00     0.041 A 
ATOM     74  F   UNL     1      -6.512 -11.300   5.193  1.00  0.00    -0.206 F 
ATOM     75  C   UNL     1      -9.946 -11.399   6.322  1.00  0.00     0.022 A 
BRANCH  72  76
ATOM     76  S   UNL     1     -11.267 -10.585   8.639  1.00  0.00     0.124 S 
ATOM     77  O   UNL     1     -10.786 -11.247   9.846  1.00  0.00    -0.237 OA
ATOM     78  O   UNL     1     -11.441  -9.139   8.725  1.00  0.00    -0.237 OA
ATOM     79  O   UNL     1     -12.319 -11.295   7.914  1.00  0.00    -0.744 OA
ENDBRANCH  72  76
ENDBRANCH  45  69
BRANCH  57  80
ATOM     80  C   UNL     1      -3.365 -11.983  12.616  1.00  0.00     0.023 A 
ATOM     81  C   UNL     1      -3.457 -13.374  12.436  1.00  0.00     0.031 A 
ATOM     82  C   UNL     1      -3.495 -11.474  13.920  1.00  0.00     0.131 A 
ATOM     83  C   UNL     1      -3.738 -14.203  13.531  1.00  0.00     0.055 A 
ATOM     84  C   UNL     1      -3.710 -12.310  15.016  1.00  0.00     0.041 A 
ATOM     85  F   UNL     1      -3.418 -10.153  14.150  1.00  0.00    -0.206 F 
ATOM     86  C   UNL     1      -3.849 -13.682  14.823  1.00  0.00     0.022 A 
BRANCH  83  87
ATOM     87  S   UNL     1      -4.065 -15.961  13.228  1.00  0.00     0.124 S 
ATOM     88  O   UNL     1      -5.189 -15.905  12.299  1.00  0.00    -0.237 OA
ATOM     89  O   UNL     1      -2.798 -16.422  12.668  1.00  0.00    -0.237 OA
ATOM     90  O   UNL     1      -4.383 -16.485  14.555  1.00  0.00    -0.744 OA
ENDBRANCH  83  87
ENDBRANCH  57  80
ENDBRANCH  31  32
ENDBRANCH  24  26
ENDBRANCH  23  24
ENDBRANCH  22  23
ENDBRANCH  21  22
ENDBRANCH   1  21
TORSDOF 20
