REMARK SMILES CCCc1nsc(Oc2csc(C(=O)OCCOCCOC(=O)c3ccc(-c4c5nc(c(-c6cc(S(=O)(=O)[O-])ccc6F)c6ccc([nH]6)c(-c6cc(S(=O)(=O)[O-])ccc6F)c6nc(c(-c7cc(S(=O)(=O)[O-])ccc7F)c7ccc4[nH]7)C=C6)C=C5)cc3)c2)n1
REMARK SMILES IDX 17 1 16 2 15 3 13 4 14 5 12 6 9 7 10 8 87 9 11 10 8 11 7 12
REMARK SMILES IDX 4 13 5 14 88 15 6 16 3 17 2 18 1 19 18 20 19 21 20 22 21 23
REMARK SMILES IDX 22 24 23 25 24 26 25 27 86 28 26 29 85 30 27 31 28 32 29 33
REMARK SMILES IDX 79 34 30 35 84 36 78 37 80 38 31 39 83 40 77 41 76 42 32 44
REMARK SMILES IDX 64 45 44 46 63 47 45 48 48 49 62 50 81 51 46 52 47 53 61 55
REMARK SMILES IDX 82 56 49 57 33 58 34 59 42 60 35 61 41 62 43 63 40 64 36 65
REMARK SMILES IDX 37 66 38 67 39 68 65 69 66 70 74 71 67 72 73 73 75 74 72 75
REMARK SMILES IDX 68 76 69 77 70 78 71 79 50 80 51 81 59 82 52 83 58 84 60 85
REMARK SMILES IDX 57 86 53 87 54 88 55 89 56 90
REMARK H PARENT 80 43 48 54
REMARK Flexibility Score: inf
ROOT
ATOM      1  C   UNL     1      -2.120   1.035  -7.742  1.00  0.00     0.202 C 
ENDROOT
BRANCH   1   2
ATOM      2  C   UNL     1      -3.006   2.243  -7.425  1.00  0.00     0.261 C 
BRANCH   2   3
ATOM      3  O   UNL     1      -2.769   2.701  -6.081  1.00  0.00    -0.459 OA
BRANCH   3   4
ATOM      4  C   UNL     1      -3.739   2.409  -5.167  1.00  0.00     0.348 C 
ATOM      5  O   UNL     1      -4.841   1.949  -5.443  1.00  0.00    -0.245 OA
BRANCH   4   6
ATOM      6  C   UNL     1      -3.228   2.646  -3.828  1.00  0.00     0.116 A 
ATOM      7  C   UNL     1      -1.961   3.349  -1.993  1.00  0.00     0.141 A 
ATOM      8  C   UNL     1      -2.881   2.526  -1.383  1.00  0.00     0.112 A 
ATOM      9  C   UNL     1      -2.160   3.417  -3.404  1.00  0.00     0.074 A 
ATOM     10  S   UNL     1      -3.981   1.853  -2.505  1.00  0.00    -0.133 S 
BRANCH   7  11
ATOM     11  O   UNL     1      -1.024   4.093  -1.357  1.00  0.00    -0.429 OA
BRANCH  11  12
ATOM     12  C   UNL     1      -0.450   3.699  -0.220  1.00  0.00     0.298 A 
ATOM     13  C   UNL     1       0.418   2.446   1.361  1.00  0.00     0.146 A 
ATOM     14  N   UNL     1       0.863   3.603   1.863  1.00  0.00    -0.172 NA
ATOM     15  N   UNL     1      -0.371   2.458   0.215  1.00  0.00    -0.186 NA
ATOM     16  S   UNL     1       0.370   4.799   0.806  1.00  0.00     0.025 S 
BRANCH  13  17
ATOM     17  C   UNL     1       0.789   1.166   2.040  1.00  0.00     0.078 C 
BRANCH  17  18
ATOM     18  C   UNL     1       0.354  -0.116   1.329  1.00  0.00     0.005 C 
ATOM     19  C   UNL     1       1.081  -0.361   0.013  1.00  0.00     0.004 C 
ENDBRANCH  17  18
ENDBRANCH  13  17
ENDBRANCH  11  12
ENDBRANCH   7  11
ENDBRANCH   4   6
ENDBRANCH   3   4
ENDBRANCH   2   3
ENDBRANCH   1   2
BRANCH   1  20
ATOM     20  O   UNL     1      -2.489  -0.152  -7.037  1.00  0.00    -0.374 OA
BRANCH  20  21
ATOM     21  C   UNL     1      -1.864  -0.346  -5.766  1.00  0.00     0.202 C 
BRANCH  21  22
ATOM     22  C   UNL     1      -0.484  -1.010  -5.823  1.00  0.00     0.261 C 
BRANCH  22  23
ATOM     23  O   UNL     1       0.510  -0.089  -6.311  1.00  0.00    -0.460 OA
BRANCH  23  24
ATOM     24  C   UNL     1       0.942  -0.327  -7.574  1.00  0.00     0.338 C 
ATOM     25  O   UNL     1       0.641  -1.272  -8.283  1.00  0.00    -0.246 OA
BRANCH  24  26
ATOM     26  C   UNL     1       1.712   0.836  -8.066  1.00  0.00     0.060 A 
ATOM     27  C   UNL     1       1.464   1.267  -9.376  1.00  0.00     0.016 A 
ATOM     28  C   UNL     1       2.685   1.470  -7.288  1.00  0.00     0.016 A 
ATOM     29  C   UNL     1       2.221   2.298  -9.931  1.00  0.00     0.010 A 
ATOM     30  C   UNL     1       3.448   2.501  -7.849  1.00  0.00     0.010 A 
ATOM     31  C   UNL     1       3.243   2.896  -9.183  1.00  0.00    -0.014 A 
BRANCH  31  32
ATOM     32  C   UNL     1       4.205   3.811  -9.846  1.00  0.00     0.031 A 
ATOM     33  C   UNL     1       5.534   3.262 -10.287  1.00  0.00     0.074 A 
ATOM     34  C   UNL     1       3.898   5.102 -10.065  1.00  0.00     0.049 A 
ATOM     35  N   UNL     1       6.558   3.882 -10.813  1.00  0.00    -0.248 NA
ATOM     36  C   UNL     1       5.732   1.816 -10.103  1.00  0.00     0.031 C 
ATOM     37  C   UNL     1       2.624   5.736  -9.729  1.00  0.00     0.029 A 
ATOM     38  N   UNL     1       4.643   6.115 -10.614  1.00  0.00    -0.354 N 
ATOM     39  C   UNL     1       7.528   2.905 -11.016  1.00  0.00     0.074 A 
ATOM     40  C   UNL     1       6.978   1.659 -10.524  1.00  0.00     0.031 C 
ATOM     41  C   UNL     1       2.683   7.037 -10.064  1.00  0.00     0.029 A 
ATOM     42  C   UNL     1       4.010   7.336 -10.601  1.00  0.00     0.049 A 
ATOM     43  H   UNL     1       5.546   5.981 -10.983  1.00  0.00     0.167 HD
ATOM     44  C   UNL     1       8.760   3.034 -11.568  1.00  0.00     0.034 A 
ATOM     45  C   UNL     1       4.462   8.558 -10.951  1.00  0.00     0.034 A 
ATOM     46  C   UNL     1       9.299   4.285 -12.042  1.00  0.00     0.049 A 
ATOM     47  C   UNL     1       5.869   8.695 -11.483  1.00  0.00     0.074 A 
ATOM     48  C   UNL     1      10.531   4.530 -12.621  1.00  0.00     0.029 A 
ATOM     49  N   UNL     1       8.640   5.507 -11.980  1.00  0.00    -0.354 N 
ATOM     50  N   UNL     1       6.778   7.766 -11.667  1.00  0.00    -0.248 NA
ATOM     51  C   UNL     1       6.308  10.046 -11.859  1.00  0.00     0.031 C 
ATOM     52  C   UNL     1      10.644   5.907 -12.850  1.00  0.00     0.029 A 
ATOM     53  C   UNL     1       9.452   6.512 -12.483  1.00  0.00     0.049 A 
ATOM     54  H   UNL     1       7.729   5.640 -11.631  1.00  0.00     0.167 HD
ATOM     55  C   UNL     1       7.883   8.416 -12.213  1.00  0.00     0.074 A 
ATOM     56  C   UNL     1       7.524   9.814 -12.331  1.00  0.00     0.031 C 
ATOM     57  C   UNL     1       9.081   7.903 -12.592  1.00  0.00     0.034 A 
BRANCH  44  58
ATOM     58  C   UNL     1       9.621   1.797 -11.629  1.00  0.00     0.023 A 
ATOM     59  C   UNL     1       9.266   0.686 -12.414  1.00  0.00     0.031 A 
ATOM     60  C   UNL     1      10.794   1.712 -10.859  1.00  0.00     0.131 A 
ATOM     61  C   UNL     1      10.035  -0.487 -12.355  1.00  0.00     0.055 A 
ATOM     62  C   UNL     1      11.598   0.570 -10.866  1.00  0.00     0.041 A 
ATOM     63  F   UNL     1      11.171   2.732 -10.073  1.00  0.00    -0.206 F 
ATOM     64  C   UNL     1      11.211  -0.544 -11.605  1.00  0.00     0.022 A 
BRANCH  61  65
ATOM     65  S   UNL     1       9.397  -1.983 -13.158  1.00  0.00     0.124 S 
ATOM     66  O   UNL     1       8.116  -2.159 -12.480  1.00  0.00    -0.237 OA
ATOM     67  O   UNL     1       9.330  -1.584 -14.559  1.00  0.00    -0.237 OA
ATOM     68  O   UNL     1      10.404  -2.995 -12.844  1.00  0.00    -0.744 OA
ENDBRANCH  61  65
ENDBRANCH  44  58
BRANCH  45  69
ATOM     69  C   UNL     1       3.601   9.761 -10.770  1.00  0.00     0.023 A 
ATOM     70  C   UNL     1       3.170  10.521 -11.868  1.00  0.00     0.031 A 
ATOM     71  C   UNL     1       3.242  10.200  -9.482  1.00  0.00     0.131 A 
ATOM     72  C   UNL     1       2.443  11.704 -11.658  1.00  0.00     0.055 A 
ATOM     73  C   UNL     1       2.476  11.349  -9.281  1.00  0.00     0.041 A 
ATOM     74  F   UNL     1       3.628   9.510  -8.397  1.00  0.00    -0.206 F 
ATOM     75  C   UNL     1       2.083  12.116 -10.373  1.00  0.00     0.022 A 
BRANCH  72  76
ATOM     76  S   UNL     1       2.039  12.742 -13.089  1.00  0.00     0.124 S 
ATOM     77  O   UNL     1       3.363  13.038 -13.624  1.00  0.00    -0.237 OA
ATOM     78  O   UNL     1       1.209  11.846 -13.888  1.00  0.00    -0.237 OA
ATOM     79  O   UNL     1       1.335  13.878 -12.497  1.00  0.00    -0.744 OA
ENDBRANCH  72  76
ENDBRANCH  45  69
BRANCH  57  80
ATOM     80  C   UNL     1      10.068   8.851 -13.227  1.00  0.00     0.023 A 
ATOM     81  C   UNL     1      10.702   9.868 -12.492  1.00  0.00     0.031 A 
ATOM     82  C   UNL     1      10.381   8.726 -14.593  1.00  0.00     0.131 A 
ATOM     83  C   UNL     1      11.584  10.748 -13.138  1.00  0.00     0.055 A 
ATOM     84  C   UNL     1      11.298   9.572 -15.217  1.00  0.00     0.041 A 
ATOM     85  F   UNL     1       9.803   7.772 -15.341  1.00  0.00    -0.206 F 
ATOM     86  C   UNL     1      11.898  10.597 -14.492  1.00  0.00     0.022 A 
BRANCH  83  87
ATOM     87  S   UNL     1      12.267  12.144 -12.202  1.00  0.00     0.124 S 
ATOM     88  O   UNL     1      11.061  12.860 -11.799  1.00  0.00    -0.237 OA
ATOM     89  O   UNL     1      12.998  11.475 -11.131  1.00  0.00    -0.237 OA
ATOM     90  O   UNL     1      13.102  12.838 -13.180  1.00  0.00    -0.744 OA
ENDBRANCH  83  87
ENDBRANCH  57  80
ENDBRANCH  31  32
ENDBRANCH  24  26
ENDBRANCH  23  24
ENDBRANCH  22  23
ENDBRANCH  21  22
ENDBRANCH  20  21
ENDBRANCH   1  20
TORSDOF 21
