REMARK SMILES O=C(OCCOCCOC(=O)c1cnc2sc(N3CCCCCC3)nn2c1=O)c1ccc(-c2c3nc(c(-c4cc(S(=O)(=O)[O-])ccc4F)c4ccc([nH]4)c(-c4cc(S(=O)(=O)[O-])ccc4F)c4nc(c(-c5cc(S(=O)(=O)[O-])ccc5F)c5ccc2[nH]5)C=C4)C=C3)cc1
REMARK SMILES IDX 7 1 6 2 5 3 4 4 3 5 2 6 1 7 29 8 30 9 91 10 31 11 90 12
REMARK SMILES IDX 32 13 33 14 34 15 84 16 35 17 89 18 83 19 85 20 36 21 88 22
REMARK SMILES IDX 82 23 81 24 37 26 69 27 49 28 68 29 50 30 53 31 67 32 86 33
REMARK SMILES IDX 51 34 52 35 66 37 87 38 54 39 38 40 39 41 47 42 40 43 46 44
REMARK SMILES IDX 48 45 45 46 41 47 42 48 43 49 44 50 70 51 71 52 79 53 72 54
REMARK SMILES IDX 78 55 80 56 77 57 73 58 74 59 75 60 76 61 55 62 56 63 64 64
REMARK SMILES IDX 57 65 63 66 65 67 62 68 58 69 59 70 60 71 61 72 8 73 9 74
REMARK SMILES IDX 10 75 11 76 12 77 13 78 27 79 14 80 26 81 28 82 15 83 25 84
REMARK SMILES IDX 16 85 17 86 18 87 19 88 20 89 21 90 24 92 23 93 22 94
REMARK H PARENT 85 25 53 36
REMARK Flexibility Score: 80.00
ROOT
ATOM      1  C   UNL     1       2.686   1.749   1.097  1.00  0.00     0.202 C 
ENDROOT
BRANCH   1   2
ATOM      2  O   UNL     1       3.998   1.509   0.571  1.00  0.00    -0.374 OA
BRANCH   2   3
ATOM      3  C   UNL     1       4.105   1.432  -0.851  1.00  0.00     0.202 C 
BRANCH   3   4
ATOM      4  C   UNL     1       3.748   0.074  -1.462  1.00  0.00     0.261 C 
BRANCH   4   5
ATOM      5  O   UNL     1       2.397  -0.288  -1.127  1.00  0.00    -0.460 OA
BRANCH   5   6
ATOM      6  C   UNL     1       1.975  -1.248  -0.270  1.00  0.00     0.338 C 
ATOM      7  O   UNL     1       0.773  -1.508  -0.230  1.00  0.00    -0.246 OA
BRANCH   6   8
ATOM      8  C   UNL     1       2.885  -1.988   0.659  1.00  0.00     0.060 A 
ATOM      9  C   UNL     1       4.120  -1.515   1.099  1.00  0.00     0.016 A 
ATOM     10  C   UNL     1       2.418  -3.200   1.199  1.00  0.00     0.016 A 
ATOM     11  C   UNL     1       4.905  -2.237   1.980  1.00  0.00     0.010 A 
ATOM     12  C   UNL     1       3.179  -3.911   2.137  1.00  0.00     0.010 A 
ATOM     13  C   UNL     1       4.434  -3.430   2.519  1.00  0.00    -0.014 A 
BRANCH  13  14
ATOM     14  C   UNL     1       5.350  -4.155   3.419  1.00  0.00     0.031 A 
ATOM     15  C   UNL     1       6.087  -5.342   2.883  1.00  0.00     0.074 A 
ATOM     16  C   UNL     1       5.653  -3.606   4.611  1.00  0.00     0.049 A 
ATOM     17  N   UNL     1       6.985  -6.088   3.464  1.00  0.00    -0.248 NA
ATOM     18  C   UNL     1       5.786  -5.726   1.494  1.00  0.00     0.031 C 
ATOM     19  C   UNL     1       5.066  -2.367   5.136  1.00  0.00     0.029 A 
ATOM     20  N   UNL     1       6.562  -3.970   5.567  1.00  0.00    -0.354 N 
ATOM     21  C   UNL     1       7.360  -7.030   2.514  1.00  0.00     0.074 A 
ATOM     22  C   UNL     1       6.571  -6.778   1.329  1.00  0.00     0.031 C 
ATOM     23  C   UNL     1       5.661  -2.056   6.298  1.00  0.00     0.029 A 
ATOM     24  C   UNL     1       6.610  -3.108   6.640  1.00  0.00     0.049 A 
ATOM     25  H   UNL     1       7.127  -4.773   5.495  1.00  0.00     0.167 HD
ATOM     26  C   UNL     1       8.284  -8.014   2.632  1.00  0.00     0.034 A 
ATOM     27  C   UNL     1       7.320  -3.187   7.782  1.00  0.00     0.034 A 
ATOM     28  C   UNL     1       9.023  -8.246   3.847  1.00  0.00     0.049 A 
ATOM     29  C   UNL     1       8.252  -4.364   7.934  1.00  0.00     0.074 A 
ATOM     30  C   UNL     1       9.888  -9.279   4.157  1.00  0.00     0.029 A 
ATOM     31  N   UNL     1       8.978  -7.417   4.965  1.00  0.00    -0.354 N 
ATOM     32  N   UNL     1       8.523  -5.317   7.068  1.00  0.00    -0.248 NA
ATOM     33  C   UNL     1       8.966  -4.483   9.207  1.00  0.00     0.031 C 
ATOM     34  C   UNL     1      10.322  -9.103   5.477  1.00  0.00     0.029 A 
ATOM     35  C   UNL     1       9.785  -7.923   5.970  1.00  0.00     0.049 A 
ATOM     36  H   UNL     1       8.448  -6.590   5.031  1.00  0.00     0.167 HD
ATOM     37  C   UNL     1       9.445  -6.148   7.694  1.00  0.00     0.074 A 
ATOM     38  C   UNL     1       9.715  -5.554   8.990  1.00  0.00     0.031 C 
ATOM     39  C   UNL     1      10.010  -7.303   7.256  1.00  0.00     0.034 A 
BRANCH  26  40
ATOM     40  C   UNL     1       8.444  -8.938   1.452  1.00  0.00     0.023 A 
ATOM     41  C   UNL     1       8.945  -8.485   0.218  1.00  0.00     0.031 A 
ATOM     42  C   UNL     1       7.995 -10.268   1.532  1.00  0.00     0.131 A 
ATOM     43  C   UNL     1       8.912  -9.330  -0.903  1.00  0.00     0.055 A 
ATOM     44  C   UNL     1       8.035 -11.127   0.432  1.00  0.00     0.041 A 
ATOM     45  F   UNL     1       7.474 -10.745   2.673  1.00  0.00    -0.206 F 
ATOM     46  C   UNL     1       8.481 -10.654  -0.799  1.00  0.00     0.022 A 
BRANCH  43  47
ATOM     47  S   UNL     1       9.295  -8.630  -2.534  1.00  0.00     0.124 S 
ATOM     48  O   UNL     1       8.247  -7.623  -2.676  1.00  0.00    -0.237 OA
ATOM     49  O   UNL     1      10.649  -8.121  -2.351  1.00  0.00    -0.237 OA
ATOM     50  O   UNL     1       9.176  -9.775  -3.435  1.00  0.00    -0.744 OA
ENDBRANCH  43  47
ENDBRANCH  26  40
BRANCH  27  51
ATOM     51  C   UNL     1       7.117  -2.200   8.888  1.00  0.00     0.023 A 
ATOM     52  C   UNL     1       8.178  -1.451   9.421  1.00  0.00     0.031 A 
ATOM     53  C   UNL     1       5.849  -2.047   9.484  1.00  0.00     0.131 A 
ATOM     54  C   UNL     1       7.965  -0.630  10.543  1.00  0.00     0.055 A 
ATOM     55  C   UNL     1       5.628  -1.179  10.554  1.00  0.00     0.041 A 
ATOM     56  F   UNL     1       4.794  -2.745   9.031  1.00  0.00    -0.206 F 
ATOM     57  C   UNL     1       6.694  -0.477  11.102  1.00  0.00     0.022 A 
BRANCH  54  58
ATOM     58  S   UNL     1       9.397   0.144  11.346  1.00  0.00     0.124 S 
ATOM     59  O   UNL     1      10.265  -1.004  11.581  1.00  0.00    -0.237 OA
ATOM     60  O   UNL     1       9.843   1.087  10.326  1.00  0.00    -0.237 OA
ATOM     61  O   UNL     1       8.827   0.751  12.547  1.00  0.00    -0.744 OA
ENDBRANCH  54  58
ENDBRANCH  27  51
BRANCH  39  62
ATOM     62  C   UNL     1      10.983  -7.965   8.197  1.00  0.00     0.023 A 
ATOM     63  C   UNL     1      10.558  -8.512   9.420  1.00  0.00     0.031 A 
ATOM     64  C   UNL     1      12.351  -8.017   7.881  1.00  0.00     0.131 A 
ATOM     65  C   UNL     1      11.504  -9.024  10.318  1.00  0.00     0.055 A 
ATOM     66  C   UNL     1      13.279  -8.589   8.751  1.00  0.00     0.041 A 
ATOM     67  F   UNL     1      12.806  -7.508   6.726  1.00  0.00    -0.206 F 
ATOM     68  C   UNL     1      12.860  -9.081   9.984  1.00  0.00     0.022 A 
BRANCH  65  69
ATOM     69  S   UNL     1      10.950  -9.509  11.974  1.00  0.00     0.124 S 
ATOM     70  O   UNL     1      10.353  -8.273  12.469  1.00  0.00    -0.237 OA
ATOM     71  O   UNL     1      10.020 -10.595  11.686  1.00  0.00    -0.237 OA
ATOM     72  O   UNL     1      12.185  -9.913  12.643  1.00  0.00    -0.744 OA
ENDBRANCH  65  69
ENDBRANCH  39  62
ENDBRANCH  13  14
ENDBRANCH   6   8
ENDBRANCH   5   6
ENDBRANCH   4   5
ENDBRANCH   3   4
ENDBRANCH   2   3
ENDBRANCH   1   2
BRANCH   1  73
ATOM     73  C   UNL     1       2.780   2.789   2.216  1.00  0.00     0.261 C 
BRANCH  73  74
ATOM     74  O   UNL     1       3.266   4.005   1.634  1.00  0.00    -0.459 OA
BRANCH  74  75
ATOM     75  C   UNL     1       4.617   4.115   1.557  1.00  0.00     0.345 C 
ATOM     76  O   UNL     1       5.446   3.527   2.234  1.00  0.00    -0.246 OA
BRANCH  75  77
ATOM     77  C   UNL     1       4.928   4.882   0.346  1.00  0.00     0.145 A 
ATOM     78  C   UNL     1       5.868   4.416  -0.496  1.00  0.00     0.136 A 
ATOM     79  C   UNL     1       4.150   6.070  -0.049  1.00  0.00     0.289 A 
ATOM     80  N   UNL     1       6.146   4.924  -1.750  1.00  0.00    -0.226 NA
ATOM     81  N   UNL     1       4.461   6.521  -1.313  1.00  0.00    -0.165 N 
ATOM     82  O   UNL     1       3.354   6.612   0.714  1.00  0.00    -0.266 OA
ATOM     83  C   UNL     1       5.427   5.941  -2.092  1.00  0.00     0.217 A 
ATOM     84  N   UNL     1       3.929   7.685  -1.770  1.00  0.00    -0.133 NA
ATOM     85  S   UNL     1       5.562   6.806  -3.591  1.00  0.00    -0.057 S 
ATOM     86  C   UNL     1       4.460   7.985  -2.912  1.00  0.00     0.208 A 
BRANCH  86  87
ATOM     87  N   UNL     1       4.302   9.209  -3.510  1.00  0.00    -0.347 N 
BRANCH  87  88
ATOM     88  C   UNL     1       3.474   9.338  -4.701  1.00  0.00     0.119 C 
BRANCH  88  89
ATOM     89  C   UNL     1       4.295   9.862  -5.873  1.00  0.00     0.021 C 
BRANCH  89  90
ATOM     90  C   UNL     1       4.689  11.334  -5.766  1.00  0.00     0.002 CG0
ATOM     91  G   UNL     1       5.445  11.711  -4.493  1.00  0.00     0.000 G0
ENDBRANCH  89  90
ENDBRANCH  88  89
ENDBRANCH  87  88
BRANCH  87  92
ATOM     92  C   UNL     1       4.393  10.350  -2.596  1.00  0.00     0.119 C 
BRANCH  92  93
ATOM     93  C   UNL     1       4.542  11.706  -3.263  1.00  0.00     0.021 C 
BRANCH  93  94
ATOM     94  C   UNL     1       5.445  11.711  -4.493  1.00  0.00     0.002 CG0
ATOM     95  G   UNL     1       4.689  11.334  -5.766  1.00  0.00     0.000 G0
ENDBRANCH  93  94
ENDBRANCH  92  93
ENDBRANCH  87  92
ENDBRANCH  86  87
ENDBRANCH  75  77
ENDBRANCH  74  75
ENDBRANCH  73  74
ENDBRANCH   1  73
TORSDOF 18
