REMARK SMILES COc1ccc(NC(C)(C)C2=N[C@@H](C(=O)OCCOCCOC(=O)c3ccc(-c4c5nc(c(-c6cc(S(=O)(=O)[O-])ccc6F)c6ccc([nH]6)c(-c6cc(S(=O)(=O)[O-])ccc6F)c6nc(c(-c7cc(S(=O)(=O)[O-])ccc7F)c7ccc4[nH]7)C=C6)C=C5)cc3)CS2)cc1
REMARK SMILES IDX 18 1 17 2 16 3 14 4 15 5 13 6 11 7 12 8 89 9 88 10 8 11 9 12
REMARK SMILES IDX 10 13 7 14 6 16 3 17 4 18 91 19 5 20 90 21 2 22 1 23 19 24
REMARK SMILES IDX 20 25 21 26 22 27 23 28 24 29 25 30 26 31 87 32 27 33 86 34
REMARK SMILES IDX 28 35 29 36 30 37 80 38 31 39 85 40 79 41 81 42 32 43 84 44
REMARK SMILES IDX 78 45 77 46 33 48 65 49 45 50 64 51 46 52 49 53 63 54 82 55
REMARK SMILES IDX 47 56 48 57 62 59 83 60 50 61 34 62 35 63 43 64 36 65 42 66
REMARK SMILES IDX 44 67 41 68 37 69 38 70 39 71 40 72 66 73 67 74 75 75 68 76
REMARK SMILES IDX 74 77 76 78 73 79 69 80 70 81 71 82 72 83 51 84 52 85 60 86
REMARK SMILES IDX 53 87 59 88 61 89 58 90 54 91 55 92 56 93 57 94
REMARK H PARENT 7 15 81 47 49 58
REMARK Flexibility Score: inf
ROOT
ATOM      1  C   UNL     1      -3.605  -7.701   2.199  1.00  0.00     0.202 C 
ENDROOT
BRANCH   1   2
ATOM      2  C   UNL     1      -2.774  -8.450   1.153  1.00  0.00     0.261 C 
BRANCH   2   3
ATOM      3  O   UNL     1      -2.457  -7.637   0.013  1.00  0.00    -0.462 OA
BRANCH   3   4
ATOM      4  C   UNL     1      -3.215  -7.863  -1.097  1.00  0.00     0.331 C 
ATOM      5  O   UNL     1      -4.156  -8.646  -1.165  1.00  0.00    -0.250 OA
BRANCH   4   6
ATOM      6  C   UNL     1      -2.763  -7.013  -2.275  1.00  0.00     0.226 C 
ATOM      7  C   UNL     1      -0.757  -6.329  -3.105  1.00  0.00     0.094 C 
ATOM      8  N   UNL     1      -1.357  -7.357  -2.590  1.00  0.00    -0.264 NA
ATOM      9  S   UNL     1      -1.747  -4.883  -3.302  1.00  0.00    -0.106 SA
ATOM     10  C   UNL     1      -2.862  -5.518  -2.026  1.00  0.00     0.115 C 
BRANCH   7  11
ATOM     11  C   UNL     1       0.701  -6.388  -3.575  1.00  0.00     0.080 C 
ATOM     12  C   UNL     1       0.690  -6.238  -5.109  1.00  0.00     0.042 C 
ATOM     13  C   UNL     1       1.296  -7.766  -3.227  1.00  0.00     0.042 C 
BRANCH  11  14
ATOM     14  N   UNL     1       1.630  -5.373  -3.046  1.00  0.00    -0.374 N 
ATOM     15  H   UNL     1       2.485  -5.332  -3.533  1.00  0.00     0.161 HD
BRANCH  14  16
ATOM     16  C   UNL     1       1.544  -4.473  -2.012  1.00  0.00     0.035 A 
ATOM     17  C   UNL     1       1.225  -2.285  -0.238  1.00  0.00     0.119 A 
ATOM     18  C   UNL     1       0.458  -3.438  -0.092  1.00  0.00     0.048 A 
ATOM     19  C   UNL     1       2.236  -2.268  -1.190  1.00  0.00     0.048 A 
ATOM     20  C   UNL     1       0.631  -4.526  -0.961  1.00  0.00     0.029 A 
ATOM     21  C   UNL     1       2.381  -3.346  -2.068  1.00  0.00     0.029 A 
BRANCH  17  22
ATOM     22  O   UNL     1       0.919  -1.248   0.599  1.00  0.00    -0.497 OA
ATOM     23  C   UNL     1       1.271   0.045   0.110  1.00  0.00     0.278 C 
ENDBRANCH  17  22
ENDBRANCH  14  16
ENDBRANCH  11  14
ENDBRANCH   7  11
ENDBRANCH   4   6
ENDBRANCH   3   4
ENDBRANCH   2   3
ENDBRANCH   1   2
BRANCH   1  24
ATOM     24  O   UNL     1      -4.878  -7.216   1.775  1.00  0.00    -0.374 OA
BRANCH  24  25
ATOM     25  C   UNL     1      -4.892  -5.982   1.061  1.00  0.00     0.202 C 
BRANCH  25  26
ATOM     26  C   UNL     1      -4.785  -4.696   1.888  1.00  0.00     0.261 C 
BRANCH  26  27
ATOM     27  O   UNL     1      -3.510  -4.577   2.542  1.00  0.00    -0.460 OA
BRANCH  27  28
ATOM     28  C   UNL     1      -3.548  -4.801   3.877  1.00  0.00     0.338 C 
ATOM     29  O   UNL     1      -4.549  -5.015   4.553  1.00  0.00    -0.246 OA
BRANCH  28  30
ATOM     30  C   UNL     1      -2.183  -4.951   4.415  1.00  0.00     0.060 A 
ATOM     31  C   UNL     1      -1.941  -6.051   5.248  1.00  0.00     0.016 A 
ATOM     32  C   UNL     1      -1.179  -4.010   4.174  1.00  0.00     0.016 A 
ATOM     33  C   UNL     1      -0.717  -6.181   5.896  1.00  0.00     0.010 A 
ATOM     34  C   UNL     1       0.051  -4.140   4.830  1.00  0.00     0.010 A 
ATOM     35  C   UNL     1       0.271  -5.202   5.726  1.00  0.00    -0.014 A 
BRANCH  35  36
ATOM     36  C   UNL     1       1.458  -5.209   6.618  1.00  0.00     0.031 A 
ATOM     37  C   UNL     1       1.481  -4.284   7.804  1.00  0.00     0.074 A 
ATOM     38  C   UNL     1       2.474  -6.064   6.408  1.00  0.00     0.049 A 
ATOM     39  N   UNL     1       2.408  -4.112   8.711  1.00  0.00    -0.248 NA
ATOM     40  C   UNL     1       0.293  -3.438   7.987  1.00  0.00     0.031 C 
ATOM     41  C   UNL     1       2.537  -7.050   5.331  1.00  0.00     0.029 A 
ATOM     42  N   UNL     1       3.645  -6.243   7.099  1.00  0.00    -0.354 N 
ATOM     43  C   UNL     1       1.915  -3.139   9.576  1.00  0.00     0.074 A 
ATOM     44  C   UNL     1       0.632  -2.724   9.048  1.00  0.00     0.031 C 
ATOM     45  C   UNL     1       3.686  -7.738   5.439  1.00  0.00     0.029 A 
ATOM     46  C   UNL     1       4.458  -7.214   6.564  1.00  0.00     0.049 A 
ATOM     47  H   UNL     1       3.882  -5.725   7.903  1.00  0.00     0.167 HD
ATOM     48  C   UNL     1       2.473  -2.649  10.712  1.00  0.00     0.034 A 
ATOM     49  C   UNL     1       5.690  -7.618   6.932  1.00  0.00     0.034 A 
ATOM     50  C   UNL     1       3.767  -3.055  11.208  1.00  0.00     0.049 A 
ATOM     51  C   UNL     1       6.351  -6.967   8.122  1.00  0.00     0.074 A 
ATOM     52  C   UNL     1       4.433  -2.624  12.342  1.00  0.00     0.029 A 
ATOM     53  N   UNL     1       4.603  -3.977  10.588  1.00  0.00    -0.354 N 
ATOM     54  N   UNL     1       5.882  -6.044   8.929  1.00  0.00    -0.248 NA
ATOM     55  C   UNL     1       7.710  -7.418   8.449  1.00  0.00     0.031 C 
ATOM     56  C   UNL     1       5.698  -3.224  12.364  1.00  0.00     0.029 A 
ATOM     57  C   UNL     1       5.792  -4.097  11.292  1.00  0.00     0.049 A 
ATOM     58  H   UNL     1       4.382  -4.474   9.766  1.00  0.00     0.167 HD
ATOM     59  C   UNL     1       6.876  -5.830   9.882  1.00  0.00     0.074 A 
ATOM     60  C   UNL     1       7.965  -6.726   9.550  1.00  0.00     0.031 C 
ATOM     61  C   UNL     1       6.882  -4.979  10.941  1.00  0.00     0.034 A 
BRANCH  48  62
ATOM     62  C   UNL     1       1.699  -1.578  11.447  1.00  0.00     0.023 A 
ATOM     63  C   UNL     1       0.416  -1.821  11.971  1.00  0.00     0.031 A 
ATOM     64  C   UNL     1       2.217  -0.275  11.563  1.00  0.00     0.131 A 
ATOM     65  C   UNL     1      -0.343  -0.760  12.488  1.00  0.00     0.055 A 
ATOM     66  C   UNL     1       1.493   0.755  12.166  1.00  0.00     0.041 A 
ATOM     67  F   UNL     1       3.426   0.027  11.064  1.00  0.00    -0.206 F 
ATOM     68  C   UNL     1       0.196   0.522  12.613  1.00  0.00     0.022 A 
BRANCH  65  69
ATOM     69  S   UNL     1      -2.107  -1.036  12.812  1.00  0.00     0.124 S 
ATOM     70  O   UNL     1      -2.575  -1.512  11.512  1.00  0.00    -0.237 OA
ATOM     71  O   UNL     1      -2.079  -2.025  13.883  1.00  0.00    -0.237 OA
ATOM     72  O   UNL     1      -2.597   0.286  13.195  1.00  0.00    -0.744 OA
ENDBRANCH  65  69
ENDBRANCH  48  62
BRANCH  49  73
ATOM     73  C   UNL     1       6.394  -8.679   6.158  1.00  0.00     0.023 A 
ATOM     74  C   UNL     1       6.707  -9.914   6.746  1.00  0.00     0.031 A 
ATOM     75  C   UNL     1       6.798  -8.459   4.828  1.00  0.00     0.131 A 
ATOM     76  C   UNL     1       7.432 -10.871   6.018  1.00  0.00     0.055 A 
ATOM     77  C   UNL     1       7.475  -9.432   4.093  1.00  0.00     0.041 A 
ATOM     78  F   UNL     1       6.526  -7.293   4.220  1.00  0.00    -0.206 F 
ATOM     79  C   UNL     1       7.805 -10.644   4.691  1.00  0.00     0.022 A 
BRANCH  76  80
ATOM     80  S   UNL     1       7.939 -12.398   6.855  1.00  0.00     0.124 S 
ATOM     81  O   UNL     1       8.774 -11.882   7.934  1.00  0.00    -0.237 OA
ATOM     82  O   UNL     1       6.655 -12.967   7.252  1.00  0.00    -0.237 OA
ATOM     83  O   UNL     1       8.649 -13.137   5.813  1.00  0.00    -0.744 OA
ENDBRANCH  76  80
ENDBRANCH  49  73
BRANCH  61  84
ATOM     84  C   UNL     1       8.094  -5.016  11.844  1.00  0.00     0.023 A 
ATOM     85  C   UNL     1       9.365  -4.608  11.402  1.00  0.00     0.031 A 
ATOM     86  C   UNL     1       7.974  -5.481  13.166  1.00  0.00     0.131 A 
ATOM     87  C   UNL     1      10.474  -4.727  12.254  1.00  0.00     0.055 A 
ATOM     88  C   UNL     1       9.069  -5.538  14.030  1.00  0.00     0.041 A 
ATOM     89  F   UNL     1       6.787  -5.887  13.643  1.00  0.00    -0.206 F 
ATOM     90  C   UNL     1      10.331  -5.173  13.571  1.00  0.00     0.022 A 
BRANCH  87  91
ATOM     91  S   UNL     1      12.127  -4.384  11.589  1.00  0.00     0.124 S 
ATOM     92  O   UNL     1      12.213  -5.334  10.485  1.00  0.00    -0.237 OA
ATOM     93  O   UNL     1      12.028  -2.978  11.214  1.00  0.00    -0.237 OA
ATOM     94  O   UNL     1      13.016  -4.663  12.716  1.00  0.00    -0.744 OA
ENDBRANCH  87  91
ENDBRANCH  61  84
ENDBRANCH  35  36
ENDBRANCH  28  30
ENDBRANCH  27  28
ENDBRANCH  26  27
ENDBRANCH  25  26
ENDBRANCH  24  25
ENDBRANCH   1  24
TORSDOF 21
