REMARK SMILES CC[C@@H](C)N(CC)c1cc(C(=O)OCCOCCOC(=O)c2ccc(-c3c4nc(c(-c5cc(S(=O)(=O)[O-])ccc5F)c5ccc([nH]5)c(-c5cc(S(=O)(=O)[O-])ccc5F)c5nc(c(-c6cc(S(=O)(=O)[O-])ccc6F)c6ccc3[nH]6)C=C5)C=C4)cc2)c2ccccc2n1
REMARK SMILES IDX 16 1 15 2 14 3 13 4 11 5 12 6 10 7 8 8 9 9 91 10 90 11 85 12
REMARK SMILES IDX 89 13 86 14 88 15 87 16 5 17 3 18 4 19 2 20 1 21 6 22 7 23
REMARK SMILES IDX 17 24 18 25 19 26 20 27 21 28 22 29 23 30 84 31 24 32 83 33
REMARK SMILES IDX 25 34 26 35 27 36 77 37 28 38 82 39 76 40 78 41 29 42 81 43
REMARK SMILES IDX 75 44 74 45 30 47 62 48 42 49 61 50 43 51 46 52 60 53 79 54
REMARK SMILES IDX 44 55 45 56 59 58 80 59 47 60 31 61 32 62 40 63 33 64 39 65
REMARK SMILES IDX 41 66 38 67 34 68 35 69 36 70 37 71 63 72 64 73 72 74 65 75
REMARK SMILES IDX 71 76 73 77 70 78 66 79 67 80 68 81 69 82 48 83 49 84 57 85
REMARK SMILES IDX 50 86 56 87 58 88 55 89 51 90 52 91 53 92 54 93
REMARK H PARENT 78 46 46 57
REMARK Flexibility Score: inf
ROOT
ATOM      1  O   UNL     1      -2.964   2.848  -9.082  1.00  0.00    -0.374 OA
ENDROOT
BRANCH   1   2
ATOM      2  C   UNL     1      -4.306   2.354  -9.075  1.00  0.00     0.202 C 
BRANCH   2   3
ATOM      3  C   UNL     1      -4.523   1.054  -8.300  1.00  0.00     0.261 C 
BRANCH   3   4
ATOM      4  O   UNL     1      -4.292   1.274  -6.898  1.00  0.00    -0.460 OA
BRANCH   4   5
ATOM      5  C   UNL     1      -3.423   0.424  -6.311  1.00  0.00     0.339 C 
ATOM      6  O   UNL     1      -2.950  -0.592  -6.801  1.00  0.00    -0.246 OA
BRANCH   5   7
ATOM      7  C   UNL     1      -2.918   0.996  -5.045  1.00  0.00     0.073 A 
ATOM      8  C   UNL     1      -0.943   1.389  -3.738  1.00  0.00     0.130 A 
ATOM      9  C   UNL     1      -1.530   0.934  -4.900  1.00  0.00     0.063 A 
ATOM     10  N   UNL     1      -1.696   1.883  -2.741  1.00  0.00    -0.231 NA
ATOM     11  C   UNL     1      -3.033   1.943  -2.863  1.00  0.00     0.074 A 
ATOM     12  C   UNL     1      -3.724   1.532  -4.019  1.00  0.00     0.015 A 
ATOM     13  C   UNL     1      -3.759   2.415  -1.777  1.00  0.00     0.029 A 
ATOM     14  C   UNL     1      -5.138   1.658  -4.047  1.00  0.00     0.011 A 
ATOM     15  C   UNL     1      -5.150   2.521  -1.805  1.00  0.00     0.002 A 
ATOM     16  C   UNL     1      -5.841   2.156  -2.950  1.00  0.00     0.001 A 
BRANCH   8  17
ATOM     17  N   UNL     1       0.425   1.269  -3.567  1.00  0.00    -0.354 N 
BRANCH  17  18
ATOM     18  C   UNL     1       0.956   0.397  -2.506  1.00  0.00     0.080 C 
ATOM     19  C   UNL     1       0.515  -1.049  -2.756  1.00  0.00     0.031 C 
BRANCH  18  20
ATOM     20  C   UNL     1       0.613   0.901  -1.092  1.00  0.00     0.021 C 
ATOM     21  C   UNL     1       1.307   0.120   0.016  1.00  0.00     0.006 C 
ENDBRANCH  18  20
ENDBRANCH  17  18
BRANCH  17  22
ATOM     22  C   UNL     1       1.290   2.263  -4.195  1.00  0.00     0.115 C 
ATOM     23  C   UNL     1       1.538   1.948  -5.665  1.00  0.00     0.027 C 
ENDBRANCH  17  22
ENDBRANCH   8  17
ENDBRANCH   5   7
ENDBRANCH   4   5
ENDBRANCH   3   4
ENDBRANCH   2   3
ENDBRANCH   1   2
BRANCH   1  24
ATOM     24  C   UNL     1      -2.508   3.519  -7.907  1.00  0.00     0.202 C 
BRANCH  24  25
ATOM     25  C   UNL     1      -2.977   4.967  -7.714  1.00  0.00     0.261 C 
BRANCH  25  26
ATOM     26  O   UNL     1      -4.393   5.065  -7.482  1.00  0.00    -0.460 OA
BRANCH  26  27
ATOM     27  C   UNL     1      -5.101   5.586  -8.513  1.00  0.00     0.338 C 
ATOM     28  O   UNL     1      -4.654   6.011  -9.570  1.00  0.00    -0.246 OA
BRANCH  27  29
ATOM     29  C   UNL     1      -6.547   5.408  -8.277  1.00  0.00     0.060 A 
ATOM     30  C   UNL     1      -7.299   4.800  -9.291  1.00  0.00     0.016 A 
ATOM     31  C   UNL     1      -7.171   5.887  -7.123  1.00  0.00     0.016 A 
ATOM     32  C   UNL     1      -8.685   4.709  -9.175  1.00  0.00     0.010 A 
ATOM     33  C   UNL     1      -8.564   5.803  -7.014  1.00  0.00     0.010 A 
ATOM     34  C   UNL     1      -9.330   5.243  -8.053  1.00  0.00    -0.014 A 
BRANCH  34  35
ATOM     35  C   UNL     1     -10.812   5.340  -8.036  1.00  0.00     0.031 A 
ATOM     36  C   UNL     1     -11.460   6.656  -8.372  1.00  0.00     0.074 A 
ATOM     37  C   UNL     1     -11.569   4.264  -7.752  1.00  0.00     0.049 A 
ATOM     38  N   UNL     1     -12.727   6.979  -8.386  1.00  0.00    -0.248 NA
ATOM     39  C   UNL     1     -10.554   7.755  -8.739  1.00  0.00     0.031 C 
ATOM     40  C   UNL     1     -11.056   2.926  -7.459  1.00  0.00     0.029 A 
ATOM     41  N   UNL     1     -12.932   4.128  -7.661  1.00  0.00    -0.354 N 
ATOM     42  C   UNL     1     -12.773   8.321  -8.752  1.00  0.00     0.074 A 
ATOM     43  C   UNL     1     -11.402   8.756  -8.921  1.00  0.00     0.031 C 
ATOM     44  C   UNL     1     -12.093   2.106  -7.213  1.00  0.00     0.029 A 
ATOM     45  C   UNL     1     -13.339   2.867  -7.292  1.00  0.00     0.049 A 
ATOM     46  H   UNL     1     -13.560   4.865  -7.843  1.00  0.00     0.167 HD
ATOM     47  C   UNL     1     -13.858   9.113  -8.934  1.00  0.00     0.034 A 
ATOM     48  C   UNL     1     -14.572   2.391  -7.025  1.00  0.00     0.034 A 
ATOM     49  C   UNL     1     -15.218   8.664  -8.761  1.00  0.00     0.049 A 
ATOM     50  C   UNL     1     -15.759   3.317  -7.153  1.00  0.00     0.074 A 
ATOM     51  C   UNL     1     -16.391   9.374  -8.955  1.00  0.00     0.029 A 
ATOM     52  N   UNL     1     -15.590   7.395  -8.338  1.00  0.00    -0.354 N 
ATOM     53  N   UNL     1     -15.789   4.578  -7.522  1.00  0.00    -0.248 NA
ATOM     54  C   UNL     1     -17.078   2.754  -6.835  1.00  0.00     0.031 C 
ATOM     55  C   UNL     1     -17.464   8.561  -8.576  1.00  0.00     0.029 A 
ATOM     56  C   UNL     1     -16.970   7.315  -8.225  1.00  0.00     0.049 A 
ATOM     57  H   UNL     1     -14.965   6.658  -8.147  1.00  0.00     0.167 HD
ATOM     58  C   UNL     1     -17.134   4.943  -7.516  1.00  0.00     0.074 A 
ATOM     59  C   UNL     1     -17.881   3.768  -7.118  1.00  0.00     0.031 C 
ATOM     60  C   UNL     1     -17.703   6.138  -7.819  1.00  0.00     0.034 A 
BRANCH  47  61
ATOM     61  C   UNL     1     -13.614  10.562  -9.283  1.00  0.00     0.023 A 
ATOM     62  C   UNL     1     -13.015  10.946 -10.496  1.00  0.00     0.031 A 
ATOM     63  C   UNL     1     -13.975  11.574  -8.376  1.00  0.00     0.131 A 
ATOM     64  C   UNL     1     -12.741  12.301 -10.741  1.00  0.00     0.055 A 
ATOM     65  C   UNL     1     -13.767  12.925  -8.659  1.00  0.00     0.041 A 
ATOM     66  F   UNL     1     -14.528  11.266  -7.193  1.00  0.00    -0.206 F 
ATOM     67  C   UNL     1     -13.135  13.295  -9.842  1.00  0.00     0.022 A 
BRANCH  64  68
ATOM     68  S   UNL     1     -11.745  12.737 -12.194  1.00  0.00     0.124 S 
ATOM     69  O   UNL     1     -10.516  11.989 -11.944  1.00  0.00    -0.237 OA
ATOM     70  O   UNL     1     -12.571  12.260 -13.297  1.00  0.00    -0.237 OA
ATOM     71  O   UNL     1     -11.613  14.189 -12.095  1.00  0.00    -0.744 OA
ENDBRANCH  64  68
ENDBRANCH  47  61
BRANCH  48  72
ATOM     72  C   UNL     1     -14.762   0.983  -6.567  1.00  0.00     0.023 A 
ATOM     73  C   UNL     1     -15.521   0.072  -7.319  1.00  0.00     0.031 A 
ATOM     74  C   UNL     1     -14.248   0.549  -5.332  1.00  0.00     0.131 A 
ATOM     75  C   UNL     1     -15.793  -1.205  -6.804  1.00  0.00     0.055 A 
ATOM     76  C   UNL     1     -14.472  -0.742  -4.851  1.00  0.00     0.041 A 
ATOM     77  F   UNL     1     -13.517   1.380  -4.571  1.00  0.00    -0.206 F 
ATOM     78  C   UNL     1     -15.262  -1.623  -5.582  1.00  0.00     0.022 A 
BRANCH  75  79
ATOM     79  S   UNL     1     -16.938  -2.281  -7.711  1.00  0.00     0.124 S 
ATOM     80  O   UNL     1     -18.136  -1.451  -7.774  1.00  0.00    -0.237 OA
ATOM     81  O   UNL     1     -16.229  -2.483  -8.970  1.00  0.00    -0.237 OA
ATOM     82  O   UNL     1     -17.041  -3.463  -6.858  1.00  0.00    -0.744 OA
ENDBRANCH  75  79
ENDBRANCH  48  72
BRANCH  60  83
ATOM     83  C   UNL     1     -19.211   6.213  -7.783  1.00  0.00     0.023 A 
ATOM     84  C   UNL     1     -19.932   6.092  -6.583  1.00  0.00     0.031 A 
ATOM     85  C   UNL     1     -19.936   6.399  -8.974  1.00  0.00     0.131 A 
ATOM     86  C   UNL     1     -21.336   6.102  -6.607  1.00  0.00     0.055 A 
ATOM     87  C   UNL     1     -21.329   6.469  -8.984  1.00  0.00     0.041 A 
ATOM     88  F   UNL     1     -19.299   6.518 -10.150  1.00  0.00    -0.206 F 
ATOM     89  C   UNL     1     -22.038   6.307  -7.798  1.00  0.00     0.022 A 
BRANCH  86  90
ATOM     90  S   UNL     1     -22.237   5.751  -5.072  1.00  0.00     0.124 S 
ATOM     91  O   UNL     1     -21.733   4.428  -4.720  1.00  0.00    -0.237 OA
ATOM     92  O   UNL     1     -21.814   6.846  -4.205  1.00  0.00    -0.237 OA
ATOM     93  O   UNL     1     -23.640   5.792  -5.481  1.00  0.00    -0.744 OA
ENDBRANCH  86  90
ENDBRANCH  60  83
ENDBRANCH  34  35
ENDBRANCH  27  29
ENDBRANCH  26  27
ENDBRANCH  25  26
ENDBRANCH  24  25
ENDBRANCH   1  24
TORSDOF 21
