REMARK SMILES CCc1cccc(-c2ccc([C@@H](C)C(=O)OCCOCCOC(=O)c3ccc(-c4c5nc(c(-c6cc(S(=O)(=O)[O-])ccc6F)c6ccc([nH]6)c(-c6cc(S(=O)(=O)[O-])ccc6F)c6nc(c(-c7cc(S(=O)(=O)[O-])ccc7F)c7ccc4[nH]7)C=C6)C=C5)cc3)cc2)c1
REMARK SMILES IDX 19 1 18 2 17 3 16 4 14 5 15 6 12 7 13 8 11 9 8 10 9 11 89 12
REMARK SMILES IDX 10 13 88 14 7 15 3 16 4 17 90 18 5 19 6 20 2 21 1 22 20 23
REMARK SMILES IDX 21 24 22 25 23 26 24 27 25 28 26 29 87 30 27 31 86 32 28 33
REMARK SMILES IDX 29 34 30 35 80 36 31 37 85 38 79 39 81 40 32 41 84 42 78 43
REMARK SMILES IDX 77 44 33 46 65 47 45 48 64 49 46 50 49 51 63 52 82 53 47 54
REMARK SMILES IDX 48 55 62 57 83 58 50 59 34 60 35 61 43 62 36 63 42 64 44 65
REMARK SMILES IDX 41 66 37 67 38 68 39 69 40 70 66 71 67 72 75 73 68 74 74 75
REMARK SMILES IDX 76 76 73 77 69 78 70 79 71 80 72 81 51 82 52 83 60 84 53 85
REMARK SMILES IDX 59 86 61 87 58 88 54 89 55 90 56 91 57 92
REMARK H PARENT 81 45 49 56
REMARK Flexibility Score: inf
ROOT
ATOM      1  O   UNL     1      -3.647   9.778  -1.346  1.00  0.00    -0.374 OA
ENDROOT
BRANCH   1   2
ATOM      2  C   UNL     1      -3.998   9.778  -2.730  1.00  0.00     0.202 C 
BRANCH   2   3
ATOM      3  C   UNL     1      -3.087  10.586  -3.658  1.00  0.00     0.261 C 
BRANCH   3   4
ATOM      4  O   UNL     1      -1.771  10.007  -3.732  1.00  0.00    -0.463 OA
BRANCH   4   5
ATOM      5  C   UNL     1      -0.763  10.744  -3.200  1.00  0.00     0.313 C 
ATOM      6  O   UNL     1      -0.885  11.893  -2.784  1.00  0.00    -0.252 OA
BRANCH   5   7
ATOM      7  C   UNL     1       0.581  10.033  -3.193  1.00  0.00     0.126 C 
ATOM      8  C   UNL     1       1.374  10.447  -4.430  1.00  0.00     0.025 C 
BRANCH   7   9
ATOM      9  C   UNL     1       0.590   8.521  -2.985  1.00  0.00    -0.034 A 
ATOM     10  C   UNL     1       0.880   5.704  -2.644  1.00  0.00    -0.018 A 
ATOM     11  C   UNL     1       0.239   6.241  -3.772  1.00  0.00     0.009 A 
ATOM     12  C   UNL     1       1.324   6.601  -1.663  1.00  0.00     0.009 A 
ATOM     13  C   UNL     1       0.097   7.625  -3.942  1.00  0.00     0.005 A 
ATOM     14  C   UNL     1       1.183   7.985  -1.830  1.00  0.00     0.005 A 
BRANCH  10  15
ATOM     15  C   UNL     1       1.150   4.259  -2.532  1.00  0.00    -0.018 A 
ATOM     16  C   UNL     1       1.034   2.132  -1.294  1.00  0.00    -0.048 A 
ATOM     17  C   UNL     1       1.746   1.509  -2.325  1.00  0.00     0.004 A 
ATOM     18  C   UNL     1       0.742   3.507  -1.415  1.00  0.00     0.012 A 
ATOM     19  C   UNL     1       2.159   2.236  -3.440  1.00  0.00     0.001 A 
ATOM     20  C   UNL     1       1.864   3.595  -3.541  1.00  0.00     0.009 A 
BRANCH  16  21
ATOM     21  C   UNL     1       0.538   1.394  -0.069  1.00  0.00     0.032 C 
ATOM     22  C   UNL     1       0.991  -0.053   0.096  1.00  0.00     0.009 C 
ENDBRANCH  16  21
ENDBRANCH  10  15
ENDBRANCH   7   9
ENDBRANCH   5   7
ENDBRANCH   4   5
ENDBRANCH   3   4
ENDBRANCH   2   3
ENDBRANCH   1   2
BRANCH   1  23
ATOM     23  C   UNL     1      -2.575   8.925  -0.943  1.00  0.00     0.202 C 
BRANCH  23  24
ATOM     24  C   UNL     1      -2.881   7.426  -0.841  1.00  0.00     0.261 C 
BRANCH  24  25
ATOM     25  O   UNL     1      -3.107   6.822  -2.126  1.00  0.00    -0.460 OA
BRANCH  25  26
ATOM     26  C   UNL     1      -4.384   6.442  -2.365  1.00  0.00     0.338 C 
ATOM     27  O   UNL     1      -5.332   6.521  -1.592  1.00  0.00    -0.246 OA
BRANCH  26  28
ATOM     28  C   UNL     1      -4.543   6.085  -3.786  1.00  0.00     0.060 A 
ATOM     29  C   UNL     1      -5.584   6.695  -4.500  1.00  0.00     0.016 A 
ATOM     30  C   UNL     1      -3.731   5.127  -4.396  1.00  0.00     0.016 A 
ATOM     31  C   UNL     1      -5.848   6.315  -5.815  1.00  0.00     0.010 A 
ATOM     32  C   UNL     1      -4.005   4.739  -5.711  1.00  0.00     0.010 A 
ATOM     33  C   UNL     1      -5.085   5.306  -6.414  1.00  0.00    -0.014 A 
BRANCH  33  34
ATOM     34  C   UNL     1      -5.508   4.722  -7.711  1.00  0.00     0.031 A 
ATOM     35  C   UNL     1      -6.243   3.411  -7.703  1.00  0.00     0.074 A 
ATOM     36  C   UNL     1      -5.226   5.335  -8.874  1.00  0.00     0.049 A 
ATOM     37  N   UNL     1      -6.590   2.644  -8.703  1.00  0.00    -0.248 NA
ATOM     38  C   UNL     1      -6.626   2.894  -6.381  1.00  0.00     0.031 C 
ATOM     39  C   UNL     1      -4.563   6.631  -9.003  1.00  0.00     0.029 A 
ATOM     40  N   UNL     1      -5.439   4.932 -10.168  1.00  0.00    -0.354 N 
ATOM     41  C   UNL     1      -7.212   1.539  -8.132  1.00  0.00     0.074 A 
ATOM     42  C   UNL     1      -7.169   1.728  -6.697  1.00  0.00     0.031 C 
ATOM     43  C   UNL     1      -4.389   6.900 -10.308  1.00  0.00     0.029 A 
ATOM     44  C   UNL     1      -4.885   5.776 -11.102  1.00  0.00     0.049 A 
ATOM     45  H   UNL     1      -5.940   4.119 -10.406  1.00  0.00     0.167 HD
ATOM     46  C   UNL     1      -7.763   0.465  -8.750  1.00  0.00     0.034 A 
ATOM     47  C   UNL     1      -4.746   5.634 -12.436  1.00  0.00     0.034 A 
ATOM     48  C   UNL     1      -7.787   0.295 -10.183  1.00  0.00     0.049 A 
ATOM     49  C   UNL     1      -5.294   4.397 -13.104  1.00  0.00     0.074 A 
ATOM     50  C   UNL     1      -8.352  -0.730 -10.921  1.00  0.00     0.029 A 
ATOM     51  N   UNL     1      -7.198   1.162 -11.096  1.00  0.00    -0.354 N 
ATOM     52  N   UNL     1      -5.893   3.361 -12.561  1.00  0.00    -0.248 NA
ATOM     53  C   UNL     1      -5.152   4.308 -14.564  1.00  0.00     0.031 C 
ATOM     54  C   UNL     1      -8.036  -0.526 -12.268  1.00  0.00     0.029 A 
ATOM     55  C   UNL     1      -7.348   0.672 -12.384  1.00  0.00     0.049 A 
ATOM     56  H   UNL     1      -6.740   2.002 -10.862  1.00  0.00     0.167 HD
ATOM     57  C   UNL     1      -6.225   2.514 -13.615  1.00  0.00     0.074 A 
ATOM     58  C   UNL     1      -5.758   3.158 -14.826  1.00  0.00     0.031 C 
ATOM     59  C   UNL     1      -6.870   1.320 -13.585  1.00  0.00     0.034 A 
BRANCH  46  60
ATOM     60  C   UNL     1      -8.315  -0.633  -7.871  1.00  0.00     0.023 A 
ATOM     61  C   UNL     1      -9.384  -0.413  -6.985  1.00  0.00     0.031 A 
ATOM     62  C   UNL     1      -7.721  -1.908  -7.881  1.00  0.00     0.131 A 
ATOM     63  C   UNL     1      -9.766  -1.421  -6.086  1.00  0.00     0.055 A 
ATOM     64  C   UNL     1      -8.165  -2.934  -7.045  1.00  0.00     0.041 A 
ATOM     65  F   UNL     1      -6.681  -2.172  -8.688  1.00  0.00    -0.206 F 
ATOM     66  C   UNL     1      -9.180  -2.688  -6.127  1.00  0.00     0.022 A 
BRANCH  63  67
ATOM     67  S   UNL     1     -10.916  -0.997  -4.748  1.00  0.00     0.124 S 
ATOM     68  O   UNL     1     -10.232   0.127  -4.115  1.00  0.00    -0.237 OA
ATOM     69  O   UNL     1     -12.139  -0.675  -5.475  1.00  0.00    -0.237 OA
ATOM     70  O   UNL     1     -10.970  -2.216  -3.943  1.00  0.00    -0.744 OA
ENDBRANCH  63  67
ENDBRANCH  46  60
BRANCH  47  71
ATOM     71  C   UNL     1      -3.997   6.660 -13.215  1.00  0.00     0.023 A 
ATOM     72  C   UNL     1      -4.633   7.468 -14.168  1.00  0.00     0.031 A 
ATOM     73  C   UNL     1      -2.614   6.836 -13.015  1.00  0.00     0.131 A 
ATOM     74  C   UNL     1      -3.882   8.400 -14.905  1.00  0.00     0.055 A 
ATOM     75  C   UNL     1      -1.882   7.794 -13.716  1.00  0.00     0.041 A 
ATOM     76  F   UNL     1      -1.958   6.088 -12.113  1.00  0.00    -0.206 F 
ATOM     77  C   UNL     1      -2.516   8.578 -14.674  1.00  0.00     0.022 A 
BRANCH  74  78
ATOM     78  S   UNL     1      -4.710   9.348 -16.211  1.00  0.00     0.124 S 
ATOM     79  O   UNL     1      -5.159   8.289 -17.107  1.00  0.00    -0.237 OA
ATOM     80  O   UNL     1      -5.753  10.045 -15.466  1.00  0.00    -0.237 OA
ATOM     81  O   UNL     1      -3.647  10.202 -16.737  1.00  0.00    -0.744 OA
ENDBRANCH  74  78
ENDBRANCH  47  71
BRANCH  59  82
ATOM     82  C   UNL     1      -7.164   0.652 -14.906  1.00  0.00     0.023 A 
ATOM     83  C   UNL     1      -6.151   0.091 -15.703  1.00  0.00     0.031 A 
ATOM     84  C   UNL     1      -8.494   0.544 -15.352  1.00  0.00     0.131 A 
ATOM     85  C   UNL     1      -6.483  -0.527 -16.919  1.00  0.00     0.055 A 
ATOM     86  C   UNL     1      -8.823  -0.117 -16.536  1.00  0.00     0.041 A 
ATOM     87  F   UNL     1      -9.500   1.064 -14.630  1.00  0.00    -0.206 F 
ATOM     88  C   UNL     1      -7.813  -0.651 -17.331  1.00  0.00     0.022 A 
BRANCH  85  89
ATOM     89  S   UNL     1      -5.148  -1.127 -17.991  1.00  0.00     0.124 S 
ATOM     90  O   UNL     1      -4.419   0.103 -18.284  1.00  0.00    -0.237 OA
ATOM     91  O   UNL     1      -4.462  -2.086 -17.132  1.00  0.00    -0.237 OA
ATOM     92  O   UNL     1      -5.856  -1.712 -19.128  1.00  0.00    -0.744 OA
ENDBRANCH  85  89
ENDBRANCH  59  82
ENDBRANCH  33  34
ENDBRANCH  26  28
ENDBRANCH  25  26
ENDBRANCH  24  25
ENDBRANCH  23  24
ENDBRANCH   1  23
TORSDOF 20
