REMARK SMILES Cc1cnn(C2(C(=O)OCCOCCOC(=O)c3ccc(-c4c5nc(c(-c6cc(S(=O)(=O)[O-])ccc6F)c6ccc([nH]6)c(-c6cc(S(=O)(=O)[O-])ccc6F)c6nc(c(-c7cc(S(=O)(=O)[O-])ccc7F)c7ccc4[nH]7)C=C6)C=C5)cc3)CCN(C(=O)c3cc4ccccc4[nH]3)CC2)c1
REMARK SMILES IDX 13 1 12 2 11 3 10 4 9 5 7 6 8 7 6 8 81 9 96 10 82 11 95 12
REMARK SMILES IDX 83 13 84 14 85 15 5 16 1 17 2 18 3 19 97 20 4 21 86 22 87 23
REMARK SMILES IDX 94 24 88 25 93 26 89 28 92 29 90 30 91 31 14 32 15 33 16 34
REMARK SMILES IDX 17 35 18 36 19 37 80 38 20 39 79 40 21 41 22 42 23 43 73 44
REMARK SMILES IDX 24 45 78 46 72 47 74 48 25 49 77 50 71 51 70 52 26 54 58 55
REMARK SMILES IDX 38 56 57 57 39 58 42 59 56 60 75 61 40 62 41 63 55 65 76 66
REMARK SMILES IDX 43 67 27 68 28 69 36 70 29 71 35 72 37 73 34 74 30 75 31 76
REMARK SMILES IDX 32 77 33 78 59 79 60 80 68 81 61 82 67 83 69 84 66 85 62 86
REMARK SMILES IDX 63 87 64 88 65 89 44 90 45 91 53 92 46 93 52 94 54 95 51 96
REMARK SMILES IDX 47 97 48 98 49 99 50 100
REMARK H PARENT 94 27 74 53 42 64
REMARK Flexibility Score: inf
ROOT
ATOM      1  C   UNL     1       0.866   4.170   4.515  1.00  0.00     0.202 C 
ENDROOT
BRANCH   1   2
ATOM      2  O   UNL     1       2.065   4.554   5.181  1.00  0.00    -0.374 OA
BRANCH   2   3
ATOM      3  C   UNL     1       2.746   5.712   4.676  1.00  0.00     0.202 C 
BRANCH   3   4
ATOM      4  C   UNL     1       3.447   5.506   3.317  1.00  0.00     0.261 C 
BRANCH   4   5
ATOM      5  O   UNL     1       2.437   5.596   2.291  1.00  0.00    -0.461 OA
BRANCH   5   6
ATOM      6  C   UNL     1       2.451   4.832   1.156  1.00  0.00     0.334 C 
ATOM      7  O   UNL     1       3.456   4.315   0.690  1.00  0.00    -0.249 OA
BRANCH   6   8
ATOM      8  C   UNL     1       0.977   4.620   0.662  1.00  0.00     0.163 C 
ATOM      9  C   UNL     1       0.657   4.522  -0.853  1.00  0.00     0.064 C 
ATOM     10  C   UNL     1       0.170   5.872   1.130  1.00  0.00     0.064 C 
ATOM     11  C   UNL     1       1.037   5.729  -1.660  1.00  0.00     0.123 C 
ATOM     12  C   UNL     1       0.743   7.108   0.393  1.00  0.00     0.123 C 
ATOM     13  N   UNL     1       0.575   6.952  -1.050  1.00  0.00    -0.337 N 
ATOM     14  C   UNL     1       0.087   7.958  -1.871  1.00  0.00     0.270 C 
ATOM     15  O   UNL     1      -0.616   7.727  -2.851  1.00  0.00    -0.267 OA
BRANCH   8  16
ATOM     16  N   UNL     1       0.631   3.269   1.141  1.00  0.00    -0.255 N 
ATOM     17  C   UNL     1       0.674  -0.303   0.417  1.00  0.00     0.048 C 
ATOM     18  C   UNL     1       0.466   1.068   0.933  1.00  0.00    -0.013 A 
ATOM     19  C   UNL     1      -0.582   1.627   1.698  1.00  0.00     0.138 A 
ATOM     20  C   UNL     1       1.284   2.139   0.690  1.00  0.00     0.113 A 
ATOM     21  N   UNL     1      -0.504   2.965   1.800  1.00  0.00    -0.180 NA
ENDBRANCH   8  16
BRANCH  14  22
ATOM     22  C   UNL     1       0.541   9.283  -1.541  1.00  0.00     0.105 A 
ATOM     23  C   UNL     1       1.821   9.697  -1.215  1.00  0.00     0.042 A 
ATOM     24  N   UNL     1      -0.252  10.402  -1.565  1.00  0.00    -0.351 N 
ATOM     25  C   UNL     1       1.773  11.079  -0.918  1.00  0.00     0.000 A 
ATOM     26  C   UNL     1       0.462  11.498  -1.137  1.00  0.00     0.046 A 
ATOM     27  H   UNL     1      -1.196  10.418  -1.846  1.00  0.00     0.167 HD
ATOM     28  C   UNL     1       2.728  12.008  -0.471  1.00  0.00     0.010 A 
ATOM     29  C   UNL     1       0.052  12.818  -0.926  1.00  0.00     0.026 A 
ATOM     30  C   UNL     1       2.330  13.327  -0.235  1.00  0.00     0.001 A 
ATOM     31  C   UNL     1       1.012  13.723  -0.462  1.00  0.00     0.002 A 
ENDBRANCH  14  22
ENDBRANCH   6   8
ENDBRANCH   5   6
ENDBRANCH   4   5
ENDBRANCH   3   4
ENDBRANCH   2   3
ENDBRANCH   1   2
BRANCH   1  32
ATOM     32  C   UNL     1      -0.416   4.894   4.905  1.00  0.00     0.261 C 
BRANCH  32  33
ATOM     33  O   UNL     1      -0.358   6.298   4.667  1.00  0.00    -0.460 OA
BRANCH  33  34
ATOM     34  C   UNL     1      -0.103   7.037   5.765  1.00  0.00     0.338 C 
ATOM     35  O   UNL     1       0.519   6.676   6.764  1.00  0.00    -0.246 OA
BRANCH  34  36
ATOM     36  C   UNL     1      -0.860   8.290   5.677  1.00  0.00     0.060 A 
ATOM     37  C   UNL     1      -0.869   9.111   6.808  1.00  0.00     0.016 A 
ATOM     38  C   UNL     1      -1.729   8.521   4.598  1.00  0.00     0.016 A 
ATOM     39  C   UNL     1      -1.866  10.057   6.930  1.00  0.00     0.010 A 
ATOM     40  C   UNL     1      -2.737   9.450   4.733  1.00  0.00     0.010 A 
ATOM     41  C   UNL     1      -2.837  10.163   5.925  1.00  0.00    -0.014 A 
BRANCH  41  42
ATOM     42  C   UNL     1      -3.847  11.197   6.048  1.00  0.00     0.031 A 
ATOM     43  C   UNL     1      -3.270  12.536   5.797  1.00  0.00     0.074 A 
ATOM     44  C   UNL     1      -5.156  10.960   6.264  1.00  0.00     0.049 A 
ATOM     45  N   UNL     1      -2.965  13.421   6.686  1.00  0.00    -0.248 NA
ATOM     46  C   UNL     1      -2.727  12.828   4.458  1.00  0.00     0.031 C 
ATOM     47  C   UNL     1      -5.848   9.672   6.297  1.00  0.00     0.029 A 
ATOM     48  N   UNL     1      -6.175  11.851   6.425  1.00  0.00    -0.354 N 
ATOM     49  C   UNL     1      -2.464  14.499   5.971  1.00  0.00     0.074 A 
ATOM     50  C   UNL     1      -2.090  13.977   4.686  1.00  0.00     0.031 C 
ATOM     51  C   UNL     1      -7.186   9.880   6.242  1.00  0.00     0.029 A 
ATOM     52  C   UNL     1      -7.454  11.311   6.288  1.00  0.00     0.049 A 
ATOM     53  H   UNL     1      -6.020  12.803   6.623  1.00  0.00     0.167 HD
ATOM     54  C   UNL     1      -2.704  15.770   6.390  1.00  0.00     0.034 A 
ATOM     55  C   UNL     1      -8.630  11.995   6.168  1.00  0.00     0.034 A 
ATOM     56  C   UNL     1      -3.146  15.775   7.770  1.00  0.00     0.049 A 
ATOM     57  C   UNL     1      -8.393  13.350   6.731  1.00  0.00     0.074 A 
ATOM     58  C   UNL     1      -2.608  15.322   8.960  1.00  0.00     0.029 A 
ATOM     59  N   UNL     1      -4.493  15.946   8.011  1.00  0.00    -0.354 N 
ATOM     60  N   UNL     1      -8.165  13.561   7.998  1.00  0.00    -0.248 NA
ATOM     61  C   UNL     1      -7.893  14.385   5.836  1.00  0.00     0.031 C 
ATOM     62  C   UNL     1      -3.712  14.786   9.685  1.00  0.00     0.029 A 
ATOM     63  C   UNL     1      -4.879  15.029   8.957  1.00  0.00     0.049 A 
ATOM     64  H   UNL     1      -5.077  16.611   7.580  1.00  0.00     0.167 HD
ATOM     65  C   UNL     1      -7.120  14.473   8.027  1.00  0.00     0.074 A 
ATOM     66  C   UNL     1      -7.057  15.014   6.669  1.00  0.00     0.031 C 
ATOM     67  C   UNL     1      -6.220  14.481   9.056  1.00  0.00     0.034 A 
BRANCH  54  68
ATOM     68  C   UNL     1      -2.968  16.937   5.461  1.00  0.00     0.023 A 
ATOM     69  C   UNL     1      -3.263  18.167   6.075  1.00  0.00     0.031 A 
ATOM     70  C   UNL     1      -3.246  16.862   4.076  1.00  0.00     0.131 A 
ATOM     71  C   UNL     1      -3.929  19.183   5.372  1.00  0.00     0.055 A 
ATOM     72  C   UNL     1      -3.844  17.905   3.364  1.00  0.00     0.041 A 
ATOM     73  F   UNL     1      -3.045  15.763   3.344  1.00  0.00    -0.206 F 
ATOM     74  C   UNL     1      -4.226  19.060   4.019  1.00  0.00     0.022 A 
BRANCH  71  75
ATOM     75  S   UNL     1      -4.568  20.586   6.316  1.00  0.00     0.124 S 
ATOM     76  O   UNL     1      -5.437  19.914   7.276  1.00  0.00    -0.237 OA
ATOM     77  O   UNL     1      -3.343  21.170   6.851  1.00  0.00    -0.237 OA
ATOM     78  O   UNL     1      -5.251  21.389   5.304  1.00  0.00    -0.744 OA
ENDBRANCH  71  75
ENDBRANCH  54  68
BRANCH  55  79
ATOM     79  C   UNL     1      -9.813  11.667   5.309  1.00  0.00     0.023 A 
ATOM     80  C   UNL     1     -11.082  12.283   5.453  1.00  0.00     0.031 A 
ATOM     81  C   UNL     1      -9.624  10.901   4.136  1.00  0.00     0.131 A 
ATOM     82  C   UNL     1     -12.079  12.121   4.454  1.00  0.00     0.055 A 
ATOM     83  C   UNL     1     -10.608  10.748   3.156  1.00  0.00     0.041 A 
ATOM     84  F   UNL     1      -8.436  10.345   3.852  1.00  0.00    -0.206 F 
ATOM     85  C   UNL     1     -11.837  11.367   3.305  1.00  0.00     0.022 A 
BRANCH  82  86
ATOM     86  S   UNL     1     -13.696  12.967   4.579  1.00  0.00     0.124 S 
ATOM     87  O   UNL     1     -14.328  12.271   5.694  1.00  0.00    -0.237 OA
ATOM     88  O   UNL     1     -13.311  14.354   4.810  1.00  0.00    -0.237 OA
ATOM     89  O   UNL     1     -14.314  12.718   3.275  1.00  0.00    -0.744 OA
ENDBRANCH  82  86
ENDBRANCH  55  79
BRANCH  67  90
ATOM     90  C   UNL     1      -6.562  13.720  10.324  1.00  0.00     0.023 A 
ATOM     91  C   UNL     1      -6.893  12.347  10.397  1.00  0.00     0.031 A 
ATOM     92  C   UNL     1      -6.444  14.424  11.537  1.00  0.00     0.131 A 
ATOM     93  C   UNL     1      -7.107  11.739  11.652  1.00  0.00     0.055 A 
ATOM     94  C   UNL     1      -6.628  13.814  12.775  1.00  0.00     0.041 A 
ATOM     95  F   UNL     1      -6.113  15.726  11.539  1.00  0.00    -0.206 F 
ATOM     96  C   UNL     1      -6.969  12.469  12.837  1.00  0.00     0.022 A 
BRANCH  93  97
ATOM     97  S   UNL     1      -7.607   9.990  11.773  1.00  0.00     0.124 S 
ATOM     98  O   UNL     1      -8.643   9.858  10.757  1.00  0.00    -0.237 OA
ATOM     99  O   UNL     1      -6.356   9.286  11.506  1.00  0.00    -0.237 OA
ATOM    100  O   UNL     1      -8.087   9.871  13.152  1.00  0.00    -0.744 OA
ENDBRANCH  93  97
ENDBRANCH  67  90
ENDBRANCH  41  42
ENDBRANCH  34  36
ENDBRANCH  33  34
ENDBRANCH  32  33
ENDBRANCH   1  32
TORSDOF 19
