REMARK SMILES NS(=O)(=O)c1ccc(C#Cc2cc(Cl)cc3c2O[C@H](C(F)(F)F)C(C(=O)OCCOCCOC(=O)c2ccc(-c4c5nc(c(-c6cc(S(=O)(=O)[O-])ccc6F)c6ccc([nH]6)c(-c6cc(S(=O)(=O)[O-])ccc6F)c6nc(c(-c7cc(S(=O)(=O)[O-])ccc7F)c7ccc4[nH]7)C=C6)C=C5)cc2)=C3)cc1
REMARK SMILES IDX 29 1 28 2 27 3 25 4 26 5 24 6 11 7 12 8 17 9 13 10 16 11
REMARK SMILES IDX 18 12 14 13 15 14 99 15 19 16 10 17 9 18 8 19 5 20 6 21
REMARK SMILES IDX 101 22 7 23 100 24 2 25 3 26 4 27 1 28 20 31 21 32 22 33
REMARK SMILES IDX 23 34 30 35 31 36 32 37 33 38 34 39 35 40 36 41 37 42 98 43
REMARK SMILES IDX 38 44 97 45 39 46 40 47 41 48 91 49 42 50 96 51 90 52 92 53
REMARK SMILES IDX 43 54 95 55 89 56 88 57 44 59 76 60 56 61 75 62 57 63 60 64
REMARK SMILES IDX 74 65 93 66 58 67 59 68 73 70 94 71 61 72 45 73 46 74 54 75
REMARK SMILES IDX 47 76 53 77 55 78 52 79 48 80 49 81 50 82 51 83 77 84 78 85
REMARK SMILES IDX 86 86 79 87 85 88 87 89 84 90 80 91 81 92 82 93 83 94 62 95
REMARK SMILES IDX 63 96 71 97 64 98 70 99 72 100 69 101 65 102 66 103 67 104
REMARK SMILES IDX 68 105
REMARK H PARENT 1 29 1 30 92 58 60 69
REMARK Flexibility Score: inf
ROOT
ATOM      1  C   UNL     1       0.529  15.435   4.179  1.00  0.00     0.202 C 
ENDROOT
BRANCH   1   2
ATOM      2  C   UNL     1       1.577  14.813   3.251  1.00  0.00     0.261 C 
BRANCH   2   3
ATOM      3  O   UNL     1       1.727  13.401   3.456  1.00  0.00    -0.460 OA
BRANCH   3   4
ATOM      4  C   UNL     1       2.870  13.050   4.090  1.00  0.00     0.338 C 
ATOM      5  O   UNL     1       3.779  13.790   4.429  1.00  0.00    -0.246 OA
BRANCH   4   6
ATOM      6  C   UNL     1       2.817  11.621   4.461  1.00  0.00     0.087 C 
ATOM      7  C   UNL     1       3.156   7.575   5.440  1.00  0.00     0.069 A 
ATOM      8  C   UNL     1       3.884   7.212   6.579  1.00  0.00     0.041 A 
ATOM      9  C   UNL     1       2.947   8.932   5.143  1.00  0.00     0.143 A 
ATOM     10  C   UNL     1       4.370   8.196   7.435  1.00  0.00     0.043 A 
ATOM     11  C   UNL     1       3.464   9.912   5.998  1.00  0.00     0.020 A 
ATOM     12  O   UNL     1       2.222   9.243   4.023  1.00  0.00    -0.474 OA
ATOM     13  Cl  UNL     1       5.265   7.750   8.835  1.00  0.00    -0.084 Cl
ATOM     14  C   UNL     1       4.157   9.543   7.156  1.00  0.00     0.032 A 
ATOM     15  C   UNL     1       3.345  11.315   5.652  1.00  0.00     0.027 C 
ATOM     16  C   UNL     1       2.243  10.607   3.512  1.00  0.00     0.316 C 
BRANCH   7  17
ATOM     17  C   UNL     1       2.669   6.539   4.582  1.00  0.00    -0.058 C 
ATOM     18  C   UNL     1       2.271   5.674   3.845  1.00  0.00    -0.062 C 
BRANCH  18  19
ATOM     19  C   UNL     1       1.805   4.683   2.927  1.00  0.00     0.025 A 
ATOM     20  C   UNL     1       0.974   2.789   1.056  1.00  0.00     0.082 A 
ATOM     21  C   UNL     1       0.517   4.107   0.960  1.00  0.00     0.023 A 
ATOM     22  C   UNL     1       1.822   2.404   2.098  1.00  0.00     0.023 A 
ATOM     23  C   UNL     1       0.935   5.053   1.898  1.00  0.00     0.018 A 
ATOM     24  C   UNL     1       2.238   3.357   3.034  1.00  0.00     0.018 A 
BRANCH  20  25
ATOM     25  S   UNL     1       0.494   1.662  -0.218  1.00  0.00     0.238 S 
ATOM     26  O   UNL     1       1.134   2.064  -1.447  1.00  0.00    -0.207 OA
ATOM     27  O   UNL     1      -0.924   1.418  -0.107  1.00  0.00    -0.207 OA
BRANCH  25  28
ATOM     28  N   UNL     1       1.224   0.200   0.190  1.00  0.00    -0.225 NA
ATOM     29  H   UNL     1       0.988  -0.505  -0.508  1.00  0.00     0.137 HD
ATOM     30  H   UNL     1       0.889  -0.103   1.105  1.00  0.00     0.137 HD
ENDBRANCH  25  28
ENDBRANCH  20  25
ENDBRANCH  18  19
ENDBRANCH   7  17
BRANCH  16  31
ATOM     31  C   UNL     1       2.956  10.618   2.152  1.00  0.00     0.430 C 
ATOM     32  F   UNL     1       2.491   9.639   1.343  1.00  0.00    -0.167 F 
ATOM     33  F   UNL     1       2.773  11.789   1.501  1.00  0.00    -0.167 F 
ATOM     34  F   UNL     1       4.290  10.435   2.289  1.00  0.00    -0.167 F 
ENDBRANCH  16  31
ENDBRANCH   4   6
ENDBRANCH   3   4
ENDBRANCH   2   3
ENDBRANCH   1   2
BRANCH   1  35
ATOM     35  O   UNL     1       0.655  15.234   5.584  1.00  0.00    -0.374 OA
BRANCH  35  36
ATOM     36  C   UNL     1       0.372  13.948   6.128  1.00  0.00     0.202 C 
BRANCH  36  37
ATOM     37  C   UNL     1      -1.065  13.407   6.103  1.00  0.00     0.261 C 
BRANCH  37  38
ATOM     38  O   UNL     1      -1.617  13.280   4.786  1.00  0.00    -0.460 OA
BRANCH  38  39
ATOM     39  C   UNL     1      -2.550  14.219   4.473  1.00  0.00     0.338 C 
ATOM     40  O   UNL     1      -2.942  15.128   5.182  1.00  0.00    -0.246 OA
BRANCH  39  41
ATOM     41  C   UNL     1      -2.879  14.103   3.040  1.00  0.00     0.060 A 
ATOM     42  C   UNL     1      -3.392  12.915   2.519  1.00  0.00     0.016 A 
ATOM     43  C   UNL     1      -2.694  15.222   2.218  1.00  0.00     0.016 A 
ATOM     44  C   UNL     1      -3.732  12.857   1.166  1.00  0.00     0.010 A 
ATOM     45  C   UNL     1      -3.037  15.161   0.867  1.00  0.00     0.010 A 
ATOM     46  C   UNL     1      -3.574  13.981   0.333  1.00  0.00    -0.014 A 
BRANCH  46  47
ATOM     47  C   UNL     1      -4.089  13.952  -1.059  1.00  0.00     0.031 A 
ATOM     48  C   UNL     1      -3.165  13.942  -2.240  1.00  0.00     0.074 A 
ATOM     49  C   UNL     1      -5.424  13.949  -1.247  1.00  0.00     0.049 A 
ATOM     50  N   UNL     1      -3.463  13.845  -3.510  1.00  0.00    -0.248 NA
ATOM     51  C   UNL     1      -1.726  14.064  -1.967  1.00  0.00     0.031 C 
ATOM     52  C   UNL     1      -6.412  14.006  -0.170  1.00  0.00     0.029 A 
ATOM     53  N   UNL     1      -6.179  13.889  -2.392  1.00  0.00    -0.354 N 
ATOM     54  C   UNL     1      -2.252  13.877  -4.190  1.00  0.00     0.074 A 
ATOM     55  C   UNL     1      -1.218  14.059  -3.194  1.00  0.00     0.031 C 
ATOM     56  C   UNL     1      -7.641  13.937  -0.700  1.00  0.00     0.029 A 
ATOM     57  C   UNL     1      -7.535  13.882  -2.157  1.00  0.00     0.049 A 
ATOM     58  H   UNL     1      -5.788  13.854  -3.294  1.00  0.00     0.167 HD
ATOM     59  C   UNL     1      -2.032  13.743  -5.520  1.00  0.00     0.034 A 
ATOM     60  C   UNL     1      -8.579  13.838  -3.012  1.00  0.00     0.034 A 
ATOM     61  C   UNL     1      -3.082  13.566  -6.495  1.00  0.00     0.049 A 
ATOM     62  C   UNL     1      -8.306  13.718  -4.489  1.00  0.00     0.074 A 
ATOM     63  C   UNL     1      -2.951  13.367  -7.859  1.00  0.00     0.029 A 
ATOM     64  N   UNL     1      -4.444  13.577  -6.226  1.00  0.00    -0.354 N 
ATOM     65  N   UNL     1      -7.152  13.633  -5.108  1.00  0.00    -0.248 NA
ATOM     66  C   UNL     1      -9.469  13.671  -5.386  1.00  0.00     0.031 C 
ATOM     67  C   UNL     1      -4.225  13.352  -8.424  1.00  0.00     0.029 A 
ATOM     68  C   UNL     1      -5.160  13.432  -7.405  1.00  0.00     0.049 A 
ATOM     69  H   UNL     1      -4.842  13.673  -5.331  1.00  0.00     0.167 HD
ATOM     70  C   UNL     1      -7.450  13.493  -6.461  1.00  0.00     0.074 A 
ATOM     71  C   UNL     1      -8.894  13.478  -6.567  1.00  0.00     0.031 C 
ATOM     72  C   UNL     1      -6.601  13.393  -7.514  1.00  0.00     0.034 A 
BRANCH  59  73
ATOM     73  C   UNL     1      -0.610  13.750  -6.032  1.00  0.00     0.023 A 
ATOM     74  C   UNL     1      -0.210  14.707  -6.985  1.00  0.00     0.031 A 
ATOM     75  C   UNL     1       0.288  12.715  -5.717  1.00  0.00     0.131 A 
ATOM     76  C   UNL     1       1.027  14.577  -7.629  1.00  0.00     0.055 A 
ATOM     77  C   UNL     1       1.544  12.622  -6.320  1.00  0.00     0.041 A 
ATOM     78  F   UNL     1      -0.045  11.771  -4.822  1.00  0.00    -0.206 F 
ATOM     79  C   UNL     1       1.910  13.546  -7.295  1.00  0.00     0.022 A 
BRANCH  76  80
ATOM     80  S   UNL     1       1.496  15.680  -8.991  1.00  0.00     0.124 S 
ATOM     81  O   UNL     1       2.738  16.264  -8.490  1.00  0.00    -0.237 OA
ATOM     82  O   UNL     1       1.651  14.743 -10.101  1.00  0.00    -0.237 OA
ATOM     83  O   UNL     1       0.373  16.605  -9.096  1.00  0.00    -0.744 OA
ENDBRANCH  76  80
ENDBRANCH  59  73
BRANCH  60  84
ATOM     84  C   UNL     1      -9.966  13.847  -2.460  1.00  0.00     0.023 A 
ATOM     85  C   UNL     1     -10.421  14.924  -1.677  1.00  0.00     0.031 A 
ATOM     86  C   UNL     1     -10.813  12.736  -2.608  1.00  0.00     0.131 A 
ATOM     87  C   UNL     1     -11.646  14.830  -1.005  1.00  0.00     0.055 A 
ATOM     88  C   UNL     1     -12.072  12.684  -2.005  1.00  0.00     0.041 A 
ATOM     89  F   UNL     1     -10.420  11.677  -3.332  1.00  0.00    -0.206 F 
ATOM     90  C   UNL     1     -12.485  13.726  -1.181  1.00  0.00     0.022 A 
BRANCH  87  91
ATOM     91  S   UNL     1     -12.119  16.067   0.235  1.00  0.00     0.124 S 
ATOM     92  O   UNL     1     -13.393  16.552  -0.287  1.00  0.00    -0.237 OA
ATOM     93  O   UNL     1     -12.201  15.255   1.447  1.00  0.00    -0.237 OA
ATOM     94  O   UNL     1     -11.019  17.025   0.204  1.00  0.00    -0.744 OA
ENDBRANCH  87  91
ENDBRANCH  60  84
BRANCH  72  95
ATOM     95  C   UNL     1      -7.173  13.241  -8.908  1.00  0.00     0.023 A 
ATOM     96  C   UNL     1      -6.834  12.113  -9.683  1.00  0.00     0.031 A 
ATOM     97  C   UNL     1      -7.890  14.277  -9.529  1.00  0.00     0.131 A 
ATOM     98  C   UNL     1      -7.154  12.079 -11.046  1.00  0.00     0.055 A 
ATOM     99  C   UNL     1      -8.265  14.209 -10.872  1.00  0.00     0.041 A 
ATOM    100  F   UNL     1      -8.227  15.381  -8.842  1.00  0.00    -0.206 F 
ATOM    101  C   UNL     1      -7.878  13.115 -11.642  1.00  0.00     0.022 A 
BRANCH  98 102
ATOM    102  S   UNL     1      -6.541  10.750 -12.119  1.00  0.00     0.124 S 
ATOM    103  O   UNL     1      -7.783  10.190 -12.647  1.00  0.00    -0.237 OA
ATOM    104  O   UNL     1      -5.729  11.486 -13.084  1.00  0.00    -0.237 OA
ATOM    105  O   UNL     1      -5.803   9.877 -11.212  1.00  0.00    -0.744 OA
ENDBRANCH  98 102
ENDBRANCH  72  95
ENDBRANCH  46  47
ENDBRANCH  39  41
ENDBRANCH  38  39
ENDBRANCH  37  38
ENDBRANCH  36  37
ENDBRANCH  35  36
ENDBRANCH   1  35
TORSDOF 22
