REMARK SMILES CCCC[C@H](C(=O)OCCOCCOC(=O)c1ccc(-c2c3nc(c(-c4cc(S(=O)(=O)[O-])ccc4F)c4ccc([nH]4)c(-c4cc(S(=O)(=O)[O-])ccc4F)c4nc(c(-c5cc(S(=O)(=O)[O-])ccc5F)c5ccc2[nH]5)C=C4)C=C3)cc1)c1ccnn1C
REMARK SMILES IDX 11 1 10 2 9 3 8 4 6 5 7 6 5 7 4 8 3 9 2 10 1 11 80 12 81 13
REMARK SMILES IDX 84 14 82 15 83 16 85 17 12 18 13 19 14 20 15 21 16 22 17 23
REMARK SMILES IDX 18 24 79 25 19 26 78 27 20 28 21 29 22 30 72 31 23 32 77 33
REMARK SMILES IDX 71 34 73 35 24 36 76 37 70 38 69 39 25 41 57 42 37 43 56 44
REMARK SMILES IDX 38 45 41 46 55 47 74 48 39 49 40 50 54 52 75 53 42 54 26 55
REMARK SMILES IDX 27 56 35 57 28 58 34 59 36 60 33 61 29 62 30 63 31 64 32 65
REMARK SMILES IDX 58 66 59 67 67 68 60 69 66 70 68 71 65 72 61 73 62 74 63 75
REMARK SMILES IDX 64 76 43 77 44 78 52 79 45 80 51 81 53 82 50 83 46 84 47 85
REMARK SMILES IDX 48 86 49 87
REMARK H PARENT 73 40 41 51
REMARK Flexibility Score: inf
ROOT
ATOM      1  O   UNL     1       2.798   1.084  -3.390  1.00  0.00    -0.374 OA
ENDROOT
BRANCH   1   2
ATOM      2  C   UNL     1       3.326   1.384  -2.104  1.00  0.00     0.202 C 
BRANCH   2   3
ATOM      3  C   UNL     1       2.635   2.473  -1.280  1.00  0.00     0.261 C 
BRANCH   3   4
ATOM      4  O   UNL     1       1.228   2.264  -1.105  1.00  0.00    -0.463 OA
BRANCH   4   5
ATOM      5  C   UNL     1       0.425   3.082  -1.850  1.00  0.00     0.315 C 
ATOM      6  O   UNL     1       0.828   3.899  -2.669  1.00  0.00    -0.251 OA
BRANCH   5   7
ATOM      7  C   UNL     1      -1.043   2.832  -1.520  1.00  0.00     0.148 C 
BRANCH   7   8
ATOM      8  C   UNL     1      -1.709   3.963  -0.719  1.00  0.00     0.022 C 
BRANCH   8   9
ATOM      9  C   UNL     1      -1.050   4.342   0.619  1.00  0.00     0.001 C 
BRANCH   9  10
ATOM     10  C   UNL     1       0.334   5.002   0.583  1.00  0.00    -0.003 C 
ATOM     11  C   UNL     1       0.482   6.171  -0.379  1.00  0.00     0.004 C 
ENDBRANCH   9  10
ENDBRANCH   8   9
ENDBRANCH   7   8
BRANCH   7  12
ATOM     12  C   UNL     1      -1.775   2.489  -2.808  1.00  0.00     0.052 A 
ATOM     13  C   UNL     1      -2.212   1.245  -3.237  1.00  0.00     0.046 A 
ATOM     14  N   UNL     1      -2.070   3.347  -3.849  1.00  0.00    -0.272 N 
ATOM     15  C   UNL     1      -2.729   1.450  -4.523  1.00  0.00     0.135 A 
ATOM     16  N   UNL     1      -2.672   2.728  -4.888  1.00  0.00    -0.182 NA
ATOM     17  C   UNL     1      -1.871   4.772  -3.972  1.00  0.00     0.174 C 
ENDBRANCH   7  12
ENDBRANCH   5   7
ENDBRANCH   4   5
ENDBRANCH   3   4
ENDBRANCH   2   3
ENDBRANCH   1   2
BRANCH   1  18
ATOM     18  C   UNL     1       1.554   0.392  -3.468  1.00  0.00     0.202 C 
BRANCH  18  19
ATOM     19  C   UNL     1       1.488  -1.054  -2.963  1.00  0.00     0.261 C 
BRANCH  19  20
ATOM     20  O   UNL     1       1.731  -1.182  -1.550  1.00  0.00    -0.460 OA
BRANCH  20  21
ATOM     21  C   UNL     1       2.854  -1.874  -1.238  1.00  0.00     0.338 C 
ATOM     22  O   UNL     1       3.640  -2.389  -2.025  1.00  0.00    -0.246 OA
BRANCH  21  23
ATOM     23  C   UNL     1       3.131  -1.808   0.206  1.00  0.00     0.060 A 
ATOM     24  C   UNL     1       4.365  -1.282   0.610  1.00  0.00     0.016 A 
ATOM     25  C   UNL     1       2.265  -2.385   1.137  1.00  0.00     0.016 A 
ATOM     26  C   UNL     1       4.764  -1.382   1.941  1.00  0.00     0.010 A 
ATOM     27  C   UNL     1       2.673  -2.494   2.472  1.00  0.00     0.010 A 
ATOM     28  C   UNL     1       3.941  -2.031   2.870  1.00  0.00    -0.014 A 
BRANCH  28  29
ATOM     29  C   UNL     1       4.485  -2.377   4.207  1.00  0.00     0.031 A 
ATOM     30  C   UNL     1       5.022  -3.764   4.435  1.00  0.00     0.074 A 
ATOM     31  C   UNL     1       4.528  -1.460   5.190  1.00  0.00     0.049 A 
ATOM     32  N   UNL     1       5.512  -4.298   5.524  1.00  0.00    -0.248 NA
ATOM     33  C   UNL     1       5.000  -4.671   3.276  1.00  0.00     0.031 C 
ATOM     34  C   UNL     1       4.078  -0.074   5.069  1.00  0.00     0.029 A 
ATOM     35  N   UNL     1       4.968  -1.560   6.486  1.00  0.00    -0.354 N 
ATOM     36  C   UNL     1       5.852  -5.605   5.186  1.00  0.00     0.074 A 
ATOM     37  C   UNL     1       5.481  -5.789   3.799  1.00  0.00     0.031 C 
ATOM     38  C   UNL     1       4.249   0.544   6.250  1.00  0.00     0.029 A 
ATOM     39  C   UNL     1       4.788  -0.410   7.218  1.00  0.00     0.049 A 
ATOM     40  H   UNL     1       5.373  -2.377   6.856  1.00  0.00     0.167 HD
ATOM     41  C   UNL     1       6.426  -6.559   5.960  1.00  0.00     0.034 A 
ATOM     42  C   UNL     1       5.009  -0.166   8.526  1.00  0.00     0.034 A 
ATOM     43  C   UNL     1       6.780  -6.360   7.344  1.00  0.00     0.049 A 
ATOM     44  C   UNL     1       5.580  -1.266   9.388  1.00  0.00     0.074 A 
ATOM     45  C   UNL     1       7.383  -7.249   8.217  1.00  0.00     0.029 A 
ATOM     46  N   UNL     1       6.552  -5.194   8.064  1.00  0.00    -0.354 N 
ATOM     47  N   UNL     1       5.910  -2.493   9.053  1.00  0.00    -0.248 NA
ATOM     48  C   UNL     1       5.818  -0.944  10.801  1.00  0.00     0.031 C 
ATOM     49  C   UNL     1       7.455  -6.646   9.478  1.00  0.00     0.029 A 
ATOM     50  C   UNL     1       6.969  -5.353   9.376  1.00  0.00     0.049 A 
ATOM     51  H   UNL     1       6.152  -4.373   7.695  1.00  0.00     0.167 HD
ATOM     52  C   UNL     1       6.420  -3.078  10.210  1.00  0.00     0.074 A 
ATOM     53  C   UNL     1       6.368  -2.066  11.244  1.00  0.00     0.031 C 
ATOM     54  C   UNL     1       6.896  -4.336  10.400  1.00  0.00     0.034 A 
BRANCH  41  55
ATOM     55  C   UNL     1       6.648  -7.916   5.338  1.00  0.00     0.023 A 
ATOM     56  C   UNL     1       7.540  -8.107   4.268  1.00  0.00     0.031 A 
ATOM     57  C   UNL     1       5.932  -9.033   5.805  1.00  0.00     0.131 A 
ATOM     58  C   UNL     1       7.644  -9.368   3.660  1.00  0.00     0.055 A 
ATOM     59  C   UNL     1       6.095 -10.301   5.243  1.00  0.00     0.041 A 
ATOM     60  F   UNL     1       5.048  -8.907   6.808  1.00  0.00    -0.206 F 
ATOM     61  C   UNL     1       6.945 -10.471   4.155  1.00  0.00     0.022 A 
BRANCH  58  62
ATOM     62  S   UNL     1       8.604  -9.517   2.127  1.00  0.00     0.124 S 
ATOM     63  O   UNL     1       7.914  -8.571   1.254  1.00  0.00    -0.237 OA
ATOM     64  O   UNL     1       9.944  -9.132   2.556  1.00  0.00    -0.237 OA
ATOM     65  O   UNL     1       8.446 -10.923   1.760  1.00  0.00    -0.744 OA
ENDBRANCH  58  62
ENDBRANCH  41  55
BRANCH  42  66
ATOM     66  C   UNL     1       4.647   1.153   9.118  1.00  0.00     0.023 A 
ATOM     67  C   UNL     1       5.623   2.005   9.657  1.00  0.00     0.031 A 
ATOM     68  C   UNL     1       3.301   1.557   9.199  1.00  0.00     0.131 A 
ATOM     69  C   UNL     1       5.237   3.196  10.293  1.00  0.00     0.055 A 
ATOM     70  C   UNL     1       2.927   2.766   9.787  1.00  0.00     0.041 A 
ATOM     71  F   UNL     1       2.328   0.780   8.698  1.00  0.00    -0.206 F 
ATOM     72  C   UNL     1       3.898   3.588  10.351  1.00  0.00     0.022 A 
BRANCH  69  73
ATOM     73  S   UNL     1       6.509   4.192  11.118  1.00  0.00     0.124 S 
ATOM     74  O   UNL     1       7.063   3.237  12.071  1.00  0.00    -0.237 OA
ATOM     75  O   UNL     1       7.373   4.563  10.003  1.00  0.00    -0.237 OA
ATOM     76  O   UNL     1       5.749   5.293  11.707  1.00  0.00    -0.744 OA
ENDBRANCH  69  73
ENDBRANCH  42  66
BRANCH  54  77
ATOM     77  C   UNL     1       7.436  -4.665  11.770  1.00  0.00     0.023 A 
ATOM     78  C   UNL     1       6.599  -4.742  12.897  1.00  0.00     0.031 A 
ATOM     79  C   UNL     1       8.812  -4.893  11.950  1.00  0.00     0.131 A 
ATOM     80  C   UNL     1       7.154  -4.986  14.163  1.00  0.00     0.055 A 
ATOM     81  C   UNL     1       9.350  -5.194  13.203  1.00  0.00     0.041 A 
ATOM     82  F   UNL     1       9.657  -4.831  10.909  1.00  0.00    -0.206 F 
ATOM     83  C   UNL     1       8.521  -5.228  14.320  1.00  0.00     0.022 A 
BRANCH  80  84
ATOM     84  S   UNL     1       6.075  -4.895  15.619  1.00  0.00     0.124 S 
ATOM     85  O   UNL     1       5.560  -3.532  15.530  1.00  0.00    -0.237 OA
ATOM     86  O   UNL     1       5.111  -5.959  15.361  1.00  0.00    -0.237 OA
ATOM     87  O   UNL     1       6.985  -5.142  16.736  1.00  0.00    -0.744 OA
ENDBRANCH  80  84
ENDBRANCH  54  77
ENDBRANCH  28  29
ENDBRANCH  21  23
ENDBRANCH  20  21
ENDBRANCH  19  20
ENDBRANCH  18  19
ENDBRANCH   1  18
TORSDOF 21
