REMARK SMILES Cc1n[nH]c(CCC(=O)OCCOCCOC(=O)c2ccc(-c3c4nc(c(-c5cc(S(=O)(=O)[O-])ccc5F)c5ccc([nH]5)c(-c5cc(S(=O)(=O)[O-])ccc5F)c5nc(c(-c6cc(S(=O)(=O)[O-])ccc6F)c6ccc3[nH]6)C=C5)C=C4)cc2)c1C
REMARK SMILES IDX 14 1 13 2 12 3 11 4 10 5 8 6 9 7 7 8 6 9 5 10 1 11 2 12 3 13
REMARK SMILES IDX 82 14 4 15 83 16 15 18 16 19 17 20 18 21 19 22 20 23 81 24
REMARK SMILES IDX 21 25 80 26 22 27 23 28 24 29 74 30 25 31 79 32 73 33 75 34
REMARK SMILES IDX 26 35 78 36 72 37 71 38 27 40 59 41 39 42 58 43 40 44 43 45
REMARK SMILES IDX 57 46 76 47 41 48 42 49 56 51 77 52 44 53 28 54 29 55 37 56
REMARK SMILES IDX 30 57 36 58 38 59 35 60 31 61 32 62 33 63 34 64 60 65 61 66
REMARK SMILES IDX 69 67 62 68 68 69 70 70 67 71 63 72 64 73 65 74 66 75 45 76
REMARK SMILES IDX 46 77 54 78 47 79 53 80 55 81 52 82 48 83 49 84 50 85 51 86
REMARK H PARENT 4 17 75 39 43 50
REMARK Flexibility Score: inf
ROOT
ATOM      1  C   UNL     1      -4.697  -1.249   1.879  1.00  0.00     0.202 C 
ENDROOT
BRANCH   1   2
ATOM      2  O   UNL     1      -4.624  -0.080   2.693  1.00  0.00    -0.374 OA
BRANCH   2   3
ATOM      3  C   UNL     1      -3.357   0.574   2.731  1.00  0.00     0.202 C 
BRANCH   3   4
ATOM      4  C   UNL     1      -2.406  -0.007   3.789  1.00  0.00     0.261 C 
BRANCH   4   5
ATOM      5  O   UNL     1      -1.737  -1.214   3.355  1.00  0.00    -0.463 OA
BRANCH   5   6
ATOM      6  C   UNL     1      -2.249  -2.405   3.743  1.00  0.00     0.306 C 
ATOM      7  O   UNL     1      -3.239  -2.545   4.451  1.00  0.00    -0.252 OA
BRANCH   6   8
ATOM      8  C   UNL     1      -1.427  -3.577   3.243  1.00  0.00     0.129 C 
BRANCH   8   9
ATOM      9  C   UNL     1      -1.319  -3.727   1.723  1.00  0.00     0.067 C 
BRANCH   9  10
ATOM     10  C   UNL     1      -0.106  -3.079   1.131  1.00  0.00     0.039 A 
ATOM     11  C   UNL     1       2.267  -0.629  -0.224  1.00  0.00     0.069 C 
ATOM     12  C   UNL     1       1.500  -1.798   0.275  1.00  0.00     0.062 A 
ATOM     13  N   UNL     1       2.024  -3.025   0.329  1.00  0.00    -0.181 NA
ATOM     14  C   UNL     1       0.161  -1.783   0.731  1.00  0.00    -0.007 A 
ATOM     15  N   UNL     1       1.018  -3.787   0.788  1.00  0.00    -0.282 N 
ATOM     16  C   UNL     1      -0.712  -0.600   0.738  1.00  0.00     0.048 C 
ATOM     17  H   UNL     1       1.081  -4.766   0.871  1.00  0.00     0.190 HD
ENDBRANCH   9  10
ENDBRANCH   8   9
ENDBRANCH   6   8
ENDBRANCH   5   6
ENDBRANCH   4   5
ENDBRANCH   3   4
ENDBRANCH   2   3
ENDBRANCH   1   2
BRANCH   1  18
ATOM     18  C   UNL     1      -5.189  -0.970   0.466  1.00  0.00     0.261 C 
BRANCH  18  19
ATOM     19  O   UNL     1      -4.074  -0.762  -0.398  1.00  0.00    -0.460 OA
BRANCH  19  20
ATOM     20  C   UNL     1      -3.783   0.505  -0.779  1.00  0.00     0.338 C 
ATOM     21  O   UNL     1      -4.237   1.529  -0.337  1.00  0.00    -0.246 OA
BRANCH  20  22
ATOM     22  C   UNL     1      -2.812   0.389  -1.892  1.00  0.00     0.060 A 
ATOM     23  C   UNL     1      -2.528   1.526  -2.650  1.00  0.00     0.016 A 
ATOM     24  C   UNL     1      -2.252  -0.860  -2.219  1.00  0.00     0.016 A 
ATOM     25  C   UNL     1      -1.804   1.376  -3.821  1.00  0.00     0.010 A 
ATOM     26  C   UNL     1      -1.498  -1.000  -3.358  1.00  0.00     0.010 A 
ATOM     27  C   UNL     1      -1.363   0.099  -4.194  1.00  0.00    -0.014 A 
BRANCH  27  28
ATOM     28  C   UNL     1      -0.787  -0.092  -5.508  1.00  0.00     0.031 A 
ATOM     29  C   UNL     1       0.527   0.544  -5.718  1.00  0.00     0.074 A 
ATOM     30  C   UNL     1      -1.380  -0.870  -6.434  1.00  0.00     0.049 A 
ATOM     31  N   UNL     1       0.775   1.596  -6.420  1.00  0.00    -0.248 NA
ATOM     32  C   UNL     1       1.675   0.056  -4.943  1.00  0.00     0.031 C 
ATOM     33  C   UNL     1      -2.532  -1.763  -6.272  1.00  0.00     0.029 A 
ATOM     34  N   UNL     1      -0.999  -1.095  -7.718  1.00  0.00    -0.354 N 
ATOM     35  C   UNL     1       2.154   1.761  -6.385  1.00  0.00     0.074 A 
ATOM     36  C   UNL     1       2.619   0.925  -5.310  1.00  0.00     0.031 C 
ATOM     37  C   UNL     1      -2.606  -2.592  -7.337  1.00  0.00     0.029 A 
ATOM     38  C   UNL     1      -1.608  -2.191  -8.314  1.00  0.00     0.049 A 
ATOM     39  H   UNL     1      -0.345  -0.528  -8.187  1.00  0.00     0.167 HD
ATOM     40  C   UNL     1       2.805   2.388  -7.404  1.00  0.00     0.034 A 
ATOM     41  C   UNL     1      -1.271  -2.761  -9.501  1.00  0.00     0.034 A 
ATOM     42  C   UNL     1       1.877   3.133  -8.231  1.00  0.00     0.049 A 
ATOM     43  C   UNL     1      -0.586  -1.706 -10.295  1.00  0.00     0.074 A 
ATOM     44  C   UNL     1       0.960   4.137  -7.981  1.00  0.00     0.029 A 
ATOM     45  N   UNL     1       1.512   2.602  -9.450  1.00  0.00    -0.354 N 
ATOM     46  N   UNL     1      -1.189  -0.620 -10.703  1.00  0.00    -0.248 NA
ATOM     47  C   UNL     1       0.864  -1.600 -10.196  1.00  0.00     0.031 C 
ATOM     48  C   UNL     1      -0.179   3.795  -8.770  1.00  0.00     0.029 A 
ATOM     49  C   UNL     1       0.140   2.663  -9.524  1.00  0.00     0.049 A 
ATOM     50  H   UNL     1       2.119   2.246 -10.139  1.00  0.00     0.167 HD
ATOM     51  C   UNL     1      -0.280   0.405 -10.480  1.00  0.00     0.074 A 
ATOM     52  C   UNL     1       1.000  -0.271 -10.264  1.00  0.00     0.031 C 
ATOM     53  C   UNL     1      -0.688   1.681 -10.204  1.00  0.00     0.034 A 
BRANCH  40  54
ATOM     54  C   UNL     1       4.201   2.047  -7.875  1.00  0.00     0.023 A 
ATOM     55  C   UNL     1       4.712   2.798  -8.952  1.00  0.00     0.031 A 
ATOM     56  C   UNL     1       4.923   0.878  -7.546  1.00  0.00     0.131 A 
ATOM     57  C   UNL     1       5.795   2.326  -9.712  1.00  0.00     0.055 A 
ATOM     58  C   UNL     1       6.046   0.452  -8.260  1.00  0.00     0.041 A 
ATOM     59  F   UNL     1       4.538   0.033  -6.584  1.00  0.00    -0.206 F 
ATOM     60  C   UNL     1       6.467   1.156  -9.374  1.00  0.00     0.022 A 
BRANCH  57  61
ATOM     61  S   UNL     1       6.178   3.171 -11.267  1.00  0.00     0.124 S 
ATOM     62  O   UNL     1       4.882   3.151 -11.936  1.00  0.00    -0.237 OA
ATOM     63  O   UNL     1       6.640   4.472 -10.794  1.00  0.00    -0.237 OA
ATOM     64  O   UNL     1       7.205   2.324 -11.868  1.00  0.00    -0.744 OA
ENDBRANCH  57  61
ENDBRANCH  40  54
BRANCH  41  65
ATOM     65  C   UNL     1      -1.196  -4.225  -9.775  1.00  0.00     0.023 A 
ATOM     66  C   UNL     1      -1.153  -4.764 -11.077  1.00  0.00     0.031 A 
ATOM     67  C   UNL     1      -0.943  -5.126  -8.712  1.00  0.00     0.131 A 
ATOM     68  C   UNL     1      -0.876  -6.141 -11.270  1.00  0.00     0.055 A 
ATOM     69  C   UNL     1      -0.679  -6.482  -8.907  1.00  0.00     0.041 A 
ATOM     70  F   UNL     1      -0.862  -4.702  -7.441  1.00  0.00    -0.206 F 
ATOM     71  C   UNL     1      -0.636  -6.996 -10.191  1.00  0.00     0.022 A 
BRANCH  68  72
ATOM     72  S   UNL     1      -0.734  -6.832 -12.951  1.00  0.00     0.124 S 
ATOM     73  O   UNL     1      -2.108  -6.761 -13.432  1.00  0.00    -0.237 OA
ATOM     74  O   UNL     1       0.223  -5.928 -13.581  1.00  0.00    -0.237 OA
ATOM     75  O   UNL     1      -0.232  -8.188 -12.722  1.00  0.00    -0.744 OA
ENDBRANCH  68  72
ENDBRANCH  41  65
BRANCH  53  76
ATOM     76  C   UNL     1      -2.149   2.046 -10.405  1.00  0.00     0.023 A 
ATOM     77  C   UNL     1      -3.240   1.395  -9.784  1.00  0.00     0.031 A 
ATOM     78  C   UNL     1      -2.428   3.205 -11.154  1.00  0.00     0.131 A 
ATOM     79  C   UNL     1      -4.547   1.905  -9.933  1.00  0.00     0.055 A 
ATOM     80  C   UNL     1      -3.718   3.719 -11.281  1.00  0.00     0.041 A 
ATOM     81  F   UNL     1      -1.435   3.888 -11.747  1.00  0.00    -0.206 F 
ATOM     82  C   UNL     1      -4.785   3.067 -10.674  1.00  0.00     0.022 A 
BRANCH  79  83
ATOM     83  S   UNL     1      -5.972   1.060  -9.172  1.00  0.00     0.124 S 
ATOM     84  O   UNL     1      -5.776  -0.338  -9.538  1.00  0.00    -0.237 OA
ATOM     85  O   UNL     1      -5.811   1.380  -7.756  1.00  0.00    -0.237 OA
ATOM     86  O   UNL     1      -7.126   1.698  -9.809  1.00  0.00    -0.744 OA
ENDBRANCH  79  83
ENDBRANCH  53  76
ENDBRANCH  27  28
ENDBRANCH  20  22
ENDBRANCH  19  20
ENDBRANCH  18  19
ENDBRANCH   1  18
TORSDOF 19
