REMARK SMILES C[C@H]1OCC[C@@H]1C(=O)Nc1sc2c(c1C(=O)OCCOCCOC(=O)c1ccc(-c3c4nc(c(-c5cc(S(=O)(=O)[O-])ccc5F)c5ccc([nH]5)c(-c5cc(S(=O)(=O)[O-])ccc5F)c5nc(c(-c6cc(S(=O)(=O)[O-])ccc6F)c6ccc3[nH]6)C=C5)C=C4)cc1)CCC2
REMARK SMILES IDX 21 1 20 2 19 3 18 4 17 5 15 6 16 7 14 8 10 9 11 10 12 11
REMARK SMILES IDX 13 12 91 13 89 14 90 15 9 16 7 17 8 18 6 20 1 21 2 22 3 23
REMARK SMILES IDX 4 24 5 25 22 26 23 27 24 28 25 29 26 30 27 31 88 32 28 33
REMARK SMILES IDX 87 34 29 35 30 36 31 37 81 38 32 39 86 40 80 41 82 42 33 43
REMARK SMILES IDX 85 44 79 45 78 46 34 48 66 49 46 50 65 51 47 52 50 53 64 54
REMARK SMILES IDX 83 55 48 56 49 57 63 59 84 60 51 61 35 62 36 63 44 64 37 65
REMARK SMILES IDX 43 66 45 67 42 68 38 69 39 70 40 71 41 72 67 73 68 74 76 75
REMARK SMILES IDX 69 76 75 77 77 78 74 79 70 80 71 81 72 82 73 83 52 84 53 85
REMARK SMILES IDX 61 86 54 87 60 88 62 89 59 90 55 91 56 92 57 93 58 94
REMARK H PARENT 9 19 82 47 50 58
REMARK Flexibility Score: inf
ROOT
ATOM      1  C   UNL     1      -2.093  -1.014  -2.337  1.00  0.00     0.202 C 
ENDROOT
BRANCH   1   2
ATOM      2  O   UNL     1      -3.462  -0.783  -2.636  1.00  0.00    -0.374 OA
BRANCH   2   3
ATOM      3  C   UNL     1      -4.114   0.134  -1.731  1.00  0.00     0.202 C 
BRANCH   3   4
ATOM      4  C   UNL     1      -4.429  -0.473  -0.345  1.00  0.00     0.261 C 
BRANCH   4   5
ATOM      5  O   UNL     1      -3.513  -0.011   0.691  1.00  0.00    -0.460 OA
BRANCH   5   6
ATOM      6  C   UNL     1      -3.426  -0.814   1.808  1.00  0.00     0.341 C 
ATOM      7  O   UNL     1      -4.064  -1.852   1.943  1.00  0.00    -0.246 OA
BRANCH   6   8
ATOM      8  C   UNL     1      -2.471  -0.346   2.825  1.00  0.00     0.098 A 
ATOM      9  C   UNL     1      -1.405  -1.097   3.324  1.00  0.00     0.110 A 
ATOM     10  S   UNL     1      -0.650  -0.418   4.708  1.00  0.00    -0.122 S 
ATOM     11  C   UNL     1      -1.484   0.997   4.460  1.00  0.00     0.011 A 
ATOM     12  C   UNL     1      -2.409   0.941   3.449  1.00  0.00    -0.017 A 
ATOM     13  C   UNL     1      -1.362   2.310   5.127  1.00  0.00     0.047 C 
ATOM     14  C   UNL     1      -3.072   2.263   3.295  1.00  0.00     0.038 C 
ATOM     15  C   UNL     1      -2.128   3.208   4.114  1.00  0.00     0.010 C 
BRANCH   9  16
ATOM     16  N   UNL     1      -0.872  -2.321   2.990  1.00  0.00    -0.317 N 
ATOM     17  C   UNL     1       0.297  -2.458   2.283  1.00  0.00     0.230 C 
ATOM     18  O   UNL     1       1.020  -3.418   2.586  1.00  0.00    -0.274 OA
ATOM     19  H   UNL     1      -1.350  -3.134   3.270  1.00  0.00     0.170 HD
BRANCH  17  20
ATOM     20  C   UNL     1       0.721  -1.569   1.121  1.00  0.00     0.110 C 
ATOM     21  C   UNL     1       2.667  -0.217   0.291  1.00  0.00     0.039 C 
ATOM     22  C   UNL     1       1.613  -0.372   1.396  1.00  0.00     0.127 C 
ATOM     23  O   UNL     1       0.781   0.795   1.343  1.00  0.00    -0.378 OA
ATOM     24  C   UNL     1      -0.342   0.511   0.517  1.00  0.00     0.161 C 
ATOM     25  C   UNL     1      -0.381  -0.991   0.302  1.00  0.00     0.044 C 
ENDBRANCH  17  20
ENDBRANCH   9  16
ENDBRANCH   6   8
ENDBRANCH   5   6
ENDBRANCH   4   5
ENDBRANCH   3   4
ENDBRANCH   2   3
ENDBRANCH   1   2
BRANCH   1  26
ATOM     26  C   UNL     1      -1.067  -0.262  -3.181  1.00  0.00     0.261 C 
BRANCH  26  27
ATOM     27  O   UNL     1      -1.143   1.120  -2.868  1.00  0.00    -0.460 OA
BRANCH  27  28
ATOM     28  C   UNL     1      -2.063   1.809  -3.569  1.00  0.00     0.338 C 
ATOM     29  O   UNL     1      -2.849   1.389  -4.407  1.00  0.00    -0.246 OA
BRANCH  28  30
ATOM     30  C   UNL     1      -1.809   3.212  -3.277  1.00  0.00     0.060 A 
ATOM     31  C   UNL     1      -1.913   4.053  -4.375  1.00  0.00     0.016 A 
ATOM     32  C   UNL     1      -1.220   3.614  -2.062  1.00  0.00     0.016 A 
ATOM     33  C   UNL     1      -1.217   5.230  -4.329  1.00  0.00     0.010 A 
ATOM     34  C   UNL     1      -0.540   4.812  -2.012  1.00  0.00     0.010 A 
ATOM     35  C   UNL     1      -0.486   5.570  -3.174  1.00  0.00    -0.014 A 
BRANCH  35  36
ATOM     36  C   UNL     1       0.128   6.879  -3.197  1.00  0.00     0.031 A 
ATOM     37  C   UNL     1      -0.905   7.929  -3.327  1.00  0.00     0.074 A 
ATOM     38  C   UNL     1       1.446   7.129  -3.164  1.00  0.00     0.049 A 
ATOM     39  N   UNL     1      -1.208   8.569  -4.405  1.00  0.00    -0.248 NA
ATOM     40  C   UNL     1      -1.891   8.062  -2.244  1.00  0.00     0.031 C 
ATOM     41  C   UNL     1       2.556   6.239  -2.837  1.00  0.00     0.029 A 
ATOM     42  N   UNL     1       2.061   8.319  -3.388  1.00  0.00    -0.354 N 
ATOM     43  C   UNL     1      -2.298   9.357  -4.076  1.00  0.00     0.074 A 
ATOM     44  C   UNL     1      -2.795   8.847  -2.829  1.00  0.00     0.031 C 
ATOM     45  C   UNL     1       3.680   6.980  -2.668  1.00  0.00     0.029 A 
ATOM     46  C   UNL     1       3.395   8.368  -3.007  1.00  0.00     0.049 A 
ATOM     47  H   UNL     1       1.596   9.088  -3.789  1.00  0.00     0.167 HD
ATOM     48  C   UNL     1      -2.529  10.517  -4.744  1.00  0.00     0.034 A 
ATOM     49  C   UNL     1       4.159   9.492  -2.919  1.00  0.00     0.034 A 
ATOM     50  C   UNL     1      -1.878  10.499  -6.040  1.00  0.00     0.049 A 
ATOM     51  C   UNL     1       3.537  10.503  -3.817  1.00  0.00     0.074 A 
ATOM     52  C   UNL     1      -1.986   9.684  -7.154  1.00  0.00     0.029 A 
ATOM     53  N   UNL     1      -0.671  11.151  -6.181  1.00  0.00    -0.354 N 
ATOM     54  N   UNL     1       3.506  10.375  -5.116  1.00  0.00    -0.248 NA
ATOM     55  C   UNL     1       2.511  11.377  -3.263  1.00  0.00     0.031 C 
ATOM     56  C   UNL     1      -0.648   9.514  -7.621  1.00  0.00     0.029 A 
ATOM     57  C   UNL     1       0.192  10.297  -6.828  1.00  0.00     0.049 A 
ATOM     58  H   UNL     1      -0.464  12.063  -5.873  1.00  0.00     0.167 HD
ATOM     59  C   UNL     1       2.234  10.778  -5.492  1.00  0.00     0.074 A 
ATOM     60  C   UNL     1       1.693  11.463  -4.317  1.00  0.00     0.031 C 
ATOM     61  C   UNL     1       1.629  10.277  -6.611  1.00  0.00     0.034 A 
BRANCH  48  62
ATOM     62  C   UNL     1      -2.951  11.789  -4.042  1.00  0.00     0.023 A 
ATOM     63  C   UNL     1      -2.965  12.957  -4.822  1.00  0.00     0.031 A 
ATOM     64  C   UNL     1      -3.036  11.988  -2.642  1.00  0.00     0.131 A 
ATOM     65  C   UNL     1      -2.902  14.224  -4.221  1.00  0.00     0.055 A 
ATOM     66  C   UNL     1      -3.034  13.252  -2.051  1.00  0.00     0.041 A 
ATOM     67  F   UNL     1      -3.050  10.989  -1.754  1.00  0.00    -0.206 F 
ATOM     68  C   UNL     1      -2.926  14.381  -2.839  1.00  0.00     0.022 A 
BRANCH  65  69
ATOM     69  S   UNL     1      -2.595  15.649  -5.288  1.00  0.00     0.124 S 
ATOM     70  O   UNL     1      -1.372  15.239  -5.970  1.00  0.00    -0.237 OA
ATOM     71  O   UNL     1      -3.807  15.680  -6.099  1.00  0.00    -0.237 OA
ATOM     72  O   UNL     1      -2.448  16.752  -4.342  1.00  0.00    -0.744 OA
ENDBRANCH  65  69
ENDBRANCH  48  62
BRANCH  49  73
ATOM     73  C   UNL     1       5.141   9.844  -1.851  1.00  0.00     0.023 A 
ATOM     74  C   UNL     1       6.042  10.927  -1.970  1.00  0.00     0.031 A 
ATOM     75  C   UNL     1       5.022   9.264  -0.568  1.00  0.00     0.131 A 
ATOM     76  C   UNL     1       6.764  11.386  -0.841  1.00  0.00     0.055 A 
ATOM     77  C   UNL     1       5.735   9.722   0.542  1.00  0.00     0.041 A 
ATOM     78  F   UNL     1       4.137   8.286  -0.322  1.00  0.00    -0.206 F 
ATOM     79  C   UNL     1       6.601  10.794   0.413  1.00  0.00     0.022 A 
BRANCH  76  80
ATOM     80  S   UNL     1       7.862  12.839  -0.957  1.00  0.00     0.124 S 
ATOM     81  O   UNL     1       9.003  12.306  -1.692  1.00  0.00    -0.237 OA
ATOM     82  O   UNL     1       7.032  13.811  -1.659  1.00  0.00    -0.237 OA
ATOM     83  O   UNL     1       8.136  13.171   0.442  1.00  0.00    -0.744 OA
ENDBRANCH  76  80
ENDBRANCH  49  73
BRANCH  61  84
ATOM     84  C   UNL     1       2.474   9.487  -7.597  1.00  0.00     0.023 A 
ATOM     85  C   UNL     1       3.253   8.349  -7.278  1.00  0.00     0.031 A 
ATOM     86  C   UNL     1       2.402   9.861  -8.951  1.00  0.00     0.131 A 
ATOM     87  C   UNL     1       3.936   7.650  -8.296  1.00  0.00     0.055 A 
ATOM     88  C   UNL     1       3.058   9.153  -9.957  1.00  0.00     0.041 A 
ATOM     89  F   UNL     1       1.663  10.918  -9.327  1.00  0.00    -0.206 F 
ATOM     90  C   UNL     1       3.835   8.049  -9.632  1.00  0.00     0.022 A 
BRANCH  87  91
ATOM     91  S   UNL     1       4.999   6.221  -7.901  1.00  0.00     0.124 S 
ATOM     92  O   UNL     1       5.786   6.682  -6.763  1.00  0.00    -0.237 OA
ATOM     93  O   UNL     1       4.024   5.170  -7.620  1.00  0.00    -0.237 OA
ATOM     94  O   UNL     1       5.768   6.020  -9.131  1.00  0.00    -0.744 OA
ENDBRANCH  87  91
ENDBRANCH  61  84
ENDBRANCH  35  36
ENDBRANCH  28  30
ENDBRANCH  27  28
ENDBRANCH  26  27
ENDBRANCH   1  26
TORSDOF 19
