REMARK SMILES C[C@H]1[C@H](C(=O)OCCOCCOC(=O)c2ccc(-c3c4nc(c(-c5cc(S(=O)(=O)[O-])ccc5F)c5ccc([nH]5)c(-c5cc(S(=O)(=O)[O-])ccc5F)c5nc(c(-c6cc(S(=O)(=O)[O-])ccc6F)c6ccc3[nH]6)C=C5)C=C4)cc2)CCN1C(=O)[C@H]1CC=CCC1
REMARK SMILES IDX 10 1 9 2 8 3 7 4 6 5 4 6 5 7 3 8 1 9 2 10 80 11 78 12 79 13
REMARK SMILES IDX 81 14 82 15 83 16 84 17 88 18 85 19 87 20 86 21 11 22 12 23
REMARK SMILES IDX 13 24 14 25 15 26 16 27 77 28 17 29 76 30 18 31 19 32 20 33
REMARK SMILES IDX 70 34 21 35 75 36 69 37 71 38 22 39 74 40 68 41 67 42 23 44
REMARK SMILES IDX 55 45 35 46 54 47 36 48 39 49 53 50 72 51 37 52 38 53 52 55
REMARK SMILES IDX 73 56 40 57 24 58 25 59 33 60 26 61 32 62 34 63 31 64 27 65
REMARK SMILES IDX 28 66 29 67 30 68 56 69 57 70 65 71 58 72 64 73 66 74 63 75
REMARK SMILES IDX 59 76 60 77 61 78 62 79 41 80 42 81 50 82 43 83 49 84 51 85
REMARK SMILES IDX 48 86 44 87 45 88 46 89 47 90
REMARK H PARENT 71 43 39 54
REMARK Flexibility Score: inf
ROOT
ATOM      1  C   UNL     1       1.984   3.455   1.852  1.00  0.00     0.202 C 
ENDROOT
BRANCH   1   2
ATOM      2  O   UNL     1       1.103   4.366   2.507  1.00  0.00    -0.374 OA
BRANCH   2   3
ATOM      3  C   UNL     1       0.137   3.799   3.391  1.00  0.00     0.202 C 
BRANCH   3   4
ATOM      4  C   UNL     1      -1.123   3.251   2.719  1.00  0.00     0.261 C 
BRANCH   4   5
ATOM      5  O   UNL     1      -0.859   2.121   1.863  1.00  0.00    -0.463 OA
BRANCH   5   6
ATOM      6  C   UNL     1      -0.970   2.359   0.531  1.00  0.00     0.311 C 
ATOM      7  O   UNL     1      -1.188   3.454   0.025  1.00  0.00    -0.252 OA
BRANCH   6   8
ATOM      8  C   UNL     1      -0.889   1.105  -0.302  1.00  0.00     0.123 C 
ATOM      9  C   UNL     1       1.347   0.336  -1.060  1.00  0.00     0.032 C 
ATOM     10  C   UNL     1       0.264   0.115   0.001  1.00  0.00     0.096 C 
ATOM     11  N   UNL     1      -0.357  -1.221  -0.102  1.00  0.00    -0.339 N 
ATOM     12  C   UNL     1      -2.162   0.283  -0.174  1.00  0.00     0.039 C 
ATOM     13  C   UNL     1      -1.712  -1.091  -0.620  1.00  0.00     0.121 C 
BRANCH  11  14
ATOM     14  C   UNL     1       0.081  -2.490   0.204  1.00  0.00     0.226 C 
ATOM     15  O   UNL     1      -0.614  -3.458  -0.150  1.00  0.00    -0.275 OA
BRANCH  14  16
ATOM     16  C   UNL     1       1.368  -2.821   0.972  1.00  0.00     0.083 C 
ATOM     17  C   UNL     1       2.667  -2.701   0.174  1.00  0.00     0.040 C 
ATOM     18  C   UNL     1       1.427  -2.355   2.426  1.00  0.00     0.018 C 
ATOM     19  C   UNL     1       3.615  -1.640   0.641  1.00  0.00    -0.030 C 
ATOM     20  C   UNL     1       2.316  -1.152   2.716  1.00  0.00     0.028 C 
ATOM     21  C   UNL     1       3.445  -0.937   1.765  1.00  0.00    -0.031 C 
ENDBRANCH  14  16
ENDBRANCH  11  14
ENDBRANCH   6   8
ENDBRANCH   5   6
ENDBRANCH   4   5
ENDBRANCH   3   4
ENDBRANCH   2   3
ENDBRANCH   1   2
BRANCH   1  22
ATOM     22  C   UNL     1       3.140   2.925   2.707  1.00  0.00     0.261 C 
BRANCH  22  23
ATOM     23  O   UNL     1       2.668   2.076   3.770  1.00  0.00    -0.460 OA
BRANCH  23  24
ATOM     24  C   UNL     1       2.984   2.506   5.019  1.00  0.00     0.338 C 
ATOM     25  O   UNL     1       3.709   3.441   5.304  1.00  0.00    -0.246 OA
BRANCH  24  26
ATOM     26  C   UNL     1       2.186   1.782   6.030  1.00  0.00     0.060 A 
ATOM     27  C   UNL     1       1.464   2.548   6.949  1.00  0.00     0.016 A 
ATOM     28  C   UNL     1       2.224   0.392   6.154  1.00  0.00     0.016 A 
ATOM     29  C   UNL     1       0.844   1.931   8.036  1.00  0.00     0.010 A 
ATOM     30  C   UNL     1       1.572  -0.231   7.225  1.00  0.00     0.010 A 
ATOM     31  C   UNL     1       0.932   0.542   8.209  1.00  0.00    -0.014 A 
BRANCH  31  32
ATOM     32  C   UNL     1       0.536  -0.049   9.516  1.00  0.00     0.031 A 
ATOM     33  C   UNL     1       1.615  -0.464  10.487  1.00  0.00     0.074 A 
ATOM     34  C   UNL     1      -0.759  -0.144   9.871  1.00  0.00     0.049 A 
ATOM     35  N   UNL     1       1.505  -0.921  11.709  1.00  0.00    -0.248 NA
ATOM     36  C   UNL     1       3.002  -0.359  10.011  1.00  0.00     0.031 C 
ATOM     37  C   UNL     1      -1.895   0.224   9.027  1.00  0.00     0.029 A 
ATOM     38  N   UNL     1      -1.335  -0.566  11.043  1.00  0.00    -0.354 N 
ATOM     39  C   UNL     1       2.806  -1.156  12.145  1.00  0.00     0.074 A 
ATOM     40  C   UNL     1       3.681  -0.853  11.034  1.00  0.00     0.031 C 
ATOM     41  C   UNL     1      -3.033   0.028   9.716  1.00  0.00     0.029 A 
ATOM     42  C   UNL     1      -2.709  -0.495  11.042  1.00  0.00     0.049 A 
ATOM     43  H   UNL     1      -0.814  -0.889  11.813  1.00  0.00     0.167 HD
ATOM     44  C   UNL     1       3.239  -1.561  13.366  1.00  0.00     0.034 A 
ATOM     45  C   UNL     1      -3.602  -0.810  12.002  1.00  0.00     0.034 A 
ATOM     46  C   UNL     1       2.362  -1.856  14.472  1.00  0.00     0.049 A 
ATOM     47  C   UNL     1      -3.101  -1.287  13.345  1.00  0.00     0.074 A 
ATOM     48  C   UNL     1       2.694  -2.251  15.756  1.00  0.00     0.029 A 
ATOM     49  N   UNL     1       0.975  -1.794  14.423  1.00  0.00    -0.354 N 
ATOM     50  N   UNL     1      -1.866  -1.468  13.752  1.00  0.00    -0.248 NA
ATOM     51  C   UNL     1      -4.119  -1.579  14.363  1.00  0.00     0.031 C 
ATOM     52  C   UNL     1       1.509  -2.484  16.465  1.00  0.00     0.029 A 
ATOM     53  C   UNL     1       0.438  -2.167  15.646  1.00  0.00     0.049 A 
ATOM     54  H   UNL     1       0.450  -1.525  13.635  1.00  0.00     0.167 HD
ATOM     55  C   UNL     1      -1.960  -1.867  15.084  1.00  0.00     0.074 A 
ATOM     56  C   UNL     1      -3.371  -1.881  15.413  1.00  0.00     0.031 C 
ATOM     57  C   UNL     1      -0.972  -2.188  15.958  1.00  0.00     0.034 A 
BRANCH  44  58
ATOM     58  C   UNL     1       4.729  -1.738  13.544  1.00  0.00     0.023 A 
ATOM     59  C   UNL     1       5.619  -0.654  13.442  1.00  0.00     0.031 A 
ATOM     60  C   UNL     1       5.271  -3.015  13.774  1.00  0.00     0.131 A 
ATOM     61  C   UNL     1       7.003  -0.878  13.488  1.00  0.00     0.055 A 
ATOM     62  C   UNL     1       6.647  -3.219  13.901  1.00  0.00     0.041 A 
ATOM     63  F   UNL     1       4.473  -4.091  13.859  1.00  0.00    -0.206 F 
ATOM     64  C   UNL     1       7.523  -2.149  13.741  1.00  0.00     0.022 A 
BRANCH  61  65
ATOM     65  S   UNL     1       8.117   0.489  13.060  1.00  0.00     0.124 S 
ATOM     66  O   UNL     1       7.687   0.804  11.700  1.00  0.00    -0.237 OA
ATOM     67  O   UNL     1       7.800   1.484  14.078  1.00  0.00    -0.237 OA
ATOM     68  O   UNL     1       9.447  -0.107  13.162  1.00  0.00    -0.744 OA
ENDBRANCH  61  65
ENDBRANCH  44  58
BRANCH  45  69
ATOM     69  C   UNL     1      -5.065  -0.697  11.740  1.00  0.00     0.023 A 
ATOM     70  C   UNL     1      -5.862   0.225  12.437  1.00  0.00     0.031 A 
ATOM     71  C   UNL     1      -5.696  -1.555  10.822  1.00  0.00     0.131 A 
ATOM     72  C   UNL     1      -7.252   0.235  12.241  1.00  0.00     0.055 A 
ATOM     73  C   UNL     1      -7.073  -1.509  10.596  1.00  0.00     0.041 A 
ATOM     74  F   UNL     1      -4.978  -2.451  10.127  1.00  0.00    -0.206 F 
ATOM     75  C   UNL     1      -7.861  -0.618  11.318  1.00  0.00     0.022 A 
BRANCH  72  76
ATOM     76  S   UNL     1      -8.268   1.332  13.270  1.00  0.00     0.124 S 
ATOM     77  O   UNL     1      -7.935   0.872  14.613  1.00  0.00    -0.237 OA
ATOM     78  O   UNL     1      -7.761   2.649  12.899  1.00  0.00    -0.237 OA
ATOM     79  O   UNL     1      -9.631   1.045  12.830  1.00  0.00    -0.744 OA
ENDBRANCH  72  76
ENDBRANCH  45  69
BRANCH  57  80
ATOM     80  C   UNL     1      -1.389  -2.539  17.366  1.00  0.00     0.023 A 
ATOM     81  C   UNL     1      -2.133  -3.698  17.650  1.00  0.00     0.031 A 
ATOM     82  C   UNL     1      -1.059  -1.687  18.434  1.00  0.00     0.131 A 
ATOM     83  C   UNL     1      -2.577  -3.940  18.959  1.00  0.00     0.055 A 
ATOM     84  C   UNL     1      -1.452  -1.964  19.745  1.00  0.00     0.041 A 
ATOM     85  F   UNL     1      -0.350  -0.567  18.221  1.00  0.00    -0.206 F 
ATOM     86  C   UNL     1      -2.229  -3.088  20.011  1.00  0.00     0.022 A 
BRANCH  83  87
ATOM     87  S   UNL     1      -3.706  -5.330  19.253  1.00  0.00     0.124 S 
ATOM     88  O   UNL     1      -4.798  -5.035  18.331  1.00  0.00    -0.237 OA
ATOM     89  O   UNL     1      -2.877  -6.481  18.912  1.00  0.00    -0.237 OA
ATOM     90  O   UNL     1      -4.041  -5.206  20.671  1.00  0.00    -0.744 OA
ENDBRANCH  83  87
ENDBRANCH  57  80
ENDBRANCH  31  32
ENDBRANCH  24  26
ENDBRANCH  23  24
ENDBRANCH  22  23
ENDBRANCH   1  22
TORSDOF 19
