REMARK SMILES O=C(OCCOCCOC(=O)c1cc(Cl)ccc1N1C(=O)CC2(CCCC2)C1=O)c1ccc(-c2c3nc(c(-c4cc(S(=O)(=O)[O-])ccc4F)c4ccc([nH]4)c(-c4cc(S(=O)(=O)[O-])ccc4F)c4nc(c(-c5cc(S(=O)(=O)[O-])ccc5F)c5ccc2[nH]5)C=C4)C=C3)cc1
REMARK SMILES IDX 5 1 4 2 3 3 2 4 1 5 30 6 31 7 92 8 32 9 91 10 33 11 34 12
REMARK SMILES IDX 35 13 85 14 36 15 90 16 84 17 86 18 37 19 89 20 83 21 82 22
REMARK SMILES IDX 38 24 70 25 50 26 69 27 51 28 54 29 68 30 87 31 52 32 53 33
REMARK SMILES IDX 67 35 88 36 55 37 39 38 40 39 48 40 41 41 47 42 49 43 46 44
REMARK SMILES IDX 42 45 43 46 44 47 45 48 71 49 72 50 80 51 73 52 79 53 81 54
REMARK SMILES IDX 78 55 74 56 75 57 76 58 77 59 56 60 57 61 65 62 58 63 64 64
REMARK SMILES IDX 66 65 63 66 59 67 60 68 61 69 62 70 6 71 7 72 8 73 9 74
REMARK SMILES IDX 10 75 11 76 12 77 13 78 18 79 14 80 17 81 15 82 16 83 19 84
REMARK SMILES IDX 20 85 28 86 21 87 22 88 23 89 29 90 24 91 27 92 25 93 26 94
REMARK H PARENT 86 23 54 34
REMARK Flexibility Score: inf
ROOT
ATOM      1  C   UNL     1       3.635  -0.917  -0.845  1.00  0.00     0.202 C 
ENDROOT
BRANCH   1   2
ATOM      2  C   UNL     1       2.772  -0.654   0.388  1.00  0.00     0.261 C 
BRANCH   2   3
ATOM      3  O   UNL     1       1.550   0.030   0.071  1.00  0.00    -0.460 OA
BRANCH   3   4
ATOM      4  C   UNL     1       1.288   1.273   0.554  1.00  0.00     0.338 C 
ATOM      5  O   UNL     1       0.156   1.572   0.918  1.00  0.00    -0.246 OA
BRANCH   4   6
ATOM      6  C   UNL     1       2.367   2.304   0.562  1.00  0.00     0.060 A 
ATOM      7  C   UNL     1       3.419   2.277  -0.344  1.00  0.00     0.016 A 
ATOM      8  C   UNL     1       2.267   3.413   1.401  1.00  0.00     0.016 A 
ATOM      9  C   UNL     1       4.423   3.221  -0.364  1.00  0.00     0.010 A 
ATOM     10  C   UNL     1       3.179   4.470   1.268  1.00  0.00     0.010 A 
ATOM     11  C   UNL     1       4.255   4.383   0.365  1.00  0.00    -0.014 A 
BRANCH  11  12
ATOM     12  C   UNL     1       5.203   5.493   0.131  1.00  0.00     0.031 A 
ATOM     13  C   UNL     1       6.013   5.990   1.281  1.00  0.00     0.074 A 
ATOM     14  C   UNL     1       5.359   5.996  -1.113  1.00  0.00     0.049 A 
ATOM     15  N   UNL     1       6.734   7.070   1.377  1.00  0.00    -0.248 NA
ATOM     16  C   UNL     1       5.988   5.162   2.497  1.00  0.00     0.031 C 
ATOM     17  C   UNL     1       4.695   5.495  -2.325  1.00  0.00     0.029 A 
ATOM     18  N   UNL     1       6.140   7.021  -1.580  1.00  0.00    -0.354 N 
ATOM     19  C   UNL     1       7.198   7.091   2.685  1.00  0.00     0.074 A 
ATOM     20  C   UNL     1       6.666   5.918   3.345  1.00  0.00     0.031 C 
ATOM     21  C   UNL     1       5.136   6.177  -3.392  1.00  0.00     0.029 A 
ATOM     22  C   UNL     1       6.006   7.248  -2.933  1.00  0.00     0.049 A 
ATOM     23  H   UNL     1       6.740   7.546  -1.003  1.00  0.00     0.167 HD
ATOM     24  C   UNL     1       7.986   8.024   3.270  1.00  0.00     0.034 A 
ATOM     25  C   UNL     1       6.478   8.249  -3.701  1.00  0.00     0.034 A 
ATOM     26  C   UNL     1       8.492   9.170   2.557  1.00  0.00     0.049 A 
ATOM     27  C   UNL     1       7.277   9.322  -3.007  1.00  0.00     0.074 A 
ATOM     28  C   UNL     1       9.245  10.226   3.031  1.00  0.00     0.029 A 
ATOM     29  N   UNL     1       8.290   9.402   1.198  1.00  0.00    -0.354 N 
ATOM     30  N   UNL     1       7.627   9.399  -1.742  1.00  0.00    -0.248 NA
ATOM     31  C   UNL     1       7.723  10.450  -3.829  1.00  0.00     0.031 C 
ATOM     32  C   UNL     1       9.445  11.124   1.976  1.00  0.00     0.029 A 
ATOM     33  C   UNL     1       8.888  10.592   0.822  1.00  0.00     0.049 A 
ATOM     34  H   UNL     1       7.795   8.805   0.592  1.00  0.00     0.167 HD
ATOM     35  C   UNL     1       8.352  10.578  -1.620  1.00  0.00     0.074 A 
ATOM     36  C   UNL     1       8.409  11.162  -2.947  1.00  0.00     0.031 C 
ATOM     37  C   UNL     1       8.916  11.136  -0.517  1.00  0.00     0.034 A 
BRANCH  24  38
ATOM     38  C   UNL     1       8.233   7.870   4.750  1.00  0.00     0.023 A 
ATOM     39  C   UNL     1       8.901   6.751   5.279  1.00  0.00     0.031 A 
ATOM     40  C   UNL     1       7.684   8.795   5.654  1.00  0.00     0.131 A 
ATOM     41  C   UNL     1       8.906   6.531   6.666  1.00  0.00     0.055 A 
ATOM     42  C   UNL     1       7.777   8.620   7.036  1.00  0.00     0.041 A 
ATOM     43  F   UNL     1       7.006   9.866   5.210  1.00  0.00    -0.206 F 
ATOM     44  C   UNL     1       8.372   7.471   7.550  1.00  0.00     0.022 A 
BRANCH  41  45
ATOM     45  S   UNL     1       9.446   4.912   7.281  1.00  0.00     0.124 S 
ATOM     46  O   UNL     1       8.492   4.016   6.630  1.00  0.00    -0.237 OA
ATOM     47  O   UNL     1      10.821   4.832   6.803  1.00  0.00    -0.237 OA
ATOM     48  O   UNL     1       9.293   5.026   8.730  1.00  0.00    -0.744 OA
ENDBRANCH  41  45
ENDBRANCH  24  38
BRANCH  25  49
ATOM     49  C   UNL     1       6.140   8.341  -5.156  1.00  0.00     0.023 A 
ATOM     50  C   UNL     1       7.143   8.367  -6.138  1.00  0.00     0.031 A 
ATOM     51  C   UNL     1       4.804   8.458  -5.588  1.00  0.00     0.131 A 
ATOM     52  C   UNL     1       6.801   8.547  -7.490  1.00  0.00     0.055 A 
ATOM     53  C   UNL     1       4.465   8.573  -6.938  1.00  0.00     0.041 A 
ATOM     54  F   UNL     1       3.797   8.453  -4.700  1.00  0.00    -0.206 F 
ATOM     55  C   UNL     1       5.468   8.633  -7.898  1.00  0.00     0.022 A 
BRANCH  52  56
ATOM     56  S   UNL     1       8.131   8.773  -8.704  1.00  0.00     0.124 S 
ATOM     57  O   UNL     1       8.846   9.918  -8.152  1.00  0.00    -0.237 OA
ATOM     58  O   UNL     1       8.823   7.490  -8.638  1.00  0.00    -0.237 OA
ATOM     59  O   UNL     1       7.414   9.028  -9.952  1.00  0.00    -0.744 OA
ENDBRANCH  52  56
ENDBRANCH  25  49
BRANCH  37  60
ATOM     60  C   UNL     1       9.681  12.415  -0.733  1.00  0.00     0.023 A 
ATOM     61  C   UNL     1       9.036  13.608  -1.098  1.00  0.00     0.031 A 
ATOM     62  C   UNL     1      11.077  12.431  -0.574  1.00  0.00     0.131 A 
ATOM     63  C   UNL     1       9.796  14.758  -1.348  1.00  0.00     0.055 A 
ATOM     64  C   UNL     1      11.820  13.596  -0.758  1.00  0.00     0.041 A 
ATOM     65  F   UNL     1      11.739  11.315  -0.230  1.00  0.00    -0.206 F 
ATOM     66  C   UNL     1      11.181  14.765  -1.160  1.00  0.00     0.022 A 
BRANCH  63  67
ATOM     67  S   UNL     1       8.960  16.221  -2.017  1.00  0.00     0.124 S 
ATOM     68  O   UNL     1       8.393  15.704  -3.258  1.00  0.00    -0.237 OA
ATOM     69  O   UNL     1       8.002  16.543  -0.964  1.00  0.00    -0.237 OA
ATOM     70  O   UNL     1      10.044  17.187  -2.184  1.00  0.00    -0.744 OA
ENDBRANCH  63  67
ENDBRANCH  37  60
ENDBRANCH  11  12
ENDBRANCH   4   6
ENDBRANCH   3   4
ENDBRANCH   2   3
ENDBRANCH   1   2
BRANCH   1  71
ATOM     71  O   UNL     1       3.311  -0.160  -1.996  1.00  0.00    -0.374 OA
BRANCH  71  72
ATOM     72  C   UNL     1       2.291  -0.670  -2.824  1.00  0.00     0.202 C 
BRANCH  72  73
ATOM     73  C   UNL     1       2.962  -1.209  -4.079  1.00  0.00     0.261 C 
BRANCH  73  74
ATOM     74  O   UNL     1       3.752  -2.364  -3.732  1.00  0.00    -0.460 OA
BRANCH  74  75
ATOM     75  C   UNL     1       5.041  -2.178  -3.321  1.00  0.00     0.340 C 
ATOM     76  O   UNL     1       5.686  -1.151  -3.326  1.00  0.00    -0.246 OA
BRANCH  75  77
ATOM     77  C   UNL     1       5.515  -3.472  -2.766  1.00  0.00     0.085 A 
ATOM     78  C   UNL     1       5.029  -4.635  -3.403  1.00  0.00     0.038 A 
ATOM     79  C   UNL     1       6.395  -3.589  -1.667  1.00  0.00     0.066 A 
ATOM     80  C   UNL     1       5.394  -5.896  -2.954  1.00  0.00     0.042 A 
ATOM     81  C   UNL     1       6.779  -4.883  -1.262  1.00  0.00     0.029 A 
ATOM     82  Cl  UNL     1       4.732  -7.294  -3.705  1.00  0.00    -0.084 Cl
ATOM     83  C   UNL     1       6.279  -6.025  -1.895  1.00  0.00     0.023 A 
BRANCH  79  84
ATOM     84  N   UNL     1       6.847  -2.511  -0.843  1.00  0.00    -0.249 N 
ATOM     85  C   UNL     1       8.176  -2.161  -0.800  1.00  0.00     0.234 C 
ATOM     86  C   UNL     1       6.258  -2.267   0.379  1.00  0.00     0.240 C 
ATOM     87  O   UNL     1       9.052  -2.515  -1.579  1.00  0.00    -0.274 OA
ATOM     88  C   UNL     1       8.469  -1.424   0.489  1.00  0.00     0.118 C 
ATOM     89  C   UNL     1       7.116  -1.302   1.181  1.00  0.00     0.059 C 
ATOM     90  O   UNL     1       5.228  -2.783   0.800  1.00  0.00    -0.273 OA
ATOM     91  C   UNL     1       7.121  -1.651   2.677  1.00  0.00     0.017 C 
ATOM     92  C   UNL     1       6.589   0.137   1.194  1.00  0.00     0.017 C 
ATOM     93  C   UNL     1       7.424  -0.355   3.425  1.00  0.00     0.001 C 
ATOM     94  C   UNL     1       7.207   0.780   2.431  1.00  0.00     0.001 C 
ENDBRANCH  79  84
ENDBRANCH  75  77
ENDBRANCH  74  75
ENDBRANCH  73  74
ENDBRANCH  72  73
ENDBRANCH  71  72
ENDBRANCH   1  71
TORSDOF 18
