REMARK SMILES C[C@@H](C(=O)NCC(=O)OCCOCCOC(=O)c1ccc(-c2c3nc(c(-c4cc(S(=O)(=O)[O-])ccc4F)c4ccc([nH]4)c(-c4cc(S(=O)(=O)[O-])ccc4F)c4nc(c(-c5cc(S(=O)(=O)[O-])ccc5F)c5ccc2[nH]5)C=C4)C=C3)cc1)N1C(=O)/C(=C/c2cccc([N+](=O)[O-])c2)SC1=S
REMARK SMILES IDX 11 1 10 2 9 3 7 4 8 5 6 6 5 7 3 8 4 9 2 11 1 12 81 13 82 14
REMARK SMILES IDX 96 15 83 16 84 17 95 18 97 19 85 20 86 21 87 22 94 23 88 24
REMARK SMILES IDX 90 25 89 26 91 27 92 28 93 29 12 30 13 31 14 32 15 33 16 34
REMARK SMILES IDX 17 35 18 36 19 37 80 38 20 39 79 40 21 41 22 42 23 43 73 44
REMARK SMILES IDX 24 45 78 46 72 47 74 48 25 49 77 50 71 51 70 52 26 54 58 55
REMARK SMILES IDX 38 56 57 57 39 58 42 59 56 60 75 61 40 62 41 63 55 65 76 66
REMARK SMILES IDX 43 67 27 68 28 69 36 70 29 71 35 72 37 73 34 74 30 75 31 76
REMARK SMILES IDX 32 77 33 78 59 79 60 80 68 81 61 82 67 83 69 84 66 85 62 86
REMARK SMILES IDX 63 87 64 88 65 89 44 90 45 91 53 92 46 93 52 94 54 95 51 96
REMARK SMILES IDX 47 97 48 98 49 99 50 100
REMARK H PARENT 5 10 74 53 42 64
REMARK Flexibility Score: inf
ROOT
ATOM      1  C   UNL     1       5.592   3.094   0.142  1.00  0.00     0.202 C 
ENDROOT
BRANCH   1   2
ATOM      2  C   UNL     1       4.969   1.892  -0.574  1.00  0.00     0.261 C 
BRANCH   2   3
ATOM      3  O   UNL     1       4.025   1.219   0.276  1.00  0.00    -0.462 OA
BRANCH   3   4
ATOM      4  C   UNL     1       4.253  -0.104   0.480  1.00  0.00     0.325 C 
ATOM      5  O   UNL     1       5.061  -0.790  -0.136  1.00  0.00    -0.250 OA
BRANCH   4   6
ATOM      6  C   UNL     1       3.407  -0.678   1.617  1.00  0.00     0.238 C 
BRANCH   6   7
ATOM      7  N   UNL     1       2.503   0.211   2.339  1.00  0.00    -0.343 N 
ATOM      8  C   UNL     1       1.147   0.324   2.259  1.00  0.00     0.243 C 
ATOM      9  O   UNL     1       0.585   0.907   3.188  1.00  0.00    -0.273 OA
ATOM     10  H   UNL     1       2.937   0.820   2.979  1.00  0.00     0.164 HD
BRANCH   8  11
ATOM     11  C   UNL     1       0.377  -0.323   1.091  1.00  0.00     0.178 C 
ATOM     12  C   UNL     1       0.800   0.137  -0.301  1.00  0.00     0.042 C 
BRANCH  11  13
ATOM     13  N   UNL     1      -1.083  -0.223   1.292  1.00  0.00    -0.281 N 
ATOM     14  C   UNL     1      -1.784  -1.398   1.505  1.00  0.00     0.266 C 
ATOM     15  C   UNL     1      -1.835   0.940   1.248  1.00  0.00     0.149 C 
ATOM     16  O   UNL     1      -1.306  -2.519   1.626  1.00  0.00    -0.268 OA
ATOM     17  C   UNL     1      -3.245  -1.136   1.509  1.00  0.00     0.081 C 
ATOM     18  S   UNL     1      -3.537   0.551   1.487  1.00  0.00    -0.054 SA
ATOM     19  S   UNL     1      -1.350   2.517   0.997  1.00  0.00    -0.052 S 
ATOM     20  C   UNL     1      -4.140  -2.133   1.467  1.00  0.00     0.029 C 
BRANCH  20  21
ATOM     21  C   UNL     1      -5.593  -1.966   1.356  1.00  0.00    -0.018 A 
ATOM     22  C   UNL     1      -6.427  -2.470   2.361  1.00  0.00     0.008 A 
ATOM     23  C   UNL     1      -6.159  -1.332   0.242  1.00  0.00     0.093 A 
ATOM     24  C   UNL     1      -7.813  -2.312   2.277  1.00  0.00     0.008 A 
ATOM     25  C   UNL     1      -7.548  -1.171   0.166  1.00  0.00     0.270 A 
ATOM     26  C   UNL     1      -8.379  -1.657   1.183  1.00  0.00     0.085 A 
BRANCH  25  27
ATOM     27  N   UNL     1      -8.138  -0.492  -0.995  1.00  0.00     0.062 N 
ATOM     28  O   UNL     1      -9.368  -0.338  -1.004  1.00  0.00    -0.258 OA
ATOM     29  O   UNL     1      -7.374  -0.134  -1.901  1.00  0.00    -0.258 OA
ENDBRANCH  25  27
ENDBRANCH  20  21
ENDBRANCH  11  13
ENDBRANCH   8  11
ENDBRANCH   6   7
ENDBRANCH   4   6
ENDBRANCH   3   4
ENDBRANCH   2   3
ENDBRANCH   1   2
BRANCH   1  30
ATOM     30  O   UNL     1       6.272   2.809   1.365  1.00  0.00    -0.374 OA
BRANCH  30  31
ATOM     31  C   UNL     1       5.472   2.587   2.526  1.00  0.00     0.202 C 
BRANCH  31  32
ATOM     32  C   UNL     1       4.790   3.807   3.160  1.00  0.00     0.261 C 
BRANCH  32  33
ATOM     33  O   UNL     1       3.800   4.401   2.304  1.00  0.00    -0.460 OA
BRANCH  33  34
ATOM     34  C   UNL     1       4.095   5.657   1.883  1.00  0.00     0.338 C 
ATOM     35  O   UNL     1       5.071   6.324   2.202  1.00  0.00    -0.246 OA
BRANCH  34  36
ATOM     36  C   UNL     1       3.171   6.067   0.811  1.00  0.00     0.060 A 
ATOM     37  C   UNL     1       3.731   6.457  -0.413  1.00  0.00     0.016 A 
ATOM     38  C   UNL     1       1.790   6.134   1.012  1.00  0.00     0.016 A 
ATOM     39  C   UNL     1       2.914   6.944  -1.432  1.00  0.00     0.010 A 
ATOM     40  C   UNL     1       0.974   6.635  -0.009  1.00  0.00     0.010 A 
ATOM     41  C   UNL     1       1.533   7.062  -1.227  1.00  0.00    -0.014 A 
BRANCH  41  42
ATOM     42  C   UNL     1       0.690   7.724  -2.254  1.00  0.00     0.031 A 
ATOM     43  C   UNL     1       0.303   9.165  -2.073  1.00  0.00     0.074 A 
ATOM     44  C   UNL     1       0.290   7.048  -3.345  1.00  0.00     0.049 A 
ATOM     45  N   UNL     1      -0.474   9.916  -2.812  1.00  0.00    -0.248 NA
ATOM     46  C   UNL     1       0.869   9.849  -0.902  1.00  0.00     0.031 C 
ATOM     47  C   UNL     1       0.642   5.662  -3.651  1.00  0.00     0.029 A 
ATOM     48  N   UNL     1      -0.511   7.431  -4.391  1.00  0.00    -0.354 N 
ATOM     49  C   UNL     1      -0.488  11.165  -2.199  1.00  0.00     0.074 A 
ATOM     50  C   UNL     1       0.328  11.053  -1.007  1.00  0.00     0.031 C 
ATOM     51  C   UNL     1       0.038   5.303  -4.796  1.00  0.00     0.029 A 
ATOM     52  C   UNL     1      -0.776   6.416  -5.280  1.00  0.00     0.049 A 
ATOM     53  H   UNL     1      -0.863   8.345  -4.495  1.00  0.00     0.167 HD
ATOM     54  C   UNL     1      -1.116  12.299  -2.600  1.00  0.00     0.034 A 
ATOM     55  C   UNL     1      -1.611   6.376  -6.338  1.00  0.00     0.034 A 
ATOM     56  C   UNL     1      -1.952  12.381  -3.774  1.00  0.00     0.049 A 
ATOM     57  C   UNL     1      -2.395   7.614  -6.701  1.00  0.00     0.074 A 
ATOM     58  C   UNL     1      -2.629  13.479  -4.277  1.00  0.00     0.029 A 
ATOM     59  N   UNL     1      -2.244  11.317  -4.619  1.00  0.00    -0.354 N 
ATOM     60  N   UNL     1      -2.394   8.792  -6.121  1.00  0.00    -0.248 NA
ATOM     61  C   UNL     1      -3.291   7.516  -7.861  1.00  0.00     0.031 C 
ATOM     62  C   UNL     1      -3.388  13.062  -5.377  1.00  0.00     0.029 A 
ATOM     63  C   UNL     1      -3.123  11.723  -5.613  1.00  0.00     0.049 A 
ATOM     64  H   UNL     1      -1.880  10.408  -4.526  1.00  0.00     0.167 HD
ATOM     65  C   UNL     1      -3.274   9.580  -6.859  1.00  0.00     0.074 A 
ATOM     66  C   UNL     1      -3.773   8.748  -7.935  1.00  0.00     0.031 C 
ATOM     67  C   UNL     1      -3.634  10.876  -6.667  1.00  0.00     0.034 A 
BRANCH  54  68
ATOM     68  C   UNL     1      -0.960  13.519  -1.724  1.00  0.00     0.023 A 
ATOM     69  C   UNL     1       0.292  14.127  -1.519  1.00  0.00     0.031 A 
ATOM     70  C   UNL     1      -2.071  14.061  -1.052  1.00  0.00     0.131 A 
ATOM     71  C   UNL     1       0.416  15.187  -0.609  1.00  0.00     0.055 A 
ATOM     72  C   UNL     1      -1.954  15.168  -0.209  1.00  0.00     0.041 A 
ATOM     73  F   UNL     1      -3.288  13.512  -1.191  1.00  0.00    -0.206 F 
ATOM     74  C   UNL     1      -0.703  15.727   0.030  1.00  0.00     0.022 A 
BRANCH  71  75
ATOM     75  S   UNL     1       2.080  15.751  -0.156  1.00  0.00     0.124 S 
ATOM     76  O   UNL     1       2.686  14.518   0.340  1.00  0.00    -0.237 OA
ATOM     77  O   UNL     1       2.598  16.254  -1.423  1.00  0.00    -0.237 OA
ATOM     78  O   UNL     1       1.832  16.768   0.864  1.00  0.00    -0.744 OA
ENDBRANCH  71  75
ENDBRANCH  54  68
BRANCH  55  79
ATOM     79  C   UNL     1      -1.804   5.104  -7.090  1.00  0.00     0.023 A 
ATOM     80  C   UNL     1      -1.431   4.984  -8.437  1.00  0.00     0.031 A 
ATOM     81  C   UNL     1      -2.406   3.993  -6.470  1.00  0.00     0.131 A 
ATOM     82  C   UNL     1      -1.694   3.792  -9.131  1.00  0.00     0.055 A 
ATOM     83  C   UNL     1      -2.622   2.794  -7.151  1.00  0.00     0.041 A 
ATOM     84  F   UNL     1      -2.781   4.054  -5.183  1.00  0.00    -0.206 F 
ATOM     85  C   UNL     1      -2.275   2.692  -8.493  1.00  0.00     0.022 A 
BRANCH  82  86
ATOM     86  S   UNL     1      -1.327   3.719 -10.906  1.00  0.00     0.124 S 
ATOM     87  O   UNL     1      -2.158   4.798 -11.427  1.00  0.00    -0.237 OA
ATOM     88  O   UNL     1       0.114   3.950 -10.926  1.00  0.00    -0.237 OA
ATOM     89  O   UNL     1      -1.743   2.370 -11.284  1.00  0.00    -0.744 OA
ENDBRANCH  82  86
ENDBRANCH  55  79
BRANCH  67  90
ATOM     90  C   UNL     1      -4.594  11.478  -7.666  1.00  0.00     0.023 A 
ATOM     91  C   UNL     1      -5.933  11.057  -7.752  1.00  0.00     0.031 A 
ATOM     92  C   UNL     1      -4.160  12.486  -8.546  1.00  0.00     0.131 A 
ATOM     93  C   UNL     1      -6.778  11.609  -8.728  1.00  0.00     0.055 A 
ATOM     94  C   UNL     1      -5.020  13.072  -9.475  1.00  0.00     0.041 A 
ATOM     95  F   UNL     1      -2.891  12.924  -8.510  1.00  0.00    -0.206 F 
ATOM     96  C   UNL     1      -6.335  12.626  -9.578  1.00  0.00     0.022 A 
BRANCH  93  97
ATOM     97  S   UNL     1      -8.447  10.927  -8.927  1.00  0.00     0.124 S 
ATOM     98  O   UNL     1      -8.168   9.534  -9.260  1.00  0.00    -0.237 OA
ATOM     99  O   UNL     1      -9.040  11.163  -7.614  1.00  0.00    -0.237 OA
ATOM    100  O   UNL     1      -9.016  11.723 -10.014  1.00  0.00    -0.744 OA
ENDBRANCH  93  97
ENDBRANCH  67  90
ENDBRANCH  41  42
ENDBRANCH  34  36
ENDBRANCH  33  34
ENDBRANCH  32  33
ENDBRANCH  31  32
ENDBRANCH  30  31
ENDBRANCH   1  30
TORSDOF 22
