REMARK SMILES O=C(OCCOCCOC(=O)[C@H]1C[C@](O)(c2ccccc2Cl)[C@@H](c2ccccc2Cl)O1)c1ccc(-c2c3nc(c(-c4cc(S(=O)(=O)[O-])ccc4F)c4ccc([nH]4)c(-c4cc(S(=O)(=O)[O-])ccc4F)c4nc(c(-c5cc(S(=O)(=O)[O-])ccc5F)c5ccc2[nH]5)C=C4)C=C3)cc1
REMARK SMILES IDX 5 1 4 2 3 3 2 4 1 5 32 6 33 7 94 8 34 9 93 10 35 11 36 12
REMARK SMILES IDX 37 13 87 14 38 15 92 16 86 17 88 18 39 19 91 20 85 21 84 22
REMARK SMILES IDX 40 24 72 25 52 26 71 27 53 28 56 29 70 30 89 31 54 32 55 33
REMARK SMILES IDX 69 35 90 36 57 37 41 38 42 39 50 40 43 41 49 42 51 43 48 44
REMARK SMILES IDX 44 45 45 46 46 47 47 48 73 49 74 50 82 51 75 52 81 53 83 54
REMARK SMILES IDX 80 55 76 56 77 57 78 58 79 59 58 60 59 61 67 62 60 63 66 64
REMARK SMILES IDX 68 65 65 66 61 67 62 68 63 69 64 70 6 71 7 72 8 73 9 74
REMARK SMILES IDX 10 75 11 76 12 77 13 78 31 79 14 80 23 81 16 82 17 83 21 84
REMARK SMILES IDX 18 85 20 86 22 87 19 88 15 89 24 91 25 92 29 93 26 94 28 95
REMARK SMILES IDX 30 96 27 97
REMARK H PARENT 88 23 56 34 15 90
REMARK Flexibility Score: inf
ROOT
ATOM      1  C   UNL     1       5.596   1.445  -1.004  1.00  0.00     0.202 C 
ENDROOT
BRANCH   1   2
ATOM      2  C   UNL     1       6.955   0.848  -1.427  1.00  0.00     0.261 C 
BRANCH   2   3
ATOM      3  O   UNL     1       7.523   1.491  -2.582  1.00  0.00    -0.460 OA
BRANCH   3   4
ATOM      4  C   UNL     1       7.587   0.983  -3.844  1.00  0.00     0.338 C 
ATOM      5  O   UNL     1       8.410   1.458  -4.624  1.00  0.00    -0.246 OA
BRANCH   4   6
ATOM      6  C   UNL     1       6.605  -0.024  -4.367  1.00  0.00     0.060 A 
ATOM      7  C   UNL     1       5.518  -0.494  -3.639  1.00  0.00     0.016 A 
ATOM      8  C   UNL     1       6.715  -0.451  -5.705  1.00  0.00     0.016 A 
ATOM      9  C   UNL     1       4.540  -1.281  -4.192  1.00  0.00     0.010 A 
ATOM     10  C   UNL     1       5.738  -1.280  -6.280  1.00  0.00     0.010 A 
ATOM     11  C   UNL     1       4.637  -1.673  -5.515  1.00  0.00    -0.014 A 
BRANCH  11  12
ATOM     12  C   UNL     1       3.601  -2.634  -5.909  1.00  0.00     0.031 A 
ATOM     13  C   UNL     1       3.911  -4.083  -5.704  1.00  0.00     0.074 A 
ATOM     14  C   UNL     1       2.343  -2.178  -6.064  1.00  0.00     0.049 A 
ATOM     15  N   UNL     1       3.130  -5.118  -5.812  1.00  0.00    -0.248 NA
ATOM     16  C   UNL     1       5.281  -4.399  -5.256  1.00  0.00     0.031 C 
ATOM     17  C   UNL     1       1.952  -0.762  -6.014  1.00  0.00     0.029 A 
ATOM     18  N   UNL     1       1.158  -2.842  -6.206  1.00  0.00    -0.354 N 
ATOM     19  C   UNL     1       3.908  -6.209  -5.445  1.00  0.00     0.074 A 
ATOM     20  C   UNL     1       5.224  -5.713  -5.119  1.00  0.00     0.031 C 
ATOM     21  C   UNL     1       0.617  -0.671  -6.115  1.00  0.00     0.029 A 
ATOM     22  C   UNL     1       0.068  -2.007  -6.310  1.00  0.00     0.049 A 
ATOM     23  H   UNL     1       1.089  -3.824  -6.232  1.00  0.00     0.167 HD
ATOM     24  C   UNL     1       3.538  -7.510  -5.396  1.00  0.00     0.034 A 
ATOM     25  C   UNL     1      -1.217  -2.306  -6.582  1.00  0.00     0.034 A 
ATOM     26  C   UNL     1       2.221  -7.947  -5.774  1.00  0.00     0.049 A 
ATOM     27  C   UNL     1      -1.552  -3.772  -6.727  1.00  0.00     0.074 A 
ATOM     28  C   UNL     1       1.746  -9.232  -5.942  1.00  0.00     0.029 A 
ATOM     29  N   UNL     1       1.162  -7.086  -6.053  1.00  0.00    -0.354 N 
ATOM     30  N   UNL     1      -0.778  -4.818  -6.523  1.00  0.00    -0.248 NA
ATOM     31  C   UNL     1      -2.917  -4.102  -7.139  1.00  0.00     0.031 C 
ATOM     32  C   UNL     1       0.422  -9.146  -6.391  1.00  0.00     0.029 A 
ATOM     33  C   UNL     1       0.043  -7.811  -6.418  1.00  0.00     0.049 A 
ATOM     34  H   UNL     1       1.205  -6.104  -5.998  1.00  0.00     0.167 HD
ATOM     35  C   UNL     1      -1.572  -5.932  -6.767  1.00  0.00     0.074 A 
ATOM     36  C   UNL     1      -2.893  -5.425  -7.091  1.00  0.00     0.031 C 
ATOM     37  C   UNL     1      -1.251  -7.252  -6.741  1.00  0.00     0.034 A 
BRANCH  24  38
ATOM     38  C   UNL     1       4.613  -8.507  -5.054  1.00  0.00     0.023 A 
ATOM     39  C   UNL     1       5.210  -8.552  -3.781  1.00  0.00     0.031 A 
ATOM     40  C   UNL     1       5.127  -9.350  -6.055  1.00  0.00     0.131 A 
ATOM     41  C   UNL     1       6.331  -9.370  -3.565  1.00  0.00     0.055 A 
ATOM     42  C   UNL     1       6.192 -10.218  -5.811  1.00  0.00     0.041 A 
ATOM     43  F   UNL     1       4.626  -9.315  -7.300  1.00  0.00    -0.206 F 
ATOM     44  C   UNL     1       6.809 -10.222  -4.564  1.00  0.00     0.022 A 
BRANCH  41  45
ATOM     45  S   UNL     1       7.253  -9.191  -2.012  1.00  0.00     0.124 S 
ATOM     46  O   UNL     1       7.706  -7.805  -2.096  1.00  0.00    -0.237 OA
ATOM     47  O   UNL     1       6.238  -9.471  -1.004  1.00  0.00    -0.237 OA
ATOM     48  O   UNL     1       8.312 -10.193  -2.125  1.00  0.00    -0.744 OA
ENDBRANCH  41  45
ENDBRANCH  24  38
BRANCH  25  49
ATOM     49  C   UNL     1      -2.227  -1.237  -6.859  1.00  0.00     0.023 A 
ATOM     50  C   UNL     1      -3.461  -1.187  -6.191  1.00  0.00     0.031 A 
ATOM     51  C   UNL     1      -2.013  -0.305  -7.896  1.00  0.00     0.131 A 
ATOM     52  C   UNL     1      -4.452  -0.282  -6.613  1.00  0.00     0.055 A 
ATOM     53  C   UNL     1      -2.973   0.640  -8.262  1.00  0.00     0.041 A 
ATOM     54  F   UNL     1      -0.863  -0.308  -8.591  1.00  0.00    -0.206 F 
ATOM     55  C   UNL     1      -4.211   0.640  -7.633  1.00  0.00     0.022 A 
BRANCH  52  56
ATOM     56  S   UNL     1      -6.120  -0.427  -5.911  1.00  0.00     0.124 S 
ATOM     57  O   UNL     1      -6.427  -1.830  -6.162  1.00  0.00    -0.237 OA
ATOM     58  O   UNL     1      -5.894  -0.058  -4.518  1.00  0.00    -0.237 OA
ATOM     59  O   UNL     1      -6.902   0.532  -6.689  1.00  0.00    -0.744 OA
ENDBRANCH  52  56
ENDBRANCH  25  49
BRANCH  37  60
ATOM     60  C   UNL     1      -2.368  -8.216  -7.041  1.00  0.00     0.023 A 
ATOM     61  C   UNL     1      -2.980  -8.257  -8.305  1.00  0.00     0.031 A 
ATOM     62  C   UNL     1      -2.839  -9.086  -6.043  1.00  0.00     0.131 A 
ATOM     63  C   UNL     1      -4.083  -9.094  -8.514  1.00  0.00     0.055 A 
ATOM     64  C   UNL     1      -3.884  -9.976  -6.283  1.00  0.00     0.041 A 
ATOM     65  F   UNL     1      -2.288  -9.084  -4.818  1.00  0.00    -0.206 F 
ATOM     66  C   UNL     1      -4.525  -9.970  -7.518  1.00  0.00     0.022 A 
BRANCH  63  67
ATOM     67  S   UNL     1      -5.011  -8.924 -10.060  1.00  0.00     0.124 S 
ATOM     68  O   UNL     1      -5.385  -7.514 -10.035  1.00  0.00    -0.237 OA
ATOM     69  O   UNL     1      -4.019  -9.302 -11.062  1.00  0.00    -0.237 OA
ATOM     70  O   UNL     1      -6.119  -9.864  -9.899  1.00  0.00    -0.744 OA
ENDBRANCH  63  67
ENDBRANCH  37  60
ENDBRANCH  11  12
ENDBRANCH   4   6
ENDBRANCH   3   4
ENDBRANCH   2   3
ENDBRANCH   1   2
BRANCH   1  71
ATOM     71  O   UNL     1       4.627   1.705  -2.018  1.00  0.00    -0.374 OA
BRANCH  71  72
ATOM     72  C   UNL     1       4.875   2.758  -2.948  1.00  0.00     0.202 C 
BRANCH  72  73
ATOM     73  C   UNL     1       3.717   3.758  -2.940  1.00  0.00     0.261 C 
BRANCH  73  74
ATOM     74  O   UNL     1       3.937   4.703  -1.883  1.00  0.00    -0.461 OA
BRANCH  74  75
ATOM     75  C   UNL     1       3.646   4.310  -0.614  1.00  0.00     0.335 C 
ATOM     76  O   UNL     1       2.947   3.362  -0.303  1.00  0.00    -0.249 OA
BRANCH  75  77
ATOM     77  C   UNL     1       4.483   5.129   0.380  1.00  0.00     0.232 C 
ATOM     78  C   UNL     1       5.963   4.783   0.244  1.00  0.00     0.087 C 
ATOM     79  O   UNL     1       4.343   6.536   0.187  1.00  0.00    -0.355 OA
ATOM     80  C   UNL     1       6.699   6.110   0.256  1.00  0.00     0.124 C 
ATOM     81  C   UNL     1       5.606   7.103  -0.234  1.00  0.00     0.187 C 
BRANCH  80  82
ATOM     82  C   UNL     1       7.342   6.367   1.636  1.00  0.00     0.005 A 
ATOM     83  C   UNL     1       8.639   5.822   1.849  1.00  0.00     0.008 A 
ATOM     84  C   UNL     1       6.804   7.109   2.706  1.00  0.00     0.047 A 
ATOM     85  C   UNL     1       9.400   6.109   2.984  1.00  0.00     0.001 A 
ATOM     86  C   UNL     1       7.587   7.419   3.832  1.00  0.00     0.021 A 
ATOM     87  Cl  UNL     1       5.170   7.651   2.824  1.00  0.00    -0.084 Cl
ATOM     88  C   UNL     1       8.886   6.943   3.961  1.00  0.00     0.002 A 
ENDBRANCH  80  82
BRANCH  80  89
ATOM     89  O   UNL     1       7.803   6.109  -0.671  1.00  0.00    -0.382 OA
ATOM     90  H   UNL     1       7.471   5.952  -1.569  1.00  0.00     0.212 HD
ENDBRANCH  80  89
BRANCH  81  91
ATOM     91  C   UNL     1       5.391   7.481  -1.696  1.00  0.00     0.003 A 
ATOM     92  C   UNL     1       5.840   6.695  -2.773  1.00  0.00     0.008 A 
ATOM     93  C   UNL     1       4.607   8.613  -2.011  1.00  0.00     0.046 A 
ATOM     94  C   UNL     1       5.493   6.997  -4.095  1.00  0.00     0.000 A 
ATOM     95  C   UNL     1       4.269   8.917  -3.335  1.00  0.00     0.021 A 
ATOM     96  Cl  UNL     1       3.998   9.693  -0.798  1.00  0.00    -0.084 Cl
ATOM     97  C   UNL     1       4.700   8.102  -4.375  1.00  0.00     0.002 A 
ENDBRANCH  81  91
ENDBRANCH  75  77
ENDBRANCH  74  75
ENDBRANCH  73  74
ENDBRANCH  72  73
ENDBRANCH  71  72
ENDBRANCH   1  71
TORSDOF 20
