REMARK SMILES CC1(C)C(NC(=O)N[C@H]2CCCC[C@H]2C(=O)OCCOCCOC(=O)c2ccc(-c3c4nc(c(-c5cc(S(=O)(=O)[O-])ccc5F)c5ccc([nH]5)c(-c5cc(S(=O)(=O)[O-])ccc5F)c5nc(c(-c6cc(S(=O)(=O)[O-])ccc6F)c6ccc3[nH]6)C=C5)C=C4)cc2)C1(C)C
REMARK SMILES IDX 21 1 20 2 19 3 18 4 17 5 15 6 16 7 14 8 9 9 10 10 11 11
REMARK SMILES IDX 13 12 12 13 8 14 5 15 6 16 7 18 4 20 1 21 2 22 3 23 89 24
REMARK SMILES IDX 90 25 91 26 22 27 23 28 24 29 25 30 26 31 27 32 88 33 28 34
REMARK SMILES IDX 87 35 29 36 30 37 31 38 81 39 32 40 86 41 80 42 82 43 33 44
REMARK SMILES IDX 85 45 79 46 78 47 34 49 66 50 46 51 65 52 47 53 50 54 64 55
REMARK SMILES IDX 83 56 48 57 49 58 63 60 84 61 51 62 35 63 36 64 44 65 37 66
REMARK SMILES IDX 43 67 45 68 42 69 38 70 39 71 40 72 41 73 67 74 68 75 76 76
REMARK SMILES IDX 69 77 75 78 77 79 74 80 70 81 71 82 72 83 73 84 52 85 53 86
REMARK SMILES IDX 61 87 54 88 60 89 62 90 59 91 55 92 56 93 57 94 58 95
REMARK H PARENT 5 17 8 19 82 48 50 59
REMARK Flexibility Score: inf
ROOT
ATOM      1  C   UNL     1       7.469  -2.862  -3.611  1.00  0.00     0.202 C 
ENDROOT
BRANCH   1   2
ATOM      2  O   UNL     1       8.745  -2.403  -3.192  1.00  0.00    -0.374 OA
BRANCH   2   3
ATOM      3  C   UNL     1       9.066  -2.529  -1.809  1.00  0.00     0.202 C 
BRANCH   3   4
ATOM      4  C   UNL     1       8.223  -1.750  -0.786  1.00  0.00     0.261 C 
BRANCH   4   5
ATOM      5  O   UNL     1       6.800  -2.003  -0.790  1.00  0.00    -0.463 OA
BRANCH   5   6
ATOM      6  C   UNL     1       6.036  -0.975  -1.243  1.00  0.00     0.311 C 
ATOM      7  O   UNL     1       6.480   0.039  -1.776  1.00  0.00    -0.252 OA
BRANCH   6   8
ATOM      8  C   UNL     1       4.556  -1.098  -0.934  1.00  0.00     0.121 C 
ATOM      9  C   UNL     1       3.808  -2.407  -1.268  1.00  0.00     0.098 C 
ATOM     10  C   UNL     1       2.308  -2.249  -0.907  1.00  0.00     0.026 C 
ATOM     11  C   UNL     1       2.066  -1.686   0.496  1.00  0.00     0.002 C 
ATOM     12  C   UNL     1       4.295  -0.558   0.474  1.00  0.00     0.017 C 
ATOM     13  C   UNL     1       2.802  -0.373   0.707  1.00  0.00     0.001 C 
BRANCH   9  14
ATOM     14  N   UNL     1       4.305  -3.607  -0.619  1.00  0.00    -0.335 N 
ATOM     15  N   UNL     1       3.894  -5.370  -2.179  1.00  0.00    -0.334 N 
ATOM     16  C   UNL     1       4.310  -4.905  -0.978  1.00  0.00     0.315 C 
ATOM     17  H   UNL     1       4.229  -6.270  -2.396  1.00  0.00     0.165 HD
ATOM     18  O   UNL     1       4.745  -5.705  -0.148  1.00  0.00    -0.249 OA
ATOM     19  H   UNL     1       4.721  -3.438   0.257  1.00  0.00     0.165 HD
BRANCH  15  20
ATOM     20  C   UNL     1       3.063  -4.805  -3.189  1.00  0.00     0.096 C 
ATOM     21  C   UNL     1       3.139  -3.292  -5.251  1.00  0.00     0.014 C 
ATOM     22  C   UNL     1       3.452  -4.650  -4.659  1.00  0.00    -0.007 C 
ATOM     23  C   UNL     1       4.636  -5.302  -5.338  1.00  0.00     0.014 C 
ATOM     24  C   UNL     1       2.337  -5.621  -4.240  1.00  0.00    -0.007 C 
ATOM     25  C   UNL     1       0.910  -5.256  -4.579  1.00  0.00     0.014 C 
ATOM     26  C   UNL     1       2.565  -7.120  -4.300  1.00  0.00     0.014 C 
ENDBRANCH  15  20
ENDBRANCH   9  14
ENDBRANCH   6   8
ENDBRANCH   5   6
ENDBRANCH   4   5
ENDBRANCH   3   4
ENDBRANCH   2   3
ENDBRANCH   1   2
BRANCH   1  27
ATOM     27  C   UNL     1       7.134  -4.342  -3.423  1.00  0.00     0.261 C 
BRANCH  27  28
ATOM     28  O   UNL     1       7.588  -4.905  -2.200  1.00  0.00    -0.460 OA
BRANCH  28  29
ATOM     29  C   UNL     1       7.283  -6.213  -2.035  1.00  0.00     0.338 C 
ATOM     30  O   UNL     1       6.551  -6.894  -2.740  1.00  0.00    -0.246 OA
BRANCH  29  31
ATOM     31  C   UNL     1       7.989  -6.701  -0.841  1.00  0.00     0.060 A 
ATOM     32  C   UNL     1       9.368  -6.508  -0.714  1.00  0.00     0.016 A 
ATOM     33  C   UNL     1       7.275  -7.392   0.138  1.00  0.00     0.016 A 
ATOM     34  C   UNL     1      10.035  -7.031   0.392  1.00  0.00     0.010 A 
ATOM     35  C   UNL     1       7.932  -7.858   1.274  1.00  0.00     0.010 A 
ATOM     36  C   UNL     1       9.322  -7.714   1.389  1.00  0.00    -0.014 A 
BRANCH  36  37
ATOM     37  C   UNL     1      10.050  -8.348   2.514  1.00  0.00     0.031 A 
ATOM     38  C   UNL     1      10.175  -9.847   2.562  1.00  0.00     0.074 A 
ATOM     39  C   UNL     1      10.601  -7.576   3.468  1.00  0.00     0.049 A 
ATOM     40  N   UNL     1      10.831 -10.594   3.410  1.00  0.00    -0.248 NA
ATOM     41  C   UNL     1       9.456 -10.606   1.525  1.00  0.00     0.031 C 
ATOM     42  C   UNL     1      10.502  -6.116   3.532  1.00  0.00     0.029 A 
ATOM     43  N   UNL     1      11.359  -7.905   4.562  1.00  0.00    -0.354 N 
ATOM     44  C   UNL     1      10.599 -11.908   3.016  1.00  0.00     0.074 A 
ATOM     45  C   UNL     1       9.706 -11.857   1.880  1.00  0.00     0.031 C 
ATOM     46  C   UNL     1      11.194  -5.675   4.596  1.00  0.00     0.029 A 
ATOM     47  C   UNL     1      11.765  -6.819   5.301  1.00  0.00     0.049 A 
ATOM     48  H   UNL     1      11.590  -8.833   4.796  1.00  0.00     0.167 HD
ATOM     49  C   UNL     1      11.099 -13.050   3.547  1.00  0.00     0.034 A 
ATOM     50  C   UNL     1      12.517  -6.758   6.417  1.00  0.00     0.034 A 
ATOM     51  C   UNL     1      11.995 -13.075   4.678  1.00  0.00     0.049 A 
ATOM     52  C   UNL     1      13.069  -8.045   6.981  1.00  0.00     0.074 A 
ATOM     53  C   UNL     1      12.614 -14.165   5.264  1.00  0.00     0.029 A 
ATOM     54  N   UNL     1      12.387 -11.957   5.403  1.00  0.00    -0.354 N 
ATOM     55  N   UNL     1      12.911  -9.275   6.544  1.00  0.00    -0.248 NA
ATOM     56  C   UNL     1      13.917  -7.933   8.173  1.00  0.00     0.031 C 
ATOM     57  C   UNL     1      13.328 -13.713   6.381  1.00  0.00     0.029 A 
ATOM     58  C   UNL     1      13.212 -12.334   6.451  1.00  0.00     0.049 A 
ATOM     59  H   UNL     1      12.118 -11.032   5.202  1.00  0.00     0.167 HD
ATOM     60  C   UNL     1      13.663 -10.079   7.396  1.00  0.00     0.074 A 
ATOM     61  C   UNL     1      14.296  -9.189   8.350  1.00  0.00     0.031 C 
ATOM     62  C   UNL     1      13.817 -11.428   7.399  1.00  0.00     0.034 A 
BRANCH  49  63
ATOM     63  C   UNL     1      10.657 -14.358   2.937  1.00  0.00     0.023 A 
ATOM     64  C   UNL     1      10.994 -14.717   1.619  1.00  0.00     0.031 A 
ATOM     65  C   UNL     1       9.874 -15.256   3.684  1.00  0.00     0.131 A 
ATOM     66  C   UNL     1      10.503 -15.912   1.071  1.00  0.00     0.055 A 
ATOM     67  C   UNL     1       9.444 -16.475   3.155  1.00  0.00     0.041 A 
ATOM     68  F   UNL     1       9.503 -14.957   4.939  1.00  0.00    -0.206 F 
ATOM     69  C   UNL     1       9.749 -16.804   1.838  1.00  0.00     0.022 A 
BRANCH  66  70
ATOM     70  S   UNL     1      10.771 -16.239  -0.693  1.00  0.00     0.124 S 
ATOM     71  O   UNL     1      10.076 -15.114  -1.312  1.00  0.00    -0.237 OA
ATOM     72  O   UNL     1      12.226 -16.228  -0.799  1.00  0.00    -0.237 OA
ATOM     73  O   UNL     1      10.142 -17.542  -0.901  1.00  0.00    -0.744 OA
ENDBRANCH  66  70
ENDBRANCH  49  63
BRANCH  50  74
ATOM     74  C   UNL     1      12.797  -5.452   7.080  1.00  0.00     0.023 A 
ATOM     75  C   UNL     1      14.107  -4.958   7.192  1.00  0.00     0.031 A 
ATOM     76  C   UNL     1      11.761  -4.703   7.666  1.00  0.00     0.131 A 
ATOM     77  C   UNL     1      14.354  -3.784   7.921  1.00  0.00     0.055 A 
ATOM     78  C   UNL     1      12.005  -3.507   8.343  1.00  0.00     0.041 A 
ATOM     79  F   UNL     1      10.488  -5.124   7.584  1.00  0.00    -0.206 F 
ATOM     80  C   UNL     1      13.311  -3.049   8.488  1.00  0.00     0.022 A 
BRANCH  77  81
ATOM     81  S   UNL     1      16.075  -3.284   8.206  1.00  0.00     0.124 S 
ATOM     82  O   UNL     1      16.642  -4.488   8.801  1.00  0.00    -0.237 OA
ATOM     83  O   UNL     1      16.523  -2.963   6.855  1.00  0.00    -0.237 OA
ATOM     84  O   UNL     1      15.951  -2.140   9.107  1.00  0.00    -0.744 OA
ENDBRANCH  77  81
ENDBRANCH  50  74
BRANCH  62  85
ATOM     85  C   UNL     1      14.730 -12.000   8.454  1.00  0.00     0.023 A 
ATOM     86  C   UNL     1      14.409 -11.926   9.821  1.00  0.00     0.031 A 
ATOM     87  C   UNL     1      15.954 -12.589   8.092  1.00  0.00     0.131 A 
ATOM     88  C   UNL     1      15.333 -12.363  10.780  1.00  0.00     0.055 A 
ATOM     89  C   UNL     1      16.841 -13.084   9.049  1.00  0.00     0.041 A 
ATOM     90  F   UNL     1      16.311 -12.686   6.801  1.00  0.00    -0.206 F 
ATOM     91  C   UNL     1      16.541 -12.956  10.402  1.00  0.00     0.022 A 
BRANCH  88  92
ATOM     92  S   UNL     1      14.987 -12.038  12.530  1.00  0.00     0.124 S 
ATOM     93  O   UNL     1      14.813 -10.589  12.542  1.00  0.00    -0.237 OA
ATOM     94  O   UNL     1      13.781 -12.826  12.761  1.00  0.00    -0.237 OA
ATOM     95  O   UNL     1      16.185 -12.525  13.213  1.00  0.00    -0.744 OA
ENDBRANCH  88  92
ENDBRANCH  62  85
ENDBRANCH  36  37
ENDBRANCH  29  31
ENDBRANCH  28  29
ENDBRANCH  27  28
ENDBRANCH   1  27
TORSDOF 19
