REMARK SMILES CC[NH+]1CCN(c2ccc(NC(=O)C3CCCC3)c(C(=O)OCCOCCOC(=O)c3ccc(-c4c5nc(c(-c6cc(S(=O)(=O)[O-])ccc6F)c6ccc([nH]6)c(-c6cc(S(=O)(=O)[O-])ccc6F)c6nc(c(-c7cc(S(=O)(=O)[O-])ccc7F)c7ccc4[nH]7)C=C6)C=C5)cc3)c2)CC1
REMARK SMILES IDX 26 1 25 2 24 3 23 4 22 5 20 6 21 7 19 8 7 9 8 10 94 11 9 12
REMARK SMILES IDX 10 13 6 14 3 15 4 16 96 17 5 19 95 20 2 21 1 22 11 23 12 24
REMARK SMILES IDX 13 26 14 27 15 28 18 29 16 30 17 31 27 32 28 33 29 34 30 35
REMARK SMILES IDX 31 36 32 37 93 38 33 39 92 40 34 41 35 42 36 43 86 44 37 45
REMARK SMILES IDX 91 46 85 47 87 48 38 49 90 50 84 51 83 52 39 54 71 55 51 56
REMARK SMILES IDX 70 57 52 58 55 59 69 60 88 61 53 62 54 63 68 65 89 66 56 67
REMARK SMILES IDX 40 68 41 69 49 70 42 71 48 72 50 73 47 74 43 75 44 76 45 77
REMARK SMILES IDX 46 78 72 79 73 80 81 81 74 82 80 83 82 84 79 85 75 86 76 87
REMARK SMILES IDX 77 88 78 89 57 90 58 91 66 92 59 93 65 94 67 95 64 96 60 97
REMARK SMILES IDX 61 98 62 99 63 100
REMARK H PARENT 3 18 11 25 87 53 55 64
REMARK Flexibility Score: inf
ROOT
ATOM      1  C   UNL     1       7.294   3.948   5.899  1.00  0.00     0.202 C 
ENDROOT
BRANCH   1   2
ATOM      2  O   UNL     1       8.460   3.132   6.000  1.00  0.00    -0.374 OA
BRANCH   2   3
ATOM      3  C   UNL     1       8.614   2.092   5.033  1.00  0.00     0.202 C 
BRANCH   3   4
ATOM      4  C   UNL     1       7.840   0.793   5.287  1.00  0.00     0.261 C 
BRANCH   4   5
ATOM      5  O   UNL     1       6.420   1.012   5.215  1.00  0.00    -0.460 OA
BRANCH   5   6
ATOM      6  C   UNL     1       5.759   0.989   6.399  1.00  0.00     0.340 C 
ATOM      7  O   UNL     1       6.210   0.655   7.483  1.00  0.00    -0.246 OA
BRANCH   6   8
ATOM      8  C   UNL     1       4.459   1.688   6.238  1.00  0.00     0.085 A 
ATOM      9  C   UNL     1       2.481   2.130   4.841  1.00  0.00     0.038 A 
ATOM     10  C   UNL     1       2.145   3.123   5.757  1.00  0.00     0.028 A 
ATOM     11  C   UNL     1       3.696   1.468   5.075  1.00  0.00     0.043 A 
ATOM     12  C   UNL     1       2.920   3.374   6.891  1.00  0.00     0.029 A 
ATOM     13  C   UNL     1       4.024   2.602   7.211  1.00  0.00     0.055 A 
BRANCH   9  14
ATOM     14  N   UNL     1       1.654   1.817   3.788  1.00  0.00    -0.360 N 
ATOM     15  N   UNL     1       1.325   1.722   0.861  1.00  0.00    -0.332 N 
ATOM     16  C   UNL     1       1.088   2.957   1.647  1.00  0.00     0.283 C 
ATOM     17  C   UNL     1       2.241   0.835   1.626  1.00  0.00     0.283 C 
ATOM     18  H   UNL     1       1.765   1.973  -0.025  1.00  0.00     0.348 HD
ATOM     19  C   UNL     1       0.736   2.777   3.148  1.00  0.00     0.178 C 
ATOM     20  C   UNL     1       1.768   0.546   3.064  1.00  0.00     0.178 C 
BRANCH  15  21
ATOM     21  C   UNL     1       0.076   1.044   0.497  1.00  0.00     0.258 C 
ATOM     22  C   UNL     1       0.288   0.016  -0.614  1.00  0.00     0.071 C 
ENDBRANCH  15  21
ENDBRANCH   9  14
BRANCH  13  23
ATOM     23  N   UNL     1       4.732   2.760   8.420  1.00  0.00    -0.325 N 
ATOM     24  C   UNL     1       4.434   3.255   9.652  1.00  0.00     0.227 C 
ATOM     25  H   UNL     1       5.660   2.436   8.359  1.00  0.00     0.169 HD
ATOM     26  O   UNL     1       5.383   3.387  10.439  1.00  0.00    -0.274 OA
BRANCH  24  27
ATOM     27  C   UNL     1       3.037   3.621  10.156  1.00  0.00     0.079 C 
ATOM     28  C   UNL     1       2.593   5.038   9.819  1.00  0.00     0.013 C 
ATOM     29  C   UNL     1       1.899   2.662   9.823  1.00  0.00     0.013 C 
ATOM     30  C   UNL     1       1.105   4.973   9.498  1.00  0.00     0.001 C 
ATOM     31  C   UNL     1       0.706   3.506   9.396  1.00  0.00     0.001 C 
ENDBRANCH  24  27
ENDBRANCH  13  23
ENDBRANCH   6   8
ENDBRANCH   5   6
ENDBRANCH   4   5
ENDBRANCH   3   4
ENDBRANCH   2   3
ENDBRANCH   1   2
BRANCH   1  32
ATOM     32  C   UNL     1       7.281   5.052   4.836  1.00  0.00     0.261 C 
BRANCH  32  33
ATOM     33  O   UNL     1       7.323   4.529   3.498  1.00  0.00    -0.460 OA
BRANCH  33  34
ATOM     34  C   UNL     1       8.521   4.660   2.878  1.00  0.00     0.338 C 
ATOM     35  O   UNL     1       9.516   5.220   3.313  1.00  0.00    -0.246 OA
BRANCH  34  36
ATOM     36  C   UNL     1       8.532   3.848   1.648  1.00  0.00     0.060 A 
ATOM     37  C   UNL     1       9.544   2.889   1.509  1.00  0.00     0.016 A 
ATOM     38  C   UNL     1       7.600   4.050   0.629  1.00  0.00     0.016 A 
ATOM     39  C   UNL     1       9.644   2.144   0.336  1.00  0.00     0.010 A 
ATOM     40  C   UNL     1       7.710   3.309  -0.552  1.00  0.00     0.010 A 
ATOM     41  C   UNL     1       8.745   2.369  -0.715  1.00  0.00    -0.014 A 
BRANCH  41  42
ATOM     42  C   UNL     1       8.947   1.704  -2.026  1.00  0.00     0.031 A 
ATOM     43  C   UNL     1       9.528   2.497  -3.164  1.00  0.00     0.074 A 
ATOM     44  C   UNL     1       8.607   0.414  -2.199  1.00  0.00     0.049 A 
ATOM     45  N   UNL     1       9.685   2.157  -4.417  1.00  0.00    -0.248 NA
ATOM     46  C   UNL     1       9.986   3.859  -2.847  1.00  0.00     0.031 C 
ATOM     47  C   UNL     1       8.081  -0.465  -1.154  1.00  0.00     0.029 A 
ATOM     48  N   UNL     1       8.632  -0.377  -3.321  1.00  0.00    -0.354 N 
ATOM     49  C   UNL     1      10.239   3.268  -5.044  1.00  0.00     0.074 A 
ATOM     50  C   UNL     1      10.373   4.298  -4.036  1.00  0.00     0.031 C 
ATOM     51  C   UNL     1       7.810  -1.667  -1.691  1.00  0.00     0.029 A 
ATOM     52  C   UNL     1       8.091  -1.627  -3.125  1.00  0.00     0.049 A 
ATOM     53  H   UNL     1       9.001  -0.078  -4.183  1.00  0.00     0.167 HD
ATOM     54  C   UNL     1      10.597   3.411  -6.344  1.00  0.00     0.034 A 
ATOM     55  C   UNL     1       7.812  -2.608  -4.009  1.00  0.00     0.034 A 
ATOM     56  C   UNL     1      10.454   2.369  -7.333  1.00  0.00     0.049 A 
ATOM     57  C   UNL     1       8.144  -2.392  -5.468  1.00  0.00     0.074 A 
ATOM     58  C   UNL     1      10.830   2.393  -8.665  1.00  0.00     0.029 A 
ATOM     59  N   UNL     1       9.874   1.128  -7.107  1.00  0.00    -0.354 N 
ATOM     60  N   UNL     1       8.694  -1.348  -6.045  1.00  0.00    -0.248 NA
ATOM     61  C   UNL     1       7.822  -3.487  -6.393  1.00  0.00     0.031 C 
ATOM     62  C   UNL     1      10.392   1.208  -9.264  1.00  0.00     0.029 A 
ATOM     63  C   UNL     1       9.833   0.401  -8.287  1.00  0.00     0.049 A 
ATOM     64  H   UNL     1       9.540   0.811  -6.237  1.00  0.00     0.167 HD
ATOM     65  C   UNL     1       8.810  -1.676  -7.395  1.00  0.00     0.074 A 
ATOM     66  C   UNL     1       8.292  -3.020  -7.540  1.00  0.00     0.031 C 
ATOM     67  C   UNL     1       9.303  -0.936  -8.421  1.00  0.00     0.034 A 
BRANCH  54  68
ATOM     68  C   UNL     1      11.114   4.757  -6.790  1.00  0.00     0.023 A 
ATOM     69  C   UNL     1      12.320   5.295  -6.310  1.00  0.00     0.031 A 
ATOM     70  C   UNL     1      10.381   5.513  -7.723  1.00  0.00     0.131 A 
ATOM     71  C   UNL     1      12.731   6.571  -6.726  1.00  0.00     0.055 A 
ATOM     72  C   UNL     1      10.834   6.748  -8.191  1.00  0.00     0.041 A 
ATOM     73  F   UNL     1       9.208   5.063  -8.197  1.00  0.00    -0.206 F 
ATOM     74  C   UNL     1      12.010   7.289  -7.684  1.00  0.00     0.022 A 
BRANCH  71  75
ATOM     75  S   UNL     1      14.157   7.336  -5.907  1.00  0.00     0.124 S 
ATOM     76  O   UNL     1      13.726   7.346  -4.511  1.00  0.00    -0.237 OA
ATOM     77  O   UNL     1      15.240   6.417  -6.236  1.00  0.00    -0.237 OA
ATOM     78  O   UNL     1      14.245   8.655  -6.533  1.00  0.00    -0.744 OA
ENDBRANCH  71  75
ENDBRANCH  54  68
BRANCH  55  79
ATOM     79  C   UNL     1       7.120  -3.856  -3.567  1.00  0.00     0.023 A 
ATOM     80  C   UNL     1       7.715  -5.116  -3.729  1.00  0.00     0.031 A 
ATOM     81  C   UNL     1       5.814  -3.810  -3.045  1.00  0.00     0.131 A 
ATOM     82  C   UNL     1       6.986  -6.279  -3.433  1.00  0.00     0.055 A 
ATOM     83  C   UNL     1       5.118  -4.965  -2.687  1.00  0.00     0.041 A 
ATOM     84  F   UNL     1       5.190  -2.633  -2.873  1.00  0.00    -0.206 F 
ATOM     85  C   UNL     1       5.698  -6.212  -2.897  1.00  0.00     0.022 A 
BRANCH  82  86
ATOM     86  S   UNL     1       7.700  -7.887  -3.873  1.00  0.00     0.124 S 
ATOM     87  O   UNL     1       7.939  -7.723  -5.302  1.00  0.00    -0.237 OA
ATOM     88  O   UNL     1       8.886  -7.933  -3.024  1.00  0.00    -0.237 OA
ATOM     89  O   UNL     1       6.646  -8.835  -3.520  1.00  0.00    -0.744 OA
ENDBRANCH  82  86
ENDBRANCH  55  79
BRANCH  67  90
ATOM     90  C   UNL     1       9.348  -1.587  -9.785  1.00  0.00     0.023 A 
ATOM     91  C   UNL     1       8.178  -1.938 -10.480  1.00  0.00     0.031 A 
ATOM     92  C   UNL     1      10.585  -1.859 -10.397  1.00  0.00     0.131 A 
ATOM     93  C   UNL     1       8.270  -2.590 -11.720  1.00  0.00     0.055 A 
ATOM     94  C   UNL     1      10.669  -2.444 -11.661  1.00  0.00     0.041 A 
ATOM     95  F   UNL     1      11.737  -1.551  -9.778  1.00  0.00    -0.206 F 
ATOM     96  C   UNL     1       9.507  -2.826 -12.324  1.00  0.00     0.022 A 
BRANCH  93  97
ATOM     97  S   UNL     1       6.751  -3.215 -12.490  1.00  0.00     0.124 S 
ATOM     98  O   UNL     1       6.242  -4.120 -11.465  1.00  0.00    -0.237 OA
ATOM     99  O   UNL     1       5.981  -1.994 -12.702  1.00  0.00    -0.237 OA
ATOM    100  O   UNL     1       7.228  -3.865 -13.710  1.00  0.00    -0.744 OA
ENDBRANCH  93  97
ENDBRANCH  67  90
ENDBRANCH  41  42
ENDBRANCH  34  36
ENDBRANCH  33  34
ENDBRANCH  32  33
ENDBRANCH   1  32
TORSDOF 21
