REMARK SMILES N#CC1=C(N)N2C(=O)[C@@H](CC(=O)OCCOCCOC(=O)c3ccc(-c4c5nc(c(-c6cc(S(=O)(=O)[O-])ccc6F)c6ccc([nH]6)c(-c6cc(S(=O)(=O)[O-])ccc6F)c6nc(c(-c7cc(S(=O)(=O)[O-])ccc7F)c7ccc4[nH]7)C=C6)C=C5)cc3)SC2=C(C#N)[C@H]1c1ccc(Cl)cc1
REMARK SMILES IDX 17 1 16 2 15 3 14 4 13 5 11 6 12 7 10 8 9 9 3 10 4 11 90 12
REMARK SMILES IDX 6 13 87 14 7 15 86 16 8 17 85 18 2 19 1 20 5 21 91 24 92 25
REMARK SMILES IDX 97 26 93 27 96 28 94 29 95 30 88 31 89 32 18 33 19 34 20 35
REMARK SMILES IDX 21 36 22 37 23 38 84 39 24 40 83 41 25 42 26 43 27 44 77 45
REMARK SMILES IDX 28 46 82 47 76 48 78 49 29 50 81 51 75 52 74 53 30 55 62 56
REMARK SMILES IDX 42 57 61 58 43 59 46 60 60 61 79 62 44 63 45 64 59 66 80 67
REMARK SMILES IDX 47 68 31 69 32 70 40 71 33 72 39 73 41 74 38 75 34 76 35 77
REMARK SMILES IDX 36 78 37 79 63 80 64 81 72 82 65 83 71 84 73 85 70 86 66 87
REMARK SMILES IDX 67 88 68 89 69 90 48 91 49 92 57 93 50 94 56 95 58 96 55 97
REMARK SMILES IDX 51 98 52 99 53 100 54 101
REMARK H PARENT 5 22 5 23 78 54 46 65
REMARK Flexibility Score: inf
ROOT
ATOM      1  C   UNL     1       5.695  -2.662  -3.324  1.00  0.00     0.202 C 
ENDROOT
BRANCH   1   2
ATOM      2  O   UNL     1       6.370  -3.552  -4.221  1.00  0.00    -0.374 OA
BRANCH   2   3
ATOM      3  C   UNL     1       6.844  -4.793  -3.688  1.00  0.00     0.202 C 
BRANCH   3   4
ATOM      4  C   UNL     1       8.093  -4.698  -2.802  1.00  0.00     0.261 C 
BRANCH   4   5
ATOM      5  O   UNL     1       7.938  -3.723  -1.758  1.00  0.00    -0.463 OA
BRANCH   5   6
ATOM      6  C   UNL     1       9.054  -3.014  -1.463  1.00  0.00     0.307 C 
ATOM      7  O   UNL     1      10.187  -3.276  -1.842  1.00  0.00    -0.252 OA
BRANCH   6   8
ATOM      8  C   UNL     1       8.707  -1.725  -0.773  1.00  0.00     0.147 C 
BRANCH   8   9
ATOM      9  C   UNL     1       8.158  -1.862   0.640  1.00  0.00     0.154 C 
ATOM     10  C   UNL     1       3.797  -0.011   0.098  1.00  0.00     0.083 C 
ATOM     11  C   UNL     1       4.459  -1.137   0.483  1.00  0.00     0.126 C 
ATOM     12  C   UNL     1       4.538   1.280  -0.250  1.00  0.00     0.107 C 
ATOM     13  N   UNL     1       5.857  -1.130   0.561  1.00  0.00    -0.258 N 
ATOM     14  C   UNL     1       5.932   1.247   0.348  1.00  0.00     0.073 C 
ATOM     15  C   UNL     1       6.680  -2.261   0.709  1.00  0.00     0.247 C 
ATOM     16  C   UNL     1       6.497   0.079   0.674  1.00  0.00     0.099 C 
ATOM     17  O   UNL     1       6.305  -3.421   0.840  1.00  0.00    -0.273 OA
ATOM     18  S   UNL     1       8.106  -0.134   1.290  1.00  0.00    -0.093 SA
BRANCH  10  19
ATOM     19  C   UNL     1       2.277  -0.011   0.098  1.00  0.00     0.100 C 
ATOM     20  N   UNL     1       1.016  -0.011   0.098  1.00  0.00    -0.193 NA
ENDBRANCH  10  19
BRANCH  11  21
ATOM     21  N   UNL     1       3.797  -2.283   0.818  1.00  0.00    -0.384 N 
ATOM     22  H   UNL     1       2.814  -2.315   0.772  1.00  0.00     0.158 HD
ATOM     23  H   UNL     1       4.302  -3.077   1.107  1.00  0.00     0.158 HD
ENDBRANCH  11  21
BRANCH  12  24
ATOM     24  C   UNL     1       4.544   1.548  -1.769  1.00  0.00    -0.034 A 
ATOM     25  C   UNL     1       5.719   1.511  -2.549  1.00  0.00     0.006 A 
ATOM     26  C   UNL     1       3.337   1.848  -2.430  1.00  0.00     0.006 A 
ATOM     27  C   UNL     1       5.687   1.772  -3.924  1.00  0.00     0.021 A 
ATOM     28  C   UNL     1       3.303   2.085  -3.809  1.00  0.00     0.021 A 
ATOM     29  C   UNL     1       4.479   2.053  -4.550  1.00  0.00     0.041 A 
ATOM     30  Cl  UNL     1       4.443   2.372  -6.239  1.00  0.00    -0.084 Cl
ENDBRANCH  12  24
BRANCH  14  31
ATOM     31  C   UNL     1       6.682   2.533   0.653  1.00  0.00     0.098 C 
ATOM     32  N   UNL     1       7.305   3.600   0.906  1.00  0.00    -0.193 NA
ENDBRANCH  14  31
ENDBRANCH   8   9
ENDBRANCH   6   8
ENDBRANCH   5   6
ENDBRANCH   4   5
ENDBRANCH   3   4
ENDBRANCH   2   3
ENDBRANCH   1   2
BRANCH   1  33
ATOM     33  C   UNL     1       4.486  -3.241  -2.585  1.00  0.00     0.261 C 
BRANCH  33  34
ATOM     34  O   UNL     1       4.921  -4.237  -1.648  1.00  0.00    -0.460 OA
BRANCH  34  35
ATOM     35  C   UNL     1       3.928  -4.882  -1.002  1.00  0.00     0.338 C 
ATOM     36  O   UNL     1       2.757  -4.541  -0.936  1.00  0.00    -0.246 OA
BRANCH  35  37
ATOM     37  C   UNL     1       4.460  -6.147  -0.467  1.00  0.00     0.060 A 
ATOM     38  C   UNL     1       4.534  -7.250  -1.324  1.00  0.00     0.016 A 
ATOM     39  C   UNL     1       4.787  -6.276   0.884  1.00  0.00     0.016 A 
ATOM     40  C   UNL     1       4.886  -8.502  -0.814  1.00  0.00     0.010 A 
ATOM     41  C   UNL     1       5.162  -7.527   1.387  1.00  0.00     0.010 A 
ATOM     42  C   UNL     1       5.171  -8.657   0.551  1.00  0.00    -0.014 A 
BRANCH  42  43
ATOM     43  C   UNL     1       5.334 -10.023   1.119  1.00  0.00     0.031 A 
ATOM     44  C   UNL     1       4.186 -10.649   1.869  1.00  0.00     0.074 A 
ATOM     45  C   UNL     1       6.471 -10.718   0.935  1.00  0.00     0.049 A 
ATOM     46  N   UNL     1       4.098 -11.838   2.410  1.00  0.00    -0.248 NA
ATOM     47  C   UNL     1       2.978  -9.825   2.029  1.00  0.00     0.031 C 
ATOM     48  C   UNL     1       7.650 -10.234   0.218  1.00  0.00     0.029 A 
ATOM     49  N   UNL     1       6.821 -11.984   1.337  1.00  0.00    -0.354 N 
ATOM     50  C   UNL     1       2.824 -11.910   2.964  1.00  0.00     0.074 A 
ATOM     51  C   UNL     1       2.196 -10.625   2.737  1.00  0.00     0.031 C 
ATOM     52  C   UNL     1       8.593 -11.193   0.231  1.00  0.00     0.029 A 
ATOM     53  C   UNL     1       8.097 -12.348   0.977  1.00  0.00     0.049 A 
ATOM     54  H   UNL     1       6.213 -12.576   1.837  1.00  0.00     0.167 HD
ATOM     55  C   UNL     1       2.224 -12.953   3.589  1.00  0.00     0.034 A 
ATOM     56  C   UNL     1       8.791 -13.477   1.230  1.00  0.00     0.034 A 
ATOM     57  C   UNL     1       2.856 -14.228   3.826  1.00  0.00     0.049 A 
ATOM     58  C   UNL     1       8.128 -14.599   1.994  1.00  0.00     0.074 A 
ATOM     59  C   UNL     1       2.325 -15.355   4.430  1.00  0.00     0.029 A 
ATOM     60  N   UNL     1       4.164 -14.543   3.485  1.00  0.00    -0.354 N 
ATOM     61  N   UNL     1       6.910 -14.662   2.481  1.00  0.00    -0.248 NA
ATOM     62  C   UNL     1       8.932 -15.806   2.231  1.00  0.00     0.031 C 
ATOM     63  C   UNL     1       3.329 -16.326   4.512  1.00  0.00     0.029 A 
ATOM     64  C   UNL     1       4.467 -15.832   3.895  1.00  0.00     0.049 A 
ATOM     65  H   UNL     1       4.787 -13.938   3.019  1.00  0.00     0.167 HD
ATOM     66  C   UNL     1       6.795 -15.928   3.052  1.00  0.00     0.074 A 
ATOM     67  C   UNL     1       8.060 -16.598   2.839  1.00  0.00     0.031 C 
ATOM     68  C   UNL     1       5.736 -16.489   3.689  1.00  0.00     0.034 A 
BRANCH  55  69
ATOM     69  C   UNL     1       0.817 -12.742   4.090  1.00  0.00     0.023 A 
ATOM     70  C   UNL     1      -0.257 -12.539   3.206  1.00  0.00     0.031 A 
ATOM     71  C   UNL     1       0.548 -12.731   5.470  1.00  0.00     0.131 A 
ATOM     72  C   UNL     1      -1.539 -12.275   3.712  1.00  0.00     0.055 A 
ATOM     73  C   UNL     1      -0.742 -12.537   5.966  1.00  0.00     0.041 A 
ATOM     74  F   UNL     1       1.539 -12.900   6.360  1.00  0.00    -0.206 F 
ATOM     75  C   UNL     1      -1.793 -12.296   5.086  1.00  0.00     0.022 A 
BRANCH  72  76
ATOM     76  S   UNL     1      -2.846 -11.787   2.554  1.00  0.00     0.124 S 
ATOM     77  O   UNL     1      -2.278 -10.582   1.957  1.00  0.00    -0.237 OA
ATOM     78  O   UNL     1      -2.942 -12.950   1.679  1.00  0.00    -0.237 OA
ATOM     79  O   UNL     1      -4.003 -11.560   3.418  1.00  0.00    -0.744 OA
ENDBRANCH  72  76
ENDBRANCH  55  69
BRANCH  56  80
ATOM     80  C   UNL     1      10.211 -13.606   0.791  1.00  0.00     0.023 A 
ATOM     81  C   UNL     1      10.599 -14.576  -0.146  1.00  0.00     0.031 A 
ATOM     82  C   UNL     1      11.213 -12.802   1.364  1.00  0.00     0.131 A 
ATOM     83  C   UNL     1      11.959 -14.753  -0.446  1.00  0.00     0.055 A 
ATOM     84  C   UNL     1      12.558 -12.947   1.024  1.00  0.00     0.041 A 
ATOM     85  F   UNL     1      10.894 -11.860   2.266  1.00  0.00    -0.206 F 
ATOM     86  C   UNL     1      12.940 -13.937   0.124  1.00  0.00     0.022 A 
BRANCH  83  87
ATOM     87  S   UNL     1      12.440 -16.130  -1.524  1.00  0.00     0.124 S 
ATOM     88  O   UNL     1      11.886 -17.275  -0.810  1.00  0.00    -0.237 OA
ATOM     89  O   UNL     1      11.781 -15.775  -2.777  1.00  0.00    -0.237 OA
ATOM     90  O   UNL     1      13.899 -16.052  -1.545  1.00  0.00    -0.744 OA
ENDBRANCH  83  87
ENDBRANCH  56  80
BRANCH  68  91
ATOM     91  C   UNL     1       5.891 -17.914   4.161  1.00  0.00     0.023 A 
ATOM     92  C   UNL     1       6.769 -18.259   5.203  1.00  0.00     0.031 A 
ATOM     93  C   UNL     1       5.153 -18.944   3.549  1.00  0.00     0.131 A 
ATOM     94  C   UNL     1       6.926 -19.606   5.568  1.00  0.00     0.055 A 
ATOM     95  C   UNL     1       5.274 -20.275   3.952  1.00  0.00     0.041 A 
ATOM     96  F   UNL     1       4.300 -18.672   2.548  1.00  0.00    -0.206 F 
ATOM     97  C   UNL     1       6.174 -20.613   4.959  1.00  0.00     0.022 A 
BRANCH  94  98
ATOM     98  S   UNL     1       8.189 -20.035   6.797  1.00  0.00     0.124 S 
ATOM     99  O   UNL     1       9.407 -19.530   6.172  1.00  0.00    -0.237 OA
ATOM    100  O   UNL     1       7.733 -19.313   7.980  1.00  0.00    -0.237 OA
ATOM    101  O   UNL     1       8.098 -21.491   6.889  1.00  0.00    -0.744 OA
ENDBRANCH  94  98
ENDBRANCH  68  91
ENDBRANCH  42  43
ENDBRANCH  35  37
ENDBRANCH  34  35
ENDBRANCH  33  34
ENDBRANCH   1  33
TORSDOF 22
