REMARK SMILES O=C(OCCOCCOC(=O)c1ccccc1NC(=O)c1cc2cc(Cl)cc(Cl)c2oc1=O)c1ccc(-c2c3nc(c(-c4cc(S(=O)(=O)[O-])ccc4F)c4ccc([nH]4)c(-c4cc(S(=O)(=O)[O-])ccc4F)c4nc(c(-c5cc(S(=O)(=O)[O-])ccc5F)c5ccc2[nH]5)C=C4)C=C3)cc1
REMARK SMILES IDX 5 1 4 2 3 3 2 4 1 5 34 6 35 7 96 8 36 9 95 10 37 11 38 12
REMARK SMILES IDX 39 13 89 14 40 15 94 16 88 17 90 18 41 19 93 20 87 21 86 22
REMARK SMILES IDX 42 24 74 25 54 26 73 27 55 28 58 29 72 30 91 31 56 32 57 33
REMARK SMILES IDX 71 35 92 36 59 37 43 38 44 39 52 40 45 41 51 42 53 43 50 44
REMARK SMILES IDX 46 45 47 46 48 47 49 48 75 49 76 50 84 51 77 52 83 53 85 54
REMARK SMILES IDX 82 55 78 56 79 57 80 58 81 59 60 60 61 61 69 62 62 63 68 64
REMARK SMILES IDX 70 65 67 66 63 67 64 68 65 69 66 70 6 71 7 72 8 73 9 74
REMARK SMILES IDX 10 75 11 76 12 77 13 78 17 79 14 80 16 81 15 82 18 83 19 84
REMARK SMILES IDX 20 86 21 87 22 88 32 89 23 90 31 91 33 92 24 93 30 94 25 95
REMARK SMILES IDX 28 96 26 97 27 98 29 99
REMARK H PARENT 90 23 58 34 18 85
REMARK Flexibility Score: inf
ROOT
ATOM      1  C   UNL     1       4.184   1.229  -1.015  1.00  0.00     0.202 C 
ENDROOT
BRANCH   1   2
ATOM      2  C   UNL     1       3.795  -0.194  -1.432  1.00  0.00     0.261 C 
BRANCH   2   3
ATOM      3  O   UNL     1       2.424  -0.465  -1.085  1.00  0.00    -0.460 OA
BRANCH   3   4
ATOM      4  C   UNL     1       1.955  -1.250  -0.084  1.00  0.00     0.338 C 
ATOM      5  O   UNL     1       0.745  -1.465  -0.022  1.00  0.00    -0.246 OA
BRANCH   4   6
ATOM      6  C   UNL     1       2.830  -1.843   0.973  1.00  0.00     0.060 A 
ATOM      7  C   UNL     1       4.063  -1.315   1.346  1.00  0.00     0.016 A 
ATOM      8  C   UNL     1       2.344  -2.944   1.698  1.00  0.00     0.016 A 
ATOM      9  C   UNL     1       4.825  -1.872   2.348  1.00  0.00     0.010 A 
ATOM     10  C   UNL     1       3.085  -3.488   2.756  1.00  0.00     0.010 A 
ATOM     11  C   UNL     1       4.334  -2.947   3.075  1.00  0.00    -0.014 A 
BRANCH  11  12
ATOM     12  C   UNL     1       5.254  -3.502   4.080  1.00  0.00     0.031 A 
ATOM     13  C   UNL     1       5.996  -4.753   3.733  1.00  0.00     0.074 A 
ATOM     14  C   UNL     1       5.583  -2.741   5.141  1.00  0.00     0.049 A 
ATOM     15  N   UNL     1       6.891  -5.400   4.425  1.00  0.00    -0.248 NA
ATOM     16  C   UNL     1       5.710  -5.338   2.412  1.00  0.00     0.031 C 
ATOM     17  C   UNL     1       5.017  -1.416   5.431  1.00  0.00     0.029 A 
ATOM     18  N   UNL     1       6.509  -2.925   6.130  1.00  0.00    -0.354 N 
ATOM     19  C   UNL     1       7.271  -6.474   3.630  1.00  0.00     0.074 A 
ATOM     20  C   UNL     1       6.492  -6.405   2.414  1.00  0.00     0.031 C 
ATOM     21  C   UNL     1       5.635  -0.898   6.503  1.00  0.00     0.029 A 
ATOM     22  C   UNL     1       6.567  -1.885   7.030  1.00  0.00     0.049 A 
ATOM     23  H   UNL     1       7.080  -3.725   6.192  1.00  0.00     0.167 HD
ATOM     24  C   UNL     1       8.192  -7.426   3.906  1.00  0.00     0.034 A 
ATOM     25  C   UNL     1       7.264  -1.777   8.178  1.00  0.00     0.034 A 
ATOM     26  C   UNL     1       8.921  -7.458   5.148  1.00  0.00     0.049 A 
ATOM     27  C   UNL     1       8.167  -2.932   8.535  1.00  0.00     0.074 A 
ATOM     28  C   UNL     1       9.778  -8.428   5.630  1.00  0.00     0.029 A 
ATOM     29  N   UNL     1       8.870  -6.453   6.112  1.00  0.00    -0.354 N 
ATOM     30  N   UNL     1       8.430  -4.018   7.839  1.00  0.00    -0.248 NA
ATOM     31  C   UNL     1       8.860  -2.856   9.823  1.00  0.00     0.031 C 
ATOM     32  C   UNL     1      10.195  -8.039   6.909  1.00  0.00     0.029 A 
ATOM     33  C   UNL     1       9.665  -6.788   7.194  1.00  0.00     0.049 A 
ATOM     34  H   UNL     1       8.345  -5.625   6.035  1.00  0.00     0.167 HD
ATOM     35  C   UNL     1       9.332  -4.749   8.602  1.00  0.00     0.074 A 
ATOM     36  C   UNL     1       9.595  -3.957   9.790  1.00  0.00     0.031 C 
ATOM     37  C   UNL     1       9.888  -5.966   8.361  1.00  0.00     0.034 A 
BRANCH  24  38
ATOM     38  C   UNL     1       8.349  -8.531   2.893  1.00  0.00     0.023 A 
ATOM     39  C   UNL     1       8.837  -8.285   1.596  1.00  0.00     0.031 A 
ATOM     40  C   UNL     1       7.899  -9.829   3.192  1.00  0.00     0.131 A 
ATOM     41  C   UNL     1       8.786  -9.300   0.626  1.00  0.00     0.055 A 
ATOM     42  C   UNL     1       7.927 -10.855   2.246  1.00  0.00     0.041 A 
ATOM     43  F   UNL     1       7.386 -10.112   4.400  1.00  0.00    -0.206 F 
ATOM     44  C   UNL     1       8.357 -10.589   0.950  1.00  0.00     0.022 A 
BRANCH  41  45
ATOM     45  S   UNL     1       9.132  -8.869  -1.103  1.00  0.00     0.124 S 
ATOM     46  O   UNL     1       8.077  -7.898  -1.381  1.00  0.00    -0.237 OA
ATOM     47  O   UNL     1      10.488  -8.335  -1.032  1.00  0.00    -0.237 OA
ATOM     48  O   UNL     1       8.999 -10.142  -1.807  1.00  0.00    -0.744 OA
ENDBRANCH  41  45
ENDBRANCH  24  38
BRANCH  25  49
ATOM     49  C   UNL     1       7.057  -0.622   9.105  1.00  0.00     0.023 A 
ATOM     50  C   UNL     1       8.125   0.176   9.547  1.00  0.00     0.031 A 
ATOM     51  C   UNL     1       5.780  -0.350   9.637  1.00  0.00     0.131 A 
ATOM     52  C   UNL     1       7.908   1.157  10.531  1.00  0.00     0.055 A 
ATOM     53  C   UNL     1       5.558   0.672  10.560  1.00  0.00     0.041 A 
ATOM     54  F   UNL     1       4.718  -1.085   9.269  1.00  0.00    -0.206 F 
ATOM     55  C   UNL     1       6.630   1.421  11.028  1.00  0.00     0.022 A 
BRANCH  52  56
ATOM     56  S   UNL     1       9.345   1.996  11.257  1.00  0.00     0.124 S 
ATOM     57  O   UNL     1      10.159   0.868  11.694  1.00  0.00    -0.237 OA
ATOM     58  O   UNL     1       9.857   2.756  10.122  1.00  0.00    -0.237 OA
ATOM     59  O   UNL     1       8.763   2.798  12.332  1.00  0.00    -0.744 OA
ENDBRANCH  52  56
ENDBRANCH  25  49
BRANCH  37  60
ATOM     60  C   UNL     1      10.857  -6.471   9.398  1.00  0.00     0.023 A 
ATOM     61  C   UNL     1      10.437  -6.790  10.700  1.00  0.00     0.031 A 
ATOM     62  C   UNL     1      12.219  -6.609   9.083  1.00  0.00     0.131 A 
ATOM     63  C   UNL     1      11.384  -7.158  11.663  1.00  0.00     0.055 A 
ATOM     64  C   UNL     1      13.146  -7.050  10.026  1.00  0.00     0.041 A 
ATOM     65  F   UNL     1      12.670  -6.315   7.853  1.00  0.00    -0.206 F 
ATOM     66  C   UNL     1      12.733  -7.310  11.330  1.00  0.00     0.022 A 
BRANCH  63  67
ATOM     67  S   UNL     1      10.847  -7.315  13.387  1.00  0.00     0.124 S 
ATOM     68  O   UNL     1      10.287  -5.994  13.650  1.00  0.00    -0.237 OA
ATOM     69  O   UNL     1       9.887  -8.412  13.316  1.00  0.00    -0.237 OA
ATOM     70  O   UNL     1      12.084  -7.619  14.104  1.00  0.00    -0.744 OA
ENDBRANCH  63  67
ENDBRANCH  37  60
ENDBRANCH  11  12
ENDBRANCH   4   6
ENDBRANCH   3   4
ENDBRANCH   2   3
ENDBRANCH   1   2
BRANCH   1  71
ATOM     71  O   UNL     1       4.037   1.516   0.374  1.00  0.00    -0.374 OA
BRANCH  71  72
ATOM     72  C   UNL     1       2.734   1.901   0.822  1.00  0.00     0.202 C 
BRANCH  72  73
ATOM     73  C   UNL     1       2.869   3.164   1.674  1.00  0.00     0.261 C 
BRANCH  73  74
ATOM     74  O   UNL     1       3.362   4.204   0.814  1.00  0.00    -0.460 OA
BRANCH  74  75
ATOM     75  C   UNL     1       4.718   4.235   0.665  1.00  0.00     0.340 C 
ATOM     76  O   UNL     1       5.539   3.844   1.461  1.00  0.00    -0.246 OA
BRANCH  75  77
ATOM     77  C   UNL     1       5.039   4.652  -0.734  1.00  0.00     0.083 A 
ATOM     78  C   UNL     1       6.234   4.135  -1.265  1.00  0.00     0.018 A 
ATOM     79  C   UNL     1       4.204   5.464  -1.534  1.00  0.00     0.056 A 
ATOM     80  C   UNL     1       6.604   4.414  -2.578  1.00  0.00     0.001 A 
ATOM     81  C   UNL     1       4.617   5.775  -2.836  1.00  0.00     0.027 A 
ATOM     82  C   UNL     1       5.805   5.247  -3.354  1.00  0.00     0.002 A 
BRANCH  79  83
ATOM     83  N   UNL     1       2.920   5.819  -1.068  1.00  0.00    -0.321 N 
ATOM     84  C   UNL     1       2.003   6.734  -1.483  1.00  0.00     0.263 C 
ATOM     85  H   UNL     1       2.628   5.298  -0.285  1.00  0.00     0.170 HD
ATOM     86  O   UNL     1       0.813   6.560  -1.225  1.00  0.00    -0.269 OA
BRANCH  84  87
ATOM     87  C   UNL     1       2.505   8.003  -2.103  1.00  0.00     0.126 A 
ATOM     88  C   UNL     1       1.588   8.868  -2.592  1.00  0.00     0.033 A 
ATOM     89  C   UNL     1       3.422   8.762  -1.206  1.00  0.00     0.349 A 
ATOM     90  C   UNL     1       0.783   9.497  -1.520  1.00  0.00     0.021 A 
ATOM     91  O   UNL     1       2.763   9.343  -0.117  1.00  0.00    -0.421 OA
ATOM     92  O   UNL     1       4.623   8.865  -1.407  1.00  0.00    -0.245 OA
ATOM     93  C   UNL     1      -0.531   9.911  -1.716  1.00  0.00     0.032 A 
ATOM     94  C   UNL     1       1.385   9.646  -0.258  1.00  0.00     0.157 A 
ATOM     95  C   UNL     1      -1.244  10.434  -0.635  1.00  0.00     0.043 A 
ATOM     96  C   UNL     1       0.659  10.133   0.826  1.00  0.00     0.085 A 
ATOM     97  Cl  UNL     1      -2.860  10.979  -0.874  1.00  0.00    -0.084 Cl
ATOM     98  C   UNL     1      -0.666  10.527   0.635  1.00  0.00     0.045 A 
ATOM     99  Cl  UNL     1       1.354  10.256   2.395  1.00  0.00    -0.080 Cl
ENDBRANCH  84  87
ENDBRANCH  79  83
ENDBRANCH  75  77
ENDBRANCH  74  75
ENDBRANCH  73  74
ENDBRANCH  72  73
ENDBRANCH  71  72
ENDBRANCH   1  71
TORSDOF 19
