REMARK SMILES Cc1[nH]c2c(C(=O)N3CC[C@H](O)C[C@@H]3C(=O)OCCOCCOC(=O)c3ccc(-c4c5nc(c(-c6cc(S(=O)(=O)[O-])ccc6F)c6ccc([nH]6)c(-c6cc(S(=O)(=O)[O-])ccc6F)c6nc(c(-c7cc(S(=O)(=O)[O-])ccc7F)c7ccc4[nH]7)C=C6)C=C5)cc3)cccc2c1C
REMARK SMILES IDX 21 1 20 2 19 3 18 4 17 5 15 6 16 7 14 8 8 9 9 10 10 11 13 12
REMARK SMILES IDX 11 13 6 14 7 15 5 16 1 17 2 18 3 19 93 20 4 21 92 23 94 24
REMARK SMILES IDX 91 25 89 26 90 27 12 28 22 30 23 31 24 32 25 33 26 34 27 35
REMARK SMILES IDX 88 36 28 37 87 38 29 39 30 40 31 41 81 42 32 43 86 44 80 45
REMARK SMILES IDX 82 46 33 47 85 48 79 49 78 50 34 52 66 53 46 54 65 55 47 56
REMARK SMILES IDX 50 57 64 58 83 59 48 60 49 61 63 63 84 64 51 65 35 66 36 67
REMARK SMILES IDX 44 68 37 69 43 70 45 71 42 72 38 73 39 74 40 75 41 76 67 77
REMARK SMILES IDX 68 78 76 79 69 80 75 81 77 82 74 83 70 84 71 85 72 86 73 87
REMARK SMILES IDX 52 88 53 89 61 90 54 91 60 92 62 93 59 94 55 95 56 96 57 97
REMARK SMILES IDX 58 98
REMARK H PARENT 3 22 12 29 82 51 50 62
REMARK Flexibility Score: inf
ROOT
ATOM      1  C   UNL     1      -2.440  -6.657   2.512  1.00  0.00     0.202 C 
ENDROOT
BRANCH   1   2
ATOM      2  O   UNL     1      -3.224  -5.662   3.165  1.00  0.00    -0.374 OA
BRANCH   2   3
ATOM      3  C   UNL     1      -3.652  -4.564   2.364  1.00  0.00     0.202 C 
BRANCH   3   4
ATOM      4  C   UNL     1      -2.643  -3.426   2.188  1.00  0.00     0.261 C 
BRANCH   4   5
ATOM      5  O   UNL     1      -1.554  -3.759   1.293  1.00  0.00    -0.462 OA
BRANCH   5   6
ATOM      6  C   UNL     1      -0.398  -4.154   1.909  1.00  0.00     0.329 C 
ATOM      7  O   UNL     1      -0.285  -4.329   3.117  1.00  0.00    -0.250 OA
BRANCH   6   8
ATOM      8  C   UNL     1       0.719  -4.495   0.909  1.00  0.00     0.198 C 
ATOM      9  N   UNL     1       0.862  -3.483  -0.147  1.00  0.00    -0.325 N 
ATOM     10  C   UNL     1       0.175  -3.648  -1.430  1.00  0.00     0.123 C 
ATOM     11  C   UNL     1       0.338  -5.062  -1.969  1.00  0.00     0.053 C 
ATOM     12  C   UNL     1       0.674  -5.929   0.380  1.00  0.00     0.069 C 
ATOM     13  C   UNL     1      -0.089  -6.093  -0.931  1.00  0.00     0.118 C 
BRANCH   9  14
ATOM     14  C   UNL     1       1.921  -2.596   0.005  1.00  0.00     0.256 C 
ATOM     15  O   UNL     1       3.029  -2.987   0.372  1.00  0.00    -0.269 OA
BRANCH  14  16
ATOM     16  C   UNL     1       1.673  -1.138  -0.123  1.00  0.00     0.064 A 
ATOM     17  C   UNL     1      -3.266  -0.457  -0.194  1.00  0.00     0.064 C 
ATOM     18  C   UNL     1      -1.825  -0.107  -0.089  1.00  0.00     0.016 A 
ATOM     19  N   UNL     1      -0.862  -1.068   0.043  1.00  0.00    -0.358 N 
ATOM     20  C   UNL     1      -1.182   1.117  -0.073  1.00  0.00    -0.023 A 
ATOM     21  C   UNL     1       0.400  -0.536  -0.075  1.00  0.00     0.059 A 
ATOM     22  H   UNL     1      -1.048  -2.022   0.203  1.00  0.00     0.166 HD
ATOM     23  C   UNL     1       0.227   0.850  -0.086  1.00  0.00     0.003 A 
ATOM     24  C   UNL     1      -1.820   2.460  -0.080  1.00  0.00     0.047 C 
ATOM     25  C   UNL     1       1.370   1.676  -0.106  1.00  0.00     0.010 A 
ATOM     26  C   UNL     1       2.789  -0.282  -0.149  1.00  0.00     0.016 A 
ATOM     27  C   UNL     1       2.643   1.101  -0.136  1.00  0.00     0.002 A 
ENDBRANCH  14  16
ENDBRANCH   9  14
BRANCH  13  28
ATOM     28  O   UNL     1      -1.492  -6.044  -0.723  1.00  0.00    -0.393 OA
ATOM     29  H   UNL     1      -1.737  -5.173  -0.374  1.00  0.00     0.210 HD
ENDBRANCH  13  28
ENDBRANCH   6   8
ENDBRANCH   5   6
ENDBRANCH   4   5
ENDBRANCH   3   4
ENDBRANCH   2   3
ENDBRANCH   1   2
BRANCH   1  30
ATOM     30  C   UNL     1      -3.208  -7.721   1.721  1.00  0.00     0.261 C 
BRANCH  30  31
ATOM     31  O   UNL     1      -3.785  -7.173   0.521  1.00  0.00    -0.460 OA
BRANCH  31  32
ATOM     32  C   UNL     1      -5.111  -6.922   0.575  1.00  0.00     0.338 C 
ATOM     33  O   UNL     1      -5.862  -7.185   1.503  1.00  0.00    -0.246 OA
BRANCH  32  34
ATOM     34  C   UNL     1      -5.516  -6.071  -0.569  1.00  0.00     0.060 A 
ATOM     35  C   UNL     1      -6.416  -5.032  -0.301  1.00  0.00     0.016 A 
ATOM     36  C   UNL     1      -5.074  -6.292  -1.877  1.00  0.00     0.016 A 
ATOM     37  C   UNL     1      -6.944  -4.272  -1.342  1.00  0.00     0.010 A 
ATOM     38  C   UNL     1      -5.608  -5.526  -2.925  1.00  0.00     0.010 A 
ATOM     39  C   UNL     1      -6.584  -4.545  -2.668  1.00  0.00    -0.014 A 
BRANCH  39  40
ATOM     40  C   UNL     1      -7.364  -3.920  -3.772  1.00  0.00     0.031 A 
ATOM     41  C   UNL     1      -8.400  -4.746  -4.493  1.00  0.00     0.074 A 
ATOM     42  C   UNL     1      -7.217  -2.618  -4.080  1.00  0.00     0.049 A 
ATOM     43  N   UNL     1      -9.202  -4.407  -5.470  1.00  0.00    -0.248 NA
ATOM     44  C   UNL     1      -8.551  -6.139  -4.048  1.00  0.00     0.031 C 
ATOM     45  C   UNL     1      -6.295  -1.694  -3.421  1.00  0.00     0.029 A 
ATOM     46  N   UNL     1      -7.851  -1.843  -5.021  1.00  0.00    -0.354 N 
ATOM     47  C   UNL     1      -9.953  -5.543  -5.757  1.00  0.00     0.074 A 
ATOM     48  C   UNL     1      -9.474  -6.592  -4.883  1.00  0.00     0.031 C 
ATOM     49  C   UNL     1      -6.428  -0.476  -3.973  1.00  0.00     0.029 A 
ATOM     50  C   UNL     1      -7.412  -0.540  -5.054  1.00  0.00     0.049 A 
ATOM     51  H   UNL     1      -8.554  -2.189  -5.617  1.00  0.00     0.167 HD
ATOM     52  C   UNL     1     -10.960  -5.695  -6.654  1.00  0.00     0.034 A 
ATOM     53  C   UNL     1      -7.748   0.479  -5.873  1.00  0.00     0.034 A 
ATOM     54  C   UNL     1     -11.426  -4.646  -7.529  1.00  0.00     0.049 A 
ATOM     55  C   UNL     1      -8.793   0.254  -6.942  1.00  0.00     0.074 A 
ATOM     56  C   UNL     1     -12.443  -4.697  -8.468  1.00  0.00     0.029 A 
ATOM     57  N   UNL     1     -10.902  -3.362  -7.587  1.00  0.00    -0.354 N 
ATOM     58  N   UNL     1      -9.494  -0.825  -7.202  1.00  0.00    -0.248 NA
ATOM     59  C   UNL     1      -9.096   1.391  -7.824  1.00  0.00     0.031 C 
ATOM     60  C   UNL     1     -12.476  -3.477  -9.149  1.00  0.00     0.029 A 
ATOM     61  C   UNL     1     -11.546  -2.627  -8.572  1.00  0.00     0.049 A 
ATOM     62  H   UNL     1     -10.178  -3.022  -7.013  1.00  0.00     0.167 HD
ATOM     63  C   UNL     1     -10.346  -0.483  -8.252  1.00  0.00     0.074 A 
ATOM     64  C   UNL     1     -10.080   0.905  -8.566  1.00  0.00     0.031 C 
ATOM     65  C   UNL     1     -11.270  -1.245  -8.891  1.00  0.00     0.034 A 
BRANCH  52  66
ATOM     66  C   UNL     1     -11.590  -7.064  -6.768  1.00  0.00     0.023 A 
ATOM     67  C   UNL     1     -12.287  -7.652  -5.697  1.00  0.00     0.031 A 
ATOM     68  C   UNL     1     -11.478  -7.800  -7.962  1.00  0.00     0.131 A 
ATOM     69  C   UNL     1     -12.782  -8.959  -5.818  1.00  0.00     0.055 A 
ATOM     70  C   UNL     1     -12.048  -9.066  -8.104  1.00  0.00     0.041 A 
ATOM     71  F   UNL     1     -10.804  -7.302  -9.010  1.00  0.00    -0.206 F 
ATOM     72  C   UNL     1     -12.692  -9.660  -7.023  1.00  0.00     0.022 A 
BRANCH  69  73
ATOM     73  S   UNL     1     -13.411  -9.787  -4.332  1.00  0.00     0.124 S 
ATOM     74  O   UNL     1     -12.253  -9.719  -3.444  1.00  0.00    -0.237 OA
ATOM     75  O   UNL     1     -14.550  -8.954  -3.964  1.00  0.00    -0.237 OA
ATOM     76  O   UNL     1     -13.746 -11.130  -4.804  1.00  0.00    -0.744 OA
ENDBRANCH  69  73
ENDBRANCH  52  66
BRANCH  53  77
ATOM     77  C   UNL     1      -7.066   1.802  -5.754  1.00  0.00     0.023 A 
ATOM     78  C   UNL     1      -7.787   2.969  -5.453  1.00  0.00     0.031 A 
ATOM     79  C   UNL     1      -5.688   1.928  -6.008  1.00  0.00     0.131 A 
ATOM     80  C   UNL     1      -7.139   4.214  -5.463  1.00  0.00     0.055 A 
ATOM     81  C   UNL     1      -5.037   3.161  -5.957  1.00  0.00     0.041 A 
ATOM     82  F   UNL     1      -4.951   0.847  -6.309  1.00  0.00    -0.206 F 
ATOM     83  C   UNL     1      -5.766   4.316  -5.697  1.00  0.00     0.022 A 
BRANCH  80  84
ATOM     84  S   UNL     1      -8.139   5.715  -5.265  1.00  0.00     0.124 S 
ATOM     85  O   UNL     1      -9.069   5.600  -6.382  1.00  0.00    -0.237 OA
ATOM     86  O   UNL     1      -8.706   5.527  -3.934  1.00  0.00    -0.237 OA
ATOM     87  O   UNL     1      -7.158   6.793  -5.376  1.00  0.00    -0.744 OA
ENDBRANCH  80  84
ENDBRANCH  53  77
BRANCH  65  88
ATOM     88  C   UNL     1     -12.102  -0.579  -9.964  1.00  0.00     0.023 A 
ATOM     89  C   UNL     1     -11.534  -0.097 -11.157  1.00  0.00     0.031 A 
ATOM     90  C   UNL     1     -13.489  -0.421  -9.787  1.00  0.00     0.131 A 
ATOM     91  C   UNL     1     -12.337   0.570 -12.096  1.00  0.00     0.055 A 
ATOM     92  C   UNL     1     -14.294   0.181 -10.755  1.00  0.00     0.041 A 
ATOM     93  F   UNL     1     -14.089  -0.857  -8.667  1.00  0.00    -0.206 F 
ATOM     94  C   UNL     1     -13.716   0.694 -11.912  1.00  0.00     0.022 A 
BRANCH  91  95
ATOM     95  S   UNL     1     -11.539   1.367 -13.517  1.00  0.00     0.124 S 
ATOM     96  O   UNL     1     -10.607   2.283 -12.867  1.00  0.00    -0.237 OA
ATOM     97  O   UNL     1     -10.937   0.234 -14.213  1.00  0.00    -0.237 OA
ATOM     98  O   UNL     1     -12.649   2.007 -14.220  1.00  0.00    -0.744 OA
ENDBRANCH  91  95
ENDBRANCH  65  88
ENDBRANCH  39  40
ENDBRANCH  32  34
ENDBRANCH  31  32
ENDBRANCH  30  31
ENDBRANCH   1  30
TORSDOF 20
