REMARK SMILES Cc1cc(NC(=O)CC2(CC(=O)OCCOCCOC(=O)c3ccc(-c4c5nc(c(-c6cc(S(=O)(=O)[O-])ccc6F)c6ccc([nH]6)c(-c6cc(S(=O)(=O)[O-])ccc6F)c6nc(c(-c7cc(S(=O)(=O)[O-])ccc7F)c7ccc4[nH]7)C=C6)C=C5)cc3)CCCC2)ccn1
REMARK SMILES IDX 15 1 14 2 13 3 11 4 12 5 10 6 9 7 85 8 88 9 86 10 87 11 8 12
REMARK SMILES IDX 6 13 5 14 7 16 4 17 1 18 2 19 3 20 91 21 90 22 89 23 16 24
REMARK SMILES IDX 17 25 18 26 19 27 20 28 21 29 22 30 23 31 84 32 24 33 83 34
REMARK SMILES IDX 25 35 26 36 27 37 77 38 28 39 82 40 76 41 78 42 29 43 81 44
REMARK SMILES IDX 75 45 74 46 30 48 62 49 42 50 61 51 43 52 46 53 60 54 79 55
REMARK SMILES IDX 44 56 45 57 59 59 80 60 47 61 31 62 32 63 40 64 33 65 39 66
REMARK SMILES IDX 41 67 38 68 34 69 35 70 36 71 37 72 63 73 64 74 72 75 65 76
REMARK SMILES IDX 71 77 73 78 70 79 66 80 67 81 68 82 69 83 48 84 49 85 57 86
REMARK SMILES IDX 50 87 56 88 58 89 55 90 51 91 52 92 53 93 54 94
REMARK H PARENT 5 15 78 47 46 58
REMARK Flexibility Score: inf
ROOT
ATOM      1  C   UNL     1      -8.739  -0.548   1.246  1.00  0.00     0.202 C 
ENDROOT
BRANCH   1   2
ATOM      2  C   UNL     1      -8.076  -0.503   2.629  1.00  0.00     0.261 C 
BRANCH   2   3
ATOM      3  O   UNL     1      -6.648  -0.273   2.560  1.00  0.00    -0.463 OA
BRANCH   3   4
ATOM      4  C   UNL     1      -5.851  -1.291   2.974  1.00  0.00     0.306 C 
ATOM      5  O   UNL     1      -6.256  -2.387   3.341  1.00  0.00    -0.252 OA
BRANCH   4   6
ATOM      6  C   UNL     1      -4.385  -0.905   3.056  1.00  0.00     0.130 C 
BRANCH   6   7
ATOM      7  C   UNL     1      -3.624  -0.278   1.846  1.00  0.00    -0.011 C 
ATOM      8  C   UNL     1      -2.185   0.007   2.333  1.00  0.00     0.008 C 
ATOM      9  C   UNL     1      -4.085   1.161   1.514  1.00  0.00     0.008 C 
ATOM     10  C   UNL     1      -2.261   1.308   3.128  1.00  0.00     0.001 C 
ATOM     11  C   UNL     1      -3.453   2.071   2.562  1.00  0.00     0.001 C 
BRANCH   7  12
ATOM     12  C   UNL     1      -3.710  -1.150   0.567  1.00  0.00     0.108 C 
BRANCH  12  13
ATOM     13  C   UNL     1      -2.744  -2.294   0.350  1.00  0.00     0.224 C 
ATOM     14  N   UNL     1      -1.495  -2.146  -0.164  1.00  0.00    -0.326 N 
ATOM     15  H   UNL     1      -1.025  -3.001  -0.295  1.00  0.00     0.169 HD
ATOM     16  O   UNL     1      -3.083  -3.441   0.666  1.00  0.00    -0.275 OA
BRANCH  14  17
ATOM     17  C   UNL     1      -0.733  -1.032  -0.548  1.00  0.00     0.044 A 
ATOM     18  C   UNL     1       2.886  -0.071  -0.060  1.00  0.00     0.067 C 
ATOM     19  C   UNL     1       1.446  -0.023  -0.469  1.00  0.00     0.039 A 
ATOM     20  C   UNL     1       0.641  -1.147  -0.333  1.00  0.00     0.049 A 
ATOM     21  N   UNL     1       0.957   1.174  -0.860  1.00  0.00    -0.261 NA
ATOM     22  C   UNL     1      -0.360   1.242  -1.144  1.00  0.00     0.113 A 
ATOM     23  C   UNL     1      -1.235   0.174  -1.020  1.00  0.00     0.046 A 
ENDBRANCH  14  17
ENDBRANCH  12  13
ENDBRANCH   7  12
ENDBRANCH   6   7
ENDBRANCH   4   6
ENDBRANCH   3   4
ENDBRANCH   2   3
ENDBRANCH   1   2
BRANCH   1  24
ATOM     24  O   UNL     1      -8.555  -1.746   0.485  1.00  0.00    -0.374 OA
BRANCH  24  25
ATOM     25  C   UNL     1      -7.262  -1.919  -0.082  1.00  0.00     0.202 C 
BRANCH  25  26
ATOM     26  C   UNL     1      -7.021  -1.260  -1.444  1.00  0.00     0.261 C 
BRANCH  26  27
ATOM     27  O   UNL     1      -7.114   0.174  -1.358  1.00  0.00    -0.460 OA
BRANCH  27  28
ATOM     28  C   UNL     1      -8.245   0.684  -1.902  1.00  0.00     0.338 C 
ATOM     29  O   UNL     1      -9.079   0.074  -2.561  1.00  0.00    -0.246 OA
BRANCH  28  30
ATOM     30  C   UNL     1      -8.469   2.062  -1.433  1.00  0.00     0.060 A 
ATOM     31  C   UNL     1      -9.725   2.340  -0.878  1.00  0.00     0.016 A 
ATOM     32  C   UNL     1      -7.523   3.078  -1.592  1.00  0.00     0.016 A 
ATOM     33  C   UNL     1     -10.068   3.645  -0.545  1.00  0.00     0.010 A 
ATOM     34  C   UNL     1      -7.873   4.394  -1.262  1.00  0.00     0.010 A 
ATOM     35  C   UNL     1      -9.163   4.688  -0.780  1.00  0.00    -0.014 A 
BRANCH  35  36
ATOM     36  C   UNL     1      -9.652   6.087  -0.686  1.00  0.00     0.031 A 
ATOM     37  C   UNL     1     -10.015   6.813  -1.955  1.00  0.00     0.074 A 
ATOM     38  C   UNL     1      -9.851   6.669   0.510  1.00  0.00     0.049 A 
ATOM     39  N   UNL     1     -10.473   8.027  -2.117  1.00  0.00    -0.248 NA
ATOM     40  C   UNL     1      -9.838   6.065  -3.209  1.00  0.00     0.031 C 
ATOM     41  C   UNL     1      -9.597   6.039   1.805  1.00  0.00     0.029 A 
ATOM     42  N   UNL     1     -10.324   7.917   0.831  1.00  0.00    -0.354 N 
ATOM     43  C   UNL     1     -10.636   8.191  -3.489  1.00  0.00     0.074 A 
ATOM     44  C   UNL     1     -10.187   6.966  -4.114  1.00  0.00     0.031 C 
ATOM     45  C   UNL     1      -9.917   6.905   2.781  1.00  0.00     0.029 A 
ATOM     46  C   UNL     1     -10.359   8.163   2.183  1.00  0.00     0.049 A 
ATOM     47  H   UNL     1     -10.611   8.574   0.156  1.00  0.00     0.167 HD
ATOM     48  C   UNL     1     -11.127   9.261  -4.163  1.00  0.00     0.034 A 
ATOM     49  C   UNL     1     -10.688   9.284   2.859  1.00  0.00     0.034 A 
ATOM     50  C   UNL     1     -11.564  10.478  -3.522  1.00  0.00     0.049 A 
ATOM     51  C   UNL     1     -11.141  10.497   2.082  1.00  0.00     0.074 A 
ATOM     52  C   UNL     1     -12.082  11.621  -4.104  1.00  0.00     0.029 A 
ATOM     53  N   UNL     1     -11.523  10.715  -2.153  1.00  0.00    -0.354 N 
ATOM     54  N   UNL     1     -11.288  10.641   0.784  1.00  0.00    -0.248 NA
ATOM     55  C   UNL     1     -11.481  11.695   2.860  1.00  0.00     0.031 C 
ATOM     56  C   UNL     1     -12.279  12.575  -3.100  1.00  0.00     0.029 A 
ATOM     57  C   UNL     1     -11.971  11.999  -1.878  1.00  0.00     0.049 A 
ATOM     58  H   UNL     1     -11.221  10.067  -1.477  1.00  0.00     0.167 HD
ATOM     59  C   UNL     1     -11.771  11.934   0.597  1.00  0.00     0.074 A 
ATOM     60  C   UNL     1     -11.900  12.522   1.914  1.00  0.00     0.031 C 
ATOM     61  C   UNL     1     -12.086  12.576  -0.558  1.00  0.00     0.034 A 
BRANCH  48  62
ATOM     62  C   UNL     1     -11.156   9.180  -5.671  1.00  0.00     0.023 A 
ATOM     63  C   UNL     1     -11.948   8.238  -6.352  1.00  0.00     0.031 A 
ATOM     64  C   UNL     1     -10.356  10.043  -6.441  1.00  0.00     0.131 A 
ATOM     65  C   UNL     1     -11.868   8.135  -7.750  1.00  0.00     0.055 A 
ATOM     66  C   UNL     1     -10.344   9.991  -7.836  1.00  0.00     0.041 A 
ATOM     67  F   UNL     1      -9.559  10.947  -5.848  1.00  0.00    -0.206 F 
ATOM     68  C   UNL     1     -11.091   9.022  -8.498  1.00  0.00     0.022 A 
BRANCH  65  69
ATOM     69  S   UNL     1     -12.676   6.730  -8.565  1.00  0.00     0.124 S 
ATOM     70  O   UNL     1     -12.035   5.596  -7.903  1.00  0.00    -0.237 OA
ATOM     71  O   UNL     1     -14.082   6.947  -8.245  1.00  0.00    -0.237 OA
ATOM     72  O   UNL     1     -12.323   6.901  -9.973  1.00  0.00    -0.744 OA
ENDBRANCH  65  69
ENDBRANCH  48  62
BRANCH  49  73
ATOM     73  C   UNL     1     -10.562   9.334   4.345  1.00  0.00     0.023 A 
ATOM     74  C   UNL     1     -11.679   9.554   5.167  1.00  0.00     0.031 A 
ATOM     75  C   UNL     1      -9.303   9.216   4.963  1.00  0.00     0.131 A 
ATOM     76  C   UNL     1     -11.509   9.695   6.554  1.00  0.00     0.055 A 
ATOM     77  C   UNL     1      -9.149   9.299   6.348  1.00  0.00     0.041 A 
ATOM     78  F   UNL     1      -8.201   9.009   4.226  1.00  0.00    -0.206 F 
ATOM     79  C   UNL     1     -10.255   9.554   7.151  1.00  0.00     0.022 A 
BRANCH  76  80
ATOM     80  S   UNL     1     -12.944  10.159   7.562  1.00  0.00     0.124 S 
ATOM     81  O   UNL     1     -13.348  11.416   6.943  1.00  0.00    -0.237 OA
ATOM     82  O   UNL     1     -13.838   9.024   7.356  1.00  0.00    -0.237 OA
ATOM     83  O   UNL     1     -12.389  10.276   8.909  1.00  0.00    -0.744 OA
ENDBRANCH  76  80
ENDBRANCH  49  73
BRANCH  61  84
ATOM     84  C   UNL     1     -12.653  13.971  -0.440  1.00  0.00     0.023 A 
ATOM     85  C   UNL     1     -11.887  15.047   0.043  1.00  0.00     0.031 A 
ATOM     86  C   UNL     1     -13.985  14.225  -0.816  1.00  0.00     0.131 A 
ATOM     87  C   UNL     1     -12.476  16.313   0.191  1.00  0.00     0.055 A 
ATOM     88  C   UNL     1     -14.545  15.500  -0.728  1.00  0.00     0.041 A 
ATOM     89  F   UNL     1     -14.764  13.235  -1.282  1.00  0.00    -0.206 F 
ATOM     90  C   UNL     1     -13.793  16.550  -0.209  1.00  0.00     0.022 A 
BRANCH  87  91
ATOM     91  S   UNL     1     -11.525  17.626   1.004  1.00  0.00     0.124 S 
ATOM     92  O   UNL     1     -11.232  17.029   2.303  1.00  0.00    -0.237 OA
ATOM     93  O   UNL     1     -10.386  17.789   0.106  1.00  0.00    -0.237 OA
ATOM     94  O   UNL     1     -12.454  18.754   1.035  1.00  0.00    -0.744 OA
ENDBRANCH  87  91
ENDBRANCH  61  84
ENDBRANCH  35  36
ENDBRANCH  28  30
ENDBRANCH  27  28
ENDBRANCH  26  27
ENDBRANCH  25  26
ENDBRANCH  24  25
ENDBRANCH   1  24
TORSDOF 21
