REMARK SMILES Cc1coc2c(C)c3oc(=O)c(CC(=O)NCC(=O)N[C@H](C(=O)OCCOCCOC(=O)c4ccc(-c5c6nc(c(-c7cc(S(=O)(=O)[O-])ccc7F)c7ccc([nH]7)c(-c7cc(S(=O)(=O)[O-])ccc7F)c7nc(c(-c8cc(S(=O)(=O)[O-])ccc8F)c8ccc5[nH]8)C=C7)C=C6)cc4)C(C)C)c(C)c3cc12
REMARK SMILES IDX 26 1 25 2 24 3 22 4 23 5 21 6 20 7 18 8 19 9 17 11 16 12
REMARK SMILES IDX 14 13 15 14 13 16 12 17 1 18 2 19 3 20 103 21 4 22 5 23
REMARK SMILES IDX 102 24 6 25 101 26 7 27 8 28 99 29 9 30 100 31 10 32 11 33
REMARK SMILES IDX 96 34 97 35 98 36 27 37 28 38 29 39 30 40 31 41 32 42 33 43
REMARK SMILES IDX 34 44 95 45 35 46 94 47 36 48 37 49 38 50 88 51 39 52 93 53
REMARK SMILES IDX 87 54 89 55 40 56 92 57 86 58 85 59 41 61 73 62 53 63 72 64
REMARK SMILES IDX 54 65 57 66 71 67 90 68 55 69 56 70 70 72 91 73 58 74 42 75
REMARK SMILES IDX 43 76 51 77 44 78 50 79 52 80 49 81 45 82 46 83 47 84 48 85
REMARK SMILES IDX 74 86 75 87 83 88 76 89 82 90 84 91 81 92 77 93 78 94 79 95
REMARK SMILES IDX 80 96 59 97 60 98 68 99 61 100 67 101 69 102 66 103 62 104
REMARK SMILES IDX 63 105 64 106 65 107
REMARK H PARENT 20 10 16 15 89 60 57 71
REMARK Flexibility Score: inf
ROOT
ATOM      1  C   UNL     1       6.052   5.944   3.620  1.00  0.00     0.202 C 
ENDROOT
BRANCH   1   2
ATOM      2  C   UNL     1       6.540   4.984   2.522  1.00  0.00     0.261 C 
BRANCH   2   3
ATOM      3  O   UNL     1       5.495   4.572   1.609  1.00  0.00    -0.462 OA
BRANCH   3   4
ATOM      4  C   UNL     1       5.075   3.262   1.583  1.00  0.00     0.328 C 
ATOM      5  O   UNL     1       5.426   2.385   2.356  1.00  0.00    -0.250 OA
BRANCH   4   6
ATOM      6  C   UNL     1       4.213   3.040   0.313  1.00  0.00     0.194 C 
BRANCH   6   7
ATOM      7  N   UNL     1       3.683   1.720  -0.161  1.00  0.00    -0.341 N 
ATOM      8  C   UNL     1       2.681   1.381  -1.065  1.00  0.00     0.240 C 
ATOM      9  O   UNL     1       2.895   0.303  -1.649  1.00  0.00    -0.273 OA
ATOM     10  H   UNL     1       4.130   0.942   0.245  1.00  0.00     0.164 HD
BRANCH   8  11
ATOM     11  C   UNL     1       1.350   2.250  -1.577  1.00  0.00     0.216 C 
BRANCH  11  12
ATOM     12  N   UNL     1       0.410   3.074  -0.729  1.00  0.00    -0.347 N 
ATOM     13  C   UNL     1      -0.118   4.333  -0.595  1.00  0.00     0.225 C 
ATOM     14  O   UNL     1      -0.791   4.455   0.446  1.00  0.00    -0.275 OA
ATOM     15  H   UNL     1       0.046   2.502  -0.015  1.00  0.00     0.164 HD
BRANCH  13  16
ATOM     16  C   UNL     1      -0.067   5.590  -1.554  1.00  0.00     0.143 C 
BRANCH  16  17
ATOM     17  C   UNL     1       1.126   6.582  -1.645  1.00  0.00     0.051 A 
ATOM     18  C   UNL     1       6.453   9.330   2.370  1.00  0.00     0.048 C 
ATOM     19  C   UNL     1       6.387   8.961   0.935  1.00  0.00    -0.005 A 
ATOM     20  C   UNL     1       7.495   8.923   0.111  1.00  0.00     0.199 A 
ATOM     21  C   UNL     1       5.266   8.581   0.109  1.00  0.00     0.024 A 
ATOM     22  O   UNL     1       7.160   8.518  -1.131  1.00  0.00    -0.464 OA
ATOM     23  C   UNL     1       5.814   8.316  -1.140  1.00  0.00     0.140 A 
ATOM     24  C   UNL     1       3.859   8.382   0.259  1.00  0.00     0.024 A 
ATOM     25  C   UNL     1       5.099   7.870  -2.252  1.00  0.00     0.036 A 
ATOM     26  C   UNL     1       3.057   7.928  -0.830  1.00  0.00     0.022 A 
ATOM     27  C   UNL     1       5.800   7.503  -3.521  1.00  0.00     0.052 C 
ATOM     28  C   UNL     1       3.706   7.729  -2.052  1.00  0.00     0.145 A 
ATOM     29  C   UNL     1       1.637   7.425  -0.705  1.00  0.00    -0.029 A 
ATOM     30  O   UNL     1       2.973   7.227  -3.149  1.00  0.00    -0.422 OA
ATOM     31  C   UNL     1       0.903   7.775   0.556  1.00  0.00     0.046 C 
ATOM     32  C   UNL     1       1.752   6.595  -3.005  1.00  0.00     0.340 A 
ATOM     33  O   UNL     1       1.234   6.027  -3.961  1.00  0.00    -0.246 OA
ENDBRANCH  16  17
ENDBRANCH  13  16
ENDBRANCH  11  12
ENDBRANCH   8  11
ENDBRANCH   6   7
BRANCH   6  34
ATOM     34  C   UNL     1       3.069   3.990   0.182  1.00  0.00     0.017 C 
ATOM     35  C   UNL     1       2.647   4.955   1.254  1.00  0.00     0.010 C 
ATOM     36  C   UNL     1       3.230   4.523  -1.224  1.00  0.00     0.010 C 
ENDBRANCH   6  34
ENDBRANCH   4   6
ENDBRANCH   3   4
ENDBRANCH   2   3
ENDBRANCH   1   2
BRANCH   1  37
ATOM     37  O   UNL     1       5.345   5.269   4.663  1.00  0.00    -0.374 OA
BRANCH  37  38
ATOM     38  C   UNL     1       3.951   5.159   4.404  1.00  0.00     0.202 C 
BRANCH  38  39
ATOM     39  C   UNL     1       3.111   6.234   5.075  1.00  0.00     0.261 C 
BRANCH  39  40
ATOM     40  O   UNL     1       3.044   7.412   4.262  1.00  0.00    -0.460 OA
BRANCH  40  41
ATOM     41  C   UNL     1       3.670   8.513   4.744  1.00  0.00     0.338 C 
ATOM     42  O   UNL     1       4.620   8.532   5.499  1.00  0.00    -0.246 OA
BRANCH  41  43
ATOM     43  C   UNL     1       2.979   9.711   4.205  1.00  0.00     0.060 A 
ATOM     44  C   UNL     1       3.434  10.980   4.558  1.00  0.00     0.016 A 
ATOM     45  C   UNL     1       1.842   9.577   3.397  1.00  0.00     0.016 A 
ATOM     46  C   UNL     1       2.713  12.095   4.143  1.00  0.00     0.010 A 
ATOM     47  C   UNL     1       1.166  10.688   2.926  1.00  0.00     0.010 A 
ATOM     48  C   UNL     1       1.562  11.947   3.348  1.00  0.00    -0.014 A 
BRANCH  48  49
ATOM     49  C   UNL     1       0.812  13.139   2.957  1.00  0.00     0.031 A 
ATOM     50  C   UNL     1       1.622  14.184   2.295  1.00  0.00     0.074 A 
ATOM     51  C   UNL     1      -0.517  13.314   3.118  1.00  0.00     0.049 A 
ATOM     52  N   UNL     1       2.083  15.263   2.834  1.00  0.00    -0.248 NA
ATOM     53  C   UNL     1       2.099  13.948   0.925  1.00  0.00     0.031 C 
ATOM     54  C   UNL     1      -1.519  12.309   3.486  1.00  0.00     0.029 A 
ATOM     55  N   UNL     1      -1.270  14.443   2.929  1.00  0.00    -0.354 N 
ATOM     56  C   UNL     1       2.670  15.976   1.799  1.00  0.00     0.074 A 
ATOM     57  C   UNL     1       2.833  15.044   0.713  1.00  0.00     0.031 C 
ATOM     58  C   UNL     1      -2.759  12.814   3.301  1.00  0.00     0.029 A 
ATOM     59  C   UNL     1      -2.641  14.226   2.981  1.00  0.00     0.049 A 
ATOM     60  H   UNL     1      -0.873  15.330   2.770  1.00  0.00     0.167 HD
ATOM     61  C   UNL     1       2.695  17.336   1.833  1.00  0.00     0.034 A 
ATOM     62  C   UNL     1      -3.633  15.138   2.827  1.00  0.00     0.034 A 
ATOM     63  C   UNL     1       2.365  17.833   3.147  1.00  0.00     0.049 A 
ATOM     64  C   UNL     1      -3.097  16.445   3.269  1.00  0.00     0.074 A 
ATOM     65  C   UNL     1       2.999  17.983   4.361  1.00  0.00     0.029 A 
ATOM     66  N   UNL     1       1.020  17.955   3.375  1.00  0.00    -0.354 N 
ATOM     67  N   UNL     1      -2.696  16.678   4.490  1.00  0.00    -0.248 NA
ATOM     68  C   UNL     1      -2.702  17.442   2.281  1.00  0.00     0.031 C 
ATOM     69  C   UNL     1       1.970  18.029   5.351  1.00  0.00     0.029 A 
ATOM     70  C   UNL     1       0.735  17.931   4.717  1.00  0.00     0.049 A 
ATOM     71  H   UNL     1       0.344  18.048   2.666  1.00  0.00     0.167 HD
ATOM     72  C   UNL     1      -1.680  17.599   4.348  1.00  0.00     0.074 A 
ATOM     73  C   UNL     1      -1.838  18.152   3.010  1.00  0.00     0.031 C 
ATOM     74  C   UNL     1      -0.600  17.599   5.178  1.00  0.00     0.034 A 
BRANCH  61  75
ATOM     75  C   UNL     1       2.557  18.233   0.621  1.00  0.00     0.023 A 
ATOM     76  C   UNL     1       2.699  19.623   0.809  1.00  0.00     0.031 A 
ATOM     77  C   UNL     1       2.009  17.833  -0.619  1.00  0.00     0.131 A 
ATOM     78  C   UNL     1       2.269  20.534  -0.173  1.00  0.00     0.055 A 
ATOM     79  C   UNL     1       1.635  18.739  -1.615  1.00  0.00     0.041 A 
ATOM     80  F   UNL     1       1.707  16.558  -0.894  1.00  0.00    -0.206 F 
ATOM     81  C   UNL     1       1.745  20.099  -1.388  1.00  0.00     0.022 A 
BRANCH  78  82
ATOM     82  S   UNL     1       2.292  22.307   0.205  1.00  0.00     0.124 S 
ATOM     83  O   UNL     1       1.411  22.381   1.365  1.00  0.00    -0.237 OA
ATOM     84  O   UNL     1       3.709  22.545   0.456  1.00  0.00    -0.237 OA
ATOM     85  O   UNL     1       1.769  22.920  -1.014  1.00  0.00    -0.744 OA
ENDBRANCH  78  82
ENDBRANCH  61  75
BRANCH  62  86
ATOM     86  C   UNL     1      -4.928  14.974   2.114  1.00  0.00     0.023 A 
ATOM     87  C   UNL     1      -5.937  15.957   2.188  1.00  0.00     0.031 A 
ATOM     88  C   UNL     1      -5.085  13.977   1.127  1.00  0.00     0.131 A 
ATOM     89  C   UNL     1      -7.017  15.941   1.280  1.00  0.00     0.055 A 
ATOM     90  C   UNL     1      -6.162  13.960   0.236  1.00  0.00     0.041 A 
ATOM     91  F   UNL     1      -4.151  13.034   0.931  1.00  0.00    -0.206 F 
ATOM     92  C   UNL     1      -7.124  14.955   0.297  1.00  0.00     0.022 A 
BRANCH  89  93
ATOM     93  S   UNL     1      -8.226  17.302   1.269  1.00  0.00     0.124 S 
ATOM     94  O   UNL     1      -9.142  16.900   2.330  1.00  0.00    -0.237 OA
ATOM     95  O   UNL     1      -7.396  18.470   1.538  1.00  0.00    -0.237 OA
ATOM     96  O   UNL     1      -8.781  17.244  -0.084  1.00  0.00    -0.744 OA
ENDBRANCH  89  93
ENDBRANCH  62  86
BRANCH  74  97
ATOM     97  C   UNL     1      -0.784  17.123   6.591  1.00  0.00     0.023 A 
ATOM     98  C   UNL     1      -1.033  15.793   6.985  1.00  0.00     0.031 A 
ATOM     99  C   UNL     1      -0.629  18.093   7.598  1.00  0.00     0.131 A 
ATOM    100  C   UNL     1      -1.111  15.477   8.357  1.00  0.00     0.055 A 
ATOM    101  C   UNL     1      -0.692  17.775   8.952  1.00  0.00     0.041 A 
ATOM    102  F   UNL     1      -0.380  19.373   7.275  1.00  0.00    -0.206 F 
ATOM    103  C   UNL     1      -0.934  16.462   9.337  1.00  0.00     0.022 A 
BRANCH 100 104
ATOM    104  S   UNL     1      -1.414  13.762   8.895  1.00  0.00     0.124 S 
ATOM    105  O   UNL     1      -2.733  13.471   8.345  1.00  0.00    -0.237 OA
ATOM    106  O   UNL     1      -0.297  13.034   8.300  1.00  0.00    -0.237 OA
ATOM    107  O   UNL     1      -1.370  13.848  10.356  1.00  0.00    -0.744 OA
ENDBRANCH 100 104
ENDBRANCH  74  97
ENDBRANCH  48  49
ENDBRANCH  41  43
ENDBRANCH  40  41
ENDBRANCH  39  40
ENDBRANCH  38  39
ENDBRANCH  37  38
ENDBRANCH   1  37
TORSDOF 23
