REMARK SMILES O=C(CCn1cc(/C=C\C(=O)c2ccc(F)cc2)c(-c2cccc(Cl)c2)n1)OCCOCCOC(=O)c1ccc(-c2c3nc(c(-c4cc(S(=O)(=O)[O-])ccc4F)c4ccc([nH]4)c(-c4cc(S(=O)(=O)[O-])ccc4F)c4nc(c(-c5cc(S(=O)(=O)[O-])ccc5F)c5ccc2[nH]5)C=C4)C=C3)cc1
REMARK SMILES IDX 30 1 29 2 28 3 2 4 1 5 3 6 4 7 5 8 6 9 27 10 7 11 19 12 8 13
REMARK SMILES IDX 9 14 10 15 11 16 12 17 13 18 18 19 14 20 17 21 15 22 16 23
REMARK SMILES IDX 20 24 21 25 26 26 22 27 24 28 23 29 25 30 31 31 32 32 33 33
REMARK SMILES IDX 34 34 35 35 36 36 37 37 38 38 99 39 39 40 98 41 40 42 41 43
REMARK SMILES IDX 42 44 92 45 43 46 97 47 91 48 93 49 44 50 96 51 90 52 89 53
REMARK SMILES IDX 45 55 77 56 57 57 76 58 58 59 61 60 75 61 94 62 59 63 60 64
REMARK SMILES IDX 74 66 95 67 62 68 46 69 47 70 55 71 48 72 54 73 56 74 53 75
REMARK SMILES IDX 49 76 50 77 51 78 52 79 78 80 79 81 87 82 80 83 86 84 88 85
REMARK SMILES IDX 85 86 81 87 82 88 83 89 84 90 63 91 64 92 72 93 65 94 71 95
REMARK SMILES IDX 73 96 70 97 66 98 67 99 68 100 69 101
REMARK H PARENT 93 54 61 65
REMARK Flexibility Score: inf
ROOT
ATOM      1  C   UNL     1       4.472  -0.336   1.476  1.00  0.00     0.202 C 
ENDROOT
BRANCH   1   2
ATOM      2  C   UNL     1       3.535   0.789   1.007  1.00  0.00     0.261 C 
BRANCH   2   3
ATOM      3  O   UNL     1       2.213   0.472   0.559  1.00  0.00    -0.463 OA
BRANCH   3   4
ATOM      4  C   UNL     1       1.933   0.088  -0.704  1.00  0.00     0.307 C 
ATOM      5  O   UNL     1       0.913   0.485  -1.266  1.00  0.00    -0.252 OA
BRANCH   4   6
ATOM      6  C   UNL     1       2.797  -0.954  -1.354  1.00  0.00     0.146 C 
BRANCH   6   7
ATOM      7  C   UNL     1       3.615  -0.404  -2.504  1.00  0.00     0.156 C 
BRANCH   7   8
ATOM      8  N   UNL     1       4.698   0.445  -2.046  1.00  0.00    -0.271 N 
ATOM      9  C   UNL     1       4.805   1.804  -2.111  1.00  0.00     0.117 A 
ATOM     10  N   UNL     1       5.680  -0.132  -1.352  1.00  0.00    -0.172 NA
ATOM     11  C   UNL     1       5.912   2.140  -1.349  1.00  0.00     0.021 A 
ATOM     12  C   UNL     1       6.446   0.877  -0.917  1.00  0.00     0.100 A 
BRANCH  11  13
ATOM     13  C   UNL     1       6.332   3.486  -1.077  1.00  0.00     0.016 C 
ATOM     14  C   UNL     1       7.515   4.016  -0.691  1.00  0.00     0.053 C 
BRANCH  14  15
ATOM     15  C   UNL     1       8.915   3.490  -0.379  1.00  0.00     0.185 C 
ATOM     16  O   UNL     1       9.842   4.289  -0.298  1.00  0.00    -0.289 OA
BRANCH  15  17
ATOM     17  C   UNL     1       9.139   1.964  -0.259  1.00  0.00     0.022 A 
ATOM     18  C   UNL     1       8.738   1.410  -1.945  1.00  0.00     0.015 A 
ATOM     19  C   UNL     1       9.131   0.538   1.194  1.00  0.00     0.015 A 
ATOM     20  C   UNL     1       8.261  -0.282  -2.191  1.00  0.00     0.040 A 
ATOM     21  C   UNL     1       8.609  -1.124   0.783  1.00  0.00     0.040 A 
ATOM     22  C   UNL     1       8.175  -1.460  -0.866  1.00  0.00     0.123 A 
ATOM     23  F   UNL     1       7.707  -2.686  -1.147  1.00  0.00    -0.207 F 
ENDBRANCH  15  17
ENDBRANCH  14  15
ENDBRANCH  11  13
BRANCH  12  24
ATOM     24  C   UNL     1       7.744   0.691  -0.093  1.00  0.00     0.004 A 
ATOM     25  C   UNL     1       9.654   0.168  -0.561  1.00  0.00     0.010 A 
ATOM     26  C   UNL     1       7.556   1.885   1.278  1.00  0.00     0.031 A 
ATOM     27  C   UNL     1      11.014   0.972   0.279  1.00  0.00     0.002 A 
ATOM     28  C   UNL     1       9.009   2.582   2.000  1.00  0.00     0.041 A 
ATOM     29  C   UNL     1      10.648   2.153   1.503  1.00  0.00     0.020 A 
ATOM     30  Cl  UNL     1       8.837   3.709   3.293  1.00  0.00    -0.084 Cl
ENDBRANCH  12  24
ENDBRANCH   7   8
ENDBRANCH   6   7
ENDBRANCH   4   6
ENDBRANCH   3   4
ENDBRANCH   2   3
ENDBRANCH   1   2
BRANCH   1  31
ATOM     31  O   UNL     1       4.089  -1.699   1.500  1.00  0.00    -0.374 OA
BRANCH  31  32
ATOM     32  C   UNL     1       2.794  -2.091   1.915  1.00  0.00     0.202 C 
BRANCH  32  33
ATOM     33  C   UNL     1       2.444  -1.878   3.372  1.00  0.00     0.261 C 
BRANCH  33  34
ATOM     34  O   UNL     1       2.767  -0.558   3.768  1.00  0.00    -0.460 OA
BRANCH  34  35
ATOM     35  C   UNL     1       3.989  -0.417   4.341  1.00  0.00     0.338 C 
ATOM     36  O   UNL     1       4.827  -1.284   4.513  1.00  0.00    -0.246 OA
BRANCH  35  37
ATOM     37  C   UNL     1       4.165   1.031   4.666  1.00  0.00     0.060 A 
ATOM     38  C   UNL     1       5.234   1.245   5.525  1.00  0.00     0.016 A 
ATOM     39  C   UNL     1       2.956   1.670   4.908  1.00  0.00     0.016 A 
ATOM     40  C   UNL     1       4.914   1.394   6.859  1.00  0.00     0.010 A 
ATOM     41  C   UNL     1       2.635   1.863   6.223  1.00  0.00     0.010 A 
ATOM     42  C   UNL     1       3.562   1.526   7.216  1.00  0.00    -0.014 A 
BRANCH  42  43
ATOM     43  C   UNL     1       3.167   1.820   8.592  1.00  0.00     0.031 A 
ATOM     44  C   UNL     1       3.576   3.247   8.794  1.00  0.00     0.074 A 
ATOM     45  C   UNL     1       2.469   0.995   9.425  1.00  0.00     0.049 A 
ATOM     46  N   UNL     1       4.723   3.638   9.259  1.00  0.00    -0.248 NA
ATOM     47  C   UNL     1       2.915   4.317   7.999  1.00  0.00     0.031 C 
ATOM     48  C   UNL     1       1.988  -0.383   9.228  1.00  0.00     0.029 A 
ATOM     49  N   UNL     1       1.996   1.250  10.699  1.00  0.00    -0.354 N 
ATOM     50  C   UNL     1       4.655   5.023   9.189  1.00  0.00     0.074 A 
ATOM     51  C   UNL     1       3.800   5.315   8.085  1.00  0.00     0.031 C 
ATOM     52  C   UNL     1       1.090  -0.722  10.197  1.00  0.00     0.029 A 
ATOM     53  C   UNL     1       0.995   0.350  11.175  1.00  0.00     0.049 A 
ATOM     54  H   UNL     1       2.327   2.002  11.241  1.00  0.00     0.167 HD
ATOM     55  C   UNL     1       4.791   5.739  10.339  1.00  0.00     0.034 A 
ATOM     56  C   UNL     1       0.224   0.491  12.318  1.00  0.00     0.034 A 
ATOM     57  C   UNL     1       5.500   4.950  11.323  1.00  0.00     0.049 A 
ATOM     58  C   UNL     1       0.990   1.427  13.188  1.00  0.00     0.074 A 
ATOM     59  C   UNL     1       6.705   4.271  11.335  1.00  0.00     0.029 A 
ATOM     60  N   UNL     1       4.714   4.354  12.278  1.00  0.00    -0.354 N 
ATOM     61  N   UNL     1       2.163   1.115  13.676  1.00  0.00    -0.248 NA
ATOM     62  C   UNL     1       0.743   2.841  12.943  1.00  0.00     0.031 C 
ATOM     63  C   UNL     1       6.428   3.028  11.977  1.00  0.00     0.029 A 
ATOM     64  C   UNL     1       5.128   3.063  12.480  1.00  0.00     0.049 A 
ATOM     65  H   UNL     1       3.966   4.789  12.747  1.00  0.00     0.167 HD
ATOM     66  C   UNL     1       2.960   2.197  13.340  1.00  0.00     0.074 A 
ATOM     67  C   UNL     1       2.020   3.230  12.874  1.00  0.00     0.031 C 
ATOM     68  C   UNL     1       4.301   2.055  13.117  1.00  0.00     0.034 A 
BRANCH  55  69
ATOM     69  C   UNL     1       3.847   6.869  10.720  1.00  0.00     0.023 A 
ATOM     70  C   UNL     1       4.196   7.655  11.827  1.00  0.00     0.031 A 
ATOM     71  C   UNL     1       2.529   7.072  10.226  1.00  0.00     0.131 A 
ATOM     72  C   UNL     1       3.277   8.567  12.381  1.00  0.00     0.055 A 
ATOM     73  C   UNL     1       1.640   8.010  10.748  1.00  0.00     0.041 A 
ATOM     74  F   UNL     1       1.972   6.324   9.271  1.00  0.00    -0.206 F 
ATOM     75  C   UNL     1       2.007   8.759  11.843  1.00  0.00     0.022 A 
BRANCH  72  76
ATOM     76  S   UNL     1       3.749   9.470  13.873  1.00  0.00     0.124 S 
ATOM     77  O   UNL     1       3.925   8.387  14.833  1.00  0.00    -0.237 OA
ATOM     78  O   UNL     1       4.964  10.150  13.436  1.00  0.00    -0.237 OA
ATOM     79  O   UNL     1       2.603  10.344  14.115  1.00  0.00    -0.744 OA
ENDBRANCH  72  76
ENDBRANCH  55  69
BRANCH  56  80
ATOM     80  C   UNL     1      -1.276   0.308  12.534  1.00  0.00     0.023 A 
ATOM     81  C   UNL     1      -1.968   0.506  13.780  1.00  0.00     0.031 A 
ATOM     82  C   UNL     1      -2.103   0.222  11.398  1.00  0.00     0.131 A 
ATOM     83  C   UNL     1      -3.394   0.630  13.823  1.00  0.00     0.055 A 
ATOM     84  C   UNL     1      -3.494   0.371  11.446  1.00  0.00     0.041 A 
ATOM     85  F   UNL     1      -1.578   0.077  10.174  1.00  0.00    -0.206 F 
ATOM     86  C   UNL     1      -4.144   0.588  12.649  1.00  0.00     0.022 A 
BRANCH  83  87
ATOM     87  S   UNL     1      -4.344   0.948  15.374  1.00  0.00     0.124 S 
ATOM     88  O   UNL     1      -4.301  -0.348  16.040  1.00  0.00    -0.237 OA
ATOM     89  O   UNL     1      -3.592   2.027  16.003  1.00  0.00    -0.237 OA
ATOM     90  O   UNL     1      -5.672   1.337  14.891  1.00  0.00    -0.744 OA
ENDBRANCH  83  87
ENDBRANCH  56  80
BRANCH  68  91
ATOM     91  C   UNL     1       5.007   0.773  13.523  1.00  0.00     0.023 A 
ATOM     92  C   UNL     1       4.927  -0.497  12.893  1.00  0.00     0.031 A 
ATOM     93  C   UNL     1       5.985   0.950  14.517  1.00  0.00     0.131 A 
ATOM     94  C   UNL     1       5.831  -1.521  13.277  1.00  0.00     0.055 A 
ATOM     95  C   UNL     1       6.889  -0.048  14.861  1.00  0.00     0.041 A 
ATOM     96  F   UNL     1       6.122   2.141  15.122  1.00  0.00    -0.206 F 
ATOM     97  C   UNL     1       6.816  -1.288  14.244  1.00  0.00     0.022 A 
BRANCH  94  98
ATOM     98  S   UNL     1       5.779  -3.186  12.515  1.00  0.00     0.124 S 
ATOM     99  O   UNL     1       4.422  -3.636  12.801  1.00  0.00    -0.237 OA
ATOM    100  O   UNL     1       6.081  -2.909  11.114  1.00  0.00    -0.237 OA
ATOM    101  O   UNL     1       6.827  -3.924  13.226  1.00  0.00    -0.744 OA
ENDBRANCH  94  98
ENDBRANCH  68  91
ENDBRANCH  42  43
ENDBRANCH  35  37
ENDBRANCH  34  35
ENDBRANCH  33  34
ENDBRANCH  32  33
ENDBRANCH  31  32
ENDBRANCH   1  31
TORSDOF 23
