REMARK SMILES O=C(OCCOCCOC(=O)[C@@H]1[C@H](C(=O)Nc2ccccc2Cc2ccccc2)[C@H]2C=C[C@@H]1O2)c1ccc(-c2c3nc(c(-c4cc(S(=O)(=O)[O-])ccc4F)c4ccc([nH]4)c(-c4cc(S(=O)(=O)[O-])ccc4F)c4nc(c(-c5cc(S(=O)(=O)[O-])ccc5F)c5ccc2[nH]5)C=C4)C=C3)cc1
REMARK SMILES IDX 7 1 6 2 5 3 4 4 3 5 2 6 1 7 35 8 36 9 97 10 37 11 96 12
REMARK SMILES IDX 38 13 39 14 40 15 90 16 41 17 95 18 89 19 91 20 42 21 94 22
REMARK SMILES IDX 88 23 87 24 43 26 75 27 55 28 74 29 56 30 59 31 73 32 92 33
REMARK SMILES IDX 57 34 58 35 72 37 93 38 60 39 44 40 45 41 53 42 46 43 52 44
REMARK SMILES IDX 54 45 51 46 47 47 48 48 49 49 50 50 76 51 77 52 85 53 78 54
REMARK SMILES IDX 84 55 86 56 83 57 79 58 80 59 81 60 82 61 61 62 62 63 70 64
REMARK SMILES IDX 63 65 69 66 71 67 68 68 64 69 65 70 66 71 67 72 8 73 9 74
REMARK SMILES IDX 10 75 11 76 12 77 13 78 33 79 30 80 32 81 34 82 31 83 14 84
REMARK SMILES IDX 15 85 16 86 17 88 18 89 22 90 19 91 21 92 20 93 23 94 24 95
REMARK SMILES IDX 25 96 29 97 26 98 28 99 27 100
REMARK H PARENT 91 25 59 36 16 87
REMARK Flexibility Score: inf
ROOT
ATOM      1  C   UNL     1       1.655   0.507  -2.574  1.00  0.00     0.202 C 
ENDROOT
BRANCH   1   2
ATOM      2  O   UNL     1       2.614   1.351  -1.942  1.00  0.00    -0.374 OA
BRANCH   2   3
ATOM      3  C   UNL     1       3.497   0.712  -1.030  1.00  0.00     0.202 C 
BRANCH   3   4
ATOM      4  C   UNL     1       2.959   0.363   0.374  1.00  0.00     0.261 C 
BRANCH   4   5
ATOM      5  O   UNL     1       1.517   0.441   0.481  1.00  0.00    -0.460 OA
BRANCH   5   6
ATOM      6  C   UNL     1       0.856   1.536   0.959  1.00  0.00     0.338 C 
ATOM      7  O   UNL     1      -0.360   1.559   1.111  1.00  0.00    -0.246 OA
BRANCH   6   8
ATOM      8  C   UNL     1       1.700   2.686   1.323  1.00  0.00     0.060 A 
ATOM      9  C   UNL     1       2.487   3.225   0.324  1.00  0.00     0.016 A 
ATOM     10  C   UNL     1       1.915   3.038   2.651  1.00  0.00     0.016 A 
ATOM     11  C   UNL     1       3.707   3.760   0.674  1.00  0.00     0.010 A 
ATOM     12  C   UNL     1       2.988   3.886   2.954  1.00  0.00     0.010 A 
ATOM     13  C   UNL     1       3.938   4.217   1.969  1.00  0.00    -0.014 A 
BRANCH  13  14
ATOM     14  C   UNL     1       5.135   5.063   2.249  1.00  0.00     0.031 A 
ATOM     15  C   UNL     1       5.913   4.865   3.522  1.00  0.00     0.074 A 
ATOM     16  C   UNL     1       5.508   6.030   1.379  1.00  0.00     0.049 A 
ATOM     17  N   UNL     1       6.658   5.715   4.175  1.00  0.00    -0.248 NA
ATOM     18  C   UNL     1       5.795   3.549   4.168  1.00  0.00     0.031 C 
ATOM     19  C   UNL     1       4.916   6.285   0.058  1.00  0.00     0.029 A 
ATOM     20  N   UNL     1       6.481   6.995   1.471  1.00  0.00    -0.354 N 
ATOM     21  C   UNL     1       7.001   5.083   5.368  1.00  0.00     0.074 A 
ATOM     22  C   UNL     1       6.397   3.767   5.329  1.00  0.00     0.031 C 
ATOM     23  C   UNL     1       5.587   7.255  -0.565  1.00  0.00     0.029 A 
ATOM     24  C   UNL     1       6.490   7.853   0.393  1.00  0.00     0.049 A 
ATOM     25  H   UNL     1       7.106   7.066   2.228  1.00  0.00     0.167 HD
ATOM     26  C   UNL     1       7.722   5.593   6.400  1.00  0.00     0.034 A 
ATOM     27  C   UNL     1       7.048   9.064   0.226  1.00  0.00     0.034 A 
ATOM     28  C   UNL     1       8.341   6.900   6.341  1.00  0.00     0.049 A 
ATOM     29  C   UNL     1       7.789   9.640   1.390  1.00  0.00     0.074 A 
ATOM     30  C   UNL     1       9.086   7.559   7.303  1.00  0.00     0.029 A 
ATOM     31  N   UNL     1       8.297   7.744   5.232  1.00  0.00    -0.354 N 
ATOM     32  N   UNL     1       7.983   9.117   2.580  1.00  0.00    -0.248 NA
ATOM     33  C   UNL     1       8.365  10.971   1.201  1.00  0.00     0.031 C 
ATOM     34  C   UNL     1       9.437   8.818   6.800  1.00  0.00     0.029 A 
ATOM     35  C   UNL     1       8.988   8.917   5.492  1.00  0.00     0.049 A 
ATOM     36  H   UNL     1       7.841   7.536   4.385  1.00  0.00     0.167 HD
ATOM     37  C   UNL     1       8.733  10.051   3.280  1.00  0.00     0.074 A 
ATOM     38  C   UNL     1       8.963  11.158   2.368  1.00  0.00     0.031 C 
ATOM     39  C   UNL     1       9.193  10.000   4.556  1.00  0.00     0.034 A 
BRANCH  26  40
ATOM     40  C   UNL     1       7.774   4.789   7.684  1.00  0.00     0.023 A 
ATOM     41  C   UNL     1       8.297   3.485   7.742  1.00  0.00     0.031 A 
ATOM     42  C   UNL     1       7.199   5.307   8.861  1.00  0.00     0.131 A 
ATOM     43  C   UNL     1       8.129   2.709   8.903  1.00  0.00     0.055 A 
ATOM     44  C   UNL     1       7.127   4.567  10.045  1.00  0.00     0.041 A 
ATOM     45  F   UNL     1       6.660   6.537   8.876  1.00  0.00    -0.206 F 
ATOM     46  C   UNL     1       7.571   3.249  10.063  1.00  0.00     0.022 A 
BRANCH  43  47
ATOM     47  S   UNL     1       8.459   0.926   8.805  1.00  0.00     0.124 S 
ATOM     48  O   UNL     1       7.564   0.521   7.723  1.00  0.00    -0.237 OA
ATOM     49  O   UNL     1       9.884   0.885   8.503  1.00  0.00    -0.237 OA
ATOM     50  O   UNL     1       8.085   0.433  10.129  1.00  0.00    -0.744 OA
ENDBRANCH  43  47
ENDBRANCH  26  40
BRANCH  27  51
ATOM     51  C   UNL     1       6.833   9.825  -1.039  1.00  0.00     0.023 A 
ATOM     52  C   UNL     1       7.912  10.117  -1.882  1.00  0.00     0.031 A 
ATOM     53  C   UNL     1       5.548  10.236  -1.448  1.00  0.00     0.131 A 
ATOM     54  C   UNL     1       7.694  10.812  -3.082  1.00  0.00     0.055 A 
ATOM     55  C   UNL     1       5.327  10.870  -2.671  1.00  0.00     0.041 A 
ATOM     56  F   UNL     1       4.474   9.976  -0.684  1.00  0.00    -0.206 F 
ATOM     57  C   UNL     1       6.408  11.171  -3.493  1.00  0.00     0.022 A 
BRANCH  54  58
ATOM     58  S   UNL     1       9.132  11.292  -4.072  1.00  0.00     0.124 S 
ATOM     59  O   UNL     1       9.895  12.090  -3.119  1.00  0.00    -0.237 OA
ATOM     60  O   UNL     1       9.702   9.996  -4.425  1.00  0.00    -0.237 OA
ATOM     61  O   UNL     1       8.546  12.038  -5.184  1.00  0.00    -0.744 OA
ENDBRANCH  54  58
ENDBRANCH  27  51
BRANCH  39  62
ATOM     62  C   UNL     1      10.060  11.152   4.986  1.00  0.00     0.023 A 
ATOM     63  C   UNL     1       9.547  12.452   5.126  1.00  0.00     0.031 A 
ATOM     64  C   UNL     1      11.434  10.948   5.200  1.00  0.00     0.131 A 
ATOM     65  C   UNL     1      10.419  13.514   5.396  1.00  0.00     0.055 A 
ATOM     66  C   UNL     1      12.284  11.997   5.542  1.00  0.00     0.041 A 
ATOM     67  F   UNL     1      11.972   9.725   5.067  1.00  0.00    -0.206 F 
ATOM     68  C   UNL     1      11.781  13.293   5.625  1.00  0.00     0.022 A 
BRANCH  65  69
ATOM     69  S   UNL     1       9.773  15.206   5.315  1.00  0.00     0.124 S 
ATOM     70  O   UNL     1       9.268  15.270   3.947  1.00  0.00    -0.237 OA
ATOM     71  O   UNL     1       8.762  15.204   6.368  1.00  0.00    -0.237 OA
ATOM     72  O   UNL     1      10.947  16.034   5.583  1.00  0.00    -0.744 OA
ENDBRANCH  65  69
ENDBRANCH  39  62
ENDBRANCH  13  14
ENDBRANCH   6   8
ENDBRANCH   5   6
ENDBRANCH   4   5
ENDBRANCH   3   4
ENDBRANCH   2   3
ENDBRANCH   1   2
BRANCH   1  73
ATOM     73  C   UNL     1       2.121   0.030  -3.961  1.00  0.00     0.261 C 
BRANCH  73  74
ATOM     74  O   UNL     1       2.611  -1.332  -3.892  1.00  0.00    -0.463 OA
BRANCH  74  75
ATOM     75  C   UNL     1       3.611  -1.724  -4.718  1.00  0.00     0.312 C 
ATOM     76  O   UNL     1       4.111  -1.007  -5.578  1.00  0.00    -0.252 OA
BRANCH  75  77
ATOM     77  C   UNL     1       3.966  -3.199  -4.614  1.00  0.00     0.147 C 
ATOM     78  C   UNL     1       3.368  -4.114  -3.521  1.00  0.00     0.129 C 
ATOM     79  C   UNL     1       5.475  -3.520  -4.463  1.00  0.00     0.157 C 
ATOM     80  C   UNL     1       4.554  -4.990  -3.139  1.00  0.00     0.155 C 
ATOM     81  C   UNL     1       5.740  -4.862  -5.082  1.00  0.00     0.004 C 
ATOM     82  O   UNL     1       5.576  -3.966  -3.083  1.00  0.00    -0.365 OA
ATOM     83  C   UNL     1       5.111  -5.759  -4.306  1.00  0.00     0.004 C 
BRANCH  78  84
ATOM     84  C   UNL     1       2.804  -3.446  -2.286  1.00  0.00     0.231 C 
ATOM     85  O   UNL     1       1.654  -3.703  -1.919  1.00  0.00    -0.274 OA
ATOM     86  N   UNL     1       3.483  -2.427  -1.671  1.00  0.00    -0.325 N 
ATOM     87  H   UNL     1       3.157  -1.516  -1.854  1.00  0.00     0.169 HD
BRANCH  86  88
ATOM     88  C   UNL     1       4.605  -2.530  -0.800  1.00  0.00     0.044 A 
ATOM     89  C   UNL     1       4.330  -3.164   0.423  1.00  0.00     0.026 A 
ATOM     90  C   UNL     1       5.783  -1.726  -0.951  1.00  0.00    -0.020 A 
ATOM     91  C   UNL     1       5.192  -3.019   1.504  1.00  0.00     0.002 A 
ATOM     92  C   UNL     1       6.652  -1.645   0.150  1.00  0.00     0.006 A 
ATOM     93  C   UNL     1       6.346  -2.257   1.368  1.00  0.00     0.000 A 
BRANCH  90  94
ATOM     94  C   UNL     1       6.238  -1.080  -2.265  1.00  0.00     0.073 C 
BRANCH  94  95
ATOM     95  C   UNL     1       6.412   0.427  -2.473  1.00  0.00    -0.044 A 
ATOM     96  C   UNL     1       6.002   0.972  -3.711  1.00  0.00     0.004 A 
ATOM     97  C   UNL     1       7.040   1.307  -1.586  1.00  0.00     0.004 A 
ATOM     98  C   UNL     1       6.123   2.330  -4.019  1.00  0.00     0.000 A 
ATOM     99  C   UNL     1       7.177   2.674  -1.895  1.00  0.00     0.000 A 
ATOM    100  C   UNL     1       6.706   3.188  -3.102  1.00  0.00     0.000 A 
ENDBRANCH  94  95
ENDBRANCH  90  94
ENDBRANCH  86  88
ENDBRANCH  78  84
ENDBRANCH  75  77
ENDBRANCH  74  75
ENDBRANCH  73  74
ENDBRANCH   1  73
TORSDOF 21
