REMARK SMILES Cc1cccc2c(C(=O)OCCOCCOC(=O)c3ccc(-c4c5nc(c(-c6cc(S(=O)(=O)[O-])ccc6F)c6ccc([nH]6)c(-c6cc(S(=O)(=O)[O-])ccc6F)c6nc(c(-c7cc(S(=O)(=O)[O-])ccc7F)c7ccc4[nH]7)C=C6)C=C5)cc3)cc(=O)[nH]c12
REMARK SMILES IDX 14 1 13 2 12 3 11 4 10 5 8 6 9 7 7 8 1 9 2 10 3 11 86 12
REMARK SMILES IDX 4 13 6 14 85 15 5 16 83 17 82 19 84 20 15 21 16 22 17 23
REMARK SMILES IDX 18 24 19 25 20 26 81 27 21 28 80 29 22 30 23 31 24 32 74 33
REMARK SMILES IDX 25 34 79 35 73 36 75 37 26 38 78 39 72 40 71 41 27 43 59 44
REMARK SMILES IDX 39 45 58 46 40 47 43 48 57 49 76 50 41 51 42 52 56 54 77 55
REMARK SMILES IDX 44 56 28 57 29 58 37 59 30 60 36 61 38 62 35 63 31 64 32 65
REMARK SMILES IDX 33 66 34 67 60 68 61 69 69 70 62 71 68 72 70 73 67 74 63 75
REMARK SMILES IDX 64 76 65 77 66 78 45 79 46 80 54 81 47 82 53 83 55 84 52 85
REMARK SMILES IDX 48 86 49 87 50 88 51 89
REMARK H PARENT 85 18 75 42 43 53
REMARK Flexibility Score: inf
ROOT
ATOM      1  C   UNL     1      -1.478   6.521   1.897  1.00  0.00     0.202 C 
ENDROOT
BRANCH   1   2
ATOM      2  O   UNL     1      -0.832   7.506   2.706  1.00  0.00    -0.374 OA
BRANCH   2   3
ATOM      3  C   UNL     1      -0.115   8.544   2.040  1.00  0.00     0.202 C 
BRANCH   3   4
ATOM      4  C   UNL     1       1.284   8.200   1.516  1.00  0.00     0.261 C 
BRANCH   4   5
ATOM      5  O   UNL     1       1.245   7.094   0.603  1.00  0.00    -0.460 OA
BRANCH   5   6
ATOM      6  C   UNL     1       1.798   5.949   1.077  1.00  0.00     0.339 C 
ATOM      7  O   UNL     1       2.452   5.834   2.103  1.00  0.00    -0.246 OA
BRANCH   6   8
ATOM      8  C   UNL     1       1.373   4.784   0.259  1.00  0.00     0.074 A 
ATOM      9  C   UNL     1       0.792  -0.182  -0.085  1.00  0.00     0.046 C 
ATOM     10  C   UNL     1       0.642   1.101   0.681  1.00  0.00    -0.027 A 
ATOM     11  C   UNL     1       0.305   1.045   2.042  1.00  0.00     0.005 A 
ATOM     12  C   UNL     1       0.903   2.356   0.102  1.00  0.00     0.052 A 
ATOM     13  C   UNL     1       0.253   2.206   2.810  1.00  0.00     0.001 A 
ATOM     14  C   UNL     1       0.956   3.515   0.890  1.00  0.00     0.013 A 
ATOM     15  N   UNL     1       1.060   2.489  -1.286  1.00  0.00    -0.322 N 
ATOM     16  C   UNL     1       0.600   3.430   2.244  1.00  0.00     0.011 A 
ATOM     17  C   UNL     1       1.230   3.685  -1.925  1.00  0.00     0.249 A 
ATOM     18  H   UNL     1       1.046   1.671  -1.833  1.00  0.00     0.170 HD
ATOM     19  C   UNL     1       1.458   4.873  -1.077  1.00  0.00     0.088 A 
ATOM     20  O   UNL     1       1.234   3.771  -3.147  1.00  0.00    -0.270 OA
ENDBRANCH   6   8
ENDBRANCH   5   6
ENDBRANCH   4   5
ENDBRANCH   3   4
ENDBRANCH   2   3
ENDBRANCH   1   2
BRANCH   1  21
ATOM     21  C   UNL     1      -2.744   6.927   1.132  1.00  0.00     0.261 C 
BRANCH  21  22
ATOM     22  O   UNL     1      -2.467   7.853   0.069  1.00  0.00    -0.460 OA
BRANCH  22  23
ATOM     23  C   UNL     1      -2.947   9.108   0.256  1.00  0.00     0.338 C 
ATOM     24  O   UNL     1      -3.627   9.504   1.189  1.00  0.00    -0.246 OA
BRANCH  23  25
ATOM     25  C   UNL     1      -2.327  10.004  -0.739  1.00  0.00     0.060 A 
ATOM     26  C   UNL     1      -2.445   9.764  -2.110  1.00  0.00     0.016 A 
ATOM     27  C   UNL     1      -1.604  11.107  -0.268  1.00  0.00     0.016 A 
ATOM     28  C   UNL     1      -1.839  10.642  -3.013  1.00  0.00     0.010 A 
ATOM     29  C   UNL     1      -0.992  11.974  -1.170  1.00  0.00     0.010 A 
ATOM     30  C   UNL     1      -1.110  11.752  -2.550  1.00  0.00    -0.014 A 
BRANCH  30  31
ATOM     31  C   UNL     1      -0.536  12.740  -3.496  1.00  0.00     0.031 A 
ATOM     32  C   UNL     1       0.940  12.789  -3.753  1.00  0.00     0.074 A 
ATOM     33  C   UNL     1      -1.359  13.634  -4.076  1.00  0.00     0.049 A 
ATOM     34  N   UNL     1       1.611  13.605  -4.522  1.00  0.00    -0.248 NA
ATOM     35  C   UNL     1       1.773  11.798  -3.054  1.00  0.00     0.031 C 
ATOM     36  C   UNL     1      -2.806  13.684  -3.873  1.00  0.00     0.029 A 
ATOM     37  N   UNL     1      -1.104  14.674  -4.935  1.00  0.00    -0.354 N 
ATOM     38  C   UNL     1       2.943  13.226  -4.411  1.00  0.00     0.074 A 
ATOM     39  C   UNL     1       2.990  12.133  -3.463  1.00  0.00     0.031 C 
ATOM     40  C   UNL     1      -3.313  14.695  -4.593  1.00  0.00     0.029 A 
ATOM     41  C   UNL     1      -2.225  15.396  -5.273  1.00  0.00     0.049 A 
ATOM     42  H   UNL     1      -0.204  14.883  -5.276  1.00  0.00     0.167 HD
ATOM     43  C   UNL     1       4.018  13.736  -5.057  1.00  0.00     0.034 A 
ATOM     44  C   UNL     1      -2.363  16.504  -6.033  1.00  0.00     0.034 A 
ATOM     45  C   UNL     1       3.943  14.830  -5.994  1.00  0.00     0.049 A 
ATOM     46  C   UNL     1      -1.143  17.084  -6.703  1.00  0.00     0.074 A 
ATOM     47  C   UNL     1       4.971  15.386  -6.735  1.00  0.00     0.029 A 
ATOM     48  N   UNL     1       2.793  15.538  -6.313  1.00  0.00    -0.354 N 
ATOM     49  N   UNL     1       0.097  16.656  -6.664  1.00  0.00    -0.248 NA
ATOM     50  C   UNL     1      -1.331  18.287  -7.527  1.00  0.00     0.031 C 
ATOM     51  C   UNL     1       4.463  16.478  -7.433  1.00  0.00     0.029 A 
ATOM     52  C   UNL     1       3.096  16.549  -7.210  1.00  0.00     0.049 A 
ATOM     53  H   UNL     1       1.896  15.350  -5.955  1.00  0.00     0.167 HD
ATOM     54  C   UNL     1       0.827  17.511  -7.486  1.00  0.00     0.074 A 
ATOM     55  C   UNL     1      -0.111  18.477  -8.017  1.00  0.00     0.031 C 
ATOM     56  C   UNL     1       2.153  17.489  -7.770  1.00  0.00     0.034 A 
BRANCH  43  57
ATOM     57  C   UNL     1       5.378  13.126  -4.815  1.00  0.00     0.023 A 
ATOM     58  C   UNL     1       6.424  13.917  -4.302  1.00  0.00     0.031 A 
ATOM     59  C   UNL     1       5.682  11.823  -5.249  1.00  0.00     0.131 A 
ATOM     60  C   UNL     1       7.731  13.415  -4.281  1.00  0.00     0.055 A 
ATOM     61  C   UNL     1       6.978  11.311  -5.181  1.00  0.00     0.041 A 
ATOM     62  F   UNL     1       4.722  11.031  -5.753  1.00  0.00    -0.206 F 
ATOM     63  C   UNL     1       8.013  12.115  -4.711  1.00  0.00     0.022 A 
BRANCH  60  64
ATOM     64  S   UNL     1       9.128  14.458  -3.778  1.00  0.00     0.124 S 
ATOM     65  O   UNL     1       9.674  13.702  -2.652  1.00  0.00    -0.237 OA
ATOM     66  O   UNL     1       9.954  14.465  -4.982  1.00  0.00    -0.237 OA
ATOM     67  O   UNL     1       8.509  15.731  -3.428  1.00  0.00    -0.744 OA
ENDBRANCH  60  64
ENDBRANCH  43  57
BRANCH  44  68
ATOM     68  C   UNL     1      -3.726  17.080  -6.231  1.00  0.00     0.023 A 
ATOM     69  C   UNL     1      -4.482  17.542  -5.137  1.00  0.00     0.031 A 
ATOM     70  C   UNL     1      -4.336  17.066  -7.496  1.00  0.00     0.131 A 
ATOM     71  C   UNL     1      -5.825  17.896  -5.318  1.00  0.00     0.055 A 
ATOM     72  C   UNL     1      -5.652  17.493  -7.684  1.00  0.00     0.041 A 
ATOM     73  F   UNL     1      -3.662  16.621  -8.567  1.00  0.00    -0.206 F 
ATOM     74  C   UNL     1      -6.410  17.892  -6.588  1.00  0.00     0.022 A 
BRANCH  71  75
ATOM     75  S   UNL     1      -6.896  18.237  -3.893  1.00  0.00     0.124 S 
ATOM     76  O   UNL     1      -7.358  19.592  -4.175  1.00  0.00    -0.237 OA
ATOM     77  O   UNL     1      -7.904  17.187  -4.022  1.00  0.00    -0.237 OA
ATOM     78  O   UNL     1      -6.002  18.100  -2.749  1.00  0.00    -0.744 OA
ENDBRANCH  71  75
ENDBRANCH  44  68
BRANCH  56  79
ATOM     79  C   UNL     1       2.724  18.512  -8.725  1.00  0.00     0.023 A 
ATOM     80  C   UNL     1       3.348  18.078  -9.912  1.00  0.00     0.031 A 
ATOM     81  C   UNL     1       2.855  19.862  -8.361  1.00  0.00     0.131 A 
ATOM     82  C   UNL     1       4.143  18.965 -10.648  1.00  0.00     0.055 A 
ATOM     83  C   UNL     1       3.600  20.758  -9.132  1.00  0.00     0.041 A 
ATOM     84  F   UNL     1       2.287  20.323  -7.235  1.00  0.00    -0.206 F 
ATOM     85  C   UNL     1       4.266  20.305 -10.267  1.00  0.00     0.022 A 
BRANCH  82  86
ATOM     86  S   UNL     1       5.141  18.384 -12.048  1.00  0.00     0.124 S 
ATOM     87  O   UNL     1       4.679  19.250 -13.130  1.00  0.00    -0.237 OA
ATOM     88  O   UNL     1       6.500  18.640 -11.581  1.00  0.00    -0.237 OA
ATOM     89  O   UNL     1       4.775  16.977 -12.182  1.00  0.00    -0.744 OA
ENDBRANCH  82  86
ENDBRANCH  56  79
ENDBRANCH  30  31
ENDBRANCH  23  25
ENDBRANCH  22  23
ENDBRANCH  21  22
ENDBRANCH   1  21
TORSDOF 17
