REMARK SMILES O=C(Cn1ccc(C(=O)NCCC[NH+]2CCOCC2)n1)OCCOCCOC(=O)c1ccc(-c2c3nc(c(-c4cc(S(=O)(=O)[O-])ccc4F)c4ccc([nH]4)c(-c4cc(S(=O)(=O)[O-])ccc4F)c4nc(c(-c5cc(S(=O)(=O)[O-])ccc5F)c5ccc2[nH]5)C=C4)C=C3)cc1
REMARK SMILES IDX 22 1 21 2 2 3 1 4 3 5 4 6 5 7 20 8 6 9 7 10 8 11 9 12 10 13
REMARK SMILES IDX 11 15 12 16 13 17 14 18 15 19 19 20 16 22 18 23 17 24 23 25
REMARK SMILES IDX 24 26 25 27 26 28 27 29 28 30 29 31 30 32 31 33 92 34 32 35
REMARK SMILES IDX 91 36 33 37 34 38 35 39 85 40 36 41 90 42 84 43 86 44 37 45
REMARK SMILES IDX 89 46 83 47 82 48 38 50 70 51 50 52 69 53 51 54 54 55 68 56
REMARK SMILES IDX 87 57 52 58 53 59 67 61 88 62 55 63 39 64 40 65 48 66 41 67
REMARK SMILES IDX 47 68 49 69 46 70 42 71 43 72 44 73 45 74 71 75 72 76 80 77
REMARK SMILES IDX 73 78 79 79 81 80 78 81 74 82 75 83 76 84 77 85 56 86 57 87
REMARK SMILES IDX 65 88 58 89 64 90 66 91 63 92 59 93 60 94 61 95 62 96
REMARK H PARENT 10 14 14 21 86 49 54 60
REMARK Flexibility Score: inf
ROOT
ATOM      1  C   UNL     1       4.109   0.797  -1.013  1.00  0.00     0.261 C 
ENDROOT
BRANCH   1   2
ATOM      2  O   UNL     1       2.705   0.585  -0.869  1.00  0.00    -0.462 OA
BRANCH   2   3
ATOM      3  C   UNL     1       2.163  -0.653  -0.765  1.00  0.00     0.327 C 
ATOM      4  O   UNL     1       0.981  -0.817  -1.066  1.00  0.00    -0.250 OA
BRANCH   3   5
ATOM      5  C   UNL     1       2.946  -1.744  -0.103  1.00  0.00     0.266 C 
BRANCH   5   6
ATOM      6  N   UNL     1       3.927  -2.426  -0.921  1.00  0.00    -0.261 N 
ATOM      7  C   UNL     1       5.291  -2.287  -0.859  1.00  0.00     0.110 A 
ATOM      8  N   UNL     1       3.565  -3.603  -1.451  1.00  0.00    -0.167 NA
ATOM      9  C   UNL     1       5.828  -3.469  -1.305  1.00  0.00     0.056 A 
ATOM     10  C   UNL     1       4.707  -4.312  -1.459  1.00  0.00     0.150 A 
BRANCH  10  11
ATOM     11  C   UNL     1       4.712  -5.767  -1.442  1.00  0.00     0.271 C 
ATOM     12  O   UNL     1       5.480  -6.447  -2.119  1.00  0.00    -0.267 OA
ATOM     13  N   UNL     1       3.889  -6.384  -0.524  1.00  0.00    -0.350 N 
ATOM     14  H   UNL     1       3.861  -7.367  -0.579  1.00  0.00     0.163 HD
BRANCH  13  15
ATOM     15  C   UNL     1       3.051  -5.792   0.519  1.00  0.00     0.122 C 
BRANCH  15  16
ATOM     16  C   UNL     1       1.577  -6.107   0.322  1.00  0.00     0.083 C 
BRANCH  16  17
ATOM     17  C   UNL     1       1.229  -7.597   0.216  1.00  0.00     0.264 C 
BRANCH  17  18
ATOM     18  N   UNL     1       1.476  -8.385   1.440  1.00  0.00    -0.331 N 
ATOM     19  C   UNL     1       2.858  -8.907   1.576  1.00  0.00     0.291 C 
ATOM     20  C   UNL     1       0.585  -9.572   1.478  1.00  0.00     0.291 C 
ATOM     21  H   UNL     1       1.300  -7.727   2.200  1.00  0.00     0.348 HD
ATOM     22  C   UNL     1       3.228 -10.000   0.560  1.00  0.00     0.221 C 
ATOM     23  C   UNL     1       0.967 -10.658   0.454  1.00  0.00     0.221 C 
ATOM     24  O   UNL     1       2.318 -11.101   0.636  1.00  0.00    -0.370 OA
ENDBRANCH  17  18
ENDBRANCH  16  17
ENDBRANCH  15  16
ENDBRANCH  13  15
ENDBRANCH  10  11
ENDBRANCH   5   6
ENDBRANCH   3   5
ENDBRANCH   2   3
ENDBRANCH   1   2
BRANCH   1  25
ATOM     25  C   UNL     1       4.877   1.050   0.286  1.00  0.00     0.202 C 
BRANCH  25  26
ATOM     26  O   UNL     1       4.527   0.326   1.464  1.00  0.00    -0.374 OA
BRANCH  26  27
ATOM     27  C   UNL     1       3.317   0.638   2.169  1.00  0.00     0.202 C 
BRANCH  27  28
ATOM     28  C   UNL     1       3.311   1.868   3.056  1.00  0.00     0.261 C 
BRANCH  28  29
ATOM     29  O   UNL     1       3.385   3.017   2.241  1.00  0.00    -0.460 OA
BRANCH  29  30
ATOM     30  C   UNL     1       4.614   3.539   2.080  1.00  0.00     0.338 C 
ATOM     31  O   UNL     1       5.674   3.117   2.532  1.00  0.00    -0.246 OA
BRANCH  30  32
ATOM     32  C   UNL     1       4.451   4.745   1.271  1.00  0.00     0.060 A 
ATOM     33  C   UNL     1       5.469   5.684   1.402  1.00  0.00     0.016 A 
ATOM     34  C   UNL     1       3.169   5.066   0.794  1.00  0.00     0.016 A 
ATOM     35  C   UNL     1       5.099   7.002   1.404  1.00  0.00     0.010 A 
ATOM     36  C   UNL     1       2.789   6.375   0.858  1.00  0.00     0.010 A 
ATOM     37  C   UNL     1       3.742   7.305   1.259  1.00  0.00    -0.014 A 
BRANCH  37  38
ATOM     38  C   UNL     1       3.335   8.667   1.467  1.00  0.00     0.031 A 
ATOM     39  C   UNL     1       3.452   9.469   0.246  1.00  0.00     0.074 A 
ATOM     40  C   UNL     1       2.805   9.106   2.617  1.00  0.00     0.049 A 
ATOM     41  N   UNL     1       4.416  10.264  -0.072  1.00  0.00    -0.248 NA
ATOM     42  C   UNL     1       2.536   9.149  -0.859  1.00  0.00     0.031 C 
ATOM     43  C   UNL     1       2.340   8.327   3.764  1.00  0.00     0.029 A 
ATOM     44  N   UNL     1       2.466  10.378   2.938  1.00  0.00    -0.354 N 
ATOM     45  C   UNL     1       4.068  10.745  -1.323  1.00  0.00     0.074 A 
ATOM     46  C   UNL     1       3.123   9.806  -1.857  1.00  0.00     0.031 C 
ATOM     47  C   UNL     1       1.581   9.124   4.551  1.00  0.00     0.029 A 
ATOM     48  C   UNL     1       1.609  10.481   4.021  1.00  0.00     0.049 A 
ATOM     49  H   UNL     1       2.800  11.161   2.444  1.00  0.00     0.167 HD
ATOM     50  C   UNL     1       4.326  12.032  -1.674  1.00  0.00     0.034 A 
ATOM     51  C   UNL     1       0.901  11.587   4.366  1.00  0.00     0.034 A 
ATOM     52  C   UNL     1       5.278  12.635  -0.762  1.00  0.00     0.049 A 
ATOM     53  C   UNL     1       1.576  12.755   3.733  1.00  0.00     0.074 A 
ATOM     54  C   UNL     1       6.559  12.311  -0.353  1.00  0.00     0.029 A 
ATOM     55  N   UNL     1       4.800  13.521   0.181  1.00  0.00    -0.354 N 
ATOM     56  N   UNL     1       2.777  13.157   4.055  1.00  0.00    -0.248 NA
ATOM     57  C   UNL     1       1.126  13.187   2.415  1.00  0.00     0.031 C 
ATOM     58  C   UNL     1       6.602  12.637   1.035  1.00  0.00     0.029 A 
ATOM     59  C   UNL     1       5.376  13.205   1.389  1.00  0.00     0.049 A 
ATOM     60  H   UNL     1       4.159  14.250   0.018  1.00  0.00     0.167 HD
ATOM     61  C   UNL     1       3.383  13.504   2.855  1.00  0.00     0.074 A 
ATOM     62  C   UNL     1       2.285  13.611   1.898  1.00  0.00     0.031 C 
ATOM     63  C   UNL     1       4.734  13.384   2.681  1.00  0.00     0.034 A 
BRANCH  50  64
ATOM     64  C   UNL     1       3.443  12.849  -2.589  1.00  0.00     0.023 A 
ATOM     65  C   UNL     1       3.877  14.154  -2.874  1.00  0.00     0.031 A 
ATOM     66  C   UNL     1       2.116  12.547  -2.982  1.00  0.00     0.131 A 
ATOM     67  C   UNL     1       2.995  15.105  -3.412  1.00  0.00     0.055 A 
ATOM     68  C   UNL     1       1.268  13.475  -3.588  1.00  0.00     0.041 A 
ATOM     69  F   UNL     1       1.518  11.378  -2.728  1.00  0.00    -0.206 F 
ATOM     70  C   UNL     1       1.694  14.775  -3.774  1.00  0.00     0.022 A 
BRANCH  67  71
ATOM     71  S   UNL     1       3.534  16.829  -3.452  1.00  0.00     0.124 S 
ATOM     72  O   UNL     1       3.927  17.044  -2.063  1.00  0.00    -0.237 OA
ATOM     73  O   UNL     1       4.617  16.779  -4.429  1.00  0.00    -0.237 OA
ATOM     74  O   UNL     1       2.336  17.546  -3.882  1.00  0.00    -0.744 OA
ENDBRANCH  67  71
ENDBRANCH  50  64
BRANCH  51  75
ATOM     75  C   UNL     1      -0.480  11.617   4.915  1.00  0.00     0.023 A 
ATOM     76  C   UNL     1      -1.010  12.751   5.558  1.00  0.00     0.031 A 
ATOM     77  C   UNL     1      -1.391  10.577   4.612  1.00  0.00     0.131 A 
ATOM     78  C   UNL     1      -2.386  12.809   5.878  1.00  0.00     0.055 A 
ATOM     79  C   UNL     1      -2.745  10.631   4.946  1.00  0.00     0.041 A 
ATOM     80  F   UNL     1      -1.014   9.502   3.901  1.00  0.00    -0.206 F 
ATOM     81  C   UNL     1      -3.251  11.755   5.575  1.00  0.00     0.022 A 
BRANCH  78  82
ATOM     82  S   UNL     1      -3.094  14.322   6.602  1.00  0.00     0.124 S 
ATOM     83  O   UNL     1      -2.534  14.311   7.948  1.00  0.00    -0.237 OA
ATOM     84  O   UNL     1      -2.603  15.359   5.702  1.00  0.00    -0.237 OA
ATOM     85  O   UNL     1      -4.537  14.088   6.534  1.00  0.00    -0.744 OA
ENDBRANCH  78  82
ENDBRANCH  51  75
BRANCH  63  86
ATOM     86  C   UNL     1       5.605  13.198   3.909  1.00  0.00     0.023 A 
ATOM     87  C   UNL     1       5.470  12.144   4.841  1.00  0.00     0.031 A 
ATOM     88  C   UNL     1       6.699  14.068   4.066  1.00  0.00     0.131 A 
ATOM     89  C   UNL     1       6.404  12.002   5.886  1.00  0.00     0.055 A 
ATOM     90  C   UNL     1       7.633  13.912   5.090  1.00  0.00     0.041 A 
ATOM     91  F   UNL     1       6.901  15.072   3.196  1.00  0.00    -0.206 F 
ATOM     92  C   UNL     1       7.485  12.881   6.009  1.00  0.00     0.022 A 
BRANCH  89  93
ATOM     93  S   UNL     1       6.224  10.671   7.117  1.00  0.00     0.124 S 
ATOM     94  O   UNL     1       4.817  10.740   7.492  1.00  0.00    -0.237 OA
ATOM     95  O   UNL     1       6.628   9.488   6.361  1.00  0.00    -0.237 OA
ATOM     96  O   UNL     1       7.157  11.060   8.177  1.00  0.00    -0.744 OA
ENDBRANCH  89  93
ENDBRANCH  63  86
ENDBRANCH  37  38
ENDBRANCH  30  32
ENDBRANCH  29  30
ENDBRANCH  28  29
ENDBRANCH  27  28
ENDBRANCH  26  27
ENDBRANCH  25  26
ENDBRANCH   1  25
TORSDOF 23
