REMARK SMILES O=C(OCCOCCOC(=O)[C@@H]1c2[nH]cnc2CCN1C(=O)CCCc1c[nH]c2ccccc12)c1ccc(-c2c3nc(c(-c4cc(S(=O)(=O)[O-])ccc4F)c4ccc([nH]4)c(-c4cc(S(=O)(=O)[O-])ccc4F)c4nc(c(-c5cc(S(=O)(=O)[O-])ccc5F)c5ccc2[nH]5)C=C4)C=C3)cc1
REMARK SMILES IDX 7 1 6 2 5 3 4 4 3 5 2 6 1 7 35 8 36 9 97 10 37 11 96 12
REMARK SMILES IDX 38 13 39 14 40 15 90 16 41 17 95 18 89 19 91 20 42 21 94 22
REMARK SMILES IDX 88 23 87 24 43 26 75 27 55 28 74 29 56 30 59 31 73 32 92 33
REMARK SMILES IDX 57 34 58 35 72 37 93 38 60 39 44 40 45 41 53 42 46 43 52 44
REMARK SMILES IDX 54 45 51 46 47 47 48 48 49 49 50 50 76 51 77 52 85 53 78 54
REMARK SMILES IDX 84 55 86 56 83 57 79 58 80 59 81 60 82 61 61 62 62 63 70 64
REMARK SMILES IDX 63 65 69 66 71 67 68 68 64 69 65 70 66 71 67 72 8 73 9 74
REMARK SMILES IDX 10 75 11 76 12 77 13 78 20 79 14 80 17 81 19 82 15 83 16 85
REMARK SMILES IDX 18 86 21 87 22 88 23 89 24 90 25 91 26 92 27 93 34 94 28 95
REMARK SMILES IDX 29 96 33 97 30 99 32 100 31 101
REMARK H PARENT 91 25 59 36 14 84 28 98
REMARK Flexibility Score: inf
ROOT
ATOM      1  C   UNL     1       5.783  -1.476   1.858  1.00  0.00     0.202 C 
ENDROOT
BRANCH   1   2
ATOM      2  O   UNL     1       5.903  -0.288   1.091  1.00  0.00    -0.374 OA
BRANCH   2   3
ATOM      3  C   UNL     1       6.304  -0.318  -0.274  1.00  0.00     0.202 C 
BRANCH   3   4
ATOM      4  C   UNL     1       7.677  -0.889  -0.680  1.00  0.00     0.261 C 
BRANCH   4   5
ATOM      5  O   UNL     1       7.924  -2.204  -0.160  1.00  0.00    -0.460 OA
BRANCH   5   6
ATOM      6  C   UNL     1       8.551  -2.569   0.983  1.00  0.00     0.338 C 
ATOM      7  O   UNL     1       8.493  -3.733   1.345  1.00  0.00    -0.246 OA
BRANCH   6   8
ATOM      8  C   UNL     1       9.305  -1.598   1.828  1.00  0.00     0.060 A 
ATOM      9  C   UNL     1       9.130  -0.213   1.825  1.00  0.00     0.016 A 
ATOM     10  C   UNL     1      10.215  -2.159   2.739  1.00  0.00     0.016 A 
ATOM     11  C   UNL     1       9.998   0.606   2.513  1.00  0.00     0.010 A 
ATOM     12  C   UNL     1      11.028  -1.345   3.510  1.00  0.00     0.010 A 
ATOM     13  C   UNL     1      10.966   0.032   3.329  1.00  0.00    -0.014 A 
BRANCH  13  14
ATOM     14  C   UNL     1      11.770   0.945   4.121  1.00  0.00     0.031 A 
ATOM     15  C   UNL     1      10.963   1.788   5.042  1.00  0.00     0.074 A 
ATOM     16  C   UNL     1      13.114   0.944   4.070  1.00  0.00     0.049 A 
ATOM     17  N   UNL     1      10.821   3.072   5.024  1.00  0.00    -0.248 NA
ATOM     18  C   UNL     1      10.037   1.101   5.961  1.00  0.00     0.031 C 
ATOM     19  C   UNL     1      13.970  -0.006   3.358  1.00  0.00     0.029 A 
ATOM     20  N   UNL     1      14.006   1.713   4.749  1.00  0.00    -0.354 N 
ATOM     21  C   UNL     1      10.002   3.369   6.109  1.00  0.00     0.074 A 
ATOM     22  C   UNL     1       9.373   2.134   6.479  1.00  0.00     0.031 C 
ATOM     23  C   UNL     1      15.224   0.079   3.850  1.00  0.00     0.029 A 
ATOM     24  C   UNL     1      15.280   1.158   4.823  1.00  0.00     0.049 A 
ATOM     25  H   UNL     1      13.772   2.581   5.150  1.00  0.00     0.167 HD
ATOM     26  C   UNL     1      10.163   4.532   6.799  1.00  0.00     0.034 A 
ATOM     27  C   UNL     1      16.270   1.492   5.695  1.00  0.00     0.034 A 
ATOM     28  C   UNL     1      10.826   5.527   5.977  1.00  0.00     0.049 A 
ATOM     29  C   UNL     1      15.966   2.858   6.194  1.00  0.00     0.074 A 
ATOM     30  C   UNL     1      10.568   6.067   4.729  1.00  0.00     0.029 A 
ATOM     31  N   UNL     1      12.146   5.835   6.239  1.00  0.00    -0.354 N 
ATOM     32  N   UNL     1      15.988   3.917   5.431  1.00  0.00    -0.248 NA
ATOM     33  C   UNL     1      15.157   2.988   7.398  1.00  0.00     0.031 C 
ATOM     34  C   UNL     1      11.847   6.196   4.111  1.00  0.00     0.029 A 
ATOM     35  C   UNL     1      12.818   5.825   5.042  1.00  0.00     0.049 A 
ATOM     36  H   UNL     1      12.534   6.026   7.123  1.00  0.00     0.167 HD
ATOM     37  C   UNL     1      14.872   4.652   5.803  1.00  0.00     0.074 A 
ATOM     38  C   UNL     1      14.461   4.086   7.087  1.00  0.00     0.031 C 
ATOM     39  C   UNL     1      14.212   5.445   4.905  1.00  0.00     0.034 A 
BRANCH  26  40
ATOM     40  C   UNL     1      10.161   4.597   8.319  1.00  0.00     0.023 A 
ATOM     41  C   UNL     1      10.531   5.828   8.887  1.00  0.00     0.031 A 
ATOM     42  C   UNL     1      10.166   3.494   9.207  1.00  0.00     0.131 A 
ATOM     43  C   UNL     1      11.073   5.890  10.181  1.00  0.00     0.055 A 
ATOM     44  C   UNL     1      10.640   3.576  10.519  1.00  0.00     0.041 A 
ATOM     45  F   UNL     1       9.785   2.263   8.856  1.00  0.00    -0.206 F 
ATOM     46  C   UNL     1      11.146   4.769  10.998  1.00  0.00     0.022 A 
BRANCH  43  47
ATOM     47  S   UNL     1      11.892   7.425  10.672  1.00  0.00     0.124 S 
ATOM     48  O   UNL     1      12.868   7.575   9.597  1.00  0.00    -0.237 OA
ATOM     49  O   UNL     1      10.780   8.369  10.670  1.00  0.00    -0.237 OA
ATOM     50  O   UNL     1      12.443   7.108  11.986  1.00  0.00    -0.744 OA
ENDBRANCH  43  47
ENDBRANCH  26  40
BRANCH  27  51
ATOM     51  C   UNL     1      17.243   0.561   6.340  1.00  0.00     0.023 A 
ATOM     52  C   UNL     1      18.424   1.004   6.972  1.00  0.00     0.031 A 
ATOM     53  C   UNL     1      16.901  -0.799   6.532  1.00  0.00     0.131 A 
ATOM     54  C   UNL     1      19.205   0.103   7.740  1.00  0.00     0.055 A 
ATOM     55  C   UNL     1      17.680  -1.685   7.277  1.00  0.00     0.041 A 
ATOM     56  F   UNL     1      15.745  -1.303   6.072  1.00  0.00    -0.206 F 
ATOM     57  C   UNL     1      18.834  -1.235   7.893  1.00  0.00     0.022 A 
BRANCH  54  58
ATOM     58  S   UNL     1      20.680   0.683   8.641  1.00  0.00     0.124 S 
ATOM     59  O   UNL     1      21.620   0.952   7.559  1.00  0.00    -0.237 OA
ATOM     60  O   UNL     1      20.172   1.842   9.365  1.00  0.00    -0.237 OA
ATOM     61  O   UNL     1      21.032  -0.458   9.489  1.00  0.00    -0.744 OA
ENDBRANCH  54  58
ENDBRANCH  27  51
BRANCH  39  62
ATOM     62  C   UNL     1      14.891   5.779   3.591  1.00  0.00     0.023 A 
ATOM     63  C   UNL     1      15.391   4.832   2.669  1.00  0.00     0.031 A 
ATOM     64  C   UNL     1      14.936   7.135   3.218  1.00  0.00     0.131 A 
ATOM     65  C   UNL     1      15.928   5.260   1.439  1.00  0.00     0.055 A 
ATOM     66  C   UNL     1      15.448   7.553   1.991  1.00  0.00     0.041 A 
ATOM     67  F   UNL     1      14.449   8.085   4.034  1.00  0.00    -0.206 F 
ATOM     68  C   UNL     1      15.956   6.616   1.100  1.00  0.00     0.022 A 
BRANCH  65  69
ATOM     69  S   UNL     1      16.633   4.063   0.259  1.00  0.00     0.124 S 
ATOM     70  O   UNL     1      17.414   3.165   1.100  1.00  0.00    -0.237 OA
ATOM     71  O   UNL     1      15.439   3.488  -0.355  1.00  0.00    -0.237 OA
ATOM     72  O   UNL     1      17.430   4.903  -0.638  1.00  0.00    -0.744 OA
ENDBRANCH  65  69
ENDBRANCH  39  62
ENDBRANCH  13  14
ENDBRANCH   6   8
ENDBRANCH   5   6
ENDBRANCH   4   5
ENDBRANCH   3   4
ENDBRANCH   2   3
ENDBRANCH   1   2
BRANCH   1  73
ATOM     73  C   UNL     1       5.135  -2.755   1.319  1.00  0.00     0.261 C 
BRANCH  73  74
ATOM     74  O   UNL     1       5.292  -3.053  -0.072  1.00  0.00    -0.461 OA
BRANCH  74  75
ATOM     75  C   UNL     1       4.184  -2.789  -0.820  1.00  0.00     0.335 C 
ATOM     76  O   UNL     1       3.242  -2.106  -0.417  1.00  0.00    -0.249 OA
BRANCH  75  77
ATOM     77  C   UNL     1       4.035  -3.712  -2.046  1.00  0.00     0.244 C 
ATOM     78  C   UNL     1       4.007  -5.151  -1.544  1.00  0.00     0.072 A 
ATOM     79  N   UNL     1       4.862  -3.773  -3.288  1.00  0.00    -0.323 N 
ATOM     80  N   UNL     1       3.825  -5.615  -0.269  1.00  0.00    -0.346 N 
ATOM     81  C   UNL     1       4.293  -6.280  -2.281  1.00  0.00     0.066 A 
ATOM     82  C   UNL     1       4.376  -4.800  -4.200  1.00  0.00     0.127 C 
ATOM     83  C   UNL     1       4.090  -6.959  -0.289  1.00  0.00     0.197 A 
ATOM     84  H   UNL     1       3.554  -5.084   0.514  1.00  0.00     0.167 HD
ATOM     85  N   UNL     1       4.322  -7.399  -1.506  1.00  0.00    -0.242 NA
ATOM     86  C   UNL     1       4.676  -6.219  -3.705  1.00  0.00     0.080 C 
BRANCH  79  87
ATOM     87  C   UNL     1       5.688  -2.748  -3.668  1.00  0.00     0.223 C 
ATOM     88  O   UNL     1       5.729  -1.733  -2.961  1.00  0.00    -0.275 OA
BRANCH  87  89
ATOM     89  C   UNL     1       6.496  -2.690  -4.996  1.00  0.00     0.100 C 
BRANCH  89  90
ATOM     90  C   UNL     1       7.223  -3.776  -5.795  1.00  0.00     0.015 C 
BRANCH  90  91
ATOM     91  C   UNL     1       6.612  -5.022  -6.433  1.00  0.00     0.038 C 
BRANCH  91  92
ATOM     92  C   UNL     1       5.397  -5.048  -7.343  1.00  0.00    -0.023 A 
ATOM     93  C   UNL     1       5.044  -6.239  -7.968  1.00  0.00     0.087 A 
ATOM     94  C   UNL     1       4.316  -4.132  -7.659  1.00  0.00     0.003 A 
ATOM     95  N   UNL     1       3.980  -6.023  -8.789  1.00  0.00    -0.361 N 
ATOM     96  C   UNL     1       3.550  -4.729  -8.668  1.00  0.00     0.046 A 
ATOM     97  C   UNL     1       3.838  -2.886  -7.191  1.00  0.00     0.010 A 
ATOM     98  H   UNL     1       3.579  -6.699  -9.383  1.00  0.00     0.166 HD
ATOM     99  C   UNL     1       2.498  -4.083  -9.334  1.00  0.00     0.026 A 
ATOM    100  C   UNL     1       2.721  -2.267  -7.769  1.00  0.00     0.001 A 
ATOM    101  C   UNL     1       2.090  -2.838  -8.861  1.00  0.00     0.002 A 
ENDBRANCH  91  92
ENDBRANCH  90  91
ENDBRANCH  89  90
ENDBRANCH  87  89
ENDBRANCH  79  87
ENDBRANCH  75  77
ENDBRANCH  74  75
ENDBRANCH  73  74
ENDBRANCH   1  73
TORSDOF 22
