REMARK SMILES CCSc1nc(CC(=O)N[C@@H](C(=O)OCCOCCOC(=O)c2ccc(-c3c4nc(c(-c5cc(S(=O)(=O)[O-])ccc5F)c5ccc([nH]5)c(-c5cc(S(=O)(=O)[O-])ccc5F)c5nc(c(-c6cc(S(=O)(=O)[O-])ccc6F)c6ccc3[nH]6)C=C5)C=C4)cc2)C2=C(C)N=N[C@@H]2C)cs1
REMARK SMILES IDX 16 1 15 2 14 3 12 4 13 5 11 6 10 7 8 8 9 9 7 11 6 12 4 13
REMARK SMILES IDX 5 14 94 15 93 16 3 17 2 18 1 19 86 20 87 21 91 22 88 23
REMARK SMILES IDX 89 24 90 25 92 26 17 27 18 28 19 29 20 30 21 31 22 32 23 33
REMARK SMILES IDX 24 34 85 35 25 36 84 37 26 38 27 39 28 40 78 41 29 42 83 43
REMARK SMILES IDX 77 44 79 45 30 46 82 47 76 48 75 49 31 51 63 52 43 53 62 54
REMARK SMILES IDX 44 55 47 56 61 57 80 58 45 59 46 60 60 62 81 63 48 64 32 65
REMARK SMILES IDX 33 66 41 67 34 68 40 69 42 70 39 71 35 72 36 73 37 74 38 75
REMARK SMILES IDX 64 76 65 77 73 78 66 79 72 80 74 81 71 82 67 83 68 84 69 85
REMARK SMILES IDX 70 86 49 87 50 88 58 89 51 90 57 91 59 92 56 93 52 94 53 95
REMARK SMILES IDX 54 96 55 97
REMARK H PARENT 10 10 79 50 47 61
REMARK Flexibility Score: inf
ROOT
ATOM      1  C   UNL     1       3.722   4.256  -5.218  1.00  0.00     0.202 C 
ENDROOT
BRANCH   1   2
ATOM      2  C   UNL     1       3.027   3.400  -4.156  1.00  0.00     0.261 C 
BRANCH   2   3
ATOM      3  O   UNL     1       3.947   2.428  -3.618  1.00  0.00    -0.461 OA
BRANCH   3   4
ATOM      4  C   UNL     1       3.473   1.158  -3.476  1.00  0.00     0.333 C 
ATOM      5  O   UNL     1       2.311   0.821  -3.681  1.00  0.00    -0.249 OA
BRANCH   4   6
ATOM      6  C   UNL     1       4.586   0.163  -3.036  1.00  0.00     0.223 C 
BRANCH   6   7
ATOM      7  N   UNL     1       5.955   0.669  -2.998  1.00  0.00    -0.339 N 
ATOM      8  C   UNL     1       6.663   1.129  -1.924  1.00  0.00     0.226 C 
ATOM      9  O   UNL     1       7.813   1.529  -2.115  1.00  0.00    -0.275 OA
ATOM     10  H   UNL     1       6.430   0.681  -3.860  1.00  0.00     0.164 HD
BRANCH   8  11
ATOM     11  C   UNL     1       6.063   1.107  -0.530  1.00  0.00     0.157 C 
BRANCH  11  12
ATOM     12  C   UNL     1       5.045   2.182  -0.368  1.00  0.00     0.062 A 
ATOM     13  C   UNL     1       2.953   2.907  -0.306  1.00  0.00     0.150 A 
ATOM     14  N   UNL     1       3.702   1.830  -0.384  1.00  0.00    -0.234 NA
ATOM     15  S   UNL     1       3.800   4.389  -0.154  1.00  0.00    -0.116 S 
ATOM     16  C   UNL     1       5.284   3.536  -0.227  1.00  0.00     0.092 A 
BRANCH  13  17
ATOM     17  S   UNL     1       1.215   2.834  -0.466  1.00  0.00    -0.096 SA
BRANCH  17  18
ATOM     18  C   UNL     1       0.798   1.410   0.576  1.00  0.00     0.074 C 
ATOM     19  C   UNL     1       1.069   0.071  -0.089  1.00  0.00     0.016 C 
ENDBRANCH  17  18
ENDBRANCH  13  17
ENDBRANCH  11  12
ENDBRANCH   8  11
ENDBRANCH   6   7
BRANCH   6  20
ATOM     20  C   UNL     1       4.585  -1.100  -3.844  1.00  0.00     0.012 C 
ATOM     21  C   UNL     1       4.777  -2.355  -3.419  1.00  0.00     0.064 C 
ATOM     22  C   UNL     1       4.198  -1.244  -5.281  1.00  0.00     0.156 C 
ATOM     23  C   UNL     1       5.235  -2.823  -2.084  1.00  0.00     0.069 C 
ATOM     24  N   UNL     1       4.465  -3.289  -4.375  1.00  0.00    -0.160 NA
ATOM     25  N   UNL     1       4.040  -2.720  -5.417  1.00  0.00    -0.181 NA
ATOM     26  C   UNL     1       5.285  -0.838  -6.275  1.00  0.00     0.040 C 
ENDBRANCH   6  20
ENDBRANCH   4   6
ENDBRANCH   3   4
ENDBRANCH   2   3
ENDBRANCH   1   2
BRANCH   1  27
ATOM     27  O   UNL     1       3.991   3.608  -6.467  1.00  0.00    -0.374 OA
BRANCH  27  28
ATOM     28  C   UNL     1       4.952   2.561  -6.461  1.00  0.00     0.202 C 
BRANCH  28  29
ATOM     29  C   UNL     1       6.438   2.941  -6.486  1.00  0.00     0.261 C 
BRANCH  29  30
ATOM     30  O   UNL     1       6.768   3.988  -5.572  1.00  0.00    -0.460 OA
BRANCH  30  31
ATOM     31  C   UNL     1       6.815   5.205  -6.162  1.00  0.00     0.338 C 
ATOM     32  O   UNL     1       6.707   5.444  -7.360  1.00  0.00    -0.246 OA
BRANCH  31  33
ATOM     33  C   UNL     1       6.835   6.266  -5.145  1.00  0.00     0.060 A 
ATOM     34  C   UNL     1       5.920   7.310  -5.312  1.00  0.00     0.016 A 
ATOM     35  C   UNL     1       7.766   6.286  -4.102  1.00  0.00     0.016 A 
ATOM     36  C   UNL     1       5.987   8.426  -4.490  1.00  0.00     0.010 A 
ATOM     37  C   UNL     1       7.834   7.413  -3.276  1.00  0.00     0.010 A 
ATOM     38  C   UNL     1       6.981   8.507  -3.506  1.00  0.00    -0.014 A 
BRANCH  38  39
ATOM     39  C   UNL     1       7.237   9.830  -2.888  1.00  0.00     0.031 A 
ATOM     40  C   UNL     1       8.352  10.676  -3.443  1.00  0.00     0.074 A 
ATOM     41  C   UNL     1       6.418  10.309  -1.935  1.00  0.00     0.049 A 
ATOM     42  N   UNL     1       8.707  11.894  -3.130  1.00  0.00    -0.248 NA
ATOM     43  C   UNL     1       9.176  10.061  -4.497  1.00  0.00     0.031 C 
ATOM     44  C   UNL     1       5.278   9.590  -1.365  1.00  0.00     0.029 A 
ATOM     45  N   UNL     1       6.406  11.521  -1.296  1.00  0.00    -0.354 N 
ATOM     46  C   UNL     1       9.789  12.195  -3.952  1.00  0.00     0.074 A 
ATOM     47  C   UNL     1      10.063  11.013  -4.738  1.00  0.00     0.031 C 
ATOM     48  C   UNL     1       4.671  10.382  -0.465  1.00  0.00     0.029 A 
ATOM     49  C   UNL     1       5.393  11.650  -0.376  1.00  0.00     0.049 A 
ATOM     50  H   UNL     1       7.062  12.233  -1.478  1.00  0.00     0.167 HD
ATOM     51  C   UNL     1      10.480  13.358  -4.051  1.00  0.00     0.034 A 
ATOM     52  C   UNL     1       5.092  12.674   0.448  1.00  0.00     0.034 A 
ATOM     53  C   UNL     1      10.198  14.522  -3.248  1.00  0.00     0.049 A 
ATOM     54  C   UNL     1       5.922  13.933   0.371  1.00  0.00     0.074 A 
ATOM     55  C   UNL     1      10.832  15.752  -3.255  1.00  0.00     0.029 A 
ATOM     56  N   UNL     1       9.201  14.596  -2.281  1.00  0.00    -0.354 N 
ATOM     57  N   UNL     1       6.939  14.209  -0.416  1.00  0.00    -0.248 NA
ATOM     58  C   UNL     1       5.552  15.023   1.280  1.00  0.00     0.031 C 
ATOM     59  C   UNL     1      10.267  16.542  -2.248  1.00  0.00     0.029 A 
ATOM     60  C   UNL     1       9.224  15.838  -1.665  1.00  0.00     0.049 A 
ATOM     61  H   UNL     1       8.571  13.872  -2.065  1.00  0.00     0.167 HD
ATOM     62  C   UNL     1       7.308  15.518  -0.115  1.00  0.00     0.074 A 
ATOM     63  C   UNL     1       6.391  15.979   0.908  1.00  0.00     0.031 C 
ATOM     64  C   UNL     1       8.310  16.274  -0.635  1.00  0.00     0.034 A 
BRANCH  51  65
ATOM     65  C   UNL     1      11.636  13.394  -5.023  1.00  0.00     0.023 A 
ATOM     66  C   UNL     1      11.449  13.242  -6.409  1.00  0.00     0.031 A 
ATOM     67  C   UNL     1      12.953  13.539  -4.551  1.00  0.00     0.131 A 
ATOM     68  C   UNL     1      12.560  13.164  -7.263  1.00  0.00     0.055 A 
ATOM     69  C   UNL     1      14.050  13.542  -5.415  1.00  0.00     0.041 A 
ATOM     70  F   UNL     1      13.198  13.662  -3.237  1.00  0.00    -0.206 F 
ATOM     71  C   UNL     1      13.859  13.338  -6.778  1.00  0.00     0.022 A 
BRANCH  68  72
ATOM     72  S   UNL     1      12.297  12.685  -8.993  1.00  0.00     0.124 S 
ATOM     73  O   UNL     1      11.660  11.378  -8.843  1.00  0.00    -0.237 OA
ATOM     74  O   UNL     1      11.446  13.758  -9.492  1.00  0.00    -0.237 OA
ATOM     75  O   UNL     1      13.649  12.650  -9.549  1.00  0.00    -0.744 OA
ENDBRANCH  68  72
ENDBRANCH  51  65
BRANCH  52  76
ATOM     76  C   UNL     1       3.978  12.551   1.433  1.00  0.00     0.023 A 
ATOM     77  C   UNL     1       2.857  13.395   1.381  1.00  0.00     0.031 A 
ATOM     78  C   UNL     1       4.050  11.616   2.482  1.00  0.00     0.131 A 
ATOM     79  C   UNL     1       1.879  13.321   2.386  1.00  0.00     0.055 A 
ATOM     80  C   UNL     1       3.048  11.509   3.447  1.00  0.00     0.041 A 
ATOM     81  F   UNL     1       5.100  10.784   2.579  1.00  0.00    -0.206 F 
ATOM     82  C   UNL     1       1.961  12.376   3.411  1.00  0.00     0.022 A 
BRANCH  79  83
ATOM     83  S   UNL     1       0.538  14.543   2.387  1.00  0.00     0.124 S 
ATOM     84  O   UNL     1       1.280  15.798   2.448  1.00  0.00    -0.237 OA
ATOM     85  O   UNL     1      -0.133  14.255   1.124  1.00  0.00    -0.237 OA
ATOM     86  O   UNL     1      -0.225  14.209   3.587  1.00  0.00    -0.744 OA
ENDBRANCH  79  83
ENDBRANCH  52  76
BRANCH  64  87
ATOM     87  C   UNL     1       8.429  17.691  -0.127  1.00  0.00     0.023 A 
ATOM     88  C   UNL     1       8.760  17.972   1.211  1.00  0.00     0.031 A 
ATOM     89  C   UNL     1       8.180  18.775  -0.987  1.00  0.00     0.131 A 
ATOM     90  C   UNL     1       8.761  19.299   1.666  1.00  0.00     0.055 A 
ATOM     91  C   UNL     1       8.252  20.097  -0.545  1.00  0.00     0.041 A 
ATOM     92  F   UNL     1       7.859  18.567  -2.274  1.00  0.00    -0.206 F 
ATOM     93  C   UNL     1       8.527  20.364   0.793  1.00  0.00     0.022 A 
BRANCH  90  94
ATOM     94  S   UNL     1       8.956  19.607   3.443  1.00  0.00     0.124 S 
ATOM     95  O   UNL     1       7.866  18.818   4.009  1.00  0.00    -0.237 OA
ATOM     96  O   UNL     1      10.303  19.110   3.700  1.00  0.00    -0.237 OA
ATOM     97  O   UNL     1       8.797  21.056   3.559  1.00  0.00    -0.744 OA
ENDBRANCH  90  94
ENDBRANCH  64  87
ENDBRANCH  38  39
ENDBRANCH  31  33
ENDBRANCH  30  31
ENDBRANCH  29  30
ENDBRANCH  28  29
ENDBRANCH  27  28
ENDBRANCH   1  27
TORSDOF 23
