REMARK SMILES CC(C)N1C(=O)C[C@@H]([N@@H+]2CC[C@H](C(=O)OCCOCCOC(=O)c3ccc(-c4c5nc(c(-c6cc(S(=O)(=O)[O-])ccc6F)c6ccc([nH]6)c(-c6cc(S(=O)(=O)[O-])ccc6F)c6nc(c(-c7cc(S(=O)(=O)[O-])ccc7F)c7ccc4[nH]7)C=C6)C=C5)cc3)[C@@H]2C)C1=O
REMARK SMILES IDX 19 1 18 2 17 3 16 4 15 5 13 6 14 7 12 8 9 9 10 10 87 11
REMARK SMILES IDX 11 13 88 14 8 15 4 16 5 17 89 18 6 19 7 20 90 21 2 22 1 23
REMARK SMILES IDX 3 24 20 25 21 26 22 27 23 28 24 29 25 30 86 31 26 32 85 33
REMARK SMILES IDX 27 34 28 35 29 36 79 37 30 38 84 39 78 40 80 41 31 42 83 43
REMARK SMILES IDX 77 44 76 45 32 47 64 48 44 49 63 50 45 51 48 52 62 53 81 54
REMARK SMILES IDX 46 55 47 56 61 58 82 59 49 60 33 61 34 62 42 63 35 64 41 65
REMARK SMILES IDX 43 66 40 67 36 68 37 69 38 70 39 71 65 72 66 73 74 74 67 75
REMARK SMILES IDX 73 76 75 77 72 78 68 79 69 80 70 81 71 82 50 83 51 84 59 85
REMARK SMILES IDX 52 86 58 87 60 88 57 89 53 90 54 91 55 92 56 93
REMARK H PARENT 9 12 80 46 48 57
REMARK Flexibility Score: inf
ROOT
ATOM      1  C   UNL     1      -4.440   3.227  -2.519  1.00  0.00     0.202 C 
ENDROOT
BRANCH   1   2
ATOM      2  O   UNL     1      -5.659   3.969  -2.523  1.00  0.00    -0.374 OA
BRANCH   2   3
ATOM      3  C   UNL     1      -6.368   4.004  -1.283  1.00  0.00     0.202 C 
BRANCH   3   4
ATOM      4  C   UNL     1      -7.261   2.789  -1.042  1.00  0.00     0.261 C 
BRANCH   4   5
ATOM      5  O   UNL     1      -6.468   1.611  -0.786  1.00  0.00    -0.463 OA
BRANCH   5   6
ATOM      6  C   UNL     1      -6.649   0.563  -1.622  1.00  0.00     0.315 C 
ATOM      7  O   UNL     1      -7.376   0.580  -2.611  1.00  0.00    -0.252 OA
BRANCH   6   8
ATOM      8  C   UNL     1      -5.808  -0.655  -1.283  1.00  0.00     0.162 C 
ATOM      9  N   UNL     1      -3.875  -0.899   0.140  1.00  0.00    -0.321 N 
ATOM     10  C   UNL     1      -3.407  -0.397  -1.145  1.00  0.00     0.264 C 
ATOM     11  C   UNL     1      -5.348  -0.937   0.157  1.00  0.00     0.196 C 
ATOM     12  H   UNL     1      -3.575  -1.870   0.220  1.00  0.00     0.349 HD
ATOM     13  C   UNL     1      -4.532  -0.693  -2.120  1.00  0.00     0.083 C 
ATOM     14  C   UNL     1      -6.095  -0.234   1.288  1.00  0.00     0.076 C 
BRANCH   9  15
ATOM     15  C   UNL     1      -3.167  -0.432   1.342  1.00  0.00     0.284 C 
ATOM     16  N   UNL     1      -0.892   0.209   1.373  1.00  0.00    -0.275 N 
ATOM     17  C   UNL     1      -1.608   1.360   1.246  1.00  0.00     0.236 C 
ATOM     18  C   UNL     1      -1.708  -0.893   1.349  1.00  0.00     0.288 C 
ATOM     19  O   UNL     1      -1.170   2.462   0.953  1.00  0.00    -0.274 OA
ATOM     20  C   UNL     1      -3.055   1.079   1.508  1.00  0.00     0.176 C 
ATOM     21  O   UNL     1      -1.331  -2.057   1.284  1.00  0.00    -0.267 OA
BRANCH  16  22
ATOM     22  C   UNL     1       0.567   0.108   1.290  1.00  0.00     0.087 C 
ATOM     23  C   UNL     1       1.024  -0.022  -0.163  1.00  0.00     0.031 C 
ATOM     24  C   UNL     1       1.302   1.260   1.982  1.00  0.00     0.031 C 
ENDBRANCH  16  22
ENDBRANCH   9  15
ENDBRANCH   6   8
ENDBRANCH   5   6
ENDBRANCH   4   5
ENDBRANCH   3   4
ENDBRANCH   2   3
ENDBRANCH   1   2
BRANCH   1  25
ATOM     25  C   UNL     1      -3.215   3.995  -2.013  1.00  0.00     0.261 C 
BRANCH  25  26
ATOM     26  O   UNL     1      -3.278   4.206  -0.592  1.00  0.00    -0.460 OA
BRANCH  26  27
ATOM     27  C   UNL     1      -3.553   5.473  -0.204  1.00  0.00     0.338 C 
ATOM     28  O   UNL     1      -3.737   6.441  -0.930  1.00  0.00    -0.246 OA
BRANCH  27  29
ATOM     29  C   UNL     1      -3.800   5.501   1.250  1.00  0.00     0.060 A 
ATOM     30  C   UNL     1      -4.980   6.099   1.708  1.00  0.00     0.016 A 
ATOM     31  C   UNL     1      -2.863   5.003   2.157  1.00  0.00     0.016 A 
ATOM     32  C   UNL     1      -5.208   6.234   3.078  1.00  0.00     0.010 A 
ATOM     33  C   UNL     1      -3.098   5.128   3.529  1.00  0.00     0.010 A 
ATOM     34  C   UNL     1      -4.254   5.778   3.997  1.00  0.00    -0.014 A 
BRANCH  34  35
ATOM     35  C   UNL     1      -4.369   6.127   5.436  1.00  0.00     0.031 A 
ATOM     36  C   UNL     1      -3.490   7.220   5.983  1.00  0.00     0.074 A 
ATOM     37  C   UNL     1      -5.232   5.482   6.241  1.00  0.00     0.049 A 
ATOM     38  N   UNL     1      -3.333   7.622   7.218  1.00  0.00    -0.248 NA
ATOM     39  C   UNL     1      -2.670   7.949   5.003  1.00  0.00     0.031 C 
ATOM     40  C   UNL     1      -6.166   4.439   5.817  1.00  0.00     0.029 A 
ATOM     41  N   UNL     1      -5.454   5.603   7.591  1.00  0.00    -0.354 N 
ATOM     42  C   UNL     1      -2.386   8.640   7.166  1.00  0.00     0.074 A 
ATOM     43  C   UNL     1      -1.979   8.766   5.782  1.00  0.00     0.031 C 
ATOM     44  C   UNL     1      -6.850   4.005   6.890  1.00  0.00     0.029 A 
ATOM     45  C   UNL     1      -6.373   4.704   8.082  1.00  0.00     0.049 A 
ATOM     46  H   UNL     1      -4.998   6.269   8.154  1.00  0.00     0.167 HD
ATOM     47  C   UNL     1      -1.906   9.403   8.178  1.00  0.00     0.034 A 
ATOM     48  C   UNL     1      -6.758   4.453   9.350  1.00  0.00     0.034 A 
ATOM     49  C   UNL     1      -2.323   9.265   9.551  1.00  0.00     0.049 A 
ATOM     50  C   UNL     1      -6.151   5.262  10.474  1.00  0.00     0.074 A 
ATOM     51  C   UNL     1      -1.917   9.998  10.653  1.00  0.00     0.029 A 
ATOM     52  N   UNL     1      -3.235   8.325  10.014  1.00  0.00    -0.354 N 
ATOM     53  N   UNL     1      -5.256   6.222  10.412  1.00  0.00    -0.248 NA
ATOM     54  C   UNL     1      -6.608   4.955  11.836  1.00  0.00     0.031 C 
ATOM     55  C   UNL     1      -2.529   9.457  11.789  1.00  0.00     0.029 A 
ATOM     56  C   UNL     1      -3.379   8.438  11.388  1.00  0.00     0.049 A 
ATOM     57  H   UNL     1      -3.709   7.674   9.449  1.00  0.00     0.167 HD
ATOM     58  C   UNL     1      -5.075   6.657  11.723  1.00  0.00     0.074 A 
ATOM     59  C   UNL     1      -5.955   5.859  12.551  1.00  0.00     0.031 C 
ATOM     60  C   UNL     1      -4.261   7.633  12.200  1.00  0.00     0.034 A 
BRANCH  47  61
ATOM     61  C   UNL     1      -0.840  10.417   7.838  1.00  0.00     0.023 A 
ATOM     62  C   UNL     1      -1.095  11.507   6.989  1.00  0.00     0.031 A 
ATOM     63  C   UNL     1       0.461  10.274   8.353  1.00  0.00     0.131 A 
ATOM     64  C   UNL     1      -0.051  12.371   6.625  1.00  0.00     0.055 A 
ATOM     65  C   UNL     1       1.477  11.182   8.050  1.00  0.00     0.041 A 
ATOM     66  F   UNL     1       0.771   9.239   9.151  1.00  0.00    -0.206 F 
ATOM     67  C   UNL     1       1.228  12.230   7.170  1.00  0.00     0.022 A 
BRANCH  64  68
ATOM     68  S   UNL     1      -0.353  13.598   5.324  1.00  0.00     0.124 S 
ATOM     69  O   UNL     1      -0.740  12.748   4.201  1.00  0.00    -0.237 OA
ATOM     70  O   UNL     1      -1.413  14.415   5.902  1.00  0.00    -0.237 OA
ATOM     71  O   UNL     1       0.939  14.265   5.175  1.00  0.00    -0.744 OA
ENDBRANCH  64  68
ENDBRANCH  47  61
BRANCH  48  72
ATOM     72  C   UNL     1      -7.731   3.362   9.644  1.00  0.00     0.023 A 
ATOM     73  C   UNL     1      -8.979   3.638  10.224  1.00  0.00     0.031 A 
ATOM     74  C   UNL     1      -7.399   2.016   9.404  1.00  0.00     0.131 A 
ATOM     75  C   UNL     1      -9.830   2.582  10.589  1.00  0.00     0.055 A 
ATOM     76  C   UNL     1      -8.271   0.972   9.720  1.00  0.00     0.041 A 
ATOM     77  F   UNL     1      -6.218   1.695   8.852  1.00  0.00    -0.206 F 
ATOM     78  C   UNL     1      -9.490   1.252  10.329  1.00  0.00     0.022 A 
BRANCH  75  79
ATOM     79  S   UNL     1     -11.352   2.968  11.497  1.00  0.00     0.124 S 
ATOM     80  O   UNL     1     -10.831   3.664  12.668  1.00  0.00    -0.237 OA
ATOM     81  O   UNL     1     -12.079   3.786  10.532  1.00  0.00    -0.237 OA
ATOM     82  O   UNL     1     -11.934   1.653  11.759  1.00  0.00    -0.744 OA
ENDBRANCH  75  79
ENDBRANCH  48  72
BRANCH  60  83
ATOM     83  C   UNL     1      -4.331   7.934  13.678  1.00  0.00     0.023 A 
ATOM     84  C   UNL     1      -3.873   7.024  14.645  1.00  0.00     0.031 A 
ATOM     85  C   UNL     1      -4.858   9.162  14.119  1.00  0.00     0.131 A 
ATOM     86  C   UNL     1      -3.990   7.337  16.009  1.00  0.00     0.055 A 
ATOM     87  C   UNL     1      -4.920   9.491  15.473  1.00  0.00     0.041 A 
ATOM     88  F   UNL     1      -5.311  10.067  13.237  1.00  0.00    -0.206 F 
ATOM     89  C   UNL     1      -4.494   8.572  16.428  1.00  0.00     0.022 A 
BRANCH  86  90
ATOM     90  S   UNL     1      -3.541   6.079  17.236  1.00  0.00     0.124 S 
ATOM     91  O   UNL     1      -4.451   4.989  16.900  1.00  0.00    -0.237 OA
ATOM     92  O   UNL     1      -2.131   5.845  16.942  1.00  0.00    -0.237 OA
ATOM     93  O   UNL     1      -3.805   6.737  18.514  1.00  0.00    -0.744 OA
ENDBRANCH  86  90
ENDBRANCH  60  83
ENDBRANCH  34  35
ENDBRANCH  27  29
ENDBRANCH  26  27
ENDBRANCH  25  26
ENDBRANCH   1  25
TORSDOF 19
