REMARK SMILES CC[C@](C)(NC(=O)N[C@@H]1C=CS(=O)(=O)C1)C(=O)OCCOCCOC(=O)c1ccc(-c2c3nc(c(-c4cc(S(=O)(=O)[O-])ccc4F)c4ccc([nH]4)c(-c4cc(S(=O)(=O)[O-])ccc4F)c4nc(c(-c5cc(S(=O)(=O)[O-])ccc5F)c5ccc2[nH]5)C=C4)C=C3)cc1
REMARK SMILES IDX 22 1 21 2 20 3 19 4 18 5 16 6 17 7 3 8 4 9 2 10 1 11 5 12
REMARK SMILES IDX 6 13 7 15 8 16 9 18 10 19 15 20 11 21 12 22 13 23 14 24
REMARK SMILES IDX 23 25 24 26 25 27 26 28 27 29 28 30 89 31 29 32 88 33 30 34
REMARK SMILES IDX 31 35 32 36 82 37 33 38 87 39 81 40 83 41 34 42 86 43 80 44
REMARK SMILES IDX 79 45 35 47 67 48 47 49 66 50 48 51 51 52 65 53 84 54 49 55
REMARK SMILES IDX 50 56 64 58 85 59 52 60 36 61 37 62 45 63 38 64 44 65 46 66
REMARK SMILES IDX 43 67 39 68 40 69 41 70 42 71 68 72 69 73 77 74 70 75 76 76
REMARK SMILES IDX 78 77 75 78 71 79 72 80 73 81 74 82 53 83 54 84 62 85 55 86
REMARK SMILES IDX 61 87 63 88 60 89 56 90 57 91 58 92 59 93
REMARK H PARENT 5 14 8 17 83 46 51 57
REMARK Flexibility Score: inf
ROOT
ATOM      1  C   UNL     1       5.247   2.632   1.333  1.00  0.00     0.202 C 
ENDROOT
BRANCH   1   2
ATOM      2  O   UNL     1       4.573   1.453   0.826  1.00  0.00    -0.374 OA
BRANCH   2   3
ATOM      3  C   UNL     1       3.780   1.452  -0.549  1.00  0.00     0.202 C 
BRANCH   3   4
ATOM      4  C   UNL     1       1.709   2.018  -1.032  1.00  0.00     0.261 C 
BRANCH   4   5
ATOM      5  O   UNL     1       1.051   3.555  -1.033  1.00  0.00    -0.462 OA
BRANCH   5   6
ATOM      6  C   UNL     1       0.973   4.463  -0.012  1.00  0.00     0.331 C 
ATOM      7  O   UNL     1       0.328   4.240   1.007  1.00  0.00    -0.249 OA
BRANCH   6   8
ATOM      8  C   UNL     1       1.777   5.818  -0.314  1.00  0.00     0.136 C 
ATOM      9  C   UNL     1       1.531   6.678   0.968  1.00  0.00     0.047 C 
BRANCH   8  10
ATOM     10  C   UNL     1       1.091   6.542  -1.500  1.00  0.00     0.037 C 
ATOM     11  C   UNL     1       1.385   5.974  -2.884  1.00  0.00     0.007 C 
ENDBRANCH   8  10
BRANCH   8  12
ATOM     12  N   UNL     1       3.283   5.968  -0.436  1.00  0.00    -0.322 N 
ATOM     13  C   UNL     1       4.378   5.347  -0.881  1.00  0.00     0.316 C 
ATOM     14  H   UNL     1       3.547   6.833  -0.048  1.00  0.00     0.166 HD
ATOM     15  O   UNL     1       5.424   5.989  -0.965  1.00  0.00    -0.249 OA
ATOM     16  N   UNL     1       4.399   4.043  -1.158  1.00  0.00    -0.331 N 
ATOM     17  H   UNL     1       5.273   3.625  -1.329  1.00  0.00     0.166 HD
BRANCH  16  18
ATOM     18  C   UNL     1       3.242   3.211  -1.223  1.00  0.00     0.123 C 
ATOM     19  C   UNL     1       2.626   2.615   0.601  1.00  0.00     0.011 C 
ATOM     20  C   UNL     1       3.149   1.614  -2.461  1.00  0.00     0.170 C 
ATOM     21  C   UNL     1       2.206   1.059   0.761  1.00  0.00     0.104 C 
ATOM     22  S   UNL     1       2.233  -0.125  -1.169  1.00  0.00     0.173 S 
ATOM     23  O   UNL     1       0.841  -0.387  -1.497  1.00  0.00    -0.224 OA
ATOM     24  O   UNL     1       3.111  -1.262  -0.971  1.00  0.00    -0.224 OA
ENDBRANCH  16  18
ENDBRANCH   8  12
ENDBRANCH   6   8
ENDBRANCH   5   6
ENDBRANCH   4   5
ENDBRANCH   3   4
ENDBRANCH   2   3
ENDBRANCH   1   2
BRANCH   1  25
ATOM     25  C   UNL     1       6.685   2.917   0.895  1.00  0.00     0.261 C 
BRANCH  25  26
ATOM     26  O   UNL     1       6.886   2.697  -0.497  1.00  0.00    -0.460 OA
BRANCH  26  27
ATOM     27  C   UNL     1       7.225   1.417  -0.789  1.00  0.00     0.338 C 
ATOM     28  O   UNL     1       7.412   0.505  -0.007  1.00  0.00    -0.246 OA
BRANCH  27  29
ATOM     29  C   UNL     1       7.126   1.264  -2.249  1.00  0.00     0.060 A 
ATOM     30  C   UNL     1       6.468   0.133  -2.745  1.00  0.00     0.016 A 
ATOM     31  C   UNL     1       7.646   2.233  -3.111  1.00  0.00     0.016 A 
ATOM     32  C   UNL     1       6.348  -0.050  -4.120  1.00  0.00     0.010 A 
ATOM     33  C   UNL     1       7.554   2.035  -4.486  1.00  0.00     0.010 A 
ATOM     34  C   UNL     1       6.937   0.875  -4.990  1.00  0.00    -0.014 A 
BRANCH  34  35
ATOM     35  C   UNL     1       7.192   0.497  -6.397  1.00  0.00     0.031 A 
ATOM     36  C   UNL     1       8.541  -0.083  -6.709  1.00  0.00     0.074 A 
ATOM     37  C   UNL     1       6.279   0.682  -7.363  1.00  0.00     0.049 A 
ATOM     38  N   UNL     1       9.097  -0.329  -7.864  1.00  0.00    -0.248 NA
ATOM     39  C   UNL     1       9.383  -0.408  -5.547  1.00  0.00     0.031 C 
ATOM     40  C   UNL     1       4.917   1.166  -7.157  1.00  0.00     0.029 A 
ATOM     41  N   UNL     1       6.379   0.504  -8.719  1.00  0.00    -0.354 N 
ATOM     42  C   UNL     1      10.367  -0.812  -7.569  1.00  0.00     0.074 A 
ATOM     43  C   UNL     1      10.505  -0.792  -6.129  1.00  0.00     0.031 C 
ATOM     44  C   UNL     1       4.314   1.275  -8.354  1.00  0.00     0.029 A 
ATOM     45  C   UNL     1       5.268   0.929  -9.408  1.00  0.00     0.049 A 
ATOM     46  H   UNL     1       7.168   0.111  -9.156  1.00  0.00     0.167 HD
ATOM     47  C   UNL     1      11.330  -1.228  -8.426  1.00  0.00     0.034 A 
ATOM     48  C   UNL     1       5.072   1.075 -10.735  1.00  0.00     0.034 A 
ATOM     49  C   UNL     1      11.169  -1.208  -9.858  1.00  0.00     0.049 A 
ATOM     50  C   UNL     1       6.190   0.709 -11.683  1.00  0.00     0.074 A 
ATOM     51  C   UNL     1      12.066  -1.605 -10.831  1.00  0.00     0.029 A 
ATOM     52  N   UNL     1      10.041  -0.739 -10.523  1.00  0.00    -0.354 N 
ATOM     53  N   UNL     1       7.397   0.268 -11.406  1.00  0.00    -0.248 NA
ATOM     54  C   UNL     1       5.923   0.860 -13.119  1.00  0.00     0.031 C 
ATOM     55  C   UNL     1      11.523  -1.285 -12.079  1.00  0.00     0.029 A 
ATOM     56  C   UNL     1      10.239  -0.794 -11.893  1.00  0.00     0.049 A 
ATOM     57  H   UNL     1       9.222  -0.414 -10.084  1.00  0.00     0.167 HD
ATOM     58  C   UNL     1       8.020   0.054 -12.635  1.00  0.00     0.074 A 
ATOM     59  C   UNL     1       7.056   0.421 -13.653  1.00  0.00     0.031 C 
ATOM     60  C   UNL     1       9.267  -0.417 -12.897  1.00  0.00     0.034 A 
BRANCH  47  61
ATOM     61  C   UNL     1      12.654  -1.636  -7.824  1.00  0.00     0.023 A 
ATOM     62  C   UNL     1      12.759  -2.686  -6.894  1.00  0.00     0.031 A 
ATOM     63  C   UNL     1      13.815  -0.896  -8.110  1.00  0.00     0.131 A 
ATOM     64  C   UNL     1      13.962  -2.887  -6.200  1.00  0.00     0.055 A 
ATOM     65  C   UNL     1      15.037  -1.174  -7.496  1.00  0.00     0.041 A 
ATOM     66  F   UNL     1      13.775   0.138  -8.965  1.00  0.00    -0.206 F 
ATOM     67  C   UNL     1      15.110  -2.159  -6.516  1.00  0.00     0.022 A 
BRANCH  64  68
ATOM     68  S   UNL     1      13.942  -3.955  -4.732  1.00  0.00     0.124 S 
ATOM     69  O   UNL     1      12.892  -3.330  -3.930  1.00  0.00    -0.237 OA
ATOM     70  O   UNL     1      13.623  -5.261  -5.297  1.00  0.00    -0.237 OA
ATOM     71  O   UNL     1      15.293  -3.819  -4.191  1.00  0.00    -0.744 OA
ENDBRANCH  64  68
ENDBRANCH  47  61
BRANCH  48  72
ATOM     72  C   UNL     1       3.795   1.664 -11.234  1.00  0.00     0.023 A 
ATOM     73  C   UNL     1       2.897   0.924 -12.017  1.00  0.00     0.031 A 
ATOM     74  C   UNL     1       3.459   2.998 -10.929  1.00  0.00     0.131 A 
ATOM     75  C   UNL     1       1.716   1.527 -12.484  1.00  0.00     0.055 A 
ATOM     76  C   UNL     1       2.262   3.575 -11.351  1.00  0.00     0.041 A 
ATOM     77  F   UNL     1       4.285   3.753 -10.187  1.00  0.00    -0.206 F 
ATOM     78  C   UNL     1       1.384   2.840 -12.140  1.00  0.00     0.022 A 
BRANCH  75  79
ATOM     79  S   UNL     1       0.637   0.590 -13.602  1.00  0.00     0.124 S 
ATOM     80  O   UNL     1       1.526   0.341 -14.731  1.00  0.00    -0.237 OA
ATOM     81  O   UNL     1       0.291  -0.570 -12.787  1.00  0.00    -0.237 OA
ATOM     82  O   UNL     1      -0.464   1.514 -13.865  1.00  0.00    -0.744 OA
ENDBRANCH  75  79
ENDBRANCH  48  72
BRANCH  60  83
ATOM     83  C   UNL     1       9.647  -0.636 -14.343  1.00  0.00     0.023 A 
ATOM     84  C   UNL     1       9.813   0.425 -15.249  1.00  0.00     0.031 A 
ATOM     85  C   UNL     1       9.890  -1.944 -14.806  1.00  0.00     0.131 A 
ATOM     86  C   UNL     1      10.178   0.156 -16.578  1.00  0.00     0.055 A 
ATOM     87  C   UNL     1      10.316  -2.199 -16.109  1.00  0.00     0.041 A 
ATOM     88  F   UNL     1       9.739  -2.997 -13.987  1.00  0.00    -0.206 F 
ATOM     89  C   UNL     1      10.454  -1.146 -17.007  1.00  0.00     0.022 A 
BRANCH  86  90
ATOM     90  S   UNL     1      10.208   1.522 -17.771  1.00  0.00     0.124 S 
ATOM     91  O   UNL     1       8.837   2.016 -17.701  1.00  0.00    -0.237 OA
ATOM     92  O   UNL     1      11.232   2.401 -17.216  1.00  0.00    -0.237 OA
ATOM     93  O   UNL     1      10.568   0.871 -19.030  1.00  0.00    -0.744 OA
ENDBRANCH  86  90
ENDBRANCH  60  83
ENDBRANCH  34  35
ENDBRANCH  27  29
ENDBRANCH  26  27
ENDBRANCH  25  26
ENDBRANCH   1  25
TORSDOF 20
