REMARK SMILES COc1cc(Cl)c2c(c1)C=C(C(=O)OCCOCCOC(=O)c1ccc(-c3c4nc(c(-c5cc(S(=O)(=O)[O-])ccc5F)c5ccc([nH]5)c(-c5cc(S(=O)(=O)[O-])ccc5F)c5nc(c(-c6cc(S(=O)(=O)[O-])ccc6F)c6ccc3[nH]6)C=C5)C=C4)cc1)[C@@H](C(F)(F)F)O2
REMARK SMILES IDX 18 1 17 2 16 3 15 4 14 5 12 6 13 7 11 8 3 9 4 10 9 11 5 12
REMARK SMILES IDX 8 13 6 14 7 15 10 16 91 17 86 18 2 19 1 20 87 21 88 22 89 23
REMARK SMILES IDX 90 24 19 25 20 26 21 27 22 28 23 29 24 30 85 31 25 32 84 33
REMARK SMILES IDX 26 34 27 35 28 36 78 37 29 38 83 39 77 40 79 41 30 42 82 43
REMARK SMILES IDX 76 44 75 45 31 47 63 48 43 49 62 50 44 51 47 52 61 53 80 54
REMARK SMILES IDX 45 55 46 56 60 58 81 59 48 60 32 61 33 62 41 63 34 64 40 65
REMARK SMILES IDX 42 66 39 67 35 68 36 69 37 70 38 71 64 72 65 73 73 74 66 75
REMARK SMILES IDX 72 76 74 77 71 78 67 79 68 80 69 81 70 82 49 83 50 84 58 85
REMARK SMILES IDX 51 86 57 87 59 88 56 89 52 90 53 91 54 92 55 93
REMARK H PARENT 79 46 47 57
REMARK Flexibility Score: inf
ROOT
ATOM      1  C   UNL     1      -2.242  -3.343   8.001  1.00  0.00     0.202 C 
ENDROOT
BRANCH   1   2
ATOM      2  O   UNL     1      -3.344  -4.236   8.172  1.00  0.00    -0.374 OA
BRANCH   2   3
ATOM      3  C   UNL     1      -3.055  -5.590   8.511  1.00  0.00     0.202 C 
BRANCH   3   4
ATOM      4  C   UNL     1      -2.592  -6.510   7.377  1.00  0.00     0.261 C 
BRANCH   4   5
ATOM      5  O   UNL     1      -1.440  -5.988   6.698  1.00  0.00    -0.460 OA
BRANCH   5   6
ATOM      6  C   UNL     1      -1.679  -5.554   5.440  1.00  0.00     0.338 C 
ATOM      7  O   UNL     1      -2.728  -5.646   4.818  1.00  0.00    -0.246 OA
BRANCH   6   8
ATOM      8  C   UNL     1      -0.516  -4.798   4.939  1.00  0.00     0.087 C 
ATOM      9  C   UNL     1       1.006  -1.219   2.115  1.00  0.00     0.121 A 
ATOM     10  C   UNL     1       2.316  -1.676   2.224  1.00  0.00     0.070 A 
ATOM     11  C   UNL     1      -0.008  -1.844   2.837  1.00  0.00     0.058 A 
ATOM     12  C   UNL     1       2.605  -2.766   3.054  1.00  0.00     0.087 A 
ATOM     13  C   UNL     1       0.274  -2.960   3.633  1.00  0.00     0.022 A 
ATOM     14  Cl  UNL     1       4.248  -3.291   3.158  1.00  0.00    -0.080 Cl
ATOM     15  C   UNL     1       1.587  -3.416   3.765  1.00  0.00     0.146 A 
ATOM     16  C   UNL     1      -0.813  -3.678   4.268  1.00  0.00     0.027 C 
ATOM     17  O   UNL     1       1.925  -4.464   4.577  1.00  0.00    -0.474 OA
ATOM     18  C   UNL     1       0.884  -5.303   5.154  1.00  0.00     0.316 C 
BRANCH   9  19
ATOM     19  O   UNL     1       0.626  -0.136   1.370  1.00  0.00    -0.497 OA
ATOM     20  C   UNL     1       1.205  -0.095   0.069  1.00  0.00     0.278 C 
ENDBRANCH   9  19
BRANCH  18  21
ATOM     21  C   UNL     1       1.076  -6.739   4.643  1.00  0.00     0.430 C 
ATOM     22  F   UNL     1       2.354  -7.147   4.796  1.00  0.00    -0.167 F 
ATOM     23  F   UNL     1       0.291  -7.614   5.314  1.00  0.00    -0.167 F 
ATOM     24  F   UNL     1       0.763  -6.840   3.330  1.00  0.00    -0.167 F 
ENDBRANCH  18  21
ENDBRANCH   6   8
ENDBRANCH   5   6
ENDBRANCH   4   5
ENDBRANCH   3   4
ENDBRANCH   2   3
ENDBRANCH   1   2
BRANCH   1  25
ATOM     25  C   UNL     1      -1.448  -2.940   9.250  1.00  0.00     0.261 C 
BRANCH  25  26
ATOM     26  O   UNL     1      -0.667  -4.026   9.781  1.00  0.00    -0.460 OA
BRANCH  26  27
ATOM     27  C   UNL     1      -1.029  -4.448  11.015  1.00  0.00     0.338 C 
ATOM     28  O   UNL     1      -1.922  -3.994  11.722  1.00  0.00    -0.246 OA
BRANCH  27  29
ATOM     29  C   UNL     1      -0.299  -5.679  11.347  1.00  0.00     0.060 A 
ATOM     30  C   UNL     1      -1.024  -6.871  11.472  1.00  0.00     0.016 A 
ATOM     31  C   UNL     1       1.072  -5.645  11.607  1.00  0.00     0.016 A 
ATOM     32  C   UNL     1      -0.378  -8.036  11.876  1.00  0.00     0.010 A 
ATOM     33  C   UNL     1       1.714  -6.812  12.028  1.00  0.00     0.010 A 
ATOM     34  C   UNL     1       0.988  -8.005  12.187  1.00  0.00    -0.014 A 
BRANCH  34  35
ATOM     35  C   UNL     1       1.632  -9.205  12.766  1.00  0.00     0.031 A 
ATOM     36  C   UNL     1       1.808  -9.306  14.252  1.00  0.00     0.074 A 
ATOM     37  C   UNL     1       2.040 -10.203  11.963  1.00  0.00     0.049 A 
ATOM     38  N   UNL     1       2.324 -10.280  14.955  1.00  0.00    -0.248 NA
ATOM     39  C   UNL     1       1.344  -8.161  15.051  1.00  0.00     0.031 C 
ATOM     40  C   UNL     1       1.912 -10.211  10.508  1.00  0.00     0.029 A 
ATOM     41  N   UNL     1       2.652 -11.393  12.260  1.00  0.00    -0.354 N 
ATOM     42  C   UNL     1       2.235  -9.874  16.281  1.00  0.00     0.074 A 
ATOM     43  C   UNL     1       1.661  -8.546  16.279  1.00  0.00     0.031 C 
ATOM     44  C   UNL     1       2.442 -11.350  10.034  1.00  0.00     0.029 A 
ATOM     45  C   UNL     1       2.966 -12.139  11.150  1.00  0.00     0.049 A 
ATOM     46  H   UNL     1       2.847 -11.686  13.179  1.00  0.00     0.167 HD
ATOM     47  C   UNL     1       2.583 -10.557  17.397  1.00  0.00     0.034 A 
ATOM     48  C   UNL     1       3.611 -13.318  11.042  1.00  0.00     0.034 A 
ATOM     49  C   UNL     1       3.172 -11.871  17.384  1.00  0.00     0.049 A 
ATOM     50  C   UNL     1       4.041 -14.040  12.291  1.00  0.00     0.074 A 
ATOM     51  C   UNL     1       3.536 -12.655  18.465  1.00  0.00     0.029 A 
ATOM     52  N   UNL     1       3.493 -12.592  16.242  1.00  0.00    -0.354 N 
ATOM     53  N   UNL     1       3.885 -13.681  13.544  1.00  0.00    -0.248 NA
ATOM     54  C   UNL     1       4.721 -15.332  12.119  1.00  0.00     0.031 C 
ATOM     55  C   UNL     1       4.128 -13.823  17.977  1.00  0.00     0.029 A 
ATOM     56  C   UNL     1       4.078 -13.798  16.592  1.00  0.00     0.049 A 
ATOM     57  H   UNL     1       3.328 -12.290  15.320  1.00  0.00     0.167 HD
ATOM     58  C   UNL     1       4.438 -14.704  14.310  1.00  0.00     0.074 A 
ATOM     59  C   UNL     1       4.906 -15.710  13.378  1.00  0.00     0.031 C 
ATOM     60  C   UNL     1       4.549 -14.796  15.660  1.00  0.00     0.034 A 
BRANCH  47  61
ATOM     61  C   UNL     1       2.327  -9.909  18.732  1.00  0.00     0.023 A 
ATOM     62  C   UNL     1       3.401  -9.567  19.572  1.00  0.00     0.031 A 
ATOM     63  C   UNL     1       1.018  -9.720  19.211  1.00  0.00     0.131 A 
ATOM     64  C   UNL     1       3.147  -9.074  20.858  1.00  0.00     0.055 A 
ATOM     65  C   UNL     1       0.770  -9.195  20.479  1.00  0.00     0.041 A 
ATOM     66  F   UNL     1      -0.040 -10.028  18.443  1.00  0.00    -0.206 F 
ATOM     67  C   UNL     1       1.838  -8.879  21.313  1.00  0.00     0.022 A 
BRANCH  64  68
ATOM     68  S   UNL     1       4.501  -8.701  22.004  1.00  0.00     0.124 S 
ATOM     69  O   UNL     1       4.237  -7.303  22.337  1.00  0.00    -0.237 OA
ATOM     70  O   UNL     1       4.258  -9.656  23.081  1.00  0.00    -0.237 OA
ATOM     71  O   UNL     1       5.704  -8.932  21.213  1.00  0.00    -0.744 OA
ENDBRANCH  64  68
ENDBRANCH  47  61
BRANCH  48  72
ATOM     72  C   UNL     1       3.833 -13.884   9.683  1.00  0.00     0.023 A 
ATOM     73  C   UNL     1       4.664 -13.225   8.760  1.00  0.00     0.031 A 
ATOM     74  C   UNL     1       3.115 -15.009   9.248  1.00  0.00     0.131 A 
ATOM     75  C   UNL     1       4.698 -13.653   7.427  1.00  0.00     0.055 A 
ATOM     76  C   UNL     1       3.200 -15.470   7.934  1.00  0.00     0.041 A 
ATOM     77  F   UNL     1       2.304 -15.662  10.095  1.00  0.00    -0.206 F 
ATOM     78  C   UNL     1       3.982 -14.780   7.011  1.00  0.00     0.022 A 
BRANCH  75  79
ATOM     79  S   UNL     1       5.584 -12.694   6.169  1.00  0.00     0.124 S 
ATOM     80  O   UNL     1       6.401 -13.717   5.521  1.00  0.00    -0.237 OA
ATOM     81  O   UNL     1       4.479 -12.170   5.371  1.00  0.00    -0.237 OA
ATOM     82  O   UNL     1       6.321 -11.704   6.947  1.00  0.00    -0.744 OA
ENDBRANCH  75  79
ENDBRANCH  48  72
BRANCH  60  83
ATOM     83  C   UNL     1       5.222 -16.015  16.244  1.00  0.00     0.023 A 
ATOM     84  C   UNL     1       4.498 -16.902  17.062  1.00  0.00     0.031 A 
ATOM     85  C   UNL     1       6.606 -16.219  16.103  1.00  0.00     0.131 A 
ATOM     86  C   UNL     1       5.167 -17.931  17.738  1.00  0.00     0.055 A 
ATOM     87  C   UNL     1       7.261 -17.272  16.744  1.00  0.00     0.041 A 
ATOM     88  F   UNL     1       7.342 -15.394  15.341  1.00  0.00    -0.206 F 
ATOM     89  C   UNL     1       6.543 -18.126  17.576  1.00  0.00     0.022 A 
BRANCH  86  90
ATOM     90  S   UNL     1       4.292 -19.014  18.901  1.00  0.00     0.124 S 
ATOM     91  O   UNL     1       4.564 -20.339  18.346  1.00  0.00    -0.237 OA
ATOM     92  O   UNL     1       4.966 -18.717  20.162  1.00  0.00    -0.237 OA
ATOM     93  O   UNL     1       2.903 -18.578  18.812  1.00  0.00    -0.744 OA
ENDBRANCH  86  90
ENDBRANCH  60  83
ENDBRANCH  34  35
ENDBRANCH  27  29
ENDBRANCH  26  27
ENDBRANCH  25  26
ENDBRANCH   1  25
TORSDOF 19
