REMARK SMILES O=C(OCCOCCOC(=O)[C@H]1CCCN(c2cc(-c3ccccn3)nc(-c3ccccc3F)n2)C1)c1ccc(-c2c3nc(c(-c4cc(S(=O)(=O)[O-])ccc4F)c4ccc([nH]4)c(-c4cc(S(=O)(=O)[O-])ccc4F)c4nc(c(-c5cc(S(=O)(=O)[O-])ccc5F)c5ccc2[nH]5)C=C4)C=C3)cc1
REMARK SMILES IDX 5 1 4 2 3 3 2 4 1 5 37 6 38 7 99 8 39 9 98 10 40 11 41 12
REMARK SMILES IDX 42 13 92 14 43 15 97 16 91 17 93 18 44 19 96 20 90 21 89 22
REMARK SMILES IDX 45 24 77 25 57 26 76 27 58 28 61 29 75 30 94 31 59 32 60 33
REMARK SMILES IDX 74 35 95 36 62 37 46 38 47 39 55 40 48 41 54 42 56 43 53 44
REMARK SMILES IDX 49 45 50 46 51 47 52 48 78 49 79 50 87 51 80 52 86 53 88 54
REMARK SMILES IDX 85 55 81 56 82 57 83 58 84 59 63 60 64 61 72 62 65 63 71 64
REMARK SMILES IDX 73 65 70 66 66 67 67 68 68 69 69 70 6 71 7 72 8 73 9 74
REMARK SMILES IDX 10 75 11 76 12 77 13 78 36 79 14 80 16 81 15 82 17 83 18 84
REMARK SMILES IDX 35 85 19 86 27 87 26 88 20 89 21 90 25 91 22 92 24 93 23 94
REMARK SMILES IDX 28 95 29 96 33 97 30 98 32 99 34 100 31 101
REMARK H PARENT 93 23 61 34
REMARK Flexibility Score: inf
ROOT
ATOM      1  C   UNL     1       2.687   2.116   4.560  1.00  0.00     0.202 C 
ENDROOT
BRANCH   1   2
ATOM      2  C   UNL     1       1.233   2.250   5.016  1.00  0.00     0.261 C 
BRANCH   2   3
ATOM      3  O   UNL     1       0.958   3.606   5.407  1.00  0.00    -0.460 OA
BRANCH   3   4
ATOM      4  C   UNL     1       0.755   4.059   6.667  1.00  0.00     0.338 C 
ATOM      5  O   UNL     1       0.433   5.232   6.840  1.00  0.00    -0.246 OA
BRANCH   4   6
ATOM      6  C   UNL     1       0.938   3.184   7.859  1.00  0.00     0.060 A 
ATOM      7  C   UNL     1       1.867   2.145   7.915  1.00  0.00     0.016 A 
ATOM      8  C   UNL     1       0.204   3.484   9.013  1.00  0.00     0.016 A 
ATOM      9  C   UNL     1       2.023   1.366   9.037  1.00  0.00     0.010 A 
ATOM     10  C   UNL     1       0.400   2.743  10.181  1.00  0.00     0.010 A 
ATOM     11  C   UNL     1       1.312   1.681  10.185  1.00  0.00    -0.014 A 
BRANCH  11  12
ATOM     12  C   UNL     1       1.525   0.806  11.341  1.00  0.00     0.031 A 
ATOM     13  C   UNL     1       0.478  -0.206  11.659  1.00  0.00     0.074 A 
ATOM     14  C   UNL     1       2.729   0.818  11.941  1.00  0.00     0.049 A 
ATOM     15  N   UNL     1       0.434  -1.060  12.640  1.00  0.00    -0.248 NA
ATOM     16  C   UNL     1      -0.666  -0.279  10.734  1.00  0.00     0.031 C 
ATOM     17  C   UNL     1       3.860   1.666  11.541  1.00  0.00     0.029 A 
ATOM     18  N   UNL     1       3.227   0.065  12.964  1.00  0.00    -0.354 N 
ATOM     19  C   UNL     1      -0.755  -1.756  12.472  1.00  0.00     0.074 A 
ATOM     20  C   UNL     1      -1.407  -1.220  11.298  1.00  0.00     0.031 C 
ATOM     21  C   UNL     1       4.931   1.349  12.284  1.00  0.00     0.029 A 
ATOM     22  C   UNL     1       4.536   0.352  13.270  1.00  0.00     0.049 A 
ATOM     23  H   UNL     1       2.700  -0.619  13.438  1.00  0.00     0.167 HD
ATOM     24  C   UNL     1      -1.246  -2.747  13.249  1.00  0.00     0.034 A 
ATOM     25  C   UNL     1       5.308  -0.113  14.269  1.00  0.00     0.034 A 
ATOM     26  C   UNL     1      -0.551  -3.228  14.414  1.00  0.00     0.049 A 
ATOM     27  C   UNL     1       4.683  -1.103  15.212  1.00  0.00     0.074 A 
ATOM     28  C   UNL     1      -0.969  -4.147  15.355  1.00  0.00     0.029 A 
ATOM     29  N   UNL     1       0.724  -2.814  14.793  1.00  0.00    -0.354 N 
ATOM     30  N   UNL     1       3.490  -1.653  15.148  1.00  0.00    -0.248 NA
ATOM     31  C   UNL     1       5.481  -1.514  16.369  1.00  0.00     0.031 C 
ATOM     32  C   UNL     1       0.025  -4.241  16.336  1.00  0.00     0.029 A 
ATOM     33  C   UNL     1       1.098  -3.441  15.967  1.00  0.00     0.049 A 
ATOM     34  H   UNL     1       1.278  -2.169  14.297  1.00  0.00     0.167 HD
ATOM     35  C   UNL     1       3.396  -2.488  16.253  1.00  0.00     0.074 A 
ATOM     36  C   UNL     1       4.658  -2.370  16.962  1.00  0.00     0.031 C 
ATOM     37  C   UNL     1       2.367  -3.282  16.644  1.00  0.00     0.034 A 
BRANCH  24  38
ATOM     38  C   UNL     1      -2.619  -3.261  12.910  1.00  0.00     0.023 A 
ATOM     39  C   UNL     1      -2.880  -3.962  11.719  1.00  0.00     0.031 A 
ATOM     40  C   UNL     1      -3.705  -2.962  13.751  1.00  0.00     0.131 A 
ATOM     41  C   UNL     1      -4.203  -4.277  11.370  1.00  0.00     0.055 A 
ATOM     42  C   UNL     1      -5.009  -3.344  13.434  1.00  0.00     0.041 A 
ATOM     43  F   UNL     1      -3.520  -2.262  14.882  1.00  0.00    -0.206 F 
ATOM     44  C   UNL     1      -5.266  -3.993  12.230  1.00  0.00     0.022 A 
BRANCH  41  45
ATOM     45  S   UNL     1      -4.534  -4.940   9.713  1.00  0.00     0.124 S 
ATOM     46  O   UNL     1      -4.126  -3.823   8.864  1.00  0.00    -0.237 OA
ATOM     47  O   UNL     1      -3.681  -6.122   9.667  1.00  0.00    -0.237 OA
ATOM     48  O   UNL     1      -5.970  -5.208   9.732  1.00  0.00    -0.744 OA
ENDBRANCH  41  45
ENDBRANCH  24  38
BRANCH  25  49
ATOM     49  C   UNL     1       6.689   0.412  14.451  1.00  0.00     0.023 A 
ATOM     50  C   UNL     1       7.813  -0.405  14.265  1.00  0.00     0.031 A 
ATOM     51  C   UNL     1       6.903   1.768  14.769  1.00  0.00     0.131 A 
ATOM     52  C   UNL     1       9.102   0.141  14.400  1.00  0.00     0.055 A 
ATOM     53  C   UNL     1       8.183   2.314  14.866  1.00  0.00     0.041 A 
ATOM     54  F   UNL     1       5.860   2.595  14.950  1.00  0.00    -0.206 F 
ATOM     55  C   UNL     1       9.293   1.497  14.683  1.00  0.00     0.022 A 
BRANCH  52  56
ATOM     56  S   UNL     1      10.540  -0.948  14.207  1.00  0.00     0.124 S 
ATOM     57  O   UNL     1      10.379  -1.854  15.338  1.00  0.00    -0.237 OA
ATOM     58  O   UNL     1      10.314  -1.523  12.885  1.00  0.00    -0.237 OA
ATOM     59  O   UNL     1      11.675  -0.032  14.298  1.00  0.00    -0.744 OA
ENDBRANCH  52  56
ENDBRANCH  25  49
BRANCH  37  60
ATOM     60  C   UNL     1       2.581  -4.111  17.878  1.00  0.00     0.023 A 
ATOM     61  C   UNL     1       2.591  -3.532  19.156  1.00  0.00     0.031 A 
ATOM     62  C   UNL     1       2.707  -5.506  17.769  1.00  0.00     0.131 A 
ATOM     63  C   UNL     1       2.745  -4.350  20.283  1.00  0.00     0.055 A 
ATOM     64  C   UNL     1       2.808  -6.319  18.895  1.00  0.00     0.041 A 
ATOM     65  F   UNL     1       2.699  -6.100  16.564  1.00  0.00    -0.206 F 
ATOM     66  C   UNL     1       2.832  -5.741  20.162  1.00  0.00     0.022 A 
BRANCH  63  67
ATOM     67  S   UNL     1       2.860  -3.570  21.914  1.00  0.00     0.124 S 
ATOM     68  O   UNL     1       4.102  -2.812  21.798  1.00  0.00    -0.237 OA
ATOM     69  O   UNL     1       1.635  -2.780  21.974  1.00  0.00    -0.237 OA
ATOM     70  O   UNL     1       2.910  -4.705  22.833  1.00  0.00    -0.744 OA
ENDBRANCH  63  67
ENDBRANCH  37  60
ENDBRANCH  11  12
ENDBRANCH   4   6
ENDBRANCH   3   4
ENDBRANCH   2   3
ENDBRANCH   1   2
BRANCH   1  71
ATOM     71  O   UNL     1       3.727   2.465   5.481  1.00  0.00    -0.374 OA
BRANCH  71  72
ATOM     72  C   UNL     1       3.929   3.850   5.786  1.00  0.00     0.202 C 
BRANCH  72  73
ATOM     73  C   UNL     1       5.428   4.117   5.992  1.00  0.00     0.261 C 
BRANCH  73  74
ATOM     74  O   UNL     1       6.100   4.035   4.729  1.00  0.00    -0.463 OA
BRANCH  74  75
ATOM     75  C   UNL     1       6.262   2.759   4.284  1.00  0.00     0.310 C 
ATOM     76  O   UNL     1       6.835   1.881   4.916  1.00  0.00    -0.252 OA
BRANCH  75  77
ATOM     77  C   UNL     1       5.600   2.560   2.935  1.00  0.00     0.118 C 
ATOM     78  C   UNL     1       5.003   3.869   2.365  1.00  0.00     0.019 C 
ATOM     79  C   UNL     1       6.584   1.893   1.988  1.00  0.00     0.133 C 
ATOM     80  C   UNL     1       4.481   3.705   0.947  1.00  0.00     0.022 C 
ATOM     81  N   UNL     1       6.064   1.941   0.630  1.00  0.00    -0.356 N 
ATOM     82  C   UNL     1       5.612   3.199   0.073  1.00  0.00     0.118 C 
BRANCH  81  83
ATOM     83  C   UNL     1       6.003   0.806  -0.141  1.00  0.00     0.133 A 
ATOM     84  C   UNL     1       6.794   0.753  -1.260  1.00  0.00     0.077 A 
ATOM     85  N   UNL     1       5.163  -0.189   0.183  1.00  0.00    -0.211 NA
ATOM     86  C   UNL     1       6.717  -0.374  -2.042  1.00  0.00     0.095 A 
ATOM     87  C   UNL     1       5.138  -1.254  -0.646  1.00  0.00     0.165 A 
ATOM     88  N   UNL     1       5.883  -1.390  -1.759  1.00  0.00    -0.226 NA
BRANCH  86  89
ATOM     89  C   UNL     1       7.589  -0.484  -3.212  1.00  0.00     0.089 A 
ATOM     90  C   UNL     1       8.978  -0.460  -3.059  1.00  0.00     0.030 A 
ATOM     91  N   UNL     1       6.991  -0.447  -4.429  1.00  0.00    -0.255 NA
ATOM     92  C   UNL     1       9.781  -0.391  -4.191  1.00  0.00     0.004 A 
ATOM     93  C   UNL     1       7.797  -0.399  -5.510  1.00  0.00     0.112 A 
ATOM     94  C   UNL     1       9.180  -0.358  -5.442  1.00  0.00     0.020 A 
ENDBRANCH  86  89
BRANCH  87  95
ATOM     95  C   UNL     1       4.174  -2.320  -0.376  1.00  0.00     0.055 A 
ATOM     96  C   UNL     1       2.792  -2.064  -0.302  1.00  0.00     0.015 A 
ATOM     97  C   UNL     1       4.594  -3.648  -0.237  1.00  0.00     0.134 A 
ATOM     98  C   UNL     1       1.873  -3.107  -0.126  1.00  0.00     0.001 A 
ATOM     99  C   UNL     1       3.686  -4.691  -0.050  1.00  0.00     0.040 A 
ATOM    100  F   UNL     1       5.901  -3.953  -0.273  1.00  0.00    -0.206 F 
ATOM    101  C   UNL     1       2.320  -4.421  -0.002  1.00  0.00     0.003 A 
ENDBRANCH  87  95
ENDBRANCH  81  83
ENDBRANCH  75  77
ENDBRANCH  74  75
ENDBRANCH  73  74
ENDBRANCH  72  73
ENDBRANCH  71  72
ENDBRANCH   1  71
TORSDOF 20
