REMARK SMILES CS(=O)(=O)[C@@H]1CCC[C@@H](Sc2ccc(C(=O)OCCOCCOC(=O)c3ccc(-c4c5nc(c(-c6cc(S(=O)(=O)[O-])ccc6F)c6ccc([nH]6)c(-c6cc(S(=O)(=O)[O-])ccc6F)c6nc(c(-c7cc(S(=O)(=O)[O-])ccc7F)c7ccc4[nH]7)C=C6)C=C5)cc3)cn2)C1
REMARK SMILES IDX 20 1 19 2 18 3 17 4 15 5 16 6 14 7 11 8 12 9 90 10 13 11
REMARK SMILES IDX 89 12 10 13 9 14 5 15 6 16 91 17 7 18 8 19 2 20 1 21 3 22
REMARK SMILES IDX 4 23 21 24 22 25 23 26 24 27 25 28 26 29 27 30 88 31 28 32
REMARK SMILES IDX 87 33 29 34 30 35 31 36 81 37 32 38 86 39 80 40 82 41 33 42
REMARK SMILES IDX 85 43 79 44 78 45 34 47 66 48 46 49 65 50 47 51 50 52 64 53
REMARK SMILES IDX 83 54 48 55 49 56 63 58 84 59 51 60 35 61 36 62 44 63 37 64
REMARK SMILES IDX 43 65 45 66 42 67 38 68 39 69 40 70 41 71 67 72 68 73 76 74
REMARK SMILES IDX 69 75 75 76 77 77 74 78 70 79 71 80 72 81 73 82 52 83 53 84
REMARK SMILES IDX 61 85 54 86 60 87 62 88 59 89 55 90 56 91 57 92 58 93
REMARK H PARENT 82 46 50 57
REMARK Flexibility Score: inf
ROOT
ATOM      1  O   UNL     1       1.290  -2.296  -6.321  1.00  0.00    -0.374 OA
ENDROOT
BRANCH   1   2
ATOM      2  C   UNL     1      -0.024  -2.858  -6.321  1.00  0.00     0.202 C 
BRANCH   2   3
ATOM      3  C   UNL     1      -0.086  -4.355  -6.002  1.00  0.00     0.261 C 
BRANCH   3   4
ATOM      4  O   UNL     1       0.426  -4.610  -4.687  1.00  0.00    -0.460 OA
BRANCH   4   5
ATOM      5  C   UNL     1       1.696  -5.074  -4.601  1.00  0.00     0.339 C 
ATOM      6  O   UNL     1       2.413  -5.457  -5.508  1.00  0.00    -0.246 OA
BRANCH   5   7
ATOM      7  C   UNL     1       2.146  -4.928  -3.203  1.00  0.00     0.078 A 
ATOM      8  C   UNL     1       3.097  -4.536  -0.615  1.00  0.00     0.096 A 
ATOM      9  C   UNL     1       1.748  -4.500  -0.887  1.00  0.00     0.036 A 
ATOM     10  N   UNL     1       3.978  -4.746  -1.623  1.00  0.00    -0.249 NA
ATOM     11  C   UNL     1       1.256  -4.693  -2.170  1.00  0.00     0.020 A 
ATOM     12  C   UNL     1       3.493  -4.940  -2.885  1.00  0.00     0.128 A 
BRANCH   8  13
ATOM     13  S   UNL     1       3.834  -4.274   0.979  1.00  0.00    -0.103 SA
BRANCH  13  14
ATOM     14  C   UNL     1       2.562  -4.190   2.343  1.00  0.00     0.054 C 
ATOM     15  C   UNL     1       0.761  -2.529   1.697  1.00  0.00     0.109 C 
ATOM     16  C   UNL     1      -0.337  -3.577   1.933  1.00  0.00     0.020 C 
ATOM     17  C   UNL     1       1.968  -2.799   2.579  1.00  0.00     0.034 C 
ATOM     18  C   UNL     1       0.117  -5.045   1.967  1.00  0.00     0.002 C 
ATOM     19  C   UNL     1       1.532  -5.316   2.482  1.00  0.00     0.015 C 
BRANCH  15  20
ATOM     20  S   UNL     1       0.139  -0.843   1.867  1.00  0.00     0.150 S 
ATOM     21  C   UNL     1       0.811  -0.038   0.426  1.00  0.00     0.158 C 
ATOM     22  O   UNL     1       0.742  -0.233   3.035  1.00  0.00    -0.229 OA
ATOM     23  O   UNL     1      -1.301  -0.863   1.701  1.00  0.00    -0.229 OA
ENDBRANCH  15  20
ENDBRANCH  13  14
ENDBRANCH   8  13
ENDBRANCH   5   7
ENDBRANCH   4   5
ENDBRANCH   3   4
ENDBRANCH   2   3
ENDBRANCH   1   2
BRANCH   1  24
ATOM     24  C   UNL     1       1.761  -1.796  -5.067  1.00  0.00     0.202 C 
BRANCH  24  25
ATOM     25  C   UNL     1       1.347  -0.362  -4.720  1.00  0.00     0.261 C 
BRANCH  25  26
ATOM     26  O   UNL     1      -0.057  -0.275  -4.419  1.00  0.00    -0.460 OA
BRANCH  26  27
ATOM     27  C   UNL     1      -0.813   0.226  -5.428  1.00  0.00     0.338 C 
ATOM     28  O   UNL     1      -0.412   0.656  -6.496  1.00  0.00    -0.246 OA
BRANCH  27  29
ATOM     29  C   UNL     1      -2.243   0.003  -5.138  1.00  0.00     0.060 A 
ATOM     30  C   UNL     1      -3.025  -0.560  -6.155  1.00  0.00     0.016 A 
ATOM     31  C   UNL     1      -2.822   0.388  -3.927  1.00  0.00     0.016 A 
ATOM     32  C   UNL     1      -4.401  -0.688  -5.986  1.00  0.00     0.010 A 
ATOM     33  C   UNL     1      -4.204   0.259  -3.760  1.00  0.00     0.010 A 
ATOM     34  C   UNL     1      -5.005  -0.243  -4.803  1.00  0.00    -0.014 A 
BRANCH  34  35
ATOM     35  C   UNL     1      -6.484  -0.158  -4.720  1.00  0.00     0.031 A 
ATOM     36  C   UNL     1      -7.147   1.184  -4.869  1.00  0.00     0.074 A 
ATOM     37  C   UNL     1      -7.229  -1.263  -4.544  1.00  0.00     0.049 A 
ATOM     38  N   UNL     1      -8.413   1.503  -4.791  1.00  0.00    -0.248 NA
ATOM     39  C   UNL     1      -6.252   2.319  -5.135  1.00  0.00     0.031 C 
ATOM     40  C   UNL     1      -6.706  -2.624  -4.443  1.00  0.00     0.029 A 
ATOM     41  N   UNL     1      -8.586  -1.412  -4.420  1.00  0.00    -0.354 N 
ATOM     42  C   UNL     1      -8.469   2.879  -4.990  1.00  0.00     0.074 A 
ATOM     43  C   UNL     1      -7.101   3.333  -5.136  1.00  0.00     0.031 C 
ATOM     44  C   UNL     1      -7.734  -3.473  -4.279  1.00  0.00     0.029 A 
ATOM     45  C   UNL     1      -8.981  -2.712  -4.216  1.00  0.00     0.049 A 
ATOM     46  H   UNL     1      -9.218  -0.659  -4.472  1.00  0.00     0.167 HD
ATOM     47  C   UNL     1      -9.559   3.685  -5.059  1.00  0.00     0.034 A 
ATOM     48  C   UNL     1     -10.205  -3.226  -3.984  1.00  0.00     0.034 A 
ATOM     49  C   UNL     1     -10.913   3.214  -4.886  1.00  0.00     0.049 A 
ATOM     50  C   UNL     1     -11.395  -2.298  -3.941  1.00  0.00     0.074 A 
ATOM     51  C   UNL     1     -12.093   3.935  -4.943  1.00  0.00     0.029 A 
ATOM     52  N   UNL     1     -11.269   1.900  -4.602  1.00  0.00    -0.354 N 
ATOM     53  N   UNL     1     -11.440  -0.999  -4.132  1.00  0.00    -0.248 NA
ATOM     54  C   UNL     1     -12.698  -2.910  -3.655  1.00  0.00     0.031 C 
ATOM     55  C   UNL     1     -13.148   3.079  -4.607  1.00  0.00     0.029 A 
ATOM     56  C   UNL     1     -12.643   1.800  -4.436  1.00  0.00     0.049 A 
ATOM     57  H   UNL     1     -10.637   1.148  -4.528  1.00  0.00     0.167 HD
ATOM     58  C   UNL     1     -12.784  -0.645  -4.026  1.00  0.00     0.074 A 
ATOM     59  C   UNL     1     -13.512  -1.870  -3.760  1.00  0.00     0.031 C 
ATOM     60  C   UNL     1     -13.362   0.578  -4.150  1.00  0.00     0.034 A 
BRANCH  47  61
ATOM     61  C   UNL     1      -9.308   5.162  -5.267  1.00  0.00     0.023 A 
ATOM     62  C   UNL     1      -8.636   5.645  -6.405  1.00  0.00     0.031 A 
ATOM     63  C   UNL     1      -9.673   6.094  -4.279  1.00  0.00     0.131 A 
ATOM     64  C   UNL     1      -8.251   6.993  -6.473  1.00  0.00     0.055 A 
ATOM     65  C   UNL     1      -9.379   7.454  -4.403  1.00  0.00     0.041 A 
ATOM     66  F   UNL     1     -10.296   5.697  -3.159  1.00  0.00    -0.206 F 
ATOM     67  C   UNL     1      -8.642   7.907  -5.493  1.00  0.00     0.022 A 
BRANCH  64  68
ATOM     68  S   UNL     1      -7.056   7.484  -7.747  1.00  0.00     0.124 S 
ATOM     69  O   UNL     1      -5.954   6.560  -7.489  1.00  0.00    -0.237 OA
ATOM     70  O   UNL     1      -7.801   7.261  -8.981  1.00  0.00    -0.237 OA
ATOM     71  O   UNL     1      -6.772   8.882  -7.431  1.00  0.00    -0.744 OA
ENDBRANCH  64  68
ENDBRANCH  47  61
BRANCH  48  72
ATOM     72  C   UNL     1     -10.371  -4.689  -3.759  1.00  0.00     0.023 A 
ATOM     73  C   UNL     1     -11.099  -5.478  -4.662  1.00  0.00     0.031 A 
ATOM     74  C   UNL     1      -9.823  -5.317  -2.625  1.00  0.00     0.131 A 
ATOM     75  C   UNL     1     -11.285  -6.845  -4.404  1.00  0.00     0.055 A 
ATOM     76  C   UNL     1      -9.969  -6.686  -2.398  1.00  0.00     0.041 A 
ATOM     77  F   UNL     1      -9.118  -4.607  -1.730  1.00  0.00    -0.206 F 
ATOM     78  C   UNL     1     -10.712  -7.457  -3.287  1.00  0.00     0.022 A 
BRANCH  75  79
ATOM     79  S   UNL     1     -12.341  -7.803  -5.524  1.00  0.00     0.124 S 
ATOM     80  O   UNL     1     -13.620  -7.116  -5.386  1.00  0.00    -0.237 OA
ATOM     81  O   UNL     1     -11.656  -7.638  -6.801  1.00  0.00    -0.237 OA
ATOM     82  O   UNL     1     -12.292  -9.152  -4.964  1.00  0.00    -0.744 OA
ENDBRANCH  75  79
ENDBRANCH  48  72
BRANCH  60  83
ATOM     83  C   UNL     1     -14.870   0.643  -4.048  1.00  0.00     0.023 A 
ATOM     84  C   UNL     1     -15.551   0.335  -2.857  1.00  0.00     0.031 A 
ATOM     85  C   UNL     1     -15.637   1.012  -5.168  1.00  0.00     0.131 A 
ATOM     86  C   UNL     1     -16.955   0.344  -2.831  1.00  0.00     0.055 A 
ATOM     87  C   UNL     1     -17.030   1.087  -5.116  1.00  0.00     0.041 A 
ATOM     88  F   UNL     1     -15.043   1.311  -6.335  1.00  0.00    -0.206 F 
ATOM     89  C   UNL     1     -17.698   0.739  -3.947  1.00  0.00     0.022 A 
BRANCH  86  90
ATOM     90  S   UNL     1     -17.805  -0.269  -1.350  1.00  0.00     0.124 S 
ATOM     91  O   UNL     1     -17.280  -1.626  -1.240  1.00  0.00    -0.237 OA
ATOM     92  O   UNL     1     -17.363   0.671  -0.325  1.00  0.00    -0.237 OA
ATOM     93  O   UNL     1     -19.220  -0.178  -1.704  1.00  0.00    -0.744 OA
ENDBRANCH  86  90
ENDBRANCH  60  83
ENDBRANCH  34  35
ENDBRANCH  27  29
ENDBRANCH  26  27
ENDBRANCH  25  26
ENDBRANCH  24  25
ENDBRANCH   1  24
TORSDOF 20
