REMARK SMILES O=C(OCCOCCOC(=O)[C@@H](Cc1ccc(F)cc1)NC(=O)c1ccn(C2CCCC2)n1)c1ccc(-c2c3nc(c(-c4cc(S(=O)(=O)[O-])ccc4F)c4ccc([nH]4)c(-c4cc(S(=O)(=O)[O-])ccc4F)c4nc(c(-c5cc(S(=O)(=O)[O-])ccc5F)c5ccc2[nH]5)C=C4)C=C3)cc1
REMARK SMILES IDX 6 1 5 2 4 3 3 4 2 5 1 6 34 7 35 8 96 9 36 10 95 11 37 12
REMARK SMILES IDX 38 13 39 14 89 15 40 16 94 17 88 18 90 19 41 20 93 21 87 22
REMARK SMILES IDX 86 23 42 25 74 26 54 27 73 28 55 29 58 30 72 31 91 32 56 33
REMARK SMILES IDX 57 34 71 36 92 37 59 38 43 39 44 40 52 41 45 42 51 43 53 44
REMARK SMILES IDX 50 45 46 46 47 47 48 48 49 49 75 50 76 51 84 52 77 53 83 54
REMARK SMILES IDX 85 55 82 56 78 57 79 58 80 59 81 60 60 61 61 62 69 63 62 64
REMARK SMILES IDX 68 65 70 66 67 67 63 68 64 69 65 70 66 71 7 72 8 73 9 74
REMARK SMILES IDX 10 75 11 76 12 77 13 78 14 79 15 80 20 81 16 82 19 83 17 84
REMARK SMILES IDX 18 85 21 86 22 87 23 89 24 90 25 91 33 92 26 93 27 94 28 95
REMARK SMILES IDX 29 96 32 97 30 98 31 99
REMARK H PARENT 90 24 58 35 21 88
REMARK Flexibility Score: inf
ROOT
ATOM      1  O   UNL     1       4.569   0.515  -1.638  1.00  0.00    -0.374 OA
ENDROOT
BRANCH   1   2
ATOM      2  C   UNL     1       5.218  -0.428  -0.796  1.00  0.00     0.202 C 
BRANCH   2   3
ATOM      3  C   UNL     1       4.850  -0.444   0.691  1.00  0.00     0.261 C 
BRANCH   3   4
ATOM      4  O   UNL     1       3.495  -0.829   0.971  1.00  0.00    -0.460 OA
BRANCH   4   5
ATOM      5  C   UNL     1       2.373  -0.122   0.704  1.00  0.00     0.338 C 
ATOM      6  O   UNL     1       1.396  -0.679   0.222  1.00  0.00    -0.246 OA
BRANCH   5   7
ATOM      7  C   UNL     1       2.223   1.271   1.182  1.00  0.00     0.060 A 
ATOM      8  C   UNL     1       3.268   2.172   1.344  1.00  0.00     0.016 A 
ATOM      9  C   UNL     1       0.911   1.680   1.487  1.00  0.00     0.016 A 
ATOM     10  C   UNL     1       3.047   3.377   1.982  1.00  0.00     0.010 A 
ATOM     11  C   UNL     1       0.672   2.925   2.052  1.00  0.00     0.010 A 
ATOM     12  C   UNL     1       1.756   3.741   2.360  1.00  0.00    -0.014 A 
BRANCH  12  13
ATOM     13  C   UNL     1       1.622   5.042   2.999  1.00  0.00     0.031 A 
ATOM     14  C   UNL     1       2.143   6.199   2.224  1.00  0.00     0.074 A 
ATOM     15  C   UNL     1       1.024   5.233   4.186  1.00  0.00     0.049 A 
ATOM     16  N   UNL     1       3.075   7.032   2.556  1.00  0.00    -0.248 NA
ATOM     17  C   UNL     1       1.622   6.389   0.862  1.00  0.00     0.031 C 
ATOM     18  C   UNL     1       0.236   4.275   4.961  1.00  0.00     0.029 A 
ATOM     19  N   UNL     1       0.908   6.391   4.895  1.00  0.00    -0.354 N 
ATOM     20  C   UNL     1       3.123   7.975   1.536  1.00  0.00     0.074 A 
ATOM     21  C   UNL     1       2.308   7.460   0.465  1.00  0.00     0.031 C 
ATOM     22  C   UNL     1      -0.466   4.948   5.897  1.00  0.00     0.029 A 
ATOM     23  C   UNL     1      -0.082   6.349   5.862  1.00  0.00     0.049 A 
ATOM     24  H   UNL     1       1.474   7.181   4.735  1.00  0.00     0.167 HD
ATOM     25  C   UNL     1       3.673   9.206   1.711  1.00  0.00     0.034 A 
ATOM     26  C   UNL     1      -0.615   7.411   6.511  1.00  0.00     0.034 A 
ATOM     27  C   UNL     1       4.595   9.239   2.817  1.00  0.00     0.049 A 
ATOM     28  C   UNL     1       0.399   8.496   6.485  1.00  0.00     0.074 A 
ATOM     29  C   UNL     1       5.746   8.545   3.140  1.00  0.00     0.029 A 
ATOM     30  N   UNL     1       4.217   9.880   3.972  1.00  0.00    -0.354 N 
ATOM     31  N   UNL     1       1.562   8.427   7.076  1.00  0.00    -0.248 NA
ATOM     32  C   UNL     1       0.279   9.546   5.483  1.00  0.00     0.031 C 
ATOM     33  C   UNL     1       5.720   8.416   4.559  1.00  0.00     0.029 A 
ATOM     34  C   UNL     1       4.566   9.056   5.014  1.00  0.00     0.049 A 
ATOM     35  H   UNL     1       3.781  10.760   4.040  1.00  0.00     0.167 HD
ATOM     36  C   UNL     1       2.426   9.141   6.261  1.00  0.00     0.074 A 
ATOM     37  C   UNL     1       1.560   9.905   5.372  1.00  0.00     0.031 C 
ATOM     38  C   UNL     1       3.757   8.844   6.198  1.00  0.00     0.034 A 
BRANCH  25  39
ATOM     39  C   UNL     1       3.142  10.456   1.053  1.00  0.00     0.023 A 
ATOM     40  C   UNL     1       3.878  11.649   1.184  1.00  0.00     0.031 A 
ATOM     41  C   UNL     1       1.828  10.591   0.546  1.00  0.00     0.131 A 
ATOM     42  C   UNL     1       3.296  12.890   0.867  1.00  0.00     0.055 A 
ATOM     43  C   UNL     1       1.283  11.817   0.160  1.00  0.00     0.041 A 
ATOM     44  F   UNL     1       0.972   9.562   0.492  1.00  0.00    -0.206 F 
ATOM     45  C   UNL     1       2.010  12.980   0.341  1.00  0.00     0.022 A 
BRANCH  42  46
ATOM     46  S   UNL     1       4.186  14.402   1.320  1.00  0.00     0.124 S 
ATOM     47  O   UNL     1       4.421  14.192   2.744  1.00  0.00    -0.237 OA
ATOM     48  O   UNL     1       5.361  14.331   0.456  1.00  0.00    -0.237 OA
ATOM     49  O   UNL     1       3.238  15.465   0.994  1.00  0.00    -0.744 OA
ENDBRANCH  42  46
ENDBRANCH  25  39
BRANCH  26  50
ATOM     50  C   UNL     1      -2.041   7.597   6.888  1.00  0.00     0.023 A 
ATOM     51  C   UNL     1      -2.441   8.646   7.736  1.00  0.00     0.031 A 
ATOM     52  C   UNL     1      -3.076   6.878   6.244  1.00  0.00     0.131 A 
ATOM     53  C   UNL     1      -3.811   8.933   7.918  1.00  0.00     0.055 A 
ATOM     54  C   UNL     1      -4.431   7.143   6.454  1.00  0.00     0.041 A 
ATOM     55  F   UNL     1      -2.816   5.947   5.314  1.00  0.00    -0.206 F 
ATOM     56  C   UNL     1      -4.805   8.181   7.287  1.00  0.00     0.022 A 
BRANCH  53  57
ATOM     57  S   UNL     1      -4.320  10.398   8.865  1.00  0.00     0.124 S 
ATOM     58  O   UNL     1      -4.303   9.895  10.233  1.00  0.00    -0.237 OA
ATOM     59  O   UNL     1      -3.293  11.375   8.522  1.00  0.00    -0.237 OA
ATOM     60  O   UNL     1      -5.648  10.694   8.328  1.00  0.00    -0.744 OA
ENDBRANCH  53  57
ENDBRANCH  26  50
BRANCH  38  61
ATOM     61  C   UNL     1       4.370   8.000   7.288  1.00  0.00     0.023 A 
ATOM     62  C   UNL     1       4.026   6.654   7.537  1.00  0.00     0.031 A 
ATOM     63  C   UNL     1       5.462   8.540   7.990  1.00  0.00     0.131 A 
ATOM     64  C   UNL     1       4.766   5.902   8.469  1.00  0.00     0.055 A 
ATOM     65  C   UNL     1       6.201   7.789   8.903  1.00  0.00     0.041 A 
ATOM     66  F   UNL     1       5.862   9.803   7.759  1.00  0.00    -0.206 F 
ATOM     67  C   UNL     1       5.854   6.464   9.147  1.00  0.00     0.022 A 
BRANCH  64  68
ATOM     68  S   UNL     1       4.354   4.153   8.770  1.00  0.00     0.124 S 
ATOM     69  O   UNL     1       2.997   4.219   9.298  1.00  0.00    -0.237 OA
ATOM     70  O   UNL     1       4.504   3.552   7.447  1.00  0.00    -0.237 OA
ATOM     71  O   UNL     1       5.364   3.726   9.741  1.00  0.00    -0.744 OA
ENDBRANCH  64  68
ENDBRANCH  38  61
ENDBRANCH  12  13
ENDBRANCH   5   7
ENDBRANCH   4   5
ENDBRANCH   3   4
ENDBRANCH   2   3
ENDBRANCH   1   2
BRANCH   1  72
ATOM     72  C   UNL     1       3.328   0.185  -2.271  1.00  0.00     0.202 C 
BRANCH  72  73
ATOM     73  C   UNL     1       3.213  -1.143  -3.026  1.00  0.00     0.261 C 
BRANCH  73  74
ATOM     74  O   UNL     1       3.389  -2.270  -2.150  1.00  0.00    -0.462 OA
BRANCH  74  75
ATOM     75  C   UNL     1       4.077  -3.310  -2.686  1.00  0.00     0.329 C 
ATOM     76  O   UNL     1       4.392  -3.387  -3.871  1.00  0.00    -0.250 OA
BRANCH  75  77
ATOM     77  C   UNL     1       4.582  -4.317  -1.635  1.00  0.00     0.197 C 
BRANCH  77  78
ATOM     78  C   UNL     1       3.946  -4.316  -0.232  1.00  0.00     0.072 C 
BRANCH  78  79
ATOM     79  C   UNL     1       2.446  -4.376  -0.059  1.00  0.00    -0.045 A 
ATOM     80  C   UNL     1       1.864  -3.598   0.959  1.00  0.00     0.007 A 
ATOM     81  C   UNL     1       1.603  -5.192  -0.819  1.00  0.00     0.007 A 
ATOM     82  C   UNL     1       0.481  -3.538   1.132  1.00  0.00     0.039 A 
ATOM     83  C   UNL     1       0.217  -5.150  -0.635  1.00  0.00     0.039 A 
ATOM     84  C   UNL     1      -0.333  -4.305   0.320  1.00  0.00     0.123 A 
ATOM     85  F   UNL     1      -1.663  -4.246   0.463  1.00  0.00    -0.207 F 
ENDBRANCH  78  79
ENDBRANCH  77  78
BRANCH  77  86
ATOM     86  N   UNL     1       4.592  -5.652  -2.244  1.00  0.00    -0.337 N 
ATOM     87  C   UNL     1       5.627  -6.293  -2.884  1.00  0.00     0.272 C 
ATOM     88  H   UNL     1       3.748  -6.155  -2.186  1.00  0.00     0.164 HD
ATOM     89  O   UNL     1       5.336  -7.232  -3.627  1.00  0.00    -0.267 OA
BRANCH  87  90
ATOM     90  C   UNL     1       7.012  -5.867  -2.642  1.00  0.00     0.150 A 
ATOM     91  C   UNL     1       7.647  -5.570  -1.404  1.00  0.00     0.056 A 
ATOM     92  N   UNL     1       7.891  -5.762  -3.653  1.00  0.00    -0.167 NA
ATOM     93  C   UNL     1       8.948  -5.259  -1.721  1.00  0.00     0.110 A 
ATOM     94  N   UNL     1       9.047  -5.403  -3.074  1.00  0.00    -0.269 N 
BRANCH  94  95
ATOM     95  C   UNL     1      10.243  -5.258  -3.876  1.00  0.00     0.107 C 
ATOM     96  C   UNL     1      10.545  -6.467  -4.762  1.00  0.00     0.027 C 
ATOM     97  C   UNL     1      10.193  -4.102  -4.875  1.00  0.00     0.027 C 
ATOM     98  C   UNL     1      11.565  -5.934  -5.756  1.00  0.00     0.002 C 
ATOM     99  C   UNL     1      11.232  -4.454  -5.939  1.00  0.00     0.002 C 
ENDBRANCH  94  95
ENDBRANCH  87  90
ENDBRANCH  77  86
ENDBRANCH  75  77
ENDBRANCH  74  75
ENDBRANCH  73  74
ENDBRANCH  72  73
ENDBRANCH   1  72
TORSDOF 22
