REMARK SMILES O=C(OCCOCCOC(=O)c1ccccc1C(=O)N1CCOCCOCCOCC1)c1ccc(-c2c3nc(c(-c4cc(S(=O)(=O)[O-])ccc4F)c4ccc([nH]4)c(-c4cc(S(=O)(=O)[O-])ccc4F)c4nc(c(-c5cc(S(=O)(=O)[O-])ccc5F)c5ccc2[nH]5)C=C4)C=C3)cc1
REMARK SMILES IDX 8 1 7 2 6 3 5 4 4 5 3 6 2 7 1 8 32 9 33 10 94 11 34 12 93 13
REMARK SMILES IDX 35 14 36 15 37 16 87 17 38 18 92 19 86 20 88 21 39 22 91 23
REMARK SMILES IDX 85 24 84 25 40 27 72 28 52 29 71 30 53 31 56 32 70 33 89 34
REMARK SMILES IDX 54 35 55 36 69 38 90 39 57 40 41 41 42 42 50 43 43 44 49 45
REMARK SMILES IDX 51 46 48 47 44 48 45 49 46 50 47 51 73 52 74 53 82 54 75 55
REMARK SMILES IDX 81 56 83 57 80 58 76 59 77 60 78 61 79 62 58 63 59 64 67 65
REMARK SMILES IDX 60 66 66 67 68 68 65 69 61 70 62 71 63 72 64 73 9 74 10 75
REMARK SMILES IDX 11 76 12 77 13 78 17 79 14 80 16 81 15 82 18 83 19 84 20 85
REMARK SMILES IDX 21 86 22 87 23 88 24 89 25 90 26 91 27 92 31 94 30 95 29 96
REMARK SMILES IDX 28 97
REMARK H PARENT 88 26 56 37
REMARK Flexibility Score: 60.00
ROOT
ATOM      1  C   UNL     1       3.000  -2.172  -1.651  1.00  0.00     0.261 C 
ENDROOT
BRANCH   1   2
ATOM      2  C   UNL     1       3.056  -0.901  -0.856  1.00  0.00     0.202 C 
BRANCH   2   3
ATOM      3  O   UNL     1       4.425  -0.673  -0.511  1.00  0.00    -0.374 OA
BRANCH   3   4
ATOM      4  C   UNL     1       4.722  -0.689   0.882  1.00  0.00     0.202 C 
BRANCH   4   5
ATOM      5  C   UNL     1       4.458   0.645   1.592  1.00  0.00     0.261 C 
BRANCH   5   6
ATOM      6  O   UNL     1       3.071   1.022   1.525  1.00  0.00    -0.460 OA
BRANCH   6   7
ATOM      7  C   UNL     1       2.431   1.819   0.635  1.00  0.00     0.338 C 
ATOM      8  O   UNL     1       1.233   2.033   0.828  1.00  0.00    -0.246 OA
BRANCH   7   9
ATOM      9  C   UNL     1       3.037   2.362  -0.629  1.00  0.00     0.060 A 
ATOM     10  C   UNL     1       4.278   1.999  -1.159  1.00  0.00     0.016 A 
ATOM     11  C   UNL     1       2.221   3.201  -1.411  1.00  0.00     0.016 A 
ATOM     12  C   UNL     1       4.656   2.331  -2.448  1.00  0.00     0.010 A 
ATOM     13  C   UNL     1       2.640   3.644  -2.668  1.00  0.00     0.010 A 
ATOM     14  C   UNL     1       3.863   3.201  -3.178  1.00  0.00    -0.014 A 
BRANCH  14  15
ATOM     15  C   UNL     1       4.532   3.893  -4.283  1.00  0.00     0.031 A 
ATOM     16  C   UNL     1       5.290   5.129  -3.912  1.00  0.00     0.074 A 
ATOM     17  C   UNL     1       4.579   3.347  -5.506  1.00  0.00     0.049 A 
ATOM     18  N   UNL     1       5.884   6.003  -4.669  1.00  0.00    -0.248 NA
ATOM     19  C   UNL     1       5.403   5.404  -2.467  1.00  0.00     0.031 C 
ATOM     20  C   UNL     1       4.030   2.039  -5.866  1.00  0.00     0.029 A 
ATOM     21  N   UNL     1       5.117   3.822  -6.667  1.00  0.00    -0.354 N 
ATOM     22  C   UNL     1       6.409   6.949  -3.796  1.00  0.00     0.074 A 
ATOM     23  C   UNL     1       6.075   6.538  -2.455  1.00  0.00     0.031 C 
ATOM     24  C   UNL     1       4.227   1.835  -7.180  1.00  0.00     0.029 A 
ATOM     25  C   UNL     1       4.843   3.028  -7.754  1.00  0.00     0.049 A 
ATOM     26  H   UNL     1       5.648   4.650  -6.720  1.00  0.00     0.167 HD
ATOM     27  C   UNL     1       7.082   8.080  -4.110  1.00  0.00     0.034 A 
ATOM     28  C   UNL     1       5.009   3.294  -9.064  1.00  0.00     0.034 A 
ATOM     29  C   UNL     1       7.317   8.455  -5.478  1.00  0.00     0.049 A 
ATOM     30  C   UNL     1       5.617   4.631  -9.417  1.00  0.00     0.074 A 
ATOM     31  C   UNL     1       7.879   9.608  -5.983  1.00  0.00     0.029 A 
ATOM     32  N   UNL     1       6.962   7.665  -6.572  1.00  0.00    -0.354 N 
ATOM     33  N   UNL     1       6.024   5.588  -8.608  1.00  0.00    -0.248 NA
ATOM     34  C   UNL     1       5.779   4.936 -10.840  1.00  0.00     0.031 C 
ATOM     35  C   UNL     1       7.785   9.552  -7.379  1.00  0.00     0.029 A 
ATOM     36  C   UNL     1       7.261   8.319  -7.750  1.00  0.00     0.049 A 
ATOM     37  H   UNL     1       6.556   6.770  -6.512  1.00  0.00     0.167 HD
ATOM     38  C   UNL     1       6.521   6.598  -9.424  1.00  0.00     0.074 A 
ATOM     39  C   UNL     1       6.354   6.132 -10.790  1.00  0.00     0.031 C 
ATOM     40  C   UNL     1       7.073   7.793  -9.087  1.00  0.00     0.034 A 
BRANCH  27  41
ATOM     41  C   UNL     1       7.418   9.003  -2.962  1.00  0.00     0.023 A 
ATOM     42  C   UNL     1       8.232   8.592  -1.888  1.00  0.00     0.031 A 
ATOM     43  C   UNL     1       6.764  10.242  -2.849  1.00  0.00     0.131 A 
ATOM     44  C   UNL     1       8.261   9.347  -0.704  1.00  0.00     0.055 A 
ATOM     45  C   UNL     1       6.886  11.040  -1.709  1.00  0.00     0.041 A 
ATOM     46  F   UNL     1       5.941  10.672  -3.818  1.00  0.00    -0.206 F 
ATOM     47  C   UNL     1       7.615  10.581  -0.617  1.00  0.00     0.022 A 
BRANCH  44  48
ATOM     48  S   UNL     1       8.949   8.581   0.795  1.00  0.00     0.124 S 
ATOM     49  O   UNL     1       8.111   7.391   0.929  1.00  0.00    -0.237 OA
ATOM     50  O   UNL     1      10.338   8.344   0.422  1.00  0.00    -0.237 OA
ATOM     51  O   UNL     1       8.742   9.596   1.826  1.00  0.00    -0.744 OA
ENDBRANCH  44  48
ENDBRANCH  27  41
BRANCH  28  52
ATOM     52  C   UNL     1       4.499   2.342 -10.093  1.00  0.00     0.023 A 
ATOM     53  C   UNL     1       5.353   1.702 -11.003  1.00  0.00     0.031 A 
ATOM     54  C   UNL     1       3.122   2.047 -10.169  1.00  0.00     0.131 A 
ATOM     55  C   UNL     1       4.822   0.812 -11.955  1.00  0.00     0.055 A 
ATOM     56  C   UNL     1       2.606   1.127 -11.084  1.00  0.00     0.041 A 
ATOM     57  F   UNL     1       2.253   2.635  -9.330  1.00  0.00    -0.206 F 
ATOM     58  C   UNL     1       3.459   0.508 -11.989  1.00  0.00     0.022 A 
BRANCH  55  59
ATOM     59  S   UNL     1       5.933   0.090 -13.195  1.00  0.00     0.124 S 
ATOM     60  O   UNL     1       6.462   1.281 -13.850  1.00  0.00    -0.237 OA
ATOM     61  O   UNL     1       6.871  -0.658 -12.364  1.00  0.00    -0.237 OA
ATOM     62  O   UNL     1       5.042  -0.729 -14.015  1.00  0.00    -0.744 OA
ENDBRANCH  55  59
ENDBRANCH  28  52
BRANCH  40  63
ATOM     63  C   UNL     1       7.602   8.642 -10.210  1.00  0.00     0.023 A 
ATOM     64  C   UNL     1       6.751   9.299 -11.111  1.00  0.00     0.031 A 
ATOM     65  C   UNL     1       8.989   8.852 -10.319  1.00  0.00     0.131 A 
ATOM     66  C   UNL     1       7.301  10.123 -12.102  1.00  0.00     0.055 A 
ATOM     67  C   UNL     1       9.524   9.720 -11.267  1.00  0.00     0.041 A 
ATOM     68  F   UNL     1       9.839   8.243  -9.476  1.00  0.00    -0.206 F 
ATOM     69  C   UNL     1       8.678  10.357 -12.169  1.00  0.00     0.022 A 
BRANCH  66  70
ATOM     70  S   UNL     1       6.196  10.847 -13.342  1.00  0.00     0.124 S 
ATOM     71  O   UNL     1       5.633   9.658 -13.975  1.00  0.00    -0.237 OA
ATOM     72  O   UNL     1       5.276  11.630 -12.525  1.00  0.00    -0.237 OA
ATOM     73  O   UNL     1       7.096  11.631 -14.186  1.00  0.00    -0.744 OA
ENDBRANCH  66  70
ENDBRANCH  40  63
ENDBRANCH  14  15
ENDBRANCH   7   9
ENDBRANCH   6   7
ENDBRANCH   5   6
ENDBRANCH   4   5
ENDBRANCH   3   4
ENDBRANCH   2   3
ENDBRANCH   1   2
BRANCH   1  74
ATOM     74  O   UNL     1       3.402  -3.184  -0.725  1.00  0.00    -0.460 OA
BRANCH  74  75
ATOM     75  C   UNL     1       4.587  -3.765  -0.956  1.00  0.00     0.339 C 
ATOM     76  O   UNL     1       5.358  -3.576  -1.883  1.00  0.00    -0.246 OA
BRANCH  75  77
ATOM     77  C   UNL     1       4.913  -4.593   0.203  1.00  0.00     0.072 A 
ATOM     78  C   UNL     1       6.119  -4.224   0.841  1.00  0.00     0.016 A 
ATOM     79  C   UNL     1       4.136  -5.658   0.681  1.00  0.00     0.054 A 
ATOM     80  C   UNL     1       6.572  -4.912   1.961  1.00  0.00     0.001 A 
ATOM     81  C   UNL     1       4.647  -6.362   1.795  1.00  0.00     0.015 A 
ATOM     82  C   UNL     1       5.842  -5.995   2.428  1.00  0.00     0.001 A 
BRANCH  79  83
ATOM     83  C   UNL     1       2.767  -6.103   0.221  1.00  0.00     0.254 C 
ATOM     84  O   UNL     1       2.189  -6.989   0.854  1.00  0.00    -0.269 OA
ATOM     85  N   UNL     1       2.063  -5.378  -0.722  1.00  0.00    -0.334 N 
BRANCH  85  86
ATOM     86  C   UNL     1       0.874  -4.650  -0.244  1.00  0.00     0.148 C 
BRANCH  86  87
ATOM     87  C   UNL     1      -0.450  -5.426  -0.235  1.00  0.00     0.181 C 
BRANCH  87  88
ATOM     88  O   UNL     1      -1.207  -5.123  -1.415  1.00  0.00    -0.377 OA
BRANCH  88  89
ATOM     89  C   UNL     1      -1.367  -6.220  -2.317  1.00  0.00     0.188 C 
BRANCH  89  90
ATOM     90  C   UNL     1      -1.024  -5.763  -3.743  1.00  0.00     0.188 C 
BRANCH  90  91
ATOM     91  O   UNL     1      -0.046  -6.677  -4.252  1.00  0.00    -0.377 OA
BRANCH  91  92
ATOM     92  C   UNL     1       0.968  -6.082  -5.069  1.00  0.00     0.188 CG0
ATOM     93  G   UNL     1       2.239  -6.940  -4.930  1.00  0.00     0.000 G0
ENDBRANCH  91  92
ENDBRANCH  90  91
ENDBRANCH  89  90
ENDBRANCH  88  89
ENDBRANCH  87  88
ENDBRANCH  86  87
ENDBRANCH  85  86
BRANCH  85  94
ATOM     94  C   UNL     1       2.220  -5.504  -2.168  1.00  0.00     0.148 C 
BRANCH  94  95
ATOM     95  C   UNL     1       3.260  -6.437  -2.775  1.00  0.00     0.181 C 
BRANCH  95  96
ATOM     96  O   UNL     1       3.296  -6.294  -4.205  1.00  0.00    -0.377 OA
BRANCH  96  97
ATOM     97  C   UNL     1       2.239  -6.940  -4.930  1.00  0.00     0.188 CG0
ATOM     98  G   UNL     1       0.968  -6.082  -5.069  1.00  0.00     0.000 G0
ENDBRANCH  96  97
ENDBRANCH  95  96
ENDBRANCH  94  95
ENDBRANCH  85  94
ENDBRANCH  79  83
ENDBRANCH  75  77
ENDBRANCH  74  75
ENDBRANCH   1  74
TORSDOF 18
