REMARK SMILES C[NH2+][C@H](CC(=O)OCCOCCOC(=O)c1ccc(-c2c3nc(c(-c4cc(S(=O)(=O)[O-])ccc4F)c4ccc([nH]4)c(-c4cc(S(=O)(=O)[O-])ccc4F)c4nc(c(-c5cc(S(=O)(=O)[O-])ccc5F)c5ccc2[nH]5)C=C4)C=C3)cc1)c1cccc(C2CC2)c1
REMARK SMILES IDX 10 1 9 2 8 3 7 4 5 5 6 6 4 7 3 8 2 9 1 10 79 13 80 14 87 15
REMARK SMILES IDX 81 16 83 17 82 18 84 19 85 20 86 21 11 22 12 23 13 24 14 25
REMARK SMILES IDX 15 26 16 27 17 28 78 29 18 30 77 31 19 32 20 33 21 34 71 35
REMARK SMILES IDX 22 36 76 37 70 38 72 39 23 40 75 41 69 42 68 43 24 45 56 46
REMARK SMILES IDX 36 47 55 48 37 49 40 50 54 51 73 52 38 53 39 54 53 56 74 57
REMARK SMILES IDX 41 58 25 59 26 60 34 61 27 62 33 63 35 64 32 65 28 66 29 67
REMARK SMILES IDX 30 68 31 69 57 70 58 71 66 72 59 73 65 74 67 75 64 76 60 77
REMARK SMILES IDX 61 78 62 79 63 80 42 81 43 82 51 83 44 84 50 85 52 86 49 87
REMARK SMILES IDX 45 88 46 89 47 90 48 91
REMARK H PARENT 2 11 2 12 72 44 40 55
REMARK Flexibility Score: inf
ROOT
ATOM      1  O   UNL     1       1.822   0.549  -3.904  1.00  0.00    -0.374 OA
ENDROOT
BRANCH   1   2
ATOM      2  C   UNL     1       1.768  -0.832  -4.272  1.00  0.00     0.202 C 
BRANCH   2   3
ATOM      3  C   UNL     1       2.086  -1.821  -3.146  1.00  0.00     0.261 C 
BRANCH   3   4
ATOM      4  O   UNL     1       1.080  -1.770  -2.118  1.00  0.00    -0.463 OA
BRANCH   4   5
ATOM      5  C   UNL     1       1.520  -1.749  -0.834  1.00  0.00     0.312 C 
ATOM      6  O   UNL     1       2.692  -1.887  -0.498  1.00  0.00    -0.252 OA
BRANCH   5   7
ATOM      7  C   UNL     1       0.431  -1.433   0.174  1.00  0.00     0.192 C 
BRANCH   7   8
ATOM      8  C   UNL     1      -1.042  -1.769  -0.157  1.00  0.00     0.224 C 
BRANCH   8   9
ATOM      9  N   UNL     1      -1.463  -1.070  -1.383  1.00  0.00    -0.342 N 
ATOM     10  C   UNL     1      -2.835  -1.288  -1.808  1.00  0.00     0.331 C 
ATOM     11  H   UNL     1      -1.341  -0.070  -1.228  1.00  0.00     0.346 HD
ATOM     12  H   UNL     1      -0.883  -1.455  -2.128  1.00  0.00     0.346 HD
ENDBRANCH   8   9
BRANCH   8  13
ATOM     13  C   UNL     1      -1.407  -3.249  -0.090  1.00  0.00     0.010 A 
ATOM     14  C   UNL     1      -2.713  -3.604   0.291  1.00  0.00     0.010 A 
ATOM     15  C   UNL     1      -0.505  -4.289  -0.367  1.00  0.00     0.014 A 
ATOM     16  C   UNL     1      -3.115  -4.934   0.338  1.00  0.00     0.001 A 
ATOM     17  C   UNL     1      -0.860  -5.649  -0.264  1.00  0.00    -0.044 A 
ATOM     18  C   UNL     1      -2.194  -5.941   0.064  1.00  0.00     0.004 A 
BRANCH  17  19
ATOM     19  C   UNL     1       0.122  -6.787  -0.448  1.00  0.00     0.019 C 
ATOM     20  C   UNL     1       1.585  -6.617  -0.773  1.00  0.00     0.009 C 
ATOM     21  C   UNL     1       1.176  -6.972   0.625  1.00  0.00     0.009 C 
ENDBRANCH  17  19
ENDBRANCH   8  13
ENDBRANCH   7   8
ENDBRANCH   5   7
ENDBRANCH   4   5
ENDBRANCH   3   4
ENDBRANCH   2   3
ENDBRANCH   1   2
BRANCH   1  22
ATOM     22  C   UNL     1       0.732   1.066  -3.138  1.00  0.00     0.202 C 
BRANCH  22  23
ATOM     23  C   UNL     1      -0.583   1.269  -3.901  1.00  0.00     0.261 C 
BRANCH  23  24
ATOM     24  O   UNL     1      -1.151   0.025  -4.354  1.00  0.00    -0.460 OA
BRANCH  24  25
ATOM     25  C   UNL     1      -1.443  -0.025  -5.675  1.00  0.00     0.338 C 
ATOM     26  O   UNL     1      -1.353   0.891  -6.481  1.00  0.00    -0.246 OA
BRANCH  25  27
ATOM     27  C   UNL     1      -1.745  -1.410  -6.081  1.00  0.00     0.060 A 
ATOM     28  C   UNL     1      -0.963  -1.968  -7.098  1.00  0.00     0.016 A 
ATOM     29  C   UNL     1      -2.832  -2.117  -5.559  1.00  0.00     0.016 A 
ATOM     30  C   UNL     1      -1.300  -3.210  -7.637  1.00  0.00     0.010 A 
ATOM     31  C   UNL     1      -3.164  -3.369  -6.097  1.00  0.00     0.010 A 
ATOM     32  C   UNL     1      -2.426  -3.903  -7.170  1.00  0.00    -0.014 A 
BRANCH  32  33
ATOM     33  C   UNL     1      -2.907  -5.094  -7.923  1.00  0.00     0.031 A 
ATOM     34  C   UNL     1      -4.072  -4.943  -8.868  1.00  0.00     0.074 A 
ATOM     35  C   UNL     1      -2.276  -6.279  -7.827  1.00  0.00     0.049 A 
ATOM     36  N   UNL     1      -4.620  -5.829  -9.662  1.00  0.00    -0.248 NA
ATOM     37  C   UNL     1      -4.704  -3.616  -8.923  1.00  0.00     0.031 C 
ATOM     38  C   UNL     1      -1.120  -6.551  -6.974  1.00  0.00     0.029 A 
ATOM     39  N   UNL     1      -2.513  -7.473  -8.462  1.00  0.00    -0.354 N 
ATOM     40  C   UNL     1      -5.656  -5.167 -10.314  1.00  0.00     0.074 A 
ATOM     41  C   UNL     1      -5.690  -3.821  -9.783  1.00  0.00     0.031 C 
ATOM     42  C   UNL     1      -0.744  -7.831  -7.145  1.00  0.00     0.029 A 
ATOM     43  C   UNL     1      -1.647  -8.477  -8.097  1.00  0.00     0.049 A 
ATOM     44  H   UNL     1      -3.236  -7.599  -9.118  1.00  0.00     0.167 HD
ATOM     45  C   UNL     1      -6.491  -5.630 -11.278  1.00  0.00     0.034 A 
ATOM     46  C   UNL     1      -1.594  -9.771  -8.477  1.00  0.00     0.034 A 
ATOM     47  C   UNL     1      -6.455  -6.974 -11.802  1.00  0.00     0.049 A 
ATOM     48  C   UNL     1      -2.585 -10.286  -9.493  1.00  0.00     0.074 A 
ATOM     49  C   UNL     1      -7.237  -7.530 -12.801  1.00  0.00     0.029 A 
ATOM     50  N   UNL     1      -5.604  -7.978 -11.363  1.00  0.00    -0.354 N 
ATOM     51  N   UNL     1      -3.541  -9.640 -10.120  1.00  0.00    -0.248 NA
ATOM     52  C   UNL     1      -2.482 -11.706  -9.859  1.00  0.00     0.031 C 
ATOM     53  C   UNL     1      -6.907  -8.885 -12.915  1.00  0.00     0.029 A 
ATOM     54  C   UNL     1      -5.867  -9.159 -12.042  1.00  0.00     0.049 A 
ATOM     55  H   UNL     1      -4.913  -7.868 -10.670  1.00  0.00     0.167 HD
ATOM     56  C   UNL     1      -4.129 -10.568 -10.977  1.00  0.00     0.074 A 
ATOM     57  C   UNL     1      -3.415 -11.814 -10.794  1.00  0.00     0.031 C 
ATOM     58  C   UNL     1      -5.161 -10.402 -11.844  1.00  0.00     0.034 A 
BRANCH  45  59
ATOM     59  C   UNL     1      -7.544  -4.680 -11.794  1.00  0.00     0.023 A 
ATOM     60  C   UNL     1      -7.206  -3.512 -12.499  1.00  0.00     0.031 A 
ATOM     61  C   UNL     1      -8.906  -4.934 -11.553  1.00  0.00     0.131 A 
ATOM     62  C   UNL     1      -8.210  -2.608 -12.878  1.00  0.00     0.055 A 
ATOM     63  C   UNL     1      -9.906  -4.068 -11.999  1.00  0.00     0.041 A 
ATOM     64  F   UNL     1      -9.287  -6.022 -10.867  1.00  0.00    -0.206 F 
ATOM     65  C   UNL     1      -9.560  -2.889 -12.653  1.00  0.00     0.022 A 
BRANCH  62  66
ATOM     66  S   UNL     1      -7.719  -0.993 -13.542  1.00  0.00     0.124 S 
ATOM     67  O   UNL     1      -6.902  -0.462 -12.454  1.00  0.00    -0.237 OA
ATOM     68  O   UNL     1      -7.004  -1.357 -14.760  1.00  0.00    -0.237 OA
ATOM     69  O   UNL     1      -8.992  -0.305 -13.748  1.00  0.00    -0.744 OA
ENDBRANCH  62  66
ENDBRANCH  45  59
BRANCH  46  70
ATOM     70  C   UNL     1      -0.588 -10.694  -7.875  1.00  0.00     0.023 A 
ATOM     71  C   UNL     1       0.413 -11.292  -8.657  1.00  0.00     0.031 A 
ATOM     72  C   UNL     1      -0.659 -11.041  -6.514  1.00  0.00     0.131 A 
ATOM     73  C   UNL     1       1.273 -12.241  -8.084  1.00  0.00     0.055 A 
ATOM     74  C   UNL     1       0.231 -11.948  -5.937  1.00  0.00     0.041 A 
ATOM     75  F   UNL     1      -1.598 -10.499  -5.723  1.00  0.00    -0.206 F 
ATOM     76  C   UNL     1       1.197 -12.564  -6.727  1.00  0.00     0.022 A 
BRANCH  73  77
ATOM     77  S   UNL     1       2.445 -13.115  -9.158  1.00  0.00     0.124 S 
ATOM     78  O   UNL     1       1.551 -13.748 -10.120  1.00  0.00    -0.237 OA
ATOM     79  O   UNL     1       3.264 -12.020  -9.667  1.00  0.00    -0.237 OA
ATOM     80  O   UNL     1       3.128 -14.028  -8.244  1.00  0.00    -0.744 OA
ENDBRANCH  73  77
ENDBRANCH  46  70
BRANCH  58  81
ATOM     81  C   UNL     1      -5.549 -11.591 -12.691  1.00  0.00     0.023 A 
ATOM     82  C   UNL     1      -6.125 -12.745 -12.132  1.00  0.00     0.031 A 
ATOM     83  C   UNL     1      -5.331 -11.568 -14.081  1.00  0.00     0.131 A 
ATOM     84  C   UNL     1      -6.417 -13.848 -12.951  1.00  0.00     0.055 A 
ATOM     85  C   UNL     1      -5.675 -12.646 -14.898  1.00  0.00     0.041 A 
ATOM     86  F   UNL     1      -4.783 -10.492 -14.669  1.00  0.00    -0.206 F 
ATOM     87  C   UNL     1      -6.210 -13.799 -14.332  1.00  0.00     0.022 A 
BRANCH  84  88
ATOM     88  S   UNL     1      -6.997 -15.382 -12.175  1.00  0.00     0.124 S 
ATOM     89  O   UNL     1      -5.902 -15.694 -11.262  1.00  0.00    -0.237 OA
ATOM     90  O   UNL     1      -8.248 -14.963 -11.551  1.00  0.00    -0.237 OA
ATOM     91  O   UNL     1      -7.146 -16.302 -13.302  1.00  0.00    -0.744 OA
ENDBRANCH  84  88
ENDBRANCH  58  81
ENDBRANCH  32  33
ENDBRANCH  25  27
ENDBRANCH  24  25
ENDBRANCH  23  24
ENDBRANCH  22  23
ENDBRANCH   1  22
TORSDOF 21
