REMARK SMILES O=C(OCCOCCOC(=O)c1cncc(OCCCc2ccccc2)n1)c1ccc(-c2c3nc(c(-c4cc(S(=O)(=O)[O-])ccc4F)c4ccc([nH]4)c(-c4cc(S(=O)(=O)[O-])ccc4F)c4nc(c(-c5cc(S(=O)(=O)[O-])ccc5F)c5ccc2[nH]5)C=C4)C=C3)cc1
REMARK SMILES IDX 7 1 6 2 5 3 4 4 3 5 2 6 1 7 28 8 29 9 90 10 30 11 89 12
REMARK SMILES IDX 31 13 32 14 33 15 83 16 34 17 88 18 82 19 84 20 35 21 87 22
REMARK SMILES IDX 81 23 80 24 36 26 68 27 48 28 67 29 49 30 52 31 66 32 85 33
REMARK SMILES IDX 50 34 51 35 65 37 86 38 53 39 37 40 38 41 46 42 39 43 45 44
REMARK SMILES IDX 47 45 44 46 40 47 41 48 42 49 43 50 69 51 70 52 78 53 71 54
REMARK SMILES IDX 77 55 79 56 76 57 72 58 73 59 74 60 75 61 54 62 55 63 63 64
REMARK SMILES IDX 56 65 62 66 64 67 61 68 57 69 58 70 59 71 60 72 8 73 9 74
REMARK SMILES IDX 10 75 11 76 12 77 13 78 27 79 14 80 16 81 15 82 17 83 18 84
REMARK SMILES IDX 19 85 20 86 21 87 22 88 26 89 23 90 25 91 24 92
REMARK H PARENT 84 25 52 36
REMARK Flexibility Score: inf
ROOT
ATOM      1  C   UNL     1       2.455   0.965  -2.697  1.00  0.00     0.202 C 
ENDROOT
BRANCH   1   2
ATOM      2  O   UNL     1       3.665   0.474  -2.124  1.00  0.00    -0.374 OA
BRANCH   2   3
ATOM      3  C   UNL     1       3.667  -0.919  -1.810  1.00  0.00     0.202 C 
BRANCH   3   4
ATOM      4  C   UNL     1       3.294  -1.203  -0.355  1.00  0.00     0.261 C 
BRANCH   4   5
ATOM      5  O   UNL     1       1.972  -0.713  -0.080  1.00  0.00    -0.460 OA
BRANCH   5   6
ATOM      6  C   UNL     1       1.634   0.354   0.682  1.00  0.00     0.338 C 
ATOM      7  O   UNL     1       0.442   0.518   0.945  1.00  0.00    -0.246 OA
BRANCH   6   8
ATOM      8  C   UNL     1       2.611   1.358   1.214  1.00  0.00     0.060 A 
ATOM      9  C   UNL     1       3.856   1.653   0.655  1.00  0.00     0.016 A 
ATOM     10  C   UNL     1       2.190   2.135   2.306  1.00  0.00     0.016 A 
ATOM     11  C   UNL     1       4.671   2.656   1.164  1.00  0.00     0.010 A 
ATOM     12  C   UNL     1       2.984   3.177   2.799  1.00  0.00     0.010 A 
ATOM     13  C   UNL     1       4.235   3.437   2.227  1.00  0.00    -0.014 A 
BRANCH  13  14
ATOM     14  C   UNL     1       5.153   4.453   2.780  1.00  0.00     0.031 A 
ATOM     15  C   UNL     1       5.787   4.192   4.110  1.00  0.00     0.074 A 
ATOM     16  C   UNL     1       5.475   5.536   2.048  1.00  0.00     0.049 A 
ATOM     17  N   UNL     1       6.565   4.957   4.824  1.00  0.00    -0.248 NA
ATOM     18  C   UNL     1       5.501   2.882   4.716  1.00  0.00     0.031 C 
ATOM     19  C   UNL     1       4.995   5.809   0.690  1.00  0.00     0.029 A 
ATOM     20  N   UNL     1       6.299   6.594   2.325  1.00  0.00    -0.354 N 
ATOM     21  C   UNL     1       6.831   4.240   5.985  1.00  0.00     0.074 A 
ATOM     22  C   UNL     1       6.115   2.987   5.883  1.00  0.00     0.031 C 
ATOM     23  C   UNL     1       5.560   6.942   0.244  1.00  0.00     0.029 A 
ATOM     24  C   UNL     1       6.374   7.517   1.308  1.00  0.00     0.049 A 
ATOM     25  H   UNL     1       6.792   6.685   3.173  1.00  0.00     0.167 HD
ATOM     26  C   UNL     1       7.600   4.609   7.038  1.00  0.00     0.034 A 
ATOM     27  C   UNL     1       7.006   8.707   1.263  1.00  0.00     0.034 A 
ATOM     28  C   UNL     1       8.292   5.874   7.096  1.00  0.00     0.049 A 
ATOM     29  C   UNL     1       7.771   9.140   2.489  1.00  0.00     0.074 A 
ATOM     30  C   UNL     1       9.068   6.391   8.117  1.00  0.00     0.029 A 
ATOM     31  N   UNL     1       8.283   6.828   6.082  1.00  0.00    -0.354 N 
ATOM     32  N   UNL     1       7.963   8.491   3.617  1.00  0.00    -0.248 NA
ATOM     33  C   UNL     1       8.401  10.463   2.440  1.00  0.00     0.031 C 
ATOM     34  C   UNL     1       9.458   7.685   7.754  1.00  0.00     0.029 A 
ATOM     35  C   UNL     1       9.013   7.941   6.465  1.00  0.00     0.049 A 
ATOM     36  H   UNL     1       7.823   6.726   5.217  1.00  0.00     0.167 HD
ATOM     37  C   UNL     1       8.771   9.313   4.396  1.00  0.00     0.074 A 
ATOM     38  C   UNL     1       9.035  10.498   3.602  1.00  0.00     0.031 C 
ATOM     39  C   UNL     1       9.257   9.110   5.649  1.00  0.00     0.034 A 
BRANCH  26  40
ATOM     40  C   UNL     1       7.623   3.677   8.227  1.00  0.00     0.023 A 
ATOM     41  C   UNL     1       8.100   2.357   8.136  1.00  0.00     0.031 A 
ATOM     42  C   UNL     1       7.055   4.086   9.447  1.00  0.00     0.131 A 
ATOM     43  C   UNL     1       7.901   1.466   9.203  1.00  0.00     0.055 A 
ATOM     44  C   UNL     1       6.952   3.222  10.540  1.00  0.00     0.041 A 
ATOM     45  F   UNL     1       6.553   5.322   9.588  1.00  0.00    -0.206 F 
ATOM     46  C   UNL     1       7.355   1.897  10.414  1.00  0.00     0.022 A 
BRANCH  43  47
ATOM     47  S   UNL     1       8.175  -0.305   8.915  1.00  0.00     0.124 S 
ATOM     48  O   UNL     1       7.262  -0.568   7.804  1.00  0.00    -0.237 OA
ATOM     49  O   UNL     1       9.598  -0.358   8.598  1.00  0.00    -0.237 OA
ATOM     50  O   UNL     1       7.793  -0.923  10.183  1.00  0.00    -0.744 OA
ENDBRANCH  43  47
ENDBRANCH  26  40
BRANCH  27  51
ATOM     51  C   UNL     1       6.908   9.586   0.059  1.00  0.00     0.023 A 
ATOM     52  C   UNL     1       8.053   9.974  -0.655  1.00  0.00     0.031 A 
ATOM     53  C   UNL     1       5.668  10.099  -0.366  1.00  0.00     0.131 A 
ATOM     54  C   UNL     1       7.942  10.879  -1.724  1.00  0.00     0.055 A 
ATOM     55  C   UNL     1       5.555  10.951  -1.467  1.00  0.00     0.041 A 
ATOM     56  F   UNL     1       4.538   9.773   0.281  1.00  0.00    -0.206 F 
ATOM     57  C   UNL     1       6.699  11.357  -2.145  1.00  0.00     0.022 A 
BRANCH  54  58
ATOM     58  S   UNL     1       9.460  11.504  -2.499  1.00  0.00     0.124 S 
ATOM     59  O   UNL     1      10.146  12.106  -1.362  1.00  0.00    -0.237 OA
ATOM     60  O   UNL     1      10.052  10.283  -3.034  1.00  0.00    -0.237 OA
ATOM     61  O   UNL     1       8.967  12.447  -3.501  1.00  0.00    -0.744 OA
ENDBRANCH  54  58
ENDBRANCH  27  51
BRANCH  39  62
ATOM     62  C   UNL     1      10.185  10.167   6.198  1.00  0.00     0.023 A 
ATOM     63  C   UNL     1       9.750  11.476   6.467  1.00  0.00     0.031 A 
ATOM     64  C   UNL     1      11.535   9.854   6.439  1.00  0.00     0.131 A 
ATOM     65  C   UNL     1      10.673  12.441   6.896  1.00  0.00     0.055 A 
ATOM     66  C   UNL     1      12.430  10.798   6.939  1.00  0.00     0.041 A 
ATOM     67  F   UNL     1      12.006   8.620   6.194  1.00  0.00    -0.206 F 
ATOM     68  C   UNL     1      12.005  12.105   7.154  1.00  0.00     0.022 A 
BRANCH  65  69
ATOM     69  S   UNL     1      10.138  14.171   6.994  1.00  0.00     0.124 S 
ATOM     70  O   UNL     1       9.661  14.417   5.637  1.00  0.00    -0.237 OA
ATOM     71  O   UNL     1       9.112  14.122   8.030  1.00  0.00    -0.237 OA
ATOM     72  O   UNL     1      11.358  14.886   7.362  1.00  0.00    -0.744 OA
ENDBRANCH  65  69
ENDBRANCH  39  62
ENDBRANCH  13  14
ENDBRANCH   6   8
ENDBRANCH   5   6
ENDBRANCH   4   5
ENDBRANCH   3   4
ENDBRANCH   2   3
ENDBRANCH   1   2
BRANCH   1  73
ATOM     73  C   UNL     1       2.612   1.130  -4.210  1.00  0.00     0.261 C 
BRANCH  73  74
ATOM     74  O   UNL     1       3.131  -0.084  -4.787  1.00  0.00    -0.458 OA
BRANCH  74  75
ATOM     75  C   UNL     1       4.492  -0.138  -4.870  1.00  0.00     0.358 C 
ATOM     76  O   UNL     1       5.261   0.803  -4.742  1.00  0.00    -0.244 OA
BRANCH  75  77
ATOM     77  C   UNL     1       4.925  -1.549  -5.038  1.00  0.00     0.170 A 
ATOM     78  C   UNL     1       4.102  -2.491  -5.638  1.00  0.00     0.147 A 
ATOM     79  N   UNL     1       6.164  -1.871  -4.573  1.00  0.00    -0.203 NA
ATOM     80  N   UNL     1       4.473  -3.789  -5.795  1.00  0.00    -0.257 NA
ATOM     81  C   UNL     1       6.539  -3.151  -4.724  1.00  0.00     0.233 A 
ATOM     82  C   UNL     1       5.718  -4.087  -5.340  1.00  0.00     0.179 A 
BRANCH  81  83
ATOM     83  O   UNL     1       7.854  -3.453  -4.483  1.00  0.00    -0.477 OA
BRANCH  83  84
ATOM     84  C   UNL     1       8.171  -3.538  -3.089  1.00  0.00     0.232 C 
BRANCH  84  85
ATOM     85  C   UNL     1       8.819  -2.274  -2.510  1.00  0.00     0.046 C 
BRANCH  85  86
ATOM     86  C   UNL     1       7.904  -1.174  -1.944  1.00  0.00     0.039 C 
BRANCH  86  87
ATOM     87  C   UNL     1       7.303  -1.384  -0.567  1.00  0.00    -0.048 A 
ATOM     88  C   UNL     1       7.332  -0.322   0.353  1.00  0.00     0.004 A 
ATOM     89  C   UNL     1       6.638  -2.555  -0.183  1.00  0.00     0.004 A 
ATOM     90  C   UNL     1       6.764  -0.448   1.624  1.00  0.00     0.000 A 
ATOM     91  C   UNL     1       6.079  -2.689   1.092  1.00  0.00     0.000 A 
ATOM     92  C   UNL     1       6.145  -1.637   1.998  1.00  0.00     0.000 A 
ENDBRANCH  86  87
ENDBRANCH  85  86
ENDBRANCH  84  85
ENDBRANCH  83  84
ENDBRANCH  81  83
ENDBRANCH  75  77
ENDBRANCH  74  75
ENDBRANCH  73  74
ENDBRANCH   1  73
TORSDOF 22
