REMARK SMILES COc1ccccc1C[C@@H](C(=O)OCCOCCOC(=O)c1ccc(-c2c3nc(c(-c4cc(S(=O)(=O)[O-])ccc4F)c4ccc([nH]4)c(-c4cc(S(=O)(=O)[O-])ccc4F)c4nc(c(-c5cc(S(=O)(=O)[O-])ccc5F)c5ccc2[nH]5)C=C4)C=C3)cc1)[C@@H]1CCCCC[C@@H]1O
REMARK SMILES IDX 15 1 14 2 13 3 11 4 12 5 10 6 9 7 8 8 3 9 4 10 5 11 7 12
REMARK SMILES IDX 6 13 2 14 1 15 85 16 86 17 87 18 91 20 90 21 89 22 88 23
REMARK SMILES IDX 92 25 16 27 17 28 18 29 19 30 20 31 21 32 22 33 23 34 84 35
REMARK SMILES IDX 24 36 83 37 25 38 26 39 27 40 77 41 28 42 82 43 76 44 78 45
REMARK SMILES IDX 29 46 81 47 75 48 74 49 30 51 62 52 42 53 61 54 43 55 46 56
REMARK SMILES IDX 60 57 79 58 44 59 45 60 59 62 80 63 47 64 31 65 32 66 40 67
REMARK SMILES IDX 33 68 39 69 41 70 38 71 34 72 35 73 36 74 37 75 63 76 64 77
REMARK SMILES IDX 72 78 65 79 71 80 73 81 70 82 66 83 67 84 68 85 69 86 48 87
REMARK SMILES IDX 49 88 57 89 50 90 56 91 58 92 55 93 51 94 52 95 53 96 54 97
REMARK H PARENT 92 26 78 50 46 61
REMARK Flexibility Score: 90.00
ROOT
ATOM      1  C   UNL     1       3.228  -3.802   4.054  1.00  0.00     0.202 C 
ENDROOT
BRANCH   1   2
ATOM      2  C   UNL     1       4.758  -3.622   4.085  1.00  0.00     0.261 C 
BRANCH   2   3
ATOM      3  O   UNL     1       5.206  -2.388   3.478  1.00  0.00    -0.463 OA
BRANCH   3   4
ATOM      4  C   UNL     1       5.358  -2.427   2.135  1.00  0.00     0.309 C 
ATOM      5  O   UNL     1       5.218  -3.456   1.483  1.00  0.00    -0.252 OA
BRANCH   4   6
ATOM      6  C   UNL     1       5.667  -1.051   1.514  1.00  0.00     0.109 C 
BRANCH   6   7
ATOM      7  C   UNL     1       4.511  -0.021   1.734  1.00  0.00     0.055 C 
BRANCH   7   8
ATOM      8  C   UNL     1       4.326   0.720   3.043  1.00  0.00    -0.005 A 
ATOM      9  C   UNL     1       4.537   2.106   3.151  1.00  0.00     0.122 A 
ATOM     10  C   UNL     1       4.335   2.789   4.359  1.00  0.00     0.047 A 
ATOM     11  C   UNL     1       3.881   2.104   5.481  1.00  0.00     0.004 A 
ATOM     12  C   UNL     1       3.805   0.078   4.170  1.00  0.00     0.007 A 
ATOM     13  C   UNL     1       3.618   0.746   5.384  1.00  0.00     0.001 A 
BRANCH   9  14
ATOM     14  O   UNL     1       4.966   2.843   2.074  1.00  0.00    -0.496 OA
ATOM     15  C   UNL     1       3.846   3.335   1.329  1.00  0.00     0.278 C 
ENDBRANCH   9  14
ENDBRANCH   7   8
ENDBRANCH   6   7
BRANCH   6  16
ATOM     16  C   UNL     1       5.878  -1.307  -0.049  1.00  0.00     0.032 C 
BRANCH  16  17
ATOM     17  C   UNL     1       7.091  -2.247  -0.316  1.00  0.00     0.007 C 
BRANCH  17  18
ATOM     18  C   UNL     1       6.937  -2.994  -1.644  1.00  0.00     0.000 CG0
ATOM     19  G   UNL     1       7.634  -2.313  -2.813  1.00  0.00     0.000 G0
ENDBRANCH  17  18
ENDBRANCH  16  17
BRANCH  16  20
ATOM     20  C   UNL     1       5.971  -0.027  -0.919  1.00  0.00     0.118 C 
BRANCH  20  21
ATOM     21  C   UNL     1       6.165  -0.247  -2.429  1.00  0.00     0.032 C 
BRANCH  21  22
ATOM     22  C   UNL     1       7.529  -0.792  -2.842  1.00  0.00     0.003 C 
BRANCH  22  23
ATOM     23  C   UNL     1       7.634  -2.313  -2.813  1.00  0.00     0.000 CG0
ATOM     24  G   UNL     1       6.937  -2.994  -1.644  1.00  0.00     0.000 G0
ENDBRANCH  22  23
ENDBRANCH  21  22
ENDBRANCH  20  21
BRANCH  20  25
ATOM     25  O   UNL     1       7.003   0.829  -0.440  1.00  0.00    -0.393 OA
ATOM     26  H   UNL     1       7.862   0.392  -0.549  1.00  0.00     0.210 HD
ENDBRANCH  20  25
ENDBRANCH  16  20
ENDBRANCH   6  16
ENDBRANCH   4   6
ENDBRANCH   3   4
ENDBRANCH   2   3
ENDBRANCH   1   2
BRANCH   1  27
ATOM     27  O   UNL     1       2.640  -4.145   2.795  1.00  0.00    -0.374 OA
BRANCH  27  28
ATOM     28  C   UNL     1       2.298  -3.056   1.939  1.00  0.00     0.202 C 
BRANCH  28  29
ATOM     29  C   UNL     1       0.897  -2.467   2.105  1.00  0.00     0.261 C 
BRANCH  29  30
ATOM     30  O   UNL     1       0.786  -1.764   3.354  1.00  0.00    -0.460 OA
BRANCH  30  31
ATOM     31  C   UNL     1       0.215  -2.483   4.349  1.00  0.00     0.338 C 
ATOM     32  O   UNL     1      -0.297  -3.586   4.251  1.00  0.00    -0.246 OA
BRANCH  31  33
ATOM     33  C   UNL     1       0.493  -1.834   5.647  1.00  0.00     0.060 A 
ATOM     34  C   UNL     1       0.930  -2.657   6.694  1.00  0.00     0.016 A 
ATOM     35  C   UNL     1       0.321  -0.464   5.851  1.00  0.00     0.016 A 
ATOM     36  C   UNL     1       1.147  -2.123   7.962  1.00  0.00     0.010 A 
ATOM     37  C   UNL     1       0.536   0.070   7.127  1.00  0.00     0.010 A 
ATOM     38  C   UNL     1       0.915  -0.763   8.198  1.00  0.00    -0.014 A 
BRANCH  38  39
ATOM     39  C   UNL     1       0.865  -0.257   9.595  1.00  0.00     0.031 A 
ATOM     40  C   UNL     1      -0.485   0.028  10.197  1.00  0.00     0.074 A 
ATOM     41  C   UNL     1       1.980  -0.092  10.331  1.00  0.00     0.049 A 
ATOM     42  N   UNL     1      -0.788   0.541  11.361  1.00  0.00    -0.248 NA
ATOM     43  C   UNL     1      -1.652  -0.303   9.363  1.00  0.00     0.031 C 
ATOM     44  C   UNL     1       3.341  -0.385   9.884  1.00  0.00     0.029 A 
ATOM     45  N   UNL     1       2.141   0.368  11.615  1.00  0.00    -0.354 N 
ATOM     46  C   UNL     1      -2.177   0.603  11.395  1.00  0.00     0.074 A 
ATOM     47  C   UNL     1      -2.652   0.128  10.113  1.00  0.00     0.031 C 
ATOM     48  C   UNL     1       4.199  -0.087  10.876  1.00  0.00     0.029 A 
ATOM     49  C   UNL     1       3.455   0.458  12.012  1.00  0.00     0.049 A 
ATOM     50  H   UNL     1       1.386   0.612  12.198  1.00  0.00     0.167 HD
ATOM     51  C   UNL     1      -2.986   1.001  12.407  1.00  0.00     0.034 A 
ATOM     52  C   UNL     1       3.996   0.950  13.147  1.00  0.00     0.034 A 
ATOM     53  C   UNL     1      -2.502   1.474  13.680  1.00  0.00     0.049 A 
ATOM     54  C   UNL     1       3.080   1.480  14.229  1.00  0.00     0.074 A 
ATOM     55  C   UNL     1      -3.233   1.902  14.773  1.00  0.00     0.029 A 
ATOM     56  N   UNL     1      -1.162   1.587  14.029  1.00  0.00    -0.354 N 
ATOM     57  N   UNL     1       1.768   1.542  14.246  1.00  0.00    -0.248 NA
ATOM     58  C   UNL     1       3.717   2.000  15.447  1.00  0.00     0.031 C 
ATOM     59  C   UNL     1      -2.338   2.346  15.752  1.00  0.00     0.029 A 
ATOM     60  C   UNL     1      -1.047   2.108  15.308  1.00  0.00     0.049 A 
ATOM     61  H   UNL     1      -0.405   1.335  13.452  1.00  0.00     0.167 HD
ATOM     62  C   UNL     1       1.426   2.070  15.491  1.00  0.00     0.074 A 
ATOM     63  C   UNL     1       2.668   2.300  16.198  1.00  0.00     0.031 C 
ATOM     64  C   UNL     1       0.198   2.332  16.006  1.00  0.00     0.034 A 
BRANCH  51  65
ATOM     65  C   UNL     1      -4.473   0.983  12.151  1.00  0.00     0.023 A 
ATOM     66  C   UNL     1      -5.162  -0.213  11.884  1.00  0.00     0.031 A 
ATOM     67  C   UNL     1      -5.206   2.182  12.135  1.00  0.00     0.131 A 
ATOM     68  C   UNL     1      -6.520  -0.175  11.535  1.00  0.00     0.055 A 
ATOM     69  C   UNL     1      -6.577   2.204  11.876  1.00  0.00     0.041 A 
ATOM     70  F   UNL     1      -4.597   3.358  12.356  1.00  0.00    -0.206 F 
ATOM     71  C   UNL     1      -7.239   1.022  11.557  1.00  0.00     0.022 A 
BRANCH  68  72
ATOM     72  S   UNL     1      -7.292  -1.688  10.898  1.00  0.00     0.124 S 
ATOM     73  O   UNL     1      -6.452  -1.979   9.738  1.00  0.00    -0.237 OA
ATOM     74  O   UNL     1      -7.166  -2.605  12.024  1.00  0.00    -0.237 OA
ATOM     75  O   UNL     1      -8.655  -1.269  10.581  1.00  0.00    -0.744 OA
ENDBRANCH  68  72
ENDBRANCH  51  65
BRANCH  52  76
ATOM     76  C   UNL     1       5.479   1.022  13.313  1.00  0.00     0.023 A 
ATOM     77  C   UNL     1       6.135   0.337  14.348  1.00  0.00     0.031 A 
ATOM     78  C   UNL     1       6.255   1.846  12.477  1.00  0.00     0.131 A 
ATOM     79  C   UNL     1       7.511   0.530  14.555  1.00  0.00     0.055 A 
ATOM     80  C   UNL     1       7.634   1.986  12.648  1.00  0.00     0.041 A 
ATOM     81  F   UNL     1       5.681   2.531  11.475  1.00  0.00    -0.206 F 
ATOM     82  C   UNL     1       8.267   1.337  13.703  1.00  0.00     0.022 A 
BRANCH  79  83
ATOM     83  S   UNL     1       8.281  -0.204  16.025  1.00  0.00     0.124 S 
ATOM     84  O   UNL     1       7.488   0.383  17.099  1.00  0.00    -0.237 OA
ATOM     85  O   UNL     1       8.086  -1.630  15.788  1.00  0.00    -0.237 OA
ATOM     86  O   UNL     1       9.667   0.255  15.948  1.00  0.00    -0.744 OA
ENDBRANCH  79  83
ENDBRANCH  52  76
BRANCH  64  87
ATOM     87  C   UNL     1       0.128   2.835  17.429  1.00  0.00     0.023 A 
ATOM     88  C   UNL     1       0.622   4.097  17.802  1.00  0.00     0.031 A 
ATOM     89  C   UNL     1      -0.464   2.038  18.426  1.00  0.00     0.131 A 
ATOM     90  C   UNL     1       0.556   4.505  19.144  1.00  0.00     0.055 A 
ATOM     91  C   UNL     1      -0.584   2.474  19.746  1.00  0.00     0.041 A 
ATOM     92  F   UNL     1      -0.951   0.822  18.129  1.00  0.00    -0.206 F 
ATOM     93  C   UNL     1      -0.061   3.710  20.113  1.00  0.00     0.022 A 
BRANCH  90  94
ATOM     94  S   UNL     1       1.362   6.057  19.627  1.00  0.00     0.124 S 
ATOM     95  O   UNL     1       2.745   5.818  19.225  1.00  0.00    -0.237 OA
ATOM     96  O   UNL     1       0.632   7.046  18.841  1.00  0.00    -0.237 OA
ATOM     97  O   UNL     1       1.139   6.126  21.070  1.00  0.00    -0.744 OA
ENDBRANCH  90  94
ENDBRANCH  64  87
ENDBRANCH  38  39
ENDBRANCH  31  33
ENDBRANCH  30  31
ENDBRANCH  29  30
ENDBRANCH  28  29
ENDBRANCH  27  28
ENDBRANCH   1  27
TORSDOF 22
