REMARK SMILES C[C@]([NH2+]Cc1nc(-c2ccsc2)no1)(C(=O)OCCOCCOC(=O)c1ccc(-c2c3nc(c(-c4cc(S(=O)(=O)[O-])ccc4F)c4ccc([nH]4)c(-c4cc(S(=O)(=O)[O-])ccc4F)c4nc(c(-c5cc(S(=O)(=O)[O-])ccc5F)c5ccc2[nH]5)C=C4)C=C3)cc1)C(F)(F)F
REMARK SMILES IDX 19 1 18 2 17 3 15 4 16 5 2 6 1 7 89 8 90 9 91 10 92 11 3 12
REMARK SMILES IDX 4 15 5 16 6 17 14 18 7 19 13 20 8 21 9 22 12 23 10 24 11 25
REMARK SMILES IDX 20 26 21 27 22 28 23 29 24 30 25 31 26 32 27 33 88 34 28 35
REMARK SMILES IDX 87 36 29 37 30 38 31 39 81 40 32 41 86 42 80 43 82 44 33 45
REMARK SMILES IDX 85 46 79 47 78 48 34 50 66 51 46 52 65 53 47 54 50 55 64 56
REMARK SMILES IDX 83 57 48 58 49 59 63 61 84 62 51 63 35 64 36 65 44 66 37 67
REMARK SMILES IDX 43 68 45 69 42 70 38 71 39 72 40 73 41 74 67 75 68 76 76 77
REMARK SMILES IDX 69 78 75 79 77 80 74 81 70 82 71 83 72 84 73 85 52 86 53 87
REMARK SMILES IDX 61 88 54 89 60 90 62 91 59 92 55 93 56 94 57 95 58 96
REMARK H PARENT 3 13 3 14 82 49 50 60
REMARK Flexibility Score: inf
ROOT
ATOM      1  C   UNL     1      -3.550   0.672  -0.448  1.00  0.00     0.202 C 
ENDROOT
BRANCH   1   2
ATOM      2  C   UNL     1      -2.789   0.501  -1.766  1.00  0.00     0.261 C 
BRANCH   2   3
ATOM      3  O   UNL     1      -1.382   0.277  -1.560  1.00  0.00    -0.458 OA
BRANCH   3   4
ATOM      4  C   UNL     1      -0.564   1.289  -1.978  1.00  0.00     0.377 C 
ATOM      5  O   UNL     1      -0.956   2.250  -2.630  1.00  0.00    -0.244 OA
BRANCH   4   6
ATOM      6  C   UNL     1       0.912   1.042  -1.623  1.00  0.00     0.287 C 
ATOM      7  C   UNL     1       1.582   0.545  -2.912  1.00  0.00     0.103 C 
BRANCH   6   8
ATOM      8  C   UNL     1       1.432   2.459  -1.254  1.00  0.00     0.455 C 
ATOM      9  F   UNL     1       0.814   2.959  -0.159  1.00  0.00    -0.164 F 
ATOM     10  F   UNL     1       2.761   2.420  -0.963  1.00  0.00    -0.164 F 
ATOM     11  F   UNL     1       1.312   3.360  -2.252  1.00  0.00    -0.164 F 
ENDBRANCH   6   8
BRANCH   6  12
ATOM     12  N   UNL     1       1.045   0.021  -0.505  1.00  0.00    -0.317 N 
ATOM     13  H   UNL     1       0.500  -0.803  -0.760  1.00  0.00     0.347 HD
ATOM     14  H   UNL     1       0.709   0.474   0.344  1.00  0.00     0.347 HD
BRANCH  12  15
ATOM     15  C   UNL     1       2.427  -0.408  -0.232  1.00  0.00     0.363 C 
BRANCH  15  16
ATOM     16  C   UNL     1       2.564  -1.260   0.989  1.00  0.00     0.282 A 
ATOM     17  N   UNL     1       1.901  -2.327   1.383  1.00  0.00    -0.186 NA
ATOM     18  O   UNL     1       3.585  -0.916   1.831  1.00  0.00    -0.333 OA
ATOM     19  C   UNL     1       2.525  -2.621   2.573  1.00  0.00     0.203 A 
ATOM     20  N   UNL     1       3.549  -1.817   2.890  1.00  0.00    -0.057 NA
BRANCH  19  21
ATOM     21  C   UNL     1       2.067  -3.712   3.433  1.00  0.00     0.033 A 
ATOM     22  C   UNL     1       1.422  -4.886   2.942  1.00  0.00     0.024 A 
ATOM     23  C   UNL     1       2.211  -3.740   4.805  1.00  0.00     0.077 A 
ATOM     24  C   UNL     1       1.101  -5.762   3.959  1.00  0.00     0.065 A 
ATOM     25  S   UNL     1       1.562  -5.164   5.495  1.00  0.00    -0.152 S 
ENDBRANCH  19  21
ENDBRANCH  15  16
ENDBRANCH  12  15
ENDBRANCH   6  12
ENDBRANCH   4   6
ENDBRANCH   3   4
ENDBRANCH   2   3
ENDBRANCH   1   2
BRANCH   1  26
ATOM     26  O   UNL     1      -3.120   1.722   0.414  1.00  0.00    -0.374 OA
BRANCH  26  27
ATOM     27  C   UNL     1      -1.921   1.525   1.164  1.00  0.00     0.202 C 
BRANCH  27  28
ATOM     28  C   UNL     1      -1.951   0.518   2.321  1.00  0.00     0.261 C 
BRANCH  28  29
ATOM     29  O   UNL     1      -2.182  -0.833   1.886  1.00  0.00    -0.460 OA
BRANCH  29  30
ATOM     30  C   UNL     1      -3.379  -1.347   2.260  1.00  0.00     0.338 C 
ATOM     31  O   UNL     1      -4.235  -0.794   2.940  1.00  0.00    -0.246 OA
BRANCH  30  32
ATOM     32  C   UNL     1      -3.628  -2.623   1.565  1.00  0.00     0.060 A 
ATOM     33  C   UNL     1      -4.840  -2.758   0.874  1.00  0.00     0.016 A 
ATOM     34  C   UNL     1      -2.739  -3.696   1.656  1.00  0.00     0.016 A 
ATOM     35  C   UNL     1      -5.196  -3.985   0.320  1.00  0.00     0.010 A 
ATOM     36  C   UNL     1      -3.104  -4.931   1.109  1.00  0.00     0.010 A 
ATOM     37  C   UNL     1      -4.351  -5.090   0.473  1.00  0.00    -0.014 A 
BRANCH  37  38
ATOM     38  C   UNL     1      -4.854  -6.446   0.136  1.00  0.00     0.031 A 
ATOM     39  C   UNL     1      -5.379  -7.315   1.247  1.00  0.00     0.074 A 
ATOM     40  C   UNL     1      -4.873  -6.884  -1.135  1.00  0.00     0.049 A 
ATOM     41  N   UNL     1      -5.806  -8.550   1.208  1.00  0.00    -0.248 NA
ATOM     42  C   UNL     1      -5.421  -6.703   2.584  1.00  0.00     0.031 C 
ATOM     43  C   UNL     1      -4.448  -6.110  -2.300  1.00  0.00     0.029 A 
ATOM     44  N   UNL     1      -5.261  -8.092  -1.656  1.00  0.00    -0.354 N 
ATOM     45  C   UNL     1      -6.161  -8.869   2.515  1.00  0.00     0.074 A 
ATOM     46  C   UNL     1      -5.863  -7.707   3.326  1.00  0.00     0.031 C 
ATOM     47  C   UNL     1      -4.584  -6.870  -3.400  1.00  0.00     0.029 A 
ATOM     48  C   UNL     1      -5.067  -8.195  -3.013  1.00  0.00     0.049 A 
ATOM     49  H   UNL     1      -5.643  -8.817  -1.110  1.00  0.00     0.167 HD
ATOM     50  C   UNL     1      -6.694 -10.021   2.992  1.00  0.00     0.034 A 
ATOM     51  C   UNL     1      -5.231  -9.247  -3.841  1.00  0.00     0.034 A 
ATOM     52  C   UNL     1      -6.972 -11.174   2.170  1.00  0.00     0.049 A 
ATOM     53  C   UNL     1      -5.736 -10.553  -3.274  1.00  0.00     0.074 A 
ATOM     54  C   UNL     1      -7.514 -12.391   2.546  1.00  0.00     0.029 A 
ATOM     55  N   UNL     1      -6.720 -11.257   0.806  1.00  0.00    -0.354 N 
ATOM     56  N   UNL     1      -6.061 -10.847  -2.036  1.00  0.00    -0.248 NA
ATOM     57  C   UNL     1      -5.901 -11.666  -4.218  1.00  0.00     0.031 C 
ATOM     58  C   UNL     1      -7.522 -13.232   1.427  1.00  0.00     0.029 A 
ATOM     59  C   UNL     1      -7.062 -12.515   0.333  1.00  0.00     0.049 A 
ATOM     60  H   UNL     1      -6.351 -10.529   0.256  1.00  0.00     0.167 HD
ATOM     61  C   UNL     1      -6.501 -12.168  -2.061  1.00  0.00     0.074 A 
ATOM     62  C   UNL     1      -6.406 -12.610  -3.438  1.00  0.00     0.031 C 
ATOM     63  C   UNL     1      -6.951 -12.945  -1.042  1.00  0.00     0.034 A 
BRANCH  50  64
ATOM     64  C   UNL     1      -6.945 -10.101   4.479  1.00  0.00     0.023 A 
ATOM     65  C   UNL     1      -7.873  -9.262   5.121  1.00  0.00     0.031 A 
ATOM     66  C   UNL     1      -6.212 -11.000   5.273  1.00  0.00     0.131 A 
ATOM     67  C   UNL     1      -7.986  -9.284   6.519  1.00  0.00     0.055 A 
ATOM     68  C   UNL     1      -6.388 -11.075   6.656  1.00  0.00     0.041 A 
ATOM     69  F   UNL     1      -5.295 -11.810   4.721  1.00  0.00    -0.206 F 
ATOM     70  C   UNL     1      -7.268 -10.202   7.290  1.00  0.00     0.022 A 
BRANCH  67  71
ATOM     71  S   UNL     1      -8.970  -7.994   7.331  1.00  0.00     0.124 S 
ATOM     72  O   UNL     1      -8.309  -6.779   6.858  1.00  0.00    -0.237 OA
ATOM     73  O   UNL     1     -10.307  -8.240   6.805  1.00  0.00    -0.237 OA
ATOM     74  O   UNL     1      -8.796  -8.274   8.754  1.00  0.00    -0.744 OA
ENDBRANCH  67  71
ENDBRANCH  50  64
BRANCH  51  75
ATOM     75  C   UNL     1      -4.870  -9.134  -5.283  1.00  0.00     0.023 A 
ATOM     76  C   UNL     1      -5.840  -9.259  -6.289  1.00  0.00     0.031 A 
ATOM     77  C   UNL     1      -3.532  -8.947  -5.676  1.00  0.00     0.131 A 
ATOM     78  C   UNL     1      -5.454  -9.236  -7.639  1.00  0.00     0.055 A 
ATOM     79  C   UNL     1      -3.160  -8.874  -7.019  1.00  0.00     0.041 A 
ATOM     80  F   UNL     1      -2.564  -8.822  -4.753  1.00  0.00    -0.206 F 
ATOM     81  C   UNL     1      -4.122  -9.031  -8.010  1.00  0.00     0.022 A 
BRANCH  78  82
ATOM     82  S   UNL     1      -6.710  -9.552  -8.909  1.00  0.00     0.124 S 
ATOM     83  O   UNL     1      -7.176 -10.883  -8.539  1.00  0.00    -0.237 OA
ATOM     84  O   UNL     1      -7.648  -8.457  -8.685  1.00  0.00    -0.237 OA
ATOM     85  O   UNL     1      -5.956  -9.477 -10.158  1.00  0.00    -0.744 OA
ENDBRANCH  78  82
ENDBRANCH  51  75
BRANCH  63  86
ATOM     86  C   UNL     1      -7.424 -14.336  -1.392  1.00  0.00     0.023 A 
ATOM     87  C   UNL     1      -6.538 -15.332  -1.839  1.00  0.00     0.031 A 
ATOM     88  C   UNL     1      -8.786 -14.665  -1.277  1.00  0.00     0.131 A 
ATOM     89  C   UNL     1      -7.033 -16.594  -2.203  1.00  0.00     0.055 A 
ATOM     90  C   UNL     1      -9.264 -15.940  -1.585  1.00  0.00     0.041 A 
ATOM     91  F   UNL     1      -9.677 -13.753  -0.857  1.00  0.00    -0.206 F 
ATOM     92  C   UNL     1      -8.387 -16.909  -2.063  1.00  0.00     0.022 A 
BRANCH  89  93
ATOM     93  S   UNL     1      -5.895 -17.795  -2.947  1.00  0.00     0.124 S 
ATOM     94  O   UNL     1      -5.411 -17.071  -4.118  1.00  0.00    -0.237 OA
ATOM     95  O   UNL     1      -4.922 -18.006  -1.880  1.00  0.00    -0.237 OA
ATOM     96  O   UNL     1      -6.751 -18.944  -3.239  1.00  0.00    -0.744 OA
ENDBRANCH  89  93
ENDBRANCH  63  86
ENDBRANCH  37  38
ENDBRANCH  30  32
ENDBRANCH  29  30
ENDBRANCH  28  29
ENDBRANCH  27  28
ENDBRANCH  26  27
ENDBRANCH   1  26
TORSDOF 22
