REMARK SMILES Cc1cc(C(=O)OCCOCCOC(=O)c2ccc(-c3c4nc(c(-c5cc(S(=O)(=O)[O-])ccc5F)c5ccc([nH]5)c(-c5cc(S(=O)(=O)[O-])ccc5F)c5nc(c(-c6cc(S(=O)(=O)[O-])ccc6F)c6ccc3[nH]6)C=C5)C=C4)cc2)ccc1NC(=O)N1C[C@@H](C)[C@H](C)C1
REMARK SMILES IDX 11 1 10 2 9 3 8 4 7 5 5 6 6 7 4 8 1 9 2 10 3 11 81 12 80 13
REMARK SMILES IDX 79 14 82 15 83 16 84 18 85 19 86 20 91 21 87 22 89 23 88 24
REMARK SMILES IDX 90 25 12 26 13 27 14 28 15 29 16 30 17 31 78 32 18 33 77 34
REMARK SMILES IDX 19 35 20 36 21 37 71 38 22 39 76 40 70 41 72 42 23 43 75 44
REMARK SMILES IDX 69 45 68 46 24 48 56 49 36 50 55 51 37 52 40 53 54 54 73 55
REMARK SMILES IDX 38 56 39 57 53 59 74 60 41 61 25 62 26 63 34 64 27 65 33 66
REMARK SMILES IDX 35 67 32 68 28 69 29 70 30 71 31 72 57 73 58 74 66 75 59 76
REMARK SMILES IDX 65 77 67 78 64 79 60 80 61 81 62 82 63 83 42 84 43 85 51 86
REMARK SMILES IDX 44 87 50 88 52 89 49 90 45 91 46 92 47 93 48 94
REMARK H PARENT 82 17 72 47 40 58
REMARK Flexibility Score: inf
ROOT
ATOM      1  C   UNL     1      -1.196  -3.375  -3.659  1.00  0.00     0.202 C 
ENDROOT
BRANCH   1   2
ATOM      2  O   UNL     1      -1.829  -3.166  -2.420  1.00  0.00    -0.374 OA
BRANCH   2   3
ATOM      3  C   UNL     1      -2.966  -2.312  -2.450  1.00  0.00     0.202 C 
BRANCH   3   4
ATOM      4  C   UNL     1      -3.483  -2.307  -1.047  1.00  0.00     0.261 C 
BRANCH   4   5
ATOM      5  O   UNL     1      -2.636  -1.628  -0.104  1.00  0.00    -0.460 OA
BRANCH   5   6
ATOM      6  C   UNL     1      -1.333  -1.984   0.007  1.00  0.00     0.338 C 
ATOM      7  O   UNL     1      -0.866  -3.064   0.298  1.00  0.00    -0.246 OA
BRANCH   6   8
ATOM      8  C   UNL     1      -0.565  -0.750  -0.233  1.00  0.00     0.060 A 
ATOM      9  C   UNL     1       2.897   0.641   0.315  1.00  0.00     0.046 C 
ATOM     10  C   UNL     1       1.420   0.612   0.054  1.00  0.00    -0.027 A 
ATOM     11  C   UNL     1       0.767  -0.633   0.160  1.00  0.00     0.021 A 
ATOM     12  C   UNL     1       0.666   1.724  -0.365  1.00  0.00     0.045 A 
ATOM     13  C   UNL     1      -0.545   1.512  -1.011  1.00  0.00     0.027 A 
ATOM     14  C   UNL     1      -1.184   0.304  -0.900  1.00  0.00     0.018 A 
BRANCH  12  15
ATOM     15  N   UNL     1       1.068   3.049  -0.111  1.00  0.00    -0.308 N 
ATOM     16  C   UNL     1       0.307   4.190  -0.187  1.00  0.00     0.321 C 
ATOM     17  H   UNL     1       2.009   3.173   0.153  1.00  0.00     0.171 HD
ATOM     18  O   UNL     1       0.865   5.255  -0.461  1.00  0.00    -0.248 OA
ATOM     19  N   UNL     1      -1.048   4.113   0.033  1.00  0.00    -0.324 N 
ATOM     20  C   UNL     1      -1.987   4.922  -0.718  1.00  0.00     0.125 C 
ATOM     21  C   UNL     1      -1.710   3.464   1.171  1.00  0.00     0.125 C 
ATOM     22  C   UNL     1      -3.157   5.156   0.228  1.00  0.00     0.010 C 
ATOM     23  C   UNL     1      -3.191   3.869   1.073  1.00  0.00     0.010 C 
ATOM     24  C   UNL     1      -4.459   5.430  -0.510  1.00  0.00     0.010 C 
ATOM     25  C   UNL     1      -3.856   4.073   2.432  1.00  0.00     0.010 C 
ENDBRANCH  12  15
ENDBRANCH   6   8
ENDBRANCH   5   6
ENDBRANCH   4   5
ENDBRANCH   3   4
ENDBRANCH   2   3
ENDBRANCH   1   2
BRANCH   1  26
ATOM     26  C   UNL     1      -2.110  -4.092  -4.657  1.00  0.00     0.261 C 
BRANCH  26  27
ATOM     27  O   UNL     1      -2.484  -5.384  -4.128  1.00  0.00    -0.460 OA
BRANCH  27  28
ATOM     28  C   UNL     1      -3.760  -5.490  -3.658  1.00  0.00     0.338 C 
ATOM     29  O   UNL     1      -4.765  -5.241  -4.302  1.00  0.00    -0.246 OA
BRANCH  28  30
ATOM     30  C   UNL     1      -3.746  -5.810  -2.198  1.00  0.00     0.060 A 
ATOM     31  C   UNL     1      -4.917  -5.677  -1.423  1.00  0.00     0.016 A 
ATOM     32  C   UNL     1      -2.515  -5.966  -1.567  1.00  0.00     0.016 A 
ATOM     33  C   UNL     1      -4.832  -5.551  -0.024  1.00  0.00     0.010 A 
ATOM     34  C   UNL     1      -2.429  -5.754  -0.208  1.00  0.00     0.010 A 
ATOM     35  C   UNL     1      -3.572  -5.509   0.574  1.00  0.00    -0.014 A 
BRANCH  35  36
ATOM     36  C   UNL     1      -3.264  -5.072   1.942  1.00  0.00     0.031 A 
ATOM     37  C   UNL     1      -2.501  -5.986   2.819  1.00  0.00     0.074 A 
ATOM     38  C   UNL     1      -3.357  -3.760   2.280  1.00  0.00     0.049 A 
ATOM     39  N   UNL     1      -2.244  -5.735   4.052  1.00  0.00    -0.248 NA
ATOM     40  C   UNL     1      -1.990  -7.293   2.405  1.00  0.00     0.031 C 
ATOM     41  C   UNL     1      -2.598  -3.014   3.287  1.00  0.00     0.029 A 
ATOM     42  N   UNL     1      -4.191  -2.780   1.742  1.00  0.00    -0.354 N 
ATOM     43  C   UNL     1      -1.268  -6.604   4.466  1.00  0.00     0.074 A 
ATOM     44  C   UNL     1      -1.259  -7.641   3.470  1.00  0.00     0.031 C 
ATOM     45  C   UNL     1      -3.165  -1.810   3.485  1.00  0.00     0.029 A 
ATOM     46  C   UNL     1      -4.384  -1.770   2.696  1.00  0.00     0.049 A 
ATOM     47  H   UNL     1      -4.582  -2.795   0.839  1.00  0.00     0.167 HD
ATOM     48  C   UNL     1      -0.513  -6.244   5.541  1.00  0.00     0.034 A 
ATOM     49  C   UNL     1      -5.640  -1.450   3.100  1.00  0.00     0.034 A 
ATOM     50  C   UNL     1      -1.074  -5.042   6.183  1.00  0.00     0.049 A 
ATOM     51  C   UNL     1      -5.760  -1.907   4.529  1.00  0.00     0.074 A 
ATOM     52  C   UNL     1      -0.656  -3.728   6.303  1.00  0.00     0.029 A 
ATOM     53  N   UNL     1      -2.417  -5.055   6.571  1.00  0.00    -0.354 N 
ATOM     54  N   UNL     1      -4.948  -2.795   5.045  1.00  0.00    -0.248 NA
ATOM     55  C   UNL     1      -6.651  -1.324   5.522  1.00  0.00     0.031 C 
ATOM     56  C   UNL     1      -1.801  -2.940   6.644  1.00  0.00     0.029 A 
ATOM     57  C   UNL     1      -2.899  -3.779   6.784  1.00  0.00     0.049 A 
ATOM     58  H   UNL     1      -2.953  -5.873   6.678  1.00  0.00     0.167 HD
ATOM     59  C   UNL     1      -5.093  -2.823   6.393  1.00  0.00     0.074 A 
ATOM     60  C   UNL     1      -6.210  -1.922   6.645  1.00  0.00     0.031 C 
ATOM     61  C   UNL     1      -4.283  -3.565   7.204  1.00  0.00     0.034 A 
BRANCH  48  62
ATOM     62  C   UNL     1       0.812  -6.861   5.947  1.00  0.00     0.023 A 
ATOM     63  C   UNL     1       1.449  -6.382   7.113  1.00  0.00     0.031 A 
ATOM     64  C   UNL     1       1.544  -7.835   5.230  1.00  0.00     0.131 A 
ATOM     65  C   UNL     1       2.712  -6.861   7.517  1.00  0.00     0.055 A 
ATOM     66  C   UNL     1       2.774  -8.351   5.661  1.00  0.00     0.041 A 
ATOM     67  F   UNL     1       1.151  -8.308   4.043  1.00  0.00    -0.206 F 
ATOM     68  C   UNL     1       3.369  -7.863   6.810  1.00  0.00     0.022 A 
BRANCH  65  69
ATOM     69  S   UNL     1       3.517  -6.124   8.964  1.00  0.00     0.124 S 
ATOM     70  O   UNL     1       3.727  -4.747   8.529  1.00  0.00    -0.237 OA
ATOM     71  O   UNL     1       2.524  -6.330  10.012  1.00  0.00    -0.237 OA
ATOM     72  O   UNL     1       4.740  -6.914   9.111  1.00  0.00    -0.744 OA
ENDBRANCH  65  69
ENDBRANCH  48  62
BRANCH  49  73
ATOM     73  C   UNL     1      -6.608  -1.499   1.953  1.00  0.00     0.023 A 
ATOM     74  C   UNL     1      -6.434  -0.509   0.944  1.00  0.00     0.031 A 
ATOM     75  C   UNL     1      -7.259  -2.685   1.578  1.00  0.00     0.131 A 
ATOM     76  C   UNL     1      -6.769  -0.772  -0.400  1.00  0.00     0.055 A 
ATOM     77  C   UNL     1      -7.612  -2.935   0.239  1.00  0.00     0.041 A 
ATOM     78  F   UNL     1      -7.419  -3.683   2.458  1.00  0.00    -0.206 F 
ATOM     79  C   UNL     1      -7.334  -1.998  -0.760  1.00  0.00     0.022 A 
BRANCH  76  80
ATOM     80  S   UNL     1      -6.128   0.327  -1.723  1.00  0.00     0.124 S 
ATOM     81  O   UNL     1      -7.229   1.262  -1.915  1.00  0.00    -0.237 OA
ATOM     82  O   UNL     1      -4.912   0.887  -1.136  1.00  0.00    -0.237 OA
ATOM     83  O   UNL     1      -5.876  -0.594  -2.831  1.00  0.00    -0.744 OA
ENDBRANCH  76  80
ENDBRANCH  49  73
BRANCH  61  84
ATOM     84  C   UNL     1      -4.767  -4.102   8.520  1.00  0.00     0.023 A 
ATOM     85  C   UNL     1      -6.127  -4.096   8.848  1.00  0.00     0.031 A 
ATOM     86  C   UNL     1      -3.912  -4.755   9.433  1.00  0.00     0.131 A 
ATOM     87  C   UNL     1      -6.579  -4.573  10.080  1.00  0.00     0.055 A 
ATOM     88  C   UNL     1      -4.383  -5.347  10.607  1.00  0.00     0.041 A 
ATOM     89  F   UNL     1      -2.594  -4.866   9.217  1.00  0.00    -0.206 F 
ATOM     90  C   UNL     1      -5.722  -5.231  10.954  1.00  0.00     0.022 A 
BRANCH  87  91
ATOM     91  S   UNL     1      -8.280  -4.176  10.537  1.00  0.00     0.124 S 
ATOM     92  O   UNL     1      -8.260  -2.715  10.507  1.00  0.00    -0.237 OA
ATOM     93  O   UNL     1      -9.052  -4.816   9.477  1.00  0.00    -0.237 OA
ATOM     94  O   UNL     1      -8.425  -4.769  11.863  1.00  0.00    -0.744 OA
ENDBRANCH  87  91
ENDBRANCH  61  84
ENDBRANCH  35  36
ENDBRANCH  28  30
ENDBRANCH  27  28
ENDBRANCH  26  27
ENDBRANCH   1  26
TORSDOF 18
