REMARK SMILES CC(C)C[C@@H](CNC(=O)[C@@H]1CCOC1)C(=O)OCCOCCOC(=O)c1ccc(-c2c3nc(c(-c4cc(S(=O)(=O)[O-])ccc4F)c4ccc([nH]4)c(-c4cc(S(=O)(=O)[O-])ccc4F)c4nc(c(-c5cc(S(=O)(=O)[O-])ccc5F)c5ccc2[nH]5)C=C4)C=C3)cc1
REMARK SMILES IDX 20 1 19 2 18 3 17 4 15 5 16 6 5 7 4 8 2 9 1 10 3 11 6 12
REMARK SMILES IDX 7 13 8 14 9 16 10 17 11 18 14 19 12 20 13 21 21 22 22 23
REMARK SMILES IDX 23 24 24 25 25 26 26 27 27 28 88 29 28 30 87 31 29 32 30 33
REMARK SMILES IDX 31 34 81 35 32 36 86 37 80 38 82 39 33 40 85 41 79 42 78 43
REMARK SMILES IDX 34 45 66 46 46 47 65 48 47 49 50 50 64 51 83 52 48 53 49 54
REMARK SMILES IDX 63 56 84 57 51 58 35 59 36 60 44 61 37 62 43 63 45 64 42 65
REMARK SMILES IDX 38 66 39 67 40 68 41 69 67 70 68 71 76 72 69 73 75 74 77 75
REMARK SMILES IDX 74 76 70 77 71 78 72 79 73 80 52 81 53 82 61 83 54 84 60 85
REMARK SMILES IDX 62 86 59 87 55 88 56 89 57 90 58 91
REMARK H PARENT 7 15 82 44 50 55
REMARK Flexibility Score: inf
ROOT
ATOM      1  O   UNL     1      -5.268  -0.216   0.366  1.00  0.00    -0.374 OA
ENDROOT
BRANCH   1   2
ATOM      2  C   UNL     1      -5.640   0.717  -0.646  1.00  0.00     0.202 C 
BRANCH   2   3
ATOM      3  C   UNL     1      -4.812   2.001  -0.745  1.00  0.00     0.261 C 
BRANCH   3   4
ATOM      4  O   UNL     1      -3.420   1.750  -1.007  1.00  0.00    -0.463 OA
BRANCH   4   5
ATOM      5  C   UNL     1      -2.567   2.054   0.004  1.00  0.00     0.310 C 
ATOM      6  O   UNL     1      -2.896   2.516   1.092  1.00  0.00    -0.252 OA
BRANCH   5   7
ATOM      7  C   UNL     1      -1.109   1.853  -0.361  1.00  0.00     0.118 C 
BRANCH   7   8
ATOM      8  C   UNL     1      -0.813   0.675  -1.311  1.00  0.00     0.020 C 
BRANCH   8   9
ATOM      9  C   UNL     1       0.689   0.334  -1.454  1.00  0.00    -0.017 C 
ATOM     10  C   UNL     1       1.322  -0.088  -0.125  1.00  0.00     0.007 C 
ATOM     11  C   UNL     1       0.884  -0.784  -2.482  1.00  0.00     0.007 C 
ENDBRANCH   8   9
ENDBRANCH   7   8
BRANCH   7  12
ATOM     12  C   UNL     1      -0.549   3.199  -0.824  1.00  0.00     0.131 C 
BRANCH  12  13
ATOM     13  N   UNL     1      -1.050   3.618  -2.122  1.00  0.00    -0.355 N 
ATOM     14  C   UNL     1      -1.984   4.568  -2.427  1.00  0.00     0.225 C 
ATOM     15  H   UNL     1      -0.660   3.149  -2.894  1.00  0.00     0.163 HD
ATOM     16  O   UNL     1      -2.329   4.679  -3.602  1.00  0.00    -0.275 OA
BRANCH  14  17
ATOM     17  C   UNL     1      -2.566   5.423  -1.311  1.00  0.00     0.106 C 
ATOM     18  C   UNL     1      -3.677   6.338  -1.788  1.00  0.00     0.044 C 
ATOM     19  C   UNL     1      -1.534   6.408  -0.784  1.00  0.00     0.173 C 
ATOM     20  C   UNL     1      -2.916   7.558  -2.255  1.00  0.00     0.161 C 
ATOM     21  O   UNL     1      -1.815   7.699  -1.346  1.00  0.00    -0.381 OA
ENDBRANCH  14  17
ENDBRANCH  12  13
ENDBRANCH   7  12
ENDBRANCH   5   7
ENDBRANCH   4   5
ENDBRANCH   3   4
ENDBRANCH   2   3
ENDBRANCH   1   2
BRANCH   1  22
ATOM     22  C   UNL     1      -4.099  -1.001   0.143  1.00  0.00     0.202 C 
BRANCH  22  23
ATOM     23  C   UNL     1      -4.173  -2.102  -0.923  1.00  0.00     0.261 C 
BRANCH  23  24
ATOM     24  O   UNL     1      -4.360  -1.587  -2.255  1.00  0.00    -0.460 OA
BRANCH  24  25
ATOM     25  C   UNL     1      -5.541  -1.926  -2.829  1.00  0.00     0.338 C 
ATOM     26  O   UNL     1      -6.406  -2.650  -2.349  1.00  0.00    -0.246 OA
BRANCH  25  27
ATOM     27  C   UNL     1      -5.759  -1.158  -4.068  1.00  0.00     0.060 A 
ATOM     28  C   UNL     1      -6.937  -0.405  -4.166  1.00  0.00     0.016 A 
ATOM     29  C   UNL     1      -4.882  -1.245  -5.151  1.00  0.00     0.016 A 
ATOM     30  C   UNL     1      -7.265   0.230  -5.363  1.00  0.00     0.010 A 
ATOM     31  C   UNL     1      -5.220  -0.615  -6.356  1.00  0.00     0.010 A 
ATOM     32  C   UNL     1      -6.427   0.098  -6.477  1.00  0.00    -0.014 A 
BRANCH  32  33
ATOM     33  C   UNL     1      -6.882   0.588  -7.803  1.00  0.00     0.031 A 
ATOM     34  C   UNL     1      -7.466  -0.394  -8.783  1.00  0.00     0.074 A 
ATOM     35  C   UNL     1      -6.792   1.892  -8.124  1.00  0.00     0.049 A 
ATOM     36  N   UNL     1      -7.862  -0.205 -10.015  1.00  0.00    -0.248 NA
ATOM     37  C   UNL     1      -7.622  -1.777  -8.306  1.00  0.00     0.031 C 
ATOM     38  C   UNL     1      -6.289   2.943  -7.240  1.00  0.00     0.029 A 
ATOM     39  N   UNL     1      -7.107   2.551  -9.286  1.00  0.00    -0.354 N 
ATOM     40  C   UNL     1      -8.302  -1.444 -10.468  1.00  0.00     0.074 A 
ATOM     41  C   UNL     1      -8.100  -2.382  -9.383  1.00  0.00     0.031 C 
ATOM     42  C   UNL     1      -6.311   4.114  -7.900  1.00  0.00     0.029 A 
ATOM     43  C   UNL     1      -6.787   3.889  -9.264  1.00  0.00     0.049 A 
ATOM     44  H   UNL     1      -7.523   2.109 -10.061  1.00  0.00     0.167 HD
ATOM     45  C   UNL     1      -8.827  -1.767 -11.676  1.00  0.00     0.034 A 
ATOM     46  C   UNL     1      -6.835   4.815 -10.244  1.00  0.00     0.034 A 
ATOM     47  C   UNL     1      -9.018  -0.819 -12.747  1.00  0.00     0.049 A 
ATOM     48  C   UNL     1      -7.335   4.411 -11.611  1.00  0.00     0.074 A 
ATOM     49  C   UNL     1      -9.578  -1.031 -13.995  1.00  0.00     0.029 A 
ATOM     50  N   UNL     1      -8.636   0.515 -12.706  1.00  0.00    -0.354 N 
ATOM     51  N   UNL     1      -7.768   3.240 -12.021  1.00  0.00    -0.248 NA
ATOM     52  C   UNL     1      -7.353   5.453 -12.648  1.00  0.00     0.031 C 
ATOM     53  C   UNL     1      -9.464   0.152 -14.733  1.00  0.00     0.029 A 
ATOM     54  C   UNL     1      -8.905   1.126 -13.921  1.00  0.00     0.049 A 
ATOM     55  H   UNL     1      -8.232   0.963 -11.927  1.00  0.00     0.167 HD
ATOM     56  C   UNL     1      -8.133   3.415 -13.354  1.00  0.00     0.074 A 
ATOM     57  C   UNL     1      -7.881   4.804 -13.675  1.00  0.00     0.031 C 
ATOM     58  C   UNL     1      -8.635   2.510 -14.232  1.00  0.00     0.034 A 
BRANCH  45  59
ATOM     59  C   UNL     1      -9.175  -3.215 -11.921  1.00  0.00     0.023 A 
ATOM     60  C   UNL     1     -10.194  -3.868 -11.207  1.00  0.00     0.031 A 
ATOM     61  C   UNL     1      -8.460  -3.957 -12.878  1.00  0.00     0.131 A 
ATOM     62  C   UNL     1     -10.429  -5.236 -11.418  1.00  0.00     0.055 A 
ATOM     63  C   UNL     1      -8.747  -5.299 -13.135  1.00  0.00     0.041 A 
ATOM     64  F   UNL     1      -7.461  -3.392 -13.574  1.00  0.00    -0.206 F 
ATOM     65  C   UNL     1      -9.729  -5.949 -12.394  1.00  0.00     0.022 A 
BRANCH  62  66
ATOM     66  S   UNL     1     -11.576  -6.102 -10.312  1.00  0.00     0.124 S 
ATOM     67  O   UNL     1     -10.963  -5.866  -9.007  1.00  0.00    -0.237 OA
ATOM     68  O   UNL     1     -12.836  -5.412 -10.560  1.00  0.00    -0.237 OA
ATOM     69  O   UNL     1     -11.521  -7.487 -10.776  1.00  0.00    -0.744 OA
ENDBRANCH  62  66
ENDBRANCH  45  59
BRANCH  46  70
ATOM     70  C   UNL     1      -6.337   6.200 -10.000  1.00  0.00     0.023 A 
ATOM     71  C   UNL     1      -7.190   7.310 -10.091  1.00  0.00     0.031 A 
ATOM     72  C   UNL     1      -4.976   6.436  -9.731  1.00  0.00     0.131 A 
ATOM     73  C   UNL     1      -6.667   8.607  -9.961  1.00  0.00     0.055 A 
ATOM     74  C   UNL     1      -4.471   7.723  -9.546  1.00  0.00     0.041 A 
ATOM     75  F   UNL     1      -4.114   5.410  -9.643  1.00  0.00    -0.206 F 
ATOM     76  C   UNL     1      -5.317   8.820  -9.675  1.00  0.00     0.022 A 
BRANCH  73  77
ATOM     77  S   UNL     1      -7.763  10.021 -10.264  1.00  0.00     0.124 S 
ATOM     78  O   UNL     1      -8.222   9.755 -11.623  1.00  0.00    -0.237 OA
ATOM     79  O   UNL     1      -8.759   9.864  -9.209  1.00  0.00    -0.237 OA
ATOM     80  O   UNL     1      -6.879  11.175 -10.118  1.00  0.00    -0.744 OA
ENDBRANCH  73  77
ENDBRANCH  46  70
BRANCH  58  81
ATOM     81  C   UNL     1      -8.984   3.009 -15.613  1.00  0.00     0.023 A 
ATOM     82  C   UNL     1      -7.994   3.407 -16.528  1.00  0.00     0.031 A 
ATOM     83  C   UNL     1     -10.328   3.079 -16.020  1.00  0.00     0.131 A 
ATOM     84  C   UNL     1      -8.365   3.898 -17.790  1.00  0.00     0.055 A 
ATOM     85  C   UNL     1     -10.689   3.517 -17.295  1.00  0.00     0.041 A 
ATOM     86  F   UNL     1     -11.314   2.713 -15.185  1.00  0.00    -0.206 F 
ATOM     87  C   UNL     1      -9.705   3.939 -18.184  1.00  0.00     0.022 A 
BRANCH  84  88
ATOM     88  S   UNL     1      -7.077   4.547 -18.889  1.00  0.00     0.124 S 
ATOM     89  O   UNL     1      -6.530   5.646 -18.101  1.00  0.00    -0.237 OA
ATOM     90  O   UNL     1      -6.203   3.392 -19.065  1.00  0.00    -0.237 OA
ATOM     91  O   UNL     1      -7.816   4.950 -20.084  1.00  0.00    -0.744 OA
ENDBRANCH  84  88
ENDBRANCH  58  81
ENDBRANCH  32  33
ENDBRANCH  25  27
ENDBRANCH  24  25
ENDBRANCH  23  24
ENDBRANCH  22  23
ENDBRANCH   1  22
TORSDOF 22
