REMARK SMILES C[C@@H](C(=O)OCCOCCOC(=O)c1ccc(-c2c3nc(c(-c4cc(S(=O)(=O)[O-])ccc4F)c4ccc([nH]4)c(-c4cc(S(=O)(=O)[O-])ccc4F)c4nc(c(-c5cc(S(=O)(=O)[O-])ccc5F)c5ccc2[nH]5)C=C4)C=C3)cc1)c1ccccc1-c1ccn(C(F)F)c(=O)c1
REMARK SMILES IDX 8 1 7 2 6 3 5 4 3 5 4 6 2 7 1 8 77 9 78 10 82 11 79 12 81 13
REMARK SMILES IDX 80 14 83 15 84 16 92 17 85 18 90 19 86 20 91 21 87 22 88 23
REMARK SMILES IDX 89 24 9 25 10 26 11 27 12 28 13 29 14 30 15 31 76 32 16 33
REMARK SMILES IDX 75 34 17 35 18 36 19 37 69 38 20 39 74 40 68 41 70 42 21 43
REMARK SMILES IDX 73 44 67 45 66 46 22 48 54 49 34 50 53 51 35 52 38 53 52 54
REMARK SMILES IDX 71 55 36 56 37 57 51 59 72 60 39 61 23 62 24 63 32 64 25 65
REMARK SMILES IDX 31 66 33 67 30 68 26 69 27 70 28 71 29 72 55 73 56 74 64 75
REMARK SMILES IDX 57 76 63 77 65 78 62 79 58 80 59 81 60 82 61 83 40 84 41 85
REMARK SMILES IDX 49 86 42 87 48 88 50 89 47 90 43 91 44 92 45 93 46 94
REMARK H PARENT 70 47 38 58
REMARK Flexibility Score: inf
ROOT
ATOM      1  O   UNL     1       1.046   0.140   4.548  1.00  0.00    -0.374 OA
ENDROOT
BRANCH   1   2
ATOM      2  C   UNL     1       2.340  -0.452   4.466  1.00  0.00     0.202 C 
BRANCH   2   3
ATOM      3  C   UNL     1       2.519  -1.729   3.635  1.00  0.00     0.261 C 
BRANCH   3   4
ATOM      4  O   UNL     1       2.181  -1.561   2.249  1.00  0.00    -0.463 OA
BRANCH   4   5
ATOM      5  C   UNL     1       0.879  -1.847   1.983  1.00  0.00     0.313 C 
ATOM      6  O   UNL     1       0.090  -2.227   2.844  1.00  0.00    -0.252 OA
BRANCH   5   7
ATOM      7  C   UNL     1       0.506  -1.642   0.505  1.00  0.00     0.127 C 
ATOM      8  C   UNL     1       1.222  -0.452  -0.147  1.00  0.00     0.025 C 
BRANCH   7   9
ATOM      9  C   UNL     1      -1.029  -1.587   0.411  1.00  0.00    -0.026 A 
ATOM     10  C   UNL     1      -1.705  -0.355   0.502  1.00  0.00     0.005 A 
ATOM     11  C   UNL     1      -1.793  -2.786   0.440  1.00  0.00    -0.014 A 
ATOM     12  C   UNL     1      -3.091  -0.307   0.651  1.00  0.00     0.000 A 
ATOM     13  C   UNL     1      -3.183  -2.720   0.604  1.00  0.00     0.009 A 
ATOM     14  C   UNL     1      -3.826  -1.487   0.718  1.00  0.00     0.001 A 
BRANCH  11  15
ATOM     15  C   UNL     1      -1.146  -4.112   0.316  1.00  0.00    -0.011 A 
ATOM     16  C   UNL     1      -0.466  -4.779   1.409  1.00  0.00     0.027 A 
ATOM     17  C   UNL     1      -1.069  -4.641  -0.917  1.00  0.00     0.080 A 
ATOM     18  C   UNL     1       0.414  -5.755   1.161  1.00  0.00     0.095 A 
ATOM     19  C   UNL     1      -0.206  -5.826  -1.180  1.00  0.00     0.255 A 
ATOM     20  N   UNL     1       0.593  -6.234  -0.123  1.00  0.00    -0.258 N 
ATOM     21  O   UNL     1      -0.219  -6.319  -2.303  1.00  0.00    -0.269 OA
BRANCH  20  22
ATOM     22  C   UNL     1       1.570  -7.258  -0.388  1.00  0.00     0.451 C 
ATOM     23  F   UNL     1       0.969  -8.451  -0.608  1.00  0.00    -0.185 F 
ATOM     24  F   UNL     1       2.315  -6.955  -1.480  1.00  0.00    -0.185 F 
ENDBRANCH  20  22
ENDBRANCH  11  15
ENDBRANCH   7   9
ENDBRANCH   5   7
ENDBRANCH   4   5
ENDBRANCH   3   4
ENDBRANCH   2   3
ENDBRANCH   1   2
BRANCH   1  25
ATOM     25  C   UNL     1       0.604   0.951   3.460  1.00  0.00     0.202 C 
BRANCH  25  26
ATOM     26  C   UNL     1       1.223   2.343   3.297  1.00  0.00     0.261 C 
BRANCH  26  27
ATOM     27  O   UNL     1       2.626   2.278   2.990  1.00  0.00    -0.460 OA
BRANCH  27  28
ATOM     28  C   UNL     1       3.433   2.674   4.004  1.00  0.00     0.338 C 
ATOM     29  O   UNL     1       3.080   3.164   5.070  1.00  0.00    -0.246 OA
BRANCH  28  30
ATOM     30  C   UNL     1       4.817   2.224   3.760  1.00  0.00     0.060 A 
ATOM     31  C   UNL     1       5.454   1.530   4.798  1.00  0.00     0.016 A 
ATOM     32  C   UNL     1       5.498   2.511   2.575  1.00  0.00     0.016 A 
ATOM     33  C   UNL     1       6.795   1.181   4.686  1.00  0.00     0.010 A 
ATOM     34  C   UNL     1       6.851   2.171   2.469  1.00  0.00     0.010 A 
ATOM     35  C   UNL     1       7.515   1.545   3.542  1.00  0.00    -0.014 A 
BRANCH  35  36
ATOM     36  C   UNL     1       8.994   1.445   3.562  1.00  0.00     0.031 A 
ATOM     37  C   UNL     1       9.793   2.686   3.857  1.00  0.00     0.074 A 
ATOM     38  C   UNL     1       9.611   0.264   3.381  1.00  0.00     0.049 A 
ATOM     39  N   UNL     1      11.090   2.850   3.902  1.00  0.00    -0.248 NA
ATOM     40  C   UNL     1       9.021   3.906   4.137  1.00  0.00     0.031 C 
ATOM     41  C   UNL     1       8.936  -1.012   3.148  1.00  0.00     0.029 A 
ATOM     42  N   UNL     1      10.946  -0.052   3.365  1.00  0.00    -0.354 N 
ATOM     43  C   UNL     1      11.290   4.191   4.212  1.00  0.00     0.074 A 
ATOM     44  C   UNL     1       9.981   4.803   4.301  1.00  0.00     0.031 C 
ATOM     45  C   UNL     1       9.864  -1.974   3.001  1.00  0.00     0.029 A 
ATOM     46  C   UNL     1      11.195  -1.376   3.089  1.00  0.00     0.049 A 
ATOM     47  H   UNL     1      11.658   0.606   3.534  1.00  0.00     0.167 HD
ATOM     48  C   UNL     1      12.458   4.849   4.414  1.00  0.00     0.034 A 
ATOM     49  C   UNL     1      12.364  -2.022   2.902  1.00  0.00     0.034 A 
ATOM     50  C   UNL     1      13.755   4.225   4.309  1.00  0.00     0.049 A 
ATOM     51  C   UNL     1      13.655  -1.249   3.037  1.00  0.00     0.074 A 
ATOM     52  C   UNL     1      15.003   4.792   4.495  1.00  0.00     0.029 A 
ATOM     53  N   UNL     1      13.971   2.893   3.975  1.00  0.00    -0.354 N 
ATOM     54  N   UNL     1      13.833   0.020   3.328  1.00  0.00    -0.248 NA
ATOM     55  C   UNL     1      14.901  -1.997   2.826  1.00  0.00     0.031 C 
ATOM     56  C   UNL     1      15.972   3.826   4.202  1.00  0.00     0.029 A 
ATOM     57  C   UNL     1      15.331   2.631   3.916  1.00  0.00     0.049 A 
ATOM     58  H   UNL     1      13.261   2.232   3.806  1.00  0.00     0.167 HD
ATOM     59  C   UNL     1      15.213   0.211   3.366  1.00  0.00     0.074 A 
ATOM     60  C   UNL     1      15.816  -1.074   3.082  1.00  0.00     0.031 C 
ATOM     61  C   UNL     1      15.918   1.344   3.619  1.00  0.00     0.034 A 
BRANCH  48  62
ATOM     62  C   UNL     1      12.379   6.327   4.712  1.00  0.00     0.023 A 
ATOM     63  C   UNL     1      11.756   6.819   5.873  1.00  0.00     0.031 A 
ATOM     64  C   UNL     1      12.902   7.263   3.801  1.00  0.00     0.131 A 
ATOM     65  C   UNL     1      11.607   8.203   6.056  1.00  0.00     0.055 A 
ATOM     66  C   UNL     1      12.824   8.638   4.029  1.00  0.00     0.041 A 
ATOM     67  F   UNL     1      13.484   6.855   2.662  1.00  0.00    -0.206 F 
ATOM     68  C   UNL     1      12.160   9.116   5.155  1.00  0.00     0.022 A 
BRANCH  65  69
ATOM     69  S   UNL     1      10.552   8.791   7.409  1.00  0.00     0.124 S 
ATOM     70  O   UNL     1       9.278   8.152   7.089  1.00  0.00    -0.237 OA
ATOM     71  O   UNL     1      11.242   8.284   8.590  1.00  0.00    -0.237 OA
ATOM     72  O   UNL     1      10.569  10.243   7.251  1.00  0.00    -0.744 OA
ENDBRANCH  65  69
ENDBRANCH  48  62
BRANCH  49  73
ATOM     73  C   UNL     1      12.376  -3.464   2.521  1.00  0.00     0.023 A 
ATOM     74  C   UNL     1      12.958  -4.434   3.352  1.00  0.00     0.031 A 
ATOM     75  C   UNL     1      11.850  -3.884   1.286  1.00  0.00     0.131 A 
ATOM     76  C   UNL     1      13.040  -5.767   2.919  1.00  0.00     0.055 A 
ATOM     77  C   UNL     1      11.884  -5.220   0.884  1.00  0.00     0.041 A 
ATOM     78  F   UNL     1      11.283  -2.998   0.452  1.00  0.00    -0.206 F 
ATOM     79  C   UNL     1      12.495  -6.169   1.697  1.00  0.00     0.022 A 
BRANCH  76  80
ATOM     80  S   UNL     1      13.947  -6.959   3.941  1.00  0.00     0.124 S 
ATOM     81  O   UNL     1      15.269  -6.345   4.010  1.00  0.00    -0.237 OA
ATOM     82  O   UNL     1      13.170  -6.950   5.176  1.00  0.00    -0.237 OA
ATOM     83  O   UNL     1      13.872  -8.197   3.169  1.00  0.00    -0.744 OA
ENDBRANCH  76  80
ENDBRANCH  49  73
BRANCH  61  84
ATOM     84  C   UNL     1      17.424   1.227   3.645  1.00  0.00     0.023 A 
ATOM     85  C   UNL     1      18.166   0.927   2.490  1.00  0.00     0.031 A 
ATOM     86  C   UNL     1      18.125   1.412   4.851  1.00  0.00     0.131 A 
ATOM     87  C   UNL     1      19.557   0.765   2.575  1.00  0.00     0.055 A 
ATOM     88  C   UNL     1      19.515   1.313   4.917  1.00  0.00     0.041 A 
ATOM     89  F   UNL     1      17.468   1.699   5.986  1.00  0.00    -0.206 F 
ATOM     90  C   UNL     1      20.238   0.974   3.777  1.00  0.00     0.022 A 
BRANCH  87  91
ATOM     91  S   UNL     1      20.459   0.182   1.113  1.00  0.00     0.124 S 
ATOM     92  O   UNL     1      19.798  -1.090   0.837  1.00  0.00    -0.237 OA
ATOM     93  O   UNL     1      20.214   1.250   0.149  1.00  0.00    -0.237 OA
ATOM     94  O   UNL     1      21.840   0.075   1.581  1.00  0.00    -0.744 OA
ENDBRANCH  87  91
ENDBRANCH  61  84
ENDBRANCH  35  36
ENDBRANCH  28  30
ENDBRANCH  27  28
ENDBRANCH  26  27
ENDBRANCH  25  26
ENDBRANCH   1  25
TORSDOF 20
