REMARK SMILES COc1ccc(-c2noc(C[N@H+]3CCCC[C@@H]3C(=O)OCCOCCOC(=O)c3ccc(-c4c5nc(c(-c6cc(S(=O)(=O)[O-])ccc6F)c6ccc([nH]6)c(-c6cc(S(=O)(=O)[O-])ccc6F)c6nc(c(-c7cc(S(=O)(=O)[O-])ccc7F)c7ccc4[nH]7)C=C6)C=C5)cc3)n2)cc1OC
REMARK SMILES IDX 22 1 21 2 20 3 18 4 19 5 17 6 12 7 13 8 14 10 16 11 15 12
REMARK SMILES IDX 11 13 10 14 7 15 8 16 92 17 9 18 6 19 3 20 4 21 94 22 5 23
REMARK SMILES IDX 93 24 2 25 1 26 95 27 96 28 23 29 24 30 25 31 26 32 27 33
REMARK SMILES IDX 28 34 29 35 30 36 91 37 31 38 90 39 32 40 33 41 34 42 84 43
REMARK SMILES IDX 35 44 89 45 83 46 85 47 36 48 88 49 82 50 81 51 37 53 69 54
REMARK SMILES IDX 49 55 68 56 50 57 53 58 67 59 86 60 51 61 52 62 66 64 87 65
REMARK SMILES IDX 54 66 38 67 39 68 47 69 40 70 46 71 48 72 45 73 41 74 42 75
REMARK SMILES IDX 43 76 44 77 70 78 71 79 79 80 72 81 78 82 80 83 77 84 73 85
REMARK SMILES IDX 74 86 75 87 76 88 55 89 56 90 64 91 57 92 63 93 65 94 62 95
REMARK SMILES IDX 58 96 59 97 60 98 61 99
REMARK H PARENT 12 9 85 52 53 63
REMARK Flexibility Score: inf
ROOT
ATOM      1  C   UNL     1       4.176  13.252   2.058  1.00  0.00     0.202 C 
ENDROOT
BRANCH   1   2
ATOM      2  C   UNL     1       4.828  12.579   0.846  1.00  0.00     0.261 C 
BRANCH   2   3
ATOM      3  O   UNL     1       3.923  12.361  -0.245  1.00  0.00    -0.459 OA
BRANCH   3   4
ATOM      4  C   UNL     1       3.434  11.095  -0.309  1.00  0.00     0.365 C 
ATOM      5  O   UNL     1       3.735  10.203   0.481  1.00  0.00    -0.245 OA
BRANCH   4   6
ATOM      6  C   UNL     1       2.442  10.864  -1.466  1.00  0.00     0.295 C 
ATOM      7  N   UNL     1       3.051  10.053  -2.557  1.00  0.00    -0.315 N 
ATOM      8  C   UNL     1       2.069   9.720  -3.601  1.00  0.00     0.263 C 
ATOM      9  H   UNL     1       3.771  10.654  -2.960  1.00  0.00     0.349 HD
ATOM     10  C   UNL     1       1.404  10.966  -4.186  1.00  0.00     0.062 C 
ATOM     11  C   UNL     1       1.828  12.155  -2.031  1.00  0.00     0.078 C 
ATOM     12  C   UNL     1       0.782  11.826  -3.094  1.00  0.00     0.013 C 
BRANCH   7  13
ATOM     13  C   UNL     1       3.754   8.830  -2.088  1.00  0.00     0.364 C 
BRANCH  13  14
ATOM     14  C   UNL     1       2.923   7.768  -1.439  1.00  0.00     0.282 A 
ATOM     15  C   UNL     1       1.904   6.040  -0.851  1.00  0.00     0.202 A 
ATOM     16  N   UNL     1       1.391   6.977  -0.044  1.00  0.00    -0.057 NA
ATOM     17  N   UNL     1       2.843   6.495  -1.743  1.00  0.00    -0.186 NA
ATOM     18  O   UNL     1       2.101   8.121  -0.407  1.00  0.00    -0.333 OA
BRANCH  15  19
ATOM     19  C   UNL     1       1.561   4.641  -0.795  1.00  0.00     0.027 A 
ATOM     20  C   UNL     1       1.025   1.904  -0.850  1.00  0.00     0.160 A 
ATOM     21  C   UNL     1      -0.023   2.833  -0.956  1.00  0.00     0.051 A 
ATOM     22  C   UNL     1       2.348   2.341  -0.712  1.00  0.00     0.161 A 
ATOM     23  C   UNL     1       0.242   4.203  -0.911  1.00  0.00     0.016 A 
ATOM     24  C   UNL     1       2.601   3.711  -0.692  1.00  0.00     0.062 A 
BRANCH  20  25
ATOM     25  O   UNL     1       0.742   0.573  -1.000  1.00  0.00    -0.493 OA
ATOM     26  C   UNL     1      -0.033   0.069   0.087  1.00  0.00     0.278 C 
ENDBRANCH  20  25
BRANCH  22  27
ATOM     27  O   UNL     1       3.490   1.595  -0.624  1.00  0.00    -0.493 OA
ATOM     28  C   UNL     1       3.368   0.245  -0.211  1.00  0.00     0.278 C 
ENDBRANCH  22  27
ENDBRANCH  15  19
ENDBRANCH  13  14
ENDBRANCH   7  13
ENDBRANCH   4   6
ENDBRANCH   3   4
ENDBRANCH   2   3
ENDBRANCH   1   2
BRANCH   1  29
ATOM     29  O   UNL     1       2.998  12.665   2.600  1.00  0.00    -0.374 OA
BRANCH  29  30
ATOM     30  C   UNL     1       1.763  12.831   1.904  1.00  0.00     0.202 C 
BRANCH  30  31
ATOM     31  C   UNL     1       1.194  14.247   1.756  1.00  0.00     0.261 C 
BRANCH  31  32
ATOM     32  O   UNL     1       1.979  15.064   0.868  1.00  0.00    -0.460 OA
BRANCH  32  33
ATOM     33  C   UNL     1       2.541  16.149   1.454  1.00  0.00     0.338 C 
ATOM     34  O   UNL     1       2.400  16.509   2.617  1.00  0.00    -0.246 OA
BRANCH  33  35
ATOM     35  C   UNL     1       3.540  16.756   0.558  1.00  0.00     0.060 A 
ATOM     36  C   UNL     1       4.840  16.928   1.055  1.00  0.00     0.016 A 
ATOM     37  C   UNL     1       3.187  17.250  -0.698  1.00  0.00     0.016 A 
ATOM     38  C   UNL     1       5.778  17.651   0.323  1.00  0.00     0.010 A 
ATOM     39  C   UNL     1       4.126  17.988  -1.425  1.00  0.00     0.010 A 
ATOM     40  C   UNL     1       5.409  18.230  -0.896  1.00  0.00    -0.014 A 
BRANCH  40  41
ATOM     41  C   UNL     1       6.276  19.268  -1.506  1.00  0.00     0.031 A 
ATOM     42  C   UNL     1       5.940  20.714  -1.252  1.00  0.00     0.074 A 
ATOM     43  C   UNL     1       7.353  18.940  -2.239  1.00  0.00     0.049 A 
ATOM     44  N   UNL     1       6.484  21.796  -1.744  1.00  0.00    -0.248 NA
ATOM     45  C   UNL     1       4.833  20.965  -0.317  1.00  0.00     0.031 C 
ATOM     46  C   UNL     1       7.824  17.578  -2.484  1.00  0.00     0.029 A 
ATOM     47  N   UNL     1       8.243  19.733  -2.918  1.00  0.00    -0.354 N 
ATOM     48  C   UNL     1       5.782  22.859  -1.184  1.00  0.00     0.074 A 
ATOM     49  C   UNL     1       4.747  22.285  -0.350  1.00  0.00     0.031 C 
ATOM     50  C   UNL     1       8.915  17.631  -3.268  1.00  0.00     0.029 A 
ATOM     51  C   UNL     1       9.189  19.024  -3.618  1.00  0.00     0.049 A 
ATOM     52  H   UNL     1       8.207  20.717  -2.904  1.00  0.00     0.167 HD
ATOM     53  C   UNL     1       5.988  24.190  -1.343  1.00  0.00     0.034 A 
ATOM     54  C   UNL     1      10.145  19.453  -4.468  1.00  0.00     0.034 A 
ATOM     55  C   UNL     1       7.011  24.741  -2.196  1.00  0.00     0.049 A 
ATOM     56  C   UNL     1      10.277  20.934  -4.734  1.00  0.00     0.074 A 
ATOM     57  C   UNL     1       7.300  26.070  -2.455  1.00  0.00     0.029 A 
ATOM     58  N   UNL     1       7.912  23.989  -2.941  1.00  0.00    -0.354 N 
ATOM     59  N   UNL     1       9.588  21.931  -4.229  1.00  0.00    -0.248 NA
ATOM     60  C   UNL     1      11.318  21.347  -5.686  1.00  0.00     0.031 C 
ATOM     61  C   UNL     1       8.325  26.120  -3.406  1.00  0.00     0.029 A 
ATOM     62  C   UNL     1       8.735  24.824  -3.680  1.00  0.00     0.049 A 
ATOM     63  H   UNL     1       7.958  23.006  -2.944  1.00  0.00     0.167 HD
ATOM     64  C   UNL     1      10.143  23.090  -4.766  1.00  0.00     0.074 A 
ATOM     65  C   UNL     1      11.218  22.668  -5.641  1.00  0.00     0.031 C 
ATOM     66  C   UNL     1       9.806  24.387  -4.545  1.00  0.00     0.034 A 
BRANCH  53  67
ATOM     67  C   UNL     1       5.040  25.122  -0.625  1.00  0.00     0.023 A 
ATOM     68  C   UNL     1       4.953  25.148   0.779  1.00  0.00     0.031 A 
ATOM     69  C   UNL     1       4.165  25.946  -1.353  1.00  0.00     0.131 A 
ATOM     70  C   UNL     1       3.953  25.908   1.404  1.00  0.00     0.055 A 
ATOM     71  C   UNL     1       3.231  26.770  -0.720  1.00  0.00     0.041 A 
ATOM     72  F   UNL     1       4.182  25.947  -2.695  1.00  0.00    -0.206 F 
ATOM     73  C   UNL     1       3.108  26.739   0.666  1.00  0.00     0.022 A 
BRANCH  70  74
ATOM     74  S   UNL     1       3.656  25.657   3.176  1.00  0.00     0.124 S 
ATOM     75  O   UNL     1       3.388  24.222   3.229  1.00  0.00    -0.237 OA
ATOM     76  O   UNL     1       4.914  26.095   3.771  1.00  0.00    -0.237 OA
ATOM     77  O   UNL     1       2.502  26.509   3.455  1.00  0.00    -0.744 OA
ENDBRANCH  70  74
ENDBRANCH  53  67
BRANCH  54  78
ATOM     78  C   UNL     1      11.031  18.475  -5.160  1.00  0.00     0.023 A 
ATOM     79  C   UNL     1      12.415  18.462  -4.926  1.00  0.00     0.031 A 
ATOM     80  C   UNL     1      10.513  17.567  -6.101  1.00  0.00     0.131 A 
ATOM     81  C   UNL     1      13.239  17.586  -5.651  1.00  0.00     0.055 A 
ATOM     82  C   UNL     1      11.329  16.664  -6.783  1.00  0.00     0.041 A 
ATOM     83  F   UNL     1       9.196  17.540  -6.365  1.00  0.00    -0.206 F 
ATOM     84  C   UNL     1      12.704  16.678  -6.568  1.00  0.00     0.022 A 
BRANCH  81  85
ATOM     85  S   UNL     1      15.035  17.703  -5.433  1.00  0.00     0.124 S 
ATOM     86  O   UNL     1      15.293  19.081  -5.835  1.00  0.00    -0.237 OA
ATOM     87  O   UNL     1      15.187  17.410  -4.012  1.00  0.00    -0.237 OA
ATOM     88  O   UNL     1      15.555  16.680  -6.337  1.00  0.00    -0.744 OA
ENDBRANCH  81  85
ENDBRANCH  54  78
BRANCH  66  89
ATOM     89  C   UNL     1      10.659  25.447  -5.198  1.00  0.00     0.023 A 
ATOM     90  C   UNL     1      10.651  25.665  -6.586  1.00  0.00     0.031 A 
ATOM     91  C   UNL     1      11.480  26.267  -4.402  1.00  0.00     0.131 A 
ATOM     92  C   UNL     1      11.478  26.655  -7.141  1.00  0.00     0.055 A 
ATOM     93  C   UNL     1      12.260  27.283  -4.954  1.00  0.00     0.041 A 
ATOM     94  F   UNL     1      11.526  26.100  -3.071  1.00  0.00    -0.206 F 
ATOM     95  C   UNL     1      12.269  27.476  -6.332  1.00  0.00     0.022 A 
BRANCH  92  96
ATOM     96  S   UNL     1      11.556  26.819  -8.945  1.00  0.00     0.124 S 
ATOM     97  O   UNL     1      12.046  25.505  -9.349  1.00  0.00    -0.237 OA
ATOM     98  O   UNL     1      10.171  27.119  -9.293  1.00  0.00    -0.237 OA
ATOM     99  O   UNL     1      12.496  27.921  -9.150  1.00  0.00    -0.744 OA
ENDBRANCH  92  96
ENDBRANCH  66  89
ENDBRANCH  40  41
ENDBRANCH  33  35
ENDBRANCH  32  33
ENDBRANCH  31  32
ENDBRANCH  30  31
ENDBRANCH  29  30
ENDBRANCH   1  29
TORSDOF 22
