REMARK SMILES O=C(Cc1ccc(F)c(F)c1)NC1(C(=O)OCCOCCOC(=O)c2ccc(-c3c4nc(c(-c5cc(S(=O)(=O)[O-])ccc5F)c5ccc([nH]5)c(-c5cc(S(=O)(=O)[O-])ccc5F)c5nc(c(-c6cc(S(=O)(=O)[O-])ccc6F)c6ccc3[nH]6)C=C5)C=C4)cc2)CCCC1
REMARK SMILES IDX 19 1 18 2 17 3 16 4 14 5 15 6 13 7 88 8 91 9 89 10 90 11
REMARK SMILES IDX 12 12 1 13 2 14 3 16 4 17 5 18 11 19 6 20 9 21 7 22 10 23
REMARK SMILES IDX 8 24 20 25 21 26 22 27 23 28 24 29 25 30 26 31 87 32 27 33
REMARK SMILES IDX 86 34 28 35 29 36 30 37 80 38 31 39 85 40 79 41 81 42 32 43
REMARK SMILES IDX 84 44 78 45 77 46 33 48 65 49 45 50 64 51 46 52 49 53 63 54
REMARK SMILES IDX 82 55 47 56 48 57 62 59 83 60 50 61 34 62 35 63 43 64 36 65
REMARK SMILES IDX 42 66 44 67 41 68 37 69 38 70 39 71 40 72 66 73 67 74 75 75
REMARK SMILES IDX 68 76 74 77 76 78 73 79 69 80 70 81 71 82 72 83 51 84 52 85
REMARK SMILES IDX 60 86 53 87 59 88 61 89 58 90 54 91 55 92 56 93 57 94
REMARK H PARENT 12 15 81 47 49 58
REMARK Flexibility Score: inf
ROOT
ATOM      1  O   UNL     1       2.507  -1.922   4.602  1.00  0.00    -0.374 OA
ENDROOT
BRANCH   1   2
ATOM      2  C   UNL     1       1.356  -2.762   4.643  1.00  0.00     0.202 C 
BRANCH   2   3
ATOM      3  C   UNL     1       0.338  -2.631   3.508  1.00  0.00     0.261 C 
BRANCH   3   4
ATOM      4  O   UNL     1       0.914  -2.934   2.225  1.00  0.00    -0.461 OA
BRANCH   4   5
ATOM      5  C   UNL     1       1.059  -1.859   1.400  1.00  0.00     0.331 C 
ATOM      6  O   UNL     1       0.663  -0.734   1.683  1.00  0.00    -0.249 OA
BRANCH   5   7
ATOM      7  C   UNL     1       1.823  -2.207   0.084  1.00  0.00     0.138 C 
ATOM      8  C   UNL     1       0.844  -2.492  -1.057  1.00  0.00     0.040 C 
ATOM      9  C   UNL     1       2.639  -3.519   0.136  1.00  0.00     0.040 C 
ATOM     10  C   UNL     1       0.474  -3.963  -0.887  1.00  0.00     0.003 C 
ATOM     11  C   UNL     1       1.706  -4.641  -0.306  1.00  0.00     0.003 C 
BRANCH   7  12
ATOM     12  N   UNL     1       2.764  -1.097  -0.181  1.00  0.00    -0.340 N 
ATOM     13  O   UNL     1       1.234   0.489  -0.824  1.00  0.00    -0.275 OA
ATOM     14  C   UNL     1       2.377   0.191  -0.488  1.00  0.00     0.225 C 
ATOM     15  H   UNL     1       3.728  -1.290  -0.135  1.00  0.00     0.164 HD
BRANCH  14  16
ATOM     16  C   UNL     1       3.500   1.218  -0.492  1.00  0.00     0.135 C 
BRANCH  16  17
ATOM     17  C   UNL     1       4.143   1.559   0.843  1.00  0.00    -0.036 A 
ATOM     18  C   UNL     1       4.933   0.635   1.549  1.00  0.00     0.007 A 
ATOM     19  C   UNL     1       4.048   2.868   1.350  1.00  0.00     0.046 A 
ATOM     20  C   UNL     1       5.603   1.003   2.722  1.00  0.00     0.043 A 
ATOM     21  C   UNL     1       4.734   3.233   2.510  1.00  0.00     0.159 A 
ATOM     22  C   UNL     1       5.506   2.304   3.193  1.00  0.00     0.158 A 
ATOM     23  F   UNL     1       4.670   4.500   2.943  1.00  0.00    -0.204 F 
ATOM     24  F   UNL     1       6.186   2.660   4.291  1.00  0.00    -0.204 F 
ENDBRANCH  16  17
ENDBRANCH  14  16
ENDBRANCH   7  12
ENDBRANCH   5   7
ENDBRANCH   4   5
ENDBRANCH   3   4
ENDBRANCH   2   3
ENDBRANCH   1   2
BRANCH   1  25
ATOM     25  C   UNL     1       3.550  -2.255   3.693  1.00  0.00     0.202 C 
BRANCH  25  26
ATOM     26  C   UNL     1       4.429  -3.473   4.008  1.00  0.00     0.261 C 
BRANCH  26  27
ATOM     27  O   UNL     1       3.692  -4.704   4.052  1.00  0.00    -0.460 OA
BRANCH  27  28
ATOM     28  C   UNL     1       3.566  -5.227   5.297  1.00  0.00     0.338 C 
ATOM     29  O   UNL     1       4.086  -4.803   6.324  1.00  0.00    -0.246 OA
BRANCH  28  30
ATOM     30  C   UNL     1       2.535  -6.278   5.311  1.00  0.00     0.060 A 
ATOM     31  C   UNL     1       1.509  -6.157   6.258  1.00  0.00     0.016 A 
ATOM     32  C   UNL     1       2.601  -7.393   4.473  1.00  0.00     0.016 A 
ATOM     33  C   UNL     1       0.580  -7.180   6.415  1.00  0.00     0.010 A 
ATOM     34  C   UNL     1       1.673  -8.427   4.641  1.00  0.00     0.010 A 
ATOM     35  C   UNL     1       0.688  -8.342   5.643  1.00  0.00    -0.014 A 
BRANCH  35  36
ATOM     36  C   UNL     1      -0.098  -9.538   6.034  1.00  0.00     0.031 A 
ATOM     37  C   UNL     1       0.575 -10.595   6.869  1.00  0.00     0.074 A 
ATOM     38  C   UNL     1      -1.397  -9.653   5.708  1.00  0.00     0.049 A 
ATOM     39  N   UNL     1       0.104 -11.729   7.317  1.00  0.00    -0.248 NA
ATOM     40  C   UNL     1       1.974 -10.333   7.243  1.00  0.00     0.031 C 
ATOM     41  C   UNL     1      -2.169  -8.665   4.957  1.00  0.00     0.029 A 
ATOM     42  N   UNL     1      -2.297 -10.653   5.973  1.00  0.00    -0.354 N 
ATOM     43  C   UNL     1       1.147 -12.318   8.026  1.00  0.00     0.074 A 
ATOM     44  C   UNL     1       2.287 -11.434   7.907  1.00  0.00     0.031 C 
ATOM     45  C   UNL     1      -3.429  -9.112   4.816  1.00  0.00     0.029 A 
ATOM     46  C   UNL     1      -3.543 -10.431   5.436  1.00  0.00     0.049 A 
ATOM     47  H   UNL     1      -2.073 -11.455   6.499  1.00  0.00     0.167 HD
ATOM     48  C   UNL     1       1.149 -13.482   8.722  1.00  0.00     0.034 A 
ATOM     49  C   UNL     1      -4.641 -11.215   5.429  1.00  0.00     0.034 A 
ATOM     50  C   UNL     1       0.006 -14.357   8.818  1.00  0.00     0.049 A 
ATOM     51  C   UNL     1      -4.590 -12.550   6.132  1.00  0.00     0.074 A 
ATOM     52  C   UNL     1      -0.105 -15.563   9.487  1.00  0.00     0.029 A 
ATOM     53  N   UNL     1      -1.226 -14.123   8.217  1.00  0.00    -0.354 N 
ATOM     54  N   UNL     1      -3.596 -13.102   6.791  1.00  0.00    -0.248 NA
ATOM     55  C   UNL     1      -5.813 -13.362   6.100  1.00  0.00     0.031 C 
ATOM     56  C   UNL     1      -1.376 -16.090   9.234  1.00  0.00     0.029 A 
ATOM     57  C   UNL     1      -2.090 -15.176   8.476  1.00  0.00     0.049 A 
ATOM     58  H   UNL     1      -1.451 -13.326   7.685  1.00  0.00     0.167 HD
ATOM     59  C   UNL     1      -4.090 -14.308   7.284  1.00  0.00     0.074 A 
ATOM     60  C   UNL     1      -5.469 -14.397   6.852  1.00  0.00     0.031 C 
ATOM     61  C   UNL     1      -3.463 -15.253   8.033  1.00  0.00     0.034 A 
BRANCH  48  62
ATOM     62  C   UNL     1       2.447 -13.891   9.376  1.00  0.00     0.023 A 
ATOM     63  C   UNL     1       3.038 -13.123  10.397  1.00  0.00     0.031 A 
ATOM     64  C   UNL     1       3.131 -15.039   8.938  1.00  0.00     0.131 A 
ATOM     65  C   UNL     1       4.307 -13.467  10.886  1.00  0.00     0.055 A 
ATOM     66  C   UNL     1       4.355 -15.423   9.490  1.00  0.00     0.041 A 
ATOM     67  F   UNL     1       2.632 -15.796   7.949  1.00  0.00    -0.206 F 
ATOM     68  C   UNL     1       4.959 -14.626  10.458  1.00  0.00     0.022 A 
BRANCH  65  69
ATOM     69  S   UNL     1       5.166 -12.294  11.971  1.00  0.00     0.124 S 
ATOM     70  O   UNL     1       5.215 -11.099  11.131  1.00  0.00    -0.237 OA
ATOM     71  O   UNL     1       4.280 -12.227  13.127  1.00  0.00    -0.237 OA
ATOM     72  O   UNL     1       6.459 -12.931  12.210  1.00  0.00    -0.744 OA
ENDBRANCH  65  69
ENDBRANCH  48  62
BRANCH  49  73
ATOM     73  C   UNL     1      -5.872 -10.782   4.708  1.00  0.00     0.023 A 
ATOM     74  C   UNL     1      -7.074 -10.550   5.394  1.00  0.00     0.031 A 
ATOM     75  C   UNL     1      -5.875 -10.646   3.308  1.00  0.00     0.131 A 
ATOM     76  C   UNL     1      -8.240 -10.239   4.676  1.00  0.00     0.055 A 
ATOM     77  C   UNL     1      -7.025 -10.284   2.603  1.00  0.00     0.041 A 
ATOM     78  F   UNL     1      -4.753 -10.856   2.602  1.00  0.00    -0.206 F 
ATOM     79  C   UNL     1      -8.220 -10.091   3.287  1.00  0.00     0.022 A 
BRANCH  76  80
ATOM     80  S   UNL     1      -9.808 -10.109   5.579  1.00  0.00     0.124 S 
ATOM     81  O   UNL     1      -9.912 -11.432   6.184  1.00  0.00    -0.237 OA
ATOM     82  O   UNL     1      -9.540  -9.004   6.494  1.00  0.00    -0.237 OA
ATOM     83  O   UNL     1     -10.783  -9.823   4.529  1.00  0.00    -0.744 OA
ENDBRANCH  76  80
ENDBRANCH  49  73
BRANCH  61  84
ATOM     84  C   UNL     1      -4.290 -16.434   8.483  1.00  0.00     0.023 A 
ATOM     85  C   UNL     1      -4.793 -17.381   7.574  1.00  0.00     0.031 A 
ATOM     86  C   UNL     1      -4.587 -16.605   9.847  1.00  0.00     0.131 A 
ATOM     87  C   UNL     1      -5.614 -18.423   8.033  1.00  0.00     0.055 A 
ATOM     88  C   UNL     1      -5.352 -17.678  10.306  1.00  0.00     0.041 A 
ATOM     89  F   UNL     1      -4.133 -15.731  10.760  1.00  0.00    -0.206 F 
ATOM     90  C   UNL     1      -5.882 -18.587   9.395  1.00  0.00     0.022 A 
BRANCH  87  91
ATOM     91  S   UNL     1      -6.409 -19.508   6.816  1.00  0.00     0.124 S 
ATOM     92  O   UNL     1      -7.152 -18.555   5.998  1.00  0.00    -0.237 OA
ATOM     93  O   UNL     1      -5.265 -20.145   6.172  1.00  0.00    -0.237 OA
ATOM     94  O   UNL     1      -7.232 -20.397   7.634  1.00  0.00    -0.744 OA
ENDBRANCH  87  91
ENDBRANCH  61  84
ENDBRANCH  35  36
ENDBRANCH  28  30
ENDBRANCH  27  28
ENDBRANCH  26  27
ENDBRANCH  25  26
ENDBRANCH   1  25
TORSDOF 20
