REMARK SMILES CN(C)c1nccnc1N1CCC(Oc2ccc3ccccc3c2)(C(=O)OCCOCCOC(=O)c2ccc(-c3c4nc(c(-c5cc(S(=O)(=O)[O-])ccc5F)c5ccc([nH]5)c(-c5cc(S(=O)(=O)[O-])ccc5F)c5nc(c(-c6cc(S(=O)(=O)[O-])ccc6F)c6ccc3[nH]6)C=C5)C=C4)cc2)CC1
REMARK SMILES IDX 31 1 30 2 29 3 28 4 27 5 25 6 26 7 13 8 10 9 11 10 100 11
REMARK SMILES IDX 12 12 99 13 9 14 4 15 5 16 6 17 8 18 7 19 2 20 1 21 3 22
REMARK SMILES IDX 14 23 15 24 16 25 24 26 17 27 23 28 18 29 22 30 19 31 21 32
REMARK SMILES IDX 20 33 32 34 33 35 34 36 35 37 36 38 37 39 98 40 38 41 97 42
REMARK SMILES IDX 39 43 40 44 41 45 91 46 42 47 96 48 90 49 92 50 43 51 95 52
REMARK SMILES IDX 89 53 88 54 44 56 76 57 56 58 75 59 57 60 60 61 74 62 93 63
REMARK SMILES IDX 58 64 59 65 73 67 94 68 61 69 45 70 46 71 54 72 47 73 53 74
REMARK SMILES IDX 55 75 52 76 48 77 49 78 50 79 51 80 77 81 78 82 86 83 79 84
REMARK SMILES IDX 85 85 87 86 84 87 80 88 81 89 82 90 83 91 62 92 63 93 71 94
REMARK SMILES IDX 64 95 70 96 72 97 69 98 65 99 66 100 67 101 68 102
REMARK H PARENT 92 55 60 66
REMARK Flexibility Score: inf
ROOT
ATOM      1  C   UNL     1      -3.697   1.048   2.824  1.00  0.00     0.202 C 
ENDROOT
BRANCH   1   2
ATOM      2  O   UNL     1      -4.899   1.776   3.016  1.00  0.00    -0.374 OA
BRANCH   2   3
ATOM      3  C   UNL     1      -6.017   1.096   3.589  1.00  0.00     0.202 C 
BRANCH   3   4
ATOM      4  C   UNL     1      -6.553  -0.152   2.878  1.00  0.00     0.261 C 
BRANCH   4   5
ATOM      5  O   UNL     1      -5.661  -1.283   2.962  1.00  0.00    -0.460 OA
BRANCH   5   6
ATOM      6  C   UNL     1      -5.218  -1.811   1.782  1.00  0.00     0.350 C 
ATOM      7  O   UNL     1      -5.483  -1.331   0.683  1.00  0.00    -0.247 OA
BRANCH   6   8
ATOM      8  C   UNL     1      -4.371  -3.095   1.972  1.00  0.00     0.209 C 
ATOM      9  N   UNL     1      -1.477  -2.571   2.011  1.00  0.00    -0.353 N 
ATOM     10  C   UNL     1      -2.068  -3.264   3.153  1.00  0.00     0.123 C 
ATOM     11  C   UNL     1      -2.278  -2.268   0.831  1.00  0.00     0.123 C 
ATOM     12  C   UNL     1      -3.578  -3.067   3.294  1.00  0.00     0.082 C 
ATOM     13  C   UNL     1      -3.453  -3.237   0.739  1.00  0.00     0.082 C 
BRANCH   9  14
ATOM     14  C   UNL     1      -0.117  -2.853   1.771  1.00  0.00     0.171 A 
ATOM     15  C   UNL     1       0.768  -1.946   1.087  1.00  0.00     0.171 A 
ATOM     16  N   UNL     1       2.045  -2.313   0.782  1.00  0.00    -0.234 NA
ATOM     17  C   UNL     1       2.446  -3.529   1.198  1.00  0.00     0.134 A 
ATOM     18  N   UNL     1       0.338  -4.068   2.183  1.00  0.00    -0.234 NA
ATOM     19  C   UNL     1       1.614  -4.383   1.887  1.00  0.00     0.134 A 
BRANCH  15  20
ATOM     20  N   UNL     1       0.401  -0.619   0.781  1.00  0.00    -0.360 N 
ATOM     21  C   UNL     1       1.193   0.018  -0.261  1.00  0.00     0.145 C 
ATOM     22  C   UNL     1       0.181   0.183   1.977  1.00  0.00     0.145 C 
ENDBRANCH  15  20
ENDBRANCH   9  14
BRANCH   8  23
ATOM     23  O   UNL     1      -5.471  -4.049   2.031  1.00  0.00    -0.475 OA
BRANCH  23  24
ATOM     24  C   UNL     1      -5.209  -5.331   1.648  1.00  0.00     0.121 A 
ATOM     25  C   UNL     1      -4.625  -6.232   2.529  1.00  0.00     0.047 A 
ATOM     26  C   UNL     1      -5.670  -5.762   0.402  1.00  0.00     0.055 A 
ATOM     27  C   UNL     1      -4.439  -7.559   2.141  1.00  0.00     0.012 A 
ATOM     28  C   UNL     1      -5.501  -7.099   0.002  1.00  0.00    -0.015 A 
ATOM     29  C   UNL     1      -4.867  -8.007   0.882  1.00  0.00    -0.018 A 
ATOM     30  C   UNL     1      -5.959  -7.564  -1.242  1.00  0.00     0.009 A 
ATOM     31  C   UNL     1      -4.695  -9.344   0.491  1.00  0.00     0.009 A 
ATOM     32  C   UNL     1      -5.789  -8.900  -1.613  1.00  0.00     0.001 A 
ATOM     33  C   UNL     1      -5.154  -9.788  -0.749  1.00  0.00     0.001 A 
ENDBRANCH  23  24
ENDBRANCH   8  23
ENDBRANCH   6   8
ENDBRANCH   5   6
ENDBRANCH   4   5
ENDBRANCH   3   4
ENDBRANCH   2   3
ENDBRANCH   1   2
BRANCH   1  34
ATOM     34  C   UNL     1      -2.889   0.620   4.058  1.00  0.00     0.261 C 
BRANCH  34  35
ATOM     35  O   UNL     1      -3.670   0.223   5.185  1.00  0.00    -0.460 OA
BRANCH  35  36
ATOM     36  C   UNL     1      -3.664   1.121   6.200  1.00  0.00     0.338 C 
ATOM     37  O   UNL     1      -3.035   2.162   6.266  1.00  0.00    -0.246 OA
BRANCH  36  38
ATOM     38  C   UNL     1      -4.665   0.719   7.198  1.00  0.00     0.060 A 
ATOM     39  C   UNL     1      -5.745   1.581   7.409  1.00  0.00     0.016 A 
ATOM     40  C   UNL     1      -4.510  -0.443   7.957  1.00  0.00     0.016 A 
ATOM     41  C   UNL     1      -6.660   1.304   8.419  1.00  0.00     0.010 A 
ATOM     42  C   UNL     1      -5.428  -0.716   8.976  1.00  0.00     0.010 A 
ATOM     43  C   UNL     1      -6.486   0.174   9.231  1.00  0.00    -0.014 A 
BRANCH  43  44
ATOM     44  C   UNL     1      -7.337   0.019  10.434  1.00  0.00     0.031 A 
ATOM     45  C   UNL     1      -6.792   0.448  11.768  1.00  0.00     0.074 A 
ATOM     46  C   UNL     1      -8.594  -0.444  10.323  1.00  0.00     0.049 A 
ATOM     47  N   UNL     1      -7.365   0.433  12.943  1.00  0.00    -0.248 NA
ATOM     48  C   UNL     1      -5.413   0.960  11.775  1.00  0.00     0.031 C 
ATOM     49  C   UNL     1      -9.230  -0.857   9.073  1.00  0.00     0.029 A 
ATOM     50  N   UNL     1      -9.560  -0.642  11.275  1.00  0.00    -0.354 N 
ATOM     51  C   UNL     1      -6.420   0.936  13.831  1.00  0.00     0.074 A 
ATOM     52  C   UNL     1      -5.222   1.203  13.063  1.00  0.00     0.031 C 
ATOM     53  C   UNL     1     -10.484  -1.262   9.336  1.00  0.00     0.029 A 
ATOM     54  C   UNL     1     -10.727  -1.168  10.774  1.00  0.00     0.049 A 
ATOM     55  H   UNL     1      -9.431  -0.429  12.228  1.00  0.00     0.167 HD
ATOM     56  C   UNL     1      -6.546   1.163  15.162  1.00  0.00     0.034 A 
ATOM     57  C   UNL     1     -11.855  -1.546  11.409  1.00  0.00     0.034 A 
ATOM     58  C   UNL     1      -7.745   0.873  15.911  1.00  0.00     0.049 A 
ATOM     59  C   UNL     1     -11.948  -1.353  12.902  1.00  0.00     0.074 A 
ATOM     60  C   UNL     1      -7.995   1.079  17.256  1.00  0.00     0.029 A 
ATOM     61  N   UNL     1      -8.893   0.295  15.380  1.00  0.00    -0.354 N 
ATOM     62  N   UNL     1     -11.057  -0.853  13.729  1.00  0.00    -0.248 NA
ATOM     63  C   UNL     1     -13.201  -1.765  13.546  1.00  0.00     0.031 C 
ATOM     64  C   UNL     1      -9.259   0.558  17.553  1.00  0.00     0.029 A 
ATOM     65  C   UNL     1      -9.836   0.102  16.378  1.00  0.00     0.049 A 
ATOM     66  H   UNL     1      -9.018   0.058  14.433  1.00  0.00     0.167 HD
ATOM     67  C   UNL     1     -11.655  -0.866  14.986  1.00  0.00     0.074 A 
ATOM     68  C   UNL     1     -12.986  -1.410  14.805  1.00  0.00     0.031 C 
ATOM     69  C   UNL     1     -11.153  -0.461  16.182  1.00  0.00     0.034 A 
BRANCH  56  70
ATOM     70  C   UNL     1      -5.334   1.695  15.891  1.00  0.00     0.023 A 
ATOM     71  C   UNL     1      -4.782   2.955  15.594  1.00  0.00     0.031 A 
ATOM     72  C   UNL     1      -4.694   0.911  16.867  1.00  0.00     0.131 A 
ATOM     73  C   UNL     1      -3.585   3.358  16.208  1.00  0.00     0.055 A 
ATOM     74  C   UNL     1      -3.549   1.353  17.533  1.00  0.00     0.041 A 
ATOM     75  F   UNL     1      -5.159  -0.309  17.176  1.00  0.00    -0.206 F 
ATOM     76  C   UNL     1      -2.978   2.576  17.193  1.00  0.00     0.022 A 
BRANCH  73  77
ATOM     77  S   UNL     1      -2.750   4.845  15.589  1.00  0.00     0.124 S 
ATOM     78  O   UNL     1      -2.560   4.512  14.179  1.00  0.00    -0.237 OA
ATOM     79  O   UNL     1      -3.722   5.894  15.873  1.00  0.00    -0.237 OA
ATOM     80  O   UNL     1      -1.521   4.902  16.379  1.00  0.00    -0.744 OA
ENDBRANCH  73  77
ENDBRANCH  56  70
BRANCH  57  81
ATOM     81  C   UNL     1     -12.970  -2.176  10.645  1.00  0.00     0.023 A 
ATOM     82  C   UNL     1     -14.226  -1.558  10.537  1.00  0.00     0.031 A 
ATOM     83  C   UNL     1     -12.799  -3.433  10.038  1.00  0.00     0.131 A 
ATOM     84  C   UNL     1     -15.272  -2.215   9.870  1.00  0.00     0.055 A 
ATOM     85  C   UNL     1     -13.828  -4.060   9.333  1.00  0.00     0.041 A 
ATOM     86  F   UNL     1     -11.618  -4.067  10.110  1.00  0.00    -0.206 F 
ATOM     87  C   UNL     1     -15.078  -3.455   9.256  1.00  0.00     0.022 A 
BRANCH  84  88
ATOM     88  S   UNL     1     -16.920  -1.456   9.875  1.00  0.00     0.124 S 
ATOM     89  O   UNL     1     -17.201  -1.364  11.303  1.00  0.00    -0.237 OA
ATOM     90  O   UNL     1     -16.673  -0.193   9.186  1.00  0.00    -0.237 OA
ATOM     91  O   UNL     1     -17.739  -2.416   9.137  1.00  0.00    -0.744 OA
ENDBRANCH  84  88
ENDBRANCH  57  81
BRANCH  69  92
ATOM     92  C   UNL     1     -12.070  -0.560  17.378  1.00  0.00     0.023 A 
ATOM     93  C   UNL     1     -12.492  -1.800  17.887  1.00  0.00     0.031 A 
ATOM     94  C   UNL     1     -12.534   0.608  18.010  1.00  0.00     0.131 A 
ATOM     95  C   UNL     1     -13.396  -1.843  18.960  1.00  0.00     0.055 A 
ATOM     96  C   UNL     1     -13.384   0.557  19.116  1.00  0.00     0.041 A 
ATOM     97  F   UNL     1     -12.165   1.819  17.565  1.00  0.00    -0.206 F 
ATOM     98  C   UNL     1     -13.831  -0.673  19.589  1.00  0.00     0.022 A 
BRANCH  95  99
ATOM     99  S   UNL     1     -14.072  -3.449  19.466  1.00  0.00     0.124 S 
ATOM    100  O   UNL     1     -14.701  -3.915  18.235  1.00  0.00    -0.237 OA
ATOM    101  O   UNL     1     -12.876  -4.174  19.884  1.00  0.00    -0.237 OA
ATOM    102  O   UNL     1     -14.998  -3.107  20.545  1.00  0.00    -0.744 OA
ENDBRANCH  95  99
ENDBRANCH  69  92
ENDBRANCH  43  44
ENDBRANCH  36  38
ENDBRANCH  35  36
ENDBRANCH  34  35
ENDBRANCH   1  34
TORSDOF 21
