REMARK SMILES Cc1c(C[NH2+]Cc2cccc(F)c2)c(C(=O)OCCOCCOC(=O)c2ccc(-c3c4nc(c(-c5cc(S(=O)(=O)[O-])ccc5F)c5ccc([nH]5)c(-c5cc(S(=O)(=O)[O-])ccc5F)c5nc(c(-c6cc(S(=O)(=O)[O-])ccc6F)c6ccc3[nH]6)C=C5)C=C4)cc2)c(C)n1Cc1c(F)cccc1Cl
REMARK SMILES IDX 19 1 18 2 17 3 15 4 16 5 14 6 1 7 2 8 3 9 91 10 89 11 90 12
REMARK SMILES IDX 4 13 5 14 6 17 7 18 8 19 13 20 9 21 11 22 10 23 12 24 92 25
REMARK SMILES IDX 93 26 94 27 99 28 95 29 96 30 98 31 100 32 97 33 20 34 21 35
REMARK SMILES IDX 22 36 23 37 24 38 25 39 26 40 27 41 88 42 28 43 87 44 29 45
REMARK SMILES IDX 30 46 31 47 81 48 32 49 86 50 80 51 82 52 33 53 85 54 79 55
REMARK SMILES IDX 78 56 34 58 66 59 46 60 65 61 47 62 50 63 64 64 83 65 48 66
REMARK SMILES IDX 49 67 63 69 84 70 51 71 35 72 36 73 44 74 37 75 43 76 45 77
REMARK SMILES IDX 42 78 38 79 39 80 40 81 41 82 67 83 68 84 76 85 69 86 75 87
REMARK SMILES IDX 77 88 74 89 70 90 71 91 72 92 73 93 52 94 53 95 61 96 54 97
REMARK SMILES IDX 60 98 62 99 59 100 55 101 56 102 57 103 58 104
REMARK H PARENT 5 15 5 16 82 57 50 68
REMARK Flexibility Score: inf
ROOT
ATOM      1  C   UNL     1       0.118  -3.413  -7.563  1.00  0.00     0.202 C 
ENDROOT
BRANCH   1   2
ATOM      2  C   UNL     1      -1.112  -3.518  -6.644  1.00  0.00     0.261 C 
BRANCH   2   3
ATOM      3  O   UNL     1      -1.062  -2.536  -5.608  1.00  0.00    -0.460 OA
BRANCH   3   4
ATOM      4  C   UNL     1      -0.878  -2.967  -4.334  1.00  0.00     0.340 C 
ATOM      5  O   UNL     1      -0.956  -4.160  -3.993  1.00  0.00    -0.246 OA
BRANCH   4   6
ATOM      6  C   UNL     1      -0.517  -1.869  -3.432  1.00  0.00     0.089 A 
ATOM      7  C   UNL     1       1.023  -0.153  -0.489  1.00  0.00     0.065 C 
ATOM      8  C   UNL     1       0.369  -0.608  -1.753  1.00  0.00     0.025 A 
ATOM      9  C   UNL     1       0.258  -1.918  -2.227  1.00  0.00     0.042 A 
ATOM     10  N   UNL     1      -0.204   0.245  -2.693  1.00  0.00    -0.343 N 
ATOM     11  C   UNL     1      -0.875  -0.533  -3.624  1.00  0.00     0.030 A 
ATOM     12  C   UNL     1      -1.790  -0.001  -4.677  1.00  0.00     0.065 C 
BRANCH   9  13
ATOM     13  C   UNL     1       0.873  -3.159  -1.627  1.00  0.00     0.300 C 
BRANCH  13  14
ATOM     14  N   UNL     1      -0.187  -4.040  -1.164  1.00  0.00    -0.339 N 
ATOM     15  H   UNL     1      -0.743  -4.324  -1.971  1.00  0.00     0.346 HD
ATOM     16  H   UNL     1      -0.729  -3.513  -0.479  1.00  0.00     0.346 HD
BRANCH  14  17
ATOM     17  C   UNL     1       0.288  -5.239  -0.490  1.00  0.00     0.297 C 
BRANCH  17  18
ATOM     18  C   UNL     1       0.668  -5.081   0.970  1.00  0.00     0.009 A 
ATOM     19  C   UNL     1       0.541  -3.875   1.678  1.00  0.00     0.010 A 
ATOM     20  C   UNL     1       1.161  -6.201   1.661  1.00  0.00     0.048 A 
ATOM     21  C   UNL     1       0.931  -3.773   3.016  1.00  0.00     0.004 A 
ATOM     22  C   UNL     1       1.533  -6.095   2.999  1.00  0.00     0.123 A 
ATOM     23  C   UNL     1       1.433  -4.888   3.679  1.00  0.00     0.039 A 
ATOM     24  F   UNL     1       1.999  -7.174   3.642  1.00  0.00    -0.207 F 
ENDBRANCH  17  18
ENDBRANCH  14  17
ENDBRANCH  13  14
ENDBRANCH   9  13
BRANCH  10  25
ATOM     25  C   UNL     1      -0.227   1.723  -2.644  1.00  0.00     0.162 C 
BRANCH  25  26
ATOM     26  C   UNL     1       0.807   2.406  -3.516  1.00  0.00     0.026 A 
ATOM     27  C   UNL     1       0.588   2.537  -4.896  1.00  0.00     0.129 A 
ATOM     28  C   UNL     1       1.976   3.004  -3.021  1.00  0.00     0.048 A 
ATOM     29  F   UNL     1      -0.589   2.193  -5.426  1.00  0.00    -0.207 F 
ATOM     30  C   UNL     1       1.515   3.112  -5.763  1.00  0.00     0.040 A 
ATOM     31  C   UNL     1       2.899   3.626  -3.882  1.00  0.00     0.021 A 
ATOM     32  Cl  UNL     1       2.318   3.100  -1.329  1.00  0.00    -0.084 Cl
ATOM     33  C   UNL     1       2.685   3.652  -5.258  1.00  0.00     0.005 A 
ENDBRANCH  25  26
ENDBRANCH  10  25
ENDBRANCH   4   6
ENDBRANCH   3   4
ENDBRANCH   2   3
ENDBRANCH   1   2
BRANCH   1  34
ATOM     34  O   UNL     1       1.379  -3.427  -6.894  1.00  0.00    -0.374 OA
BRANCH  34  35
ATOM     35  C   UNL     1       1.872  -2.152  -6.426  1.00  0.00     0.202 C 
BRANCH  35  36
ATOM     36  C   UNL     1       2.693  -1.294  -7.452  1.00  0.00     0.261 C 
BRANCH  36  37
ATOM     37  O   UNL     1       2.205   0.073  -7.824  1.00  0.00    -0.460 OA
BRANCH  37  38
ATOM     38  C   UNL     1       2.356   0.455  -9.153  1.00  0.00     0.338 C 
ATOM     39  O   UNL     1       2.530  -0.376 -10.037  1.00  0.00    -0.246 OA
BRANCH  38  40
ATOM     40  C   UNL     1       2.278   1.976  -9.523  1.00  0.00     0.060 A 
ATOM     41  C   UNL     1       1.129   2.505 -10.104  1.00  0.00     0.016 A 
ATOM     42  C   UNL     1       3.392   2.846  -9.648  1.00  0.00     0.016 A 
ATOM     43  C   UNL     1       1.091   3.848 -10.697  1.00  0.00     0.010 A 
ATOM     44  C   UNL     1       3.362   4.199 -10.314  1.00  0.00     0.010 A 
ATOM     45  C   UNL     1       2.199   4.778 -10.872  1.00  0.00    -0.014 A 
BRANCH  45  46
ATOM     46  C   UNL     1       2.027   6.002 -12.066  1.00  0.00     0.031 A 
ATOM     47  C   UNL     1       1.340   5.210 -13.128  1.00  0.00     0.074 A 
ATOM     48  C   UNL     1       2.345   7.327 -12.514  1.00  0.00     0.049 A 
ATOM     49  N   UNL     1       1.874   4.087 -13.528  1.00  0.00    -0.248 NA
ATOM     50  C   UNL     1      -0.071   5.361 -13.483  1.00  0.00     0.031 C 
ATOM     51  C   UNL     1       3.253   8.322 -11.898  1.00  0.00     0.029 A 
ATOM     52  N   UNL     1       1.941   8.143 -13.679  1.00  0.00    -0.354 N 
ATOM     53  C   UNL     1       1.051   3.609 -14.508  1.00  0.00     0.074 A 
ATOM     54  C   UNL     1      -0.226   4.256 -14.226  1.00  0.00     0.031 C 
ATOM     55  C   UNL     1       3.214   9.552 -12.511  1.00  0.00     0.029 A 
ATOM     56  C   UNL     1       2.325   9.577 -13.684  1.00  0.00     0.049 A 
ATOM     57  H   UNL     1       1.435   7.750 -14.426  1.00  0.00     0.167 HD
ATOM     58  C   UNL     1       1.662   3.427 -15.716  1.00  0.00     0.034 A 
ATOM     59  C   UNL     1       2.066  10.658 -14.581  1.00  0.00     0.034 A 
ATOM     60  C   UNL     1       1.368   4.485 -16.645  1.00  0.00     0.049 A 
ATOM     61  C   UNL     1       2.031  10.052 -15.910  1.00  0.00     0.074 A 
ATOM     62  C   UNL     1       0.230   5.213 -16.925  1.00  0.00     0.029 A 
ATOM     63  N   UNL     1       2.436   5.223 -17.112  1.00  0.00    -0.354 N 
ATOM     64  N   UNL     1       3.118   9.687 -16.516  1.00  0.00    -0.248 NA
ATOM     65  C   UNL     1       0.806   9.976 -16.699  1.00  0.00     0.031 C 
ATOM     66  C   UNL     1       0.684   6.541 -17.039  1.00  0.00     0.029 A 
ATOM     67  C   UNL     1       2.060   6.539 -17.239  1.00  0.00     0.049 A 
ATOM     68  H   UNL     1       3.328   4.863 -17.321  1.00  0.00     0.167 HD
ATOM     69  C   UNL     1       2.642   8.836 -17.466  1.00  0.00     0.074 A 
ATOM     70  C   UNL     1       1.284   9.281 -17.733  1.00  0.00     0.031 C 
ATOM     71  C   UNL     1       3.083   7.558 -17.353  1.00  0.00     0.034 A 
BRANCH  58  72
ATOM     72  C   UNL     1       3.014   2.760 -15.645  1.00  0.00     0.023 A 
ATOM     73  C   UNL     1       3.169   1.482 -16.186  1.00  0.00     0.031 A 
ATOM     74  C   UNL     1       4.138   3.354 -15.023  1.00  0.00     0.131 A 
ATOM     75  C   UNL     1       4.394   0.810 -16.037  1.00  0.00     0.055 A 
ATOM     76  C   UNL     1       5.328   2.660 -14.820  1.00  0.00     0.041 A 
ATOM     77  F   UNL     1       4.109   4.638 -14.627  1.00  0.00    -0.206 F 
ATOM     78  C   UNL     1       5.458   1.373 -15.324  1.00  0.00     0.022 A 
BRANCH  75  79
ATOM     79  S   UNL     1       4.601  -0.791 -16.856  1.00  0.00     0.124 S 
ATOM     80  O   UNL     1       3.671  -1.641 -16.119  1.00  0.00    -0.237 OA
ATOM     81  O   UNL     1       4.219  -0.487 -18.233  1.00  0.00    -0.237 OA
ATOM     82  O   UNL     1       6.016  -1.101 -16.663  1.00  0.00    -0.744 OA
ENDBRANCH  75  79
ENDBRANCH  58  72
BRANCH  59  83
ATOM     83  C   UNL     1       2.054  12.264 -14.856  1.00  0.00     0.023 A 
ATOM     84  C   UNL     1       2.089  12.850 -16.212  1.00  0.00     0.031 A 
ATOM     85  C   UNL     1       1.630  13.185 -13.890  1.00  0.00     0.131 A 
ATOM     86  C   UNL     1       1.671  14.190 -16.524  1.00  0.00     0.055 A 
ATOM     87  C   UNL     1       1.235  14.522 -14.205  1.00  0.00     0.041 A 
ATOM     88  F   UNL     1       1.492  12.804 -12.613  1.00  0.00    -0.206 F 
ATOM     89  C   UNL     1       1.228  15.020 -15.510  1.00  0.00     0.022 A 
BRANCH  86  90
ATOM     90  S   UNL     1       1.474  14.836 -18.261  1.00  0.00     0.124 S 
ATOM     91  O   UNL     1       2.788  15.398 -18.553  1.00  0.00    -0.237 OA
ATOM     92  O   UNL     1       1.089  13.652 -19.020  1.00  0.00    -0.237 OA
ATOM     93  O   UNL     1       0.407  15.833 -18.131  1.00  0.00    -0.744 OA
ENDBRANCH  86  90
ENDBRANCH  59  83
BRANCH  71  94
ATOM     94  C   UNL     1       4.577   7.348 -17.134  1.00  0.00     0.023 A 
ATOM     95  C   UNL     1       5.402   8.012 -16.184  1.00  0.00     0.031 A 
ATOM     96  C   UNL     1       5.221   6.452 -18.000  1.00  0.00     0.131 A 
ATOM     97  C   UNL     1       6.794   7.779 -16.145  1.00  0.00     0.055 A 
ATOM     98  C   UNL     1       6.590   6.193 -17.938  1.00  0.00     0.041 A 
ATOM     99  F   UNL     1       4.513   5.798 -18.936  1.00  0.00    -0.206 F 
ATOM    100  C   UNL     1       7.386   6.863 -17.016  1.00  0.00     0.022 A 
BRANCH  97 101
ATOM    101  S   UNL     1       7.861   8.694 -14.977  1.00  0.00     0.124 S 
ATOM    102  O   UNL     1       7.614  10.090 -15.324  1.00  0.00    -0.237 OA
ATOM    103  O   UNL     1       7.363   8.264 -13.674  1.00  0.00    -0.237 OA
ATOM    104  O   UNL     1       9.209   8.221 -15.299  1.00  0.00    -0.744 OA
ENDBRANCH  97 101
ENDBRANCH  71  94
ENDBRANCH  45  46
ENDBRANCH  38  40
ENDBRANCH  37  38
ENDBRANCH  36  37
ENDBRANCH  35  36
ENDBRANCH  34  35
ENDBRANCH   1  34
TORSDOF 23
