REMARK SMILES Cc1cc(F)c([C@](C)(NC=O)C(=O)OCCOCCOC(=O)c2ccc(-c3c4nc(c(-c5cc(S(=O)(=O)[O-])ccc5F)c5ccc([nH]5)c(-c5cc(S(=O)(=O)[O-])ccc5F)c5nc(c(-c6cc(S(=O)(=O)[O-])ccc6F)c6ccc3[nH]6)C=C5)C=C4)cc2)cc1F
REMARK SMILES IDX 18 1 17 2 16 3 15 4 14 5 12 6 13 7 7 8 8 9 6 10 1 11 2 12
REMARK SMILES IDX 3 13 87 14 4 15 86 16 88 17 5 18 9 19 10 20 11 22 19 23
REMARK SMILES IDX 20 24 21 25 22 26 23 27 24 28 85 29 25 30 84 31 26 32 27 33
REMARK SMILES IDX 28 34 78 35 29 36 83 37 77 38 79 39 30 40 82 41 76 42 75 43
REMARK SMILES IDX 31 45 63 46 43 47 62 48 44 49 47 50 61 51 80 52 45 53 46 54
REMARK SMILES IDX 60 56 81 57 48 58 32 59 33 60 41 61 34 62 40 63 42 64 39 65
REMARK SMILES IDX 35 66 36 67 37 68 38 69 64 70 65 71 73 72 66 73 72 74 74 75
REMARK SMILES IDX 71 76 67 77 68 78 69 79 70 80 49 81 50 82 58 83 51 84 57 85
REMARK SMILES IDX 59 86 56 87 52 88 53 89 54 90 55 91
REMARK H PARENT 9 21 79 44 47 55
REMARK Flexibility Score: inf
ROOT
ATOM      1  C   UNL     1       2.100   6.429   2.314  1.00  0.00     0.202 C 
ENDROOT
BRANCH   1   2
ATOM      2  O   UNL     1       2.866   7.118   1.323  1.00  0.00    -0.374 OA
BRANCH   2   3
ATOM      3  C   UNL     1       2.324   8.306   0.747  1.00  0.00     0.202 C 
BRANCH   3   4
ATOM      4  C   UNL     1       1.207   8.118  -0.275  1.00  0.00     0.261 C 
BRANCH   4   5
ATOM      5  O   UNL     1       0.134   7.362   0.299  1.00  0.00    -0.461 OA
BRANCH   5   6
ATOM      6  C   UNL     1      -0.071   6.138  -0.248  1.00  0.00     0.336 C 
ATOM      7  O   UNL     1       0.488   5.737  -1.267  1.00  0.00    -0.249 OA
BRANCH   6   8
ATOM      8  C   UNL     1      -1.195   5.316   0.485  1.00  0.00     0.163 C 
ATOM      9  C   UNL     1      -0.544   3.910   0.677  1.00  0.00     0.053 C 
BRANCH   8  10
ATOM     10  C   UNL     1      -2.376   5.338  -0.493  1.00  0.00     0.027 A 
ATOM     11  C   UNL     1      -4.930   5.877  -3.942  1.00  0.00     0.047 C 
ATOM     12  C   UNL     1      -4.152   5.655  -2.684  1.00  0.00    -0.012 A 
ATOM     13  C   UNL     1      -3.896   6.723  -1.825  1.00  0.00     0.046 A 
ATOM     14  C   UNL     1      -3.559   4.423  -2.408  1.00  0.00     0.126 A 
ATOM     15  C   UNL     1      -3.023   6.558  -0.754  1.00  0.00     0.129 A 
ATOM     16  C   UNL     1      -2.691   4.254  -1.328  1.00  0.00     0.049 A 
ATOM     17  F   UNL     1      -3.768   3.381  -3.227  1.00  0.00    -0.207 F 
ATOM     18  F   UNL     1      -2.730   7.647  -0.034  1.00  0.00    -0.207 F 
ENDBRANCH   8  10
BRANCH   8  19
ATOM     19  N   UNL     1      -1.622   5.664   1.864  1.00  0.00    -0.339 N 
ATOM     20  C   UNL     1      -1.864   6.866   2.445  1.00  0.00     0.338 C 
ATOM     21  H   UNL     1      -1.752   4.889   2.458  1.00  0.00     0.164 HD
ATOM     22  O   UNL     1      -2.351   6.932   3.568  1.00  0.00    -0.279 OA
ENDBRANCH   8  19
ENDBRANCH   6   8
ENDBRANCH   5   6
ENDBRANCH   4   5
ENDBRANCH   3   4
ENDBRANCH   2   3
ENDBRANCH   1   2
BRANCH   1  23
ATOM     23  C   UNL     1       1.905   7.098   3.679  1.00  0.00     0.261 C 
BRANCH  23  24
ATOM     24  O   UNL     1       1.056   8.257   3.606  1.00  0.00    -0.460 OA
BRANCH  24  25
ATOM     25  C   UNL     1       1.681   9.441   3.822  1.00  0.00     0.338 C 
ATOM     26  O   UNL     1       2.863   9.604   4.088  1.00  0.00    -0.246 OA
BRANCH  25  27
ATOM     27  C   UNL     1       0.778  10.549   3.448  1.00  0.00     0.060 A 
ATOM     28  C   UNL     1      -0.511  10.653   3.971  1.00  0.00     0.016 A 
ATOM     29  C   UNL     1       1.268  11.526   2.570  1.00  0.00     0.016 A 
ATOM     30  C   UNL     1      -1.293  11.767   3.644  1.00  0.00     0.010 A 
ATOM     31  C   UNL     1       0.485  12.633   2.244  1.00  0.00     0.010 A 
ATOM     32  C   UNL     1      -0.793  12.778   2.800  1.00  0.00    -0.014 A 
BRANCH  32  33
ATOM     33  C   UNL     1      -1.533  14.057   2.632  1.00  0.00     0.031 A 
ATOM     34  C   UNL     1      -2.201  14.424   1.340  1.00  0.00     0.074 A 
ATOM     35  C   UNL     1      -1.548  14.923   3.664  1.00  0.00     0.049 A 
ATOM     36  N   UNL     1      -2.912  15.486   1.061  1.00  0.00    -0.248 NA
ATOM     37  C   UNL     1      -2.048  13.490   0.214  1.00  0.00     0.031 C 
ATOM     38  C   UNL     1      -0.878  14.699   4.946  1.00  0.00     0.029 A 
ATOM     39  N   UNL     1      -2.134  16.157   3.806  1.00  0.00    -0.354 N 
ATOM     40  C   UNL     1      -3.308  15.347  -0.264  1.00  0.00     0.074 A 
ATOM     41  C   UNL     1      -2.714  14.118  -0.749  1.00  0.00     0.031 C 
ATOM     42  C   UNL     1      -1.112  15.744   5.752  1.00  0.00     0.029 A 
ATOM     43  C   UNL     1      -1.912  16.735   5.035  1.00  0.00     0.049 A 
ATOM     44  H   UNL     1      -2.663  16.587   3.096  1.00  0.00     0.167 HD
ATOM     45  C   UNL     1      -4.111  16.160  -0.992  1.00  0.00     0.034 A 
ATOM     46  C   UNL     1      -2.302  17.927   5.535  1.00  0.00     0.034 A 
ATOM     47  C   UNL     1      -4.692  17.383  -0.489  1.00  0.00     0.049 A 
ATOM     48  C   UNL     1      -3.182  18.819   4.696  1.00  0.00     0.074 A 
ATOM     49  C   UNL     1      -5.569  18.236  -1.137  1.00  0.00     0.029 A 
ATOM     50  N   UNL     1      -4.457  17.934   0.762  1.00  0.00    -0.354 N 
ATOM     51  N   UNL     1      -3.655  18.610   3.490  1.00  0.00    -0.248 NA
ATOM     52  C   UNL     1      -3.600  20.099   5.285  1.00  0.00     0.031 C 
ATOM     53  C   UNL     1      -5.795  19.340  -0.317  1.00  0.00     0.029 A 
ATOM     54  C   UNL     1      -5.141  19.134   0.887  1.00  0.00     0.049 A 
ATOM     55  H   UNL     1      -3.888  17.534   1.459  1.00  0.00     0.167 HD
ATOM     56  C   UNL     1      -4.449  19.715   3.191  1.00  0.00     0.074 A 
ATOM     57  C   UNL     1      -4.415  20.576   4.353  1.00  0.00     0.031 C 
ATOM     58  C   UNL     1      -5.135  19.987   2.053  1.00  0.00     0.034 A 
BRANCH  45  59
ATOM     59  C   UNL     1      -4.468  15.770  -2.407  1.00  0.00     0.023 A 
ATOM     60  C   UNL     1      -4.144  16.626  -3.477  1.00  0.00     0.031 A 
ATOM     61  C   UNL     1      -5.301  14.667  -2.667  1.00  0.00     0.131 A 
ATOM     62  C   UNL     1      -4.700  16.401  -4.743  1.00  0.00     0.055 A 
ATOM     63  C   UNL     1      -5.814  14.420  -3.942  1.00  0.00     0.041 A 
ATOM     64  F   UNL     1      -5.646  13.825  -1.680  1.00  0.00    -0.206 F 
ATOM     65  C   UNL     1      -5.529  15.300  -4.982  1.00  0.00     0.022 A 
BRANCH  62  66
ATOM     66  S   UNL     1      -4.453  17.578  -6.101  1.00  0.00     0.124 S 
ATOM     67  O   UNL     1      -3.863  16.726  -7.131  1.00  0.00    -0.237 OA
ATOM     68  O   UNL     1      -5.816  18.026  -6.368  1.00  0.00    -0.237 OA
ATOM     69  O   UNL     1      -3.555  18.580  -5.537  1.00  0.00    -0.744 OA
ENDBRANCH  62  66
ENDBRANCH  45  59
BRANCH  46  70
ATOM     70  C   UNL     1      -1.903  18.299   6.926  1.00  0.00     0.023 A 
ATOM     71  C   UNL     1      -0.546  18.408   7.282  1.00  0.00     0.031 A 
ATOM     72  C   UNL     1      -2.864  18.454   7.939  1.00  0.00     0.131 A 
ATOM     73  C   UNL     1      -0.189  18.595   8.623  1.00  0.00     0.055 A 
ATOM     74  C   UNL     1      -2.506  18.722   9.261  1.00  0.00     0.041 A 
ATOM     75  F   UNL     1      -4.171  18.342   7.654  1.00  0.00    -0.206 F 
ATOM     76  C   UNL     1      -1.160  18.776   9.612  1.00  0.00     0.022 A 
BRANCH  73  77
ATOM     77  S   UNL     1       1.543  18.470   9.149  1.00  0.00     0.124 S 
ATOM     78  O   UNL     1       1.785  19.791   9.719  1.00  0.00    -0.237 OA
ATOM     79  O   UNL     1       1.484  17.370  10.108  1.00  0.00    -0.237 OA
ATOM     80  O   UNL     1       2.258  18.175   7.912  1.00  0.00    -0.744 OA
ENDBRANCH  73  77
ENDBRANCH  46  70
BRANCH  58  81
ATOM     81  C   UNL     1      -5.943  21.264   1.969  1.00  0.00     0.023 A 
ATOM     82  C   UNL     1      -7.331  21.201   1.733  1.00  0.00     0.031 A 
ATOM     83  C   UNL     1      -5.326  22.526   1.948  1.00  0.00     0.131 A 
ATOM     84  C   UNL     1      -8.044  22.368   1.430  1.00  0.00     0.055 A 
ATOM     85  C   UNL     1      -6.052  23.695   1.706  1.00  0.00     0.041 A 
ATOM     86  F   UNL     1      -4.004  22.644   2.152  1.00  0.00    -0.206 F 
ATOM     87  C   UNL     1      -7.414  23.616   1.427  1.00  0.00     0.022 A 
BRANCH  84  88
ATOM     88  S   UNL     1      -9.785  22.299   0.923  1.00  0.00     0.124 S 
ATOM     89  O   UNL     1     -10.429  23.126   1.942  1.00  0.00    -0.237 OA
ATOM     90  O   UNL     1      -9.739  22.883  -0.414  1.00  0.00    -0.237 OA
ATOM     91  O   UNL     1     -10.113  20.879   0.978  1.00  0.00    -0.744 OA
ENDBRANCH  84  88
ENDBRANCH  58  81
ENDBRANCH  32  33
ENDBRANCH  25  27
ENDBRANCH  24  25
ENDBRANCH  23  24
ENDBRANCH   1  23
TORSDOF 19
