REMARK SMILES C[C@@H]1[C@@H](C(=O)OCCOCCOC(=O)c2ccc(-c3c4nc(c(-c5cc(S(=O)(=O)[O-])ccc5F)c5ccc([nH]5)c(-c5cc(S(=O)(=O)[O-])ccc5F)c5nc(c(-c6cc(S(=O)(=O)[O-])ccc6F)c6ccc3[nH]6)C=C5)C=C4)cc2)CCN1C(=O)[C@@H]1CCCN(C(N)=O)C1
REMARK SMILES IDX 9 1 8 2 7 3 6 4 4 5 5 6 3 7 1 8 2 9 80 10 78 11 79 12 81 13
REMARK SMILES IDX 82 14 83 15 84 16 91 17 85 18 87 19 86 20 88 21 89 22 90 23
REMARK SMILES IDX 10 26 11 27 12 28 13 29 14 30 15 31 16 32 77 33 17 34 76 35
REMARK SMILES IDX 18 36 19 37 20 38 70 39 21 40 75 41 69 42 71 43 22 44 74 45
REMARK SMILES IDX 68 46 67 47 23 49 55 50 35 51 54 52 36 53 39 54 53 55 72 56
REMARK SMILES IDX 37 57 38 58 52 60 73 61 40 62 24 63 25 64 33 65 26 66 32 67
REMARK SMILES IDX 34 68 31 69 27 70 28 71 29 72 30 73 56 74 57 75 65 76 58 77
REMARK SMILES IDX 64 78 66 79 63 80 59 81 60 82 61 83 62 84 41 85 42 86 50 87
REMARK SMILES IDX 43 88 49 89 51 90 48 91 44 92 45 93 46 94 47 95
REMARK H PARENT 89 24 89 25 71 48 39 59
REMARK Flexibility Score: inf
ROOT
ATOM      1  O   UNL     1      -0.201   2.327  -4.495  1.00  0.00    -0.374 OA
ENDROOT
BRANCH   1   2
ATOM      2  C   UNL     1      -1.614   2.475  -4.505  1.00  0.00     0.202 C 
BRANCH   2   3
ATOM      3  C   UNL     1      -2.447   1.679  -3.496  1.00  0.00     0.261 C 
BRANCH   3   4
ATOM      4  O   UNL     1      -1.967   1.787  -2.150  1.00  0.00    -0.463 OA
BRANCH   4   5
ATOM      5  C   UNL     1      -1.398   0.653  -1.655  1.00  0.00     0.311 C 
ATOM      6  O   UNL     1      -1.327  -0.414  -2.252  1.00  0.00    -0.252 OA
BRANCH   5   7
ATOM      7  C   UNL     1      -0.860   0.898  -0.256  1.00  0.00     0.123 C 
ATOM      8  C   UNL     1       1.147   0.519   1.228  1.00  0.00     0.032 C 
ATOM      9  C   UNL     1       0.342  -0.016   0.033  1.00  0.00     0.096 C 
ATOM     10  N   UNL     1      -0.289  -1.300   0.348  1.00  0.00    -0.339 N 
ATOM     11  C   UNL     1      -1.884   0.435   0.774  1.00  0.00     0.039 C 
ATOM     12  C   UNL     1      -1.657  -1.075   0.822  1.00  0.00     0.121 C 
BRANCH  10  13
ATOM     13  C   UNL     1       0.065  -2.586  -0.001  1.00  0.00     0.227 C 
ATOM     14  O   UNL     1      -0.723  -3.510   0.257  1.00  0.00    -0.275 OA
BRANCH  13  15
ATOM     15  C   UNL     1       1.378  -2.982  -0.702  1.00  0.00     0.098 C 
ATOM     16  C   UNL     1       2.680  -2.785   0.067  1.00  0.00     0.017 C 
ATOM     17  C   UNL     1       1.482  -2.628  -2.182  1.00  0.00     0.134 C 
ATOM     18  C   UNL     1       3.478  -1.547  -0.314  1.00  0.00     0.022 C 
ATOM     19  N   UNL     1       2.195  -1.383  -2.450  1.00  0.00    -0.324 N 
ATOM     20  C   UNL     1       3.490  -1.221  -1.801  1.00  0.00     0.121 C 
BRANCH  19  21
ATOM     21  C   UNL     1       1.900  -0.533  -3.494  1.00  0.00     0.314 C 
ATOM     22  N   UNL     1       0.699  -0.686  -4.088  1.00  0.00    -0.351 N 
ATOM     23  O   UNL     1       2.661   0.348  -3.883  1.00  0.00    -0.249 OA
ATOM     24  H   UNL     1       0.084  -1.391  -3.780  1.00  0.00     0.161 HD
ATOM     25  H   UNL     1       0.437  -0.094  -4.829  1.00  0.00     0.161 HD
ENDBRANCH  19  21
ENDBRANCH  13  15
ENDBRANCH  10  13
ENDBRANCH   5   7
ENDBRANCH   4   5
ENDBRANCH   3   4
ENDBRANCH   2   3
ENDBRANCH   1   2
BRANCH   1  26
ATOM     26  C   UNL     1       0.546   2.816  -3.381  1.00  0.00     0.202 C 
BRANCH  26  27
ATOM     27  C   UNL     1       0.490   4.299  -2.983  1.00  0.00     0.261 C 
BRANCH  27  28
ATOM     28  O   UNL     1      -0.829   4.798  -2.728  1.00  0.00    -0.460 OA
BRANCH  28  29
ATOM     29  C   UNL     1      -1.272   5.693  -3.646  1.00  0.00     0.338 C 
ATOM     30  O   UNL     1      -0.669   6.108  -4.627  1.00  0.00    -0.246 OA
BRANCH  29  31
ATOM     31  C   UNL     1      -2.699   5.959  -3.418  1.00  0.00     0.060 A 
ATOM     32  C   UNL     1      -3.600   5.622  -4.436  1.00  0.00     0.016 A 
ATOM     33  C   UNL     1      -3.134   6.590  -2.252  1.00  0.00     0.016 A 
ATOM     34  C   UNL     1      -4.947   5.936  -4.301  1.00  0.00     0.010 A 
ATOM     35  C   UNL     1      -4.484   6.921  -2.127  1.00  0.00     0.010 A 
ATOM     36  C   UNL     1      -5.387   6.621  -3.163  1.00  0.00    -0.014 A 
BRANCH  36  37
ATOM     37  C   UNL     1      -6.761   7.171  -3.138  1.00  0.00     0.031 A 
ATOM     38  C   UNL     1      -6.955   8.626  -3.456  1.00  0.00     0.074 A 
ATOM     39  C   UNL     1      -7.809   6.373  -2.873  1.00  0.00     0.049 A 
ATOM     40  N   UNL     1      -8.050   9.339  -3.446  1.00  0.00    -0.248 NA
ATOM     41  C   UNL     1      -5.747   9.378  -3.831  1.00  0.00     0.031 C 
ATOM     42  C   UNL     1      -7.729   4.936  -2.611  1.00  0.00     0.029 A 
ATOM     43  N   UNL     1      -9.146   6.659  -2.779  1.00  0.00    -0.354 N 
ATOM     44  C   UNL     1      -7.664  10.626  -3.806  1.00  0.00     0.074 A 
ATOM     45  C   UNL     1      -6.229  10.601  -3.987  1.00  0.00     0.031 C 
ATOM     46  C   UNL     1      -8.967   4.468  -2.377  1.00  0.00     0.029 A 
ATOM     47  C   UNL     1      -9.917   5.576  -2.428  1.00  0.00     0.049 A 
ATOM     48  H   UNL     1      -9.519   7.555  -2.947  1.00  0.00     0.167 HD
ATOM     49  C   UNL     1      -8.443  11.722  -3.977  1.00  0.00     0.034 A 
ATOM     50  C   UNL     1     -11.234   5.502  -2.150  1.00  0.00     0.034 A 
ATOM     51  C   UNL     1      -9.871  11.719  -3.776  1.00  0.00     0.049 A 
ATOM     52  C   UNL     1     -12.066   6.758  -2.252  1.00  0.00     0.074 A 
ATOM     53  C   UNL     1     -10.765  12.765  -3.924  1.00  0.00     0.029 A 
ATOM     54  N   UNL     1     -10.615  10.617  -3.369  1.00  0.00    -0.354 N 
ATOM     55  N   UNL     1     -11.693   7.972  -2.593  1.00  0.00    -0.248 NA
ATOM     56  C   UNL     1     -13.494   6.634  -1.940  1.00  0.00     0.031 C 
ATOM     57  C   UNL     1     -12.030  12.318  -3.527  1.00  0.00     0.029 A 
ATOM     58  C   UNL     1     -11.947  10.968  -3.224  1.00  0.00     0.049 A 
ATOM     59  H   UNL     1     -10.248   9.717  -3.208  1.00  0.00     0.167 HD
ATOM     60  C   UNL     1     -12.851   8.745  -2.571  1.00  0.00     0.074 A 
ATOM     61  C   UNL     1     -13.933   7.857  -2.197  1.00  0.00     0.031 C 
ATOM     62  C   UNL     1     -13.011  10.067  -2.841  1.00  0.00     0.034 A 
BRANCH  49  63
ATOM     63  C   UNL     1      -7.754  13.016  -4.339  1.00  0.00     0.023 A 
ATOM     64  C   UNL     1      -7.045  13.169  -5.544  1.00  0.00     0.031 A 
ATOM     65  C   UNL     1      -7.779  14.104  -3.449  1.00  0.00     0.131 A 
ATOM     66  C   UNL     1      -6.335  14.354  -5.793  1.00  0.00     0.055 A 
ATOM     67  C   UNL     1      -7.140  15.311  -3.741  1.00  0.00     0.041 A 
ATOM     68  F   UNL     1      -8.414  14.009  -2.270  1.00  0.00    -0.206 F 
ATOM     69  C   UNL     1      -6.400  15.436  -4.912  1.00  0.00     0.022 A 
BRANCH  66  70
ATOM     70  S   UNL     1      -5.202  14.405  -7.209  1.00  0.00     0.124 S 
ATOM     71  O   UNL     1      -4.303  13.294  -6.907  1.00  0.00    -0.237 OA
ATOM     72  O   UNL     1      -6.102  14.210  -8.339  1.00  0.00    -0.237 OA
ATOM     73  O   UNL     1      -4.595  15.731  -7.115  1.00  0.00    -0.744 OA
ENDBRANCH  66  70
ENDBRANCH  49  63
BRANCH  50  74
ATOM     74  C   UNL     1     -11.844   4.213  -1.711  1.00  0.00     0.023 A 
ATOM     75  C   UNL     1     -12.860   3.598  -2.459  1.00  0.00     0.031 A 
ATOM     76  C   UNL     1     -11.458   3.605  -0.503  1.00  0.00     0.131 A 
ATOM     77  C   UNL     1     -13.489   2.444  -1.968  1.00  0.00     0.055 A 
ATOM     78  C   UNL     1     -12.044   2.422  -0.049  1.00  0.00     0.041 A 
ATOM     79  F   UNL     1     -10.493   4.151   0.256  1.00  0.00    -0.206 F 
ATOM     80  C   UNL     1     -13.078   1.843  -0.777  1.00  0.00     0.022 A 
BRANCH  77  81
ATOM     81  S   UNL     1     -14.927   1.794  -2.863  1.00  0.00     0.124 S 
ATOM     82  O   UNL     1     -15.823   2.945  -2.858  1.00  0.00    -0.237 OA
ATOM     83  O   UNL     1     -14.345   1.438  -4.153  1.00  0.00    -0.237 OA
ATOM     84  O   UNL     1     -15.356   0.664  -2.041  1.00  0.00    -0.744 OA
ENDBRANCH  77  81
ENDBRANCH  50  74
BRANCH  62  85
ATOM     85  C   UNL     1     -14.418  10.615  -2.791  1.00  0.00     0.023 A 
ATOM     86  C   UNL     1     -15.153  10.670  -1.594  1.00  0.00     0.031 A 
ATOM     87  C   UNL     1     -15.035  11.082  -3.966  1.00  0.00     0.131 A 
ATOM     88  C   UNL     1     -16.481  11.121  -1.610  1.00  0.00     0.055 A 
ATOM     89  C   UNL     1     -16.331  11.598  -3.963  1.00  0.00     0.041 A 
ATOM     90  F   UNL     1     -14.382  11.050  -5.140  1.00  0.00    -0.206 F 
ATOM     91  C   UNL     1     -17.067  11.605  -2.782  1.00  0.00     0.022 A 
BRANCH  88  92
ATOM     92  S   UNL     1     -17.470  10.968  -0.098  1.00  0.00     0.124 S 
ATOM     93  O   UNL     1     -17.396   9.535   0.168  1.00  0.00    -0.237 OA
ATOM     94  O   UNL     1     -16.749  11.827   0.836  1.00  0.00    -0.237 OA
ATOM     95  O   UNL     1     -18.788  11.457  -0.498  1.00  0.00    -0.744 OA
ENDBRANCH  88  92
ENDBRANCH  62  85
ENDBRANCH  36  37
ENDBRANCH  29  31
ENDBRANCH  28  29
ENDBRANCH  27  28
ENDBRANCH  26  27
ENDBRANCH   1  26
TORSDOF 20
