REMARK SMILES O=C(OCCOCCOC(=O)c1ccc(-c2c3nc(c(-c4cc(S(=O)(=O)[O-])ccc4F)c4ccc([nH]4)c(-c4cc(S(=O)(=O)[O-])ccc4F)c4nc(c(-c5cc(S(=O)(=O)[O-])ccc5F)c5ccc2[nH]5)C=C4)C=C3)cc1)C1=Cc2cc(Cl)cc(C#Cc3ccccc3)c2O[C@@H]1C(F)(F)F
REMARK SMILES IDX 7 1 6 2 5 3 4 4 3 5 2 6 1 7 75 8 76 9 93 10 77 11 92 12
REMARK SMILES IDX 78 13 91 14 79 15 82 16 80 17 81 18 94 19 95 20 96 21 97 22
REMARK SMILES IDX 83 23 84 24 85 25 86 26 90 27 87 28 89 29 88 30 8 31 9 32
REMARK SMILES IDX 10 33 11 34 12 35 13 36 74 37 14 38 73 39 15 40 16 41 17 42
REMARK SMILES IDX 67 43 18 44 72 45 66 46 68 47 19 48 71 49 65 50 64 51 20 53
REMARK SMILES IDX 52 54 32 55 51 56 33 57 36 58 50 59 69 60 34 61 35 62 49 64
REMARK SMILES IDX 70 65 37 66 21 67 22 68 30 69 23 70 29 71 31 72 28 73 24 74
REMARK SMILES IDX 25 75 26 76 27 77 53 78 54 79 62 80 55 81 61 82 63 83 60 84
REMARK SMILES IDX 56 85 57 86 58 87 59 88 38 89 39 90 47 91 40 92 46 93 48 94
REMARK SMILES IDX 45 95 41 96 42 97 43 98 44 99
REMARK H PARENT 68 52 36 63
REMARK Flexibility Score: inf
ROOT
ATOM      1  C   UNL     1       2.895  -2.927   0.910  1.00  0.00     0.202 C 
ENDROOT
BRANCH   1   2
ATOM      2  O   UNL     1       3.705  -2.380  -0.134  1.00  0.00    -0.374 OA
BRANCH   2   3
ATOM      3  C   UNL     1       4.236  -0.944  -0.375  1.00  0.00     0.202 C 
BRANCH   3   4
ATOM      4  C   UNL     1       3.227   0.987  -0.401  1.00  0.00     0.261 C 
BRANCH   4   5
ATOM      5  O   UNL     1       2.368   1.573  -1.534  1.00  0.00    -0.460 OA
BRANCH   5   6
ATOM      6  C   UNL     1       2.683   1.079  -2.734  1.00  0.00     0.338 C 
ATOM      7  O   UNL     1       2.154   1.256  -3.801  1.00  0.00    -0.246 OA
BRANCH   6   8
ATOM      8  C   UNL     1       3.572   0.050  -2.241  1.00  0.00     0.087 C 
ATOM      9  C   UNL     1       4.887   0.649  -1.853  1.00  0.00     0.027 C 
ATOM     10  C   UNL     1       2.312  -0.729  -0.993  1.00  0.00     0.316 C 
ATOM     11  C   UNL     1       5.419   0.858  -0.118  1.00  0.00     0.020 A 
ATOM     12  O   UNL     1       2.833  -0.467   0.838  1.00  0.00    -0.474 OA
ATOM     13  C   UNL     1       6.595   1.498   0.143  1.00  0.00     0.032 A 
ATOM     14  C   UNL     1       4.366   0.437   1.223  1.00  0.00     0.143 A 
ATOM     15  C   UNL     1       6.792   1.792   1.499  1.00  0.00     0.043 A 
ATOM     16  C   UNL     1       4.604   0.841   2.504  1.00  0.00     0.069 A 
ATOM     17  Cl  UNL     1       8.303   2.534   1.921  1.00  0.00    -0.084 Cl
ATOM     18  C   UNL     1       5.844   1.523   2.584  1.00  0.00     0.041 A 
BRANCH  10  19
ATOM     19  C   UNL     1       1.924  -2.059  -1.757  1.00  0.00     0.430 C 
ATOM     20  F   UNL     1       1.183  -2.940  -1.062  1.00  0.00    -0.167 F 
ATOM     21  F   UNL     1       1.143  -1.695  -2.822  1.00  0.00    -0.167 F 
ATOM     22  F   UNL     1       2.970  -2.705  -2.328  1.00  0.00    -0.167 F 
ENDBRANCH  10  19
BRANCH  16  23
ATOM     23  C   UNL     1       3.784   0.634   3.660  1.00  0.00    -0.058 C 
ATOM     24  C   UNL     1       3.272   0.403   4.723  1.00  0.00    -0.062 C 
BRANCH  24  25
ATOM     25  C   UNL     1       2.953  -0.016   6.070  1.00  0.00     0.025 A 
ATOM     26  C   UNL     1       3.253   0.816   7.155  1.00  0.00     0.017 A 
ATOM     27  C   UNL     1       2.622  -1.357   6.312  1.00  0.00     0.017 A 
ATOM     28  C   UNL     1       3.297   0.293   8.455  1.00  0.00     0.001 A 
ATOM     29  C   UNL     1       2.693  -1.885   7.608  1.00  0.00     0.001 A 
ATOM     30  C   UNL     1       3.046  -1.062   8.677  1.00  0.00     0.000 A 
ENDBRANCH  24  25
ENDBRANCH  16  23
ENDBRANCH   6   8
ENDBRANCH   5   6
ENDBRANCH   4   5
ENDBRANCH   3   4
ENDBRANCH   2   3
ENDBRANCH   1   2
BRANCH   1  31
ATOM     31  C   UNL     1       3.401  -3.195   2.311  1.00  0.00     0.261 C 
BRANCH  31  32
ATOM     32  O   UNL     1       4.344  -2.271   2.805  1.00  0.00    -0.460 OA
BRANCH  32  33
ATOM     33  C   UNL     1       5.648  -2.642   2.752  1.00  0.00     0.338 C 
ATOM     34  O   UNL     1       6.168  -3.438   1.999  1.00  0.00    -0.246 OA
BRANCH  33  35
ATOM     35  C   UNL     1       6.278  -1.912   3.870  1.00  0.00     0.060 A 
ATOM     36  C   UNL     1       7.367  -1.053   3.720  1.00  0.00     0.016 A 
ATOM     37  C   UNL     1       5.629  -1.994   5.093  1.00  0.00     0.016 A 
ATOM     38  C   UNL     1       7.742  -0.203   4.787  1.00  0.00     0.010 A 
ATOM     39  C   UNL     1       5.948  -1.092   6.095  1.00  0.00     0.010 A 
ATOM     40  C   UNL     1       7.014  -0.194   5.986  1.00  0.00    -0.014 A 
BRANCH  40  41
ATOM     41  C   UNL     1       7.398   0.557   7.223  1.00  0.00     0.031 A 
ATOM     42  C   UNL     1       7.696  -0.261   8.467  1.00  0.00     0.074 A 
ATOM     43  C   UNL     1       7.358   1.905   7.335  1.00  0.00     0.049 A 
ATOM     44  N   UNL     1       7.999   0.140   9.675  1.00  0.00    -0.248 NA
ATOM     45  C   UNL     1       7.529  -1.724   8.361  1.00  0.00     0.031 C 
ATOM     46  C   UNL     1       6.902   2.843   6.314  1.00  0.00     0.029 A 
ATOM     47  N   UNL     1       7.705   2.731   8.384  1.00  0.00    -0.354 N 
ATOM     48  C   UNL     1       8.027  -1.019  10.443  1.00  0.00     0.074 A 
ATOM     49  C   UNL     1       7.502  -2.083   9.629  1.00  0.00     0.031 C 
ATOM     50  C   UNL     1       7.076   4.106   6.745  1.00  0.00     0.029 A 
ATOM     51  C   UNL     1       7.638   4.079   8.091  1.00  0.00     0.049 A 
ATOM     52  H   UNL     1       7.978   2.389   9.266  1.00  0.00     0.167 HD
ATOM     53  C   UNL     1       8.554  -1.223  11.672  1.00  0.00     0.034 A 
ATOM     54  C   UNL     1       8.016   5.158   8.814  1.00  0.00     0.034 A 
ATOM     55  C   UNL     1       9.128  -0.170  12.456  1.00  0.00     0.049 A 
ATOM     56  C   UNL     1       8.614   4.933  10.189  1.00  0.00     0.074 A 
ATOM     57  C   UNL     1       9.784  -0.256  13.668  1.00  0.00     0.029 A 
ATOM     58  N   UNL     1       9.106   1.171  12.101  1.00  0.00    -0.354 N 
ATOM     59  N   UNL     1       8.801   3.807  10.840  1.00  0.00    -0.248 NA
ATOM     60  C   UNL     1       9.076   6.125  10.915  1.00  0.00     0.031 C 
ATOM     61  C   UNL     1      10.078   1.043  14.090  1.00  0.00     0.029 A 
ATOM     62  C   UNL     1       9.703   1.928  13.090  1.00  0.00     0.049 A 
ATOM     63  H   UNL     1       8.722   1.529  11.268  1.00  0.00     0.167 HD
ATOM     64  C   UNL     1       9.461   4.153  12.019  1.00  0.00     0.074 A 
ATOM     65  C   UNL     1       9.640   5.588  11.986  1.00  0.00     0.031 C 
ATOM     66  C   UNL     1       9.890   3.357  13.033  1.00  0.00     0.034 A 
BRANCH  53  67
ATOM     67  C   UNL     1       8.548  -2.639  12.196  1.00  0.00     0.023 A 
ATOM     68  C   UNL     1       9.165  -3.688  11.483  1.00  0.00     0.031 A 
ATOM     69  C   UNL     1       7.852  -2.966  13.369  1.00  0.00     0.131 A 
ATOM     70  C   UNL     1       8.962  -5.016  11.877  1.00  0.00     0.055 A 
ATOM     71  C   UNL     1       7.755  -4.283  13.821  1.00  0.00     0.041 A 
ATOM     72  F   UNL     1       7.223  -2.016  14.078  1.00  0.00    -0.206 F 
ATOM     73  C   UNL     1       8.290  -5.320  13.061  1.00  0.00     0.022 A 
BRANCH  70  74
ATOM     74  S   UNL     1       9.404  -6.336  10.711  1.00  0.00     0.124 S 
ATOM     75  O   UNL     1       8.570  -6.000   9.559  1.00  0.00    -0.237 OA
ATOM     76  O   UNL     1      10.838  -6.142  10.540  1.00  0.00    -0.237 OA
ATOM     77  O   UNL     1       9.016  -7.557  11.415  1.00  0.00    -0.744 OA
ENDBRANCH  70  74
ENDBRANCH  53  67
BRANCH  54  78
ATOM     78  C   UNL     1       7.922   6.552   8.267  1.00  0.00     0.023 A 
ATOM     79  C   UNL     1       9.081   7.328   8.069  1.00  0.00     0.031 A 
ATOM     80  C   UNL     1       6.682   7.170   8.032  1.00  0.00     0.131 A 
ATOM     81  C   UNL     1       8.976   8.687   7.724  1.00  0.00     0.055 A 
ATOM     82  C   UNL     1       6.584   8.507   7.629  1.00  0.00     0.041 A 
ATOM     83  F   UNL     1       5.540   6.486   8.205  1.00  0.00    -0.206 F 
ATOM     84  C   UNL     1       7.735   9.278   7.490  1.00  0.00     0.022 A 
BRANCH  81  85
ATOM     85  S   UNL     1      10.481   9.705   7.705  1.00  0.00     0.124 S 
ATOM     86  O   UNL     1      10.955   9.556   9.076  1.00  0.00    -0.237 OA
ATOM     87  O   UNL     1      11.278   9.050   6.674  1.00  0.00    -0.237 OA
ATOM     88  O   UNL     1       9.988  11.036   7.356  1.00  0.00    -0.744 OA
ENDBRANCH  81  85
ENDBRANCH  54  78
BRANCH  66  89
ATOM     89  C   UNL     1      10.672   4.002  14.151  1.00  0.00     0.023 A 
ATOM     90  C   UNL     1      10.107   4.966  15.001  1.00  0.00     0.031 A 
ATOM     91  C   UNL     1      12.010   3.627  14.375  1.00  0.00     0.131 A 
ATOM     92  C   UNL     1      10.896   5.572  15.989  1.00  0.00     0.055 A 
ATOM     93  C   UNL     1      12.763   4.170  15.415  1.00  0.00     0.041 A 
ATOM     94  F   UNL     1      12.605   2.712  13.592  1.00  0.00    -0.206 F 
ATOM     95  C   UNL     1      12.212   5.162  16.218  1.00  0.00     0.022 A 
BRANCH  92  96
ATOM     96  S   UNL     1      10.219   6.995  16.885  1.00  0.00     0.124 S 
ATOM     97  O   UNL     1       9.863   7.897  15.794  1.00  0.00    -0.237 OA
ATOM     98  O   UNL     1       9.100   6.402  17.611  1.00  0.00    -0.237 OA
ATOM     99  O   UNL     1      11.335   7.437  17.718  1.00  0.00    -0.744 OA
ENDBRANCH  92  96
ENDBRANCH  66  89
ENDBRANCH  40  41
ENDBRANCH  33  35
ENDBRANCH  32  33
ENDBRANCH  31  32
ENDBRANCH   1  31
TORSDOF 20
