REMARK SMILES Cc1cc(Br)cc2c1O[C@H](C(F)(F)F)C(C(=O)OCCOCCOC(=O)c1ccc(-c3c4nc(c(-c5cc(S(=O)(=O)[O-])ccc5F)c5ccc([nH]5)c(-c5cc(S(=O)(=O)[O-])ccc5F)c5nc(c(-c6cc(S(=O)(=O)[O-])ccc6F)c6ccc3[nH]6)C=C5)C=C4)cc1)=C2
REMARK SMILES IDX 22 1 21 2 20 3 19 4 18 5 16 6 17 7 15 8 1 9 2 10 3 11 8 12
REMARK SMILES IDX 4 13 7 14 9 15 5 16 6 17 90 18 10 19 11 20 12 21 13 22 14 23
REMARK SMILES IDX 23 24 24 25 25 26 26 27 27 28 28 29 89 30 29 31 88 32 30 33
REMARK SMILES IDX 31 34 32 35 82 36 33 37 87 38 81 39 83 40 34 41 86 42 80 43
REMARK SMILES IDX 79 44 35 46 67 47 47 48 66 49 48 50 51 51 65 52 84 53 49 54
REMARK SMILES IDX 50 55 64 57 85 58 52 59 36 60 37 61 45 62 38 63 44 64 46 65
REMARK SMILES IDX 43 66 39 67 40 68 41 69 42 70 68 71 69 72 77 73 70 74 76 75
REMARK SMILES IDX 78 76 75 77 71 78 72 79 73 80 74 81 53 82 54 83 62 84 55 85
REMARK SMILES IDX 61 86 63 87 60 88 56 89 57 90 58 91 59 92
REMARK H PARENT 83 45 51 56
REMARK Flexibility Score: inf
ROOT
ATOM      1  C   UNL     1      -0.892   0.627   7.653  1.00  0.00     0.202 C 
ENDROOT
BRANCH   1   2
ATOM      2  O   UNL     1      -2.111   0.640   8.397  1.00  0.00    -0.374 OA
BRANCH   2   3
ATOM      3  C   UNL     1      -2.967  -0.497   8.291  1.00  0.00     0.202 C 
BRANCH   3   4
ATOM      4  C   UNL     1      -3.838  -0.587   7.034  1.00  0.00     0.261 C 
BRANCH   4   5
ATOM      5  O   UNL     1      -3.049  -0.541   5.834  1.00  0.00    -0.460 OA
BRANCH   5   6
ATOM      6  C   UNL     1      -3.208   0.580   5.096  1.00  0.00     0.338 C 
ATOM      7  O   UNL     1      -4.021   1.474   5.281  1.00  0.00    -0.246 OA
BRANCH   6   8
ATOM      8  C   UNL     1      -2.151   0.659   4.069  1.00  0.00     0.087 C 
ATOM      9  C   UNL     1       0.982  -0.025   0.034  1.00  0.00     0.048 C 
ATOM     10  C   UNL     1       0.579   1.110   0.934  1.00  0.00    -0.007 A 
ATOM     11  C   UNL     1       1.042   2.401   0.626  1.00  0.00     0.023 A 
ATOM     12  C   UNL     1      -0.274   0.934   2.036  1.00  0.00     0.130 A 
ATOM     13  C   UNL     1       0.670   3.489   1.412  1.00  0.00     0.019 A 
ATOM     14  C   UNL     1      -0.667   2.039   2.800  1.00  0.00     0.019 A 
ATOM     15  O   UNL     1      -0.676  -0.341   2.325  1.00  0.00    -0.475 OA
ATOM     16  Br  UNL     1       1.300   5.219   0.983  1.00  0.00    -0.051 Br
ATOM     17  C   UNL     1      -0.180   3.316   2.498  1.00  0.00     0.027 A 
ATOM     18  C   UNL     1      -1.628   1.876   3.874  1.00  0.00     0.027 C 
ATOM     19  C   UNL     1      -1.736  -0.562   3.299  1.00  0.00     0.316 C 
BRANCH  19  20
ATOM     20  C   UNL     1      -2.915  -1.234   2.579  1.00  0.00     0.430 C 
ATOM     21  F   UNL     1      -2.502  -2.298   1.850  1.00  0.00    -0.167 F 
ATOM     22  F   UNL     1      -3.843  -1.692   3.450  1.00  0.00    -0.167 F 
ATOM     23  F   UNL     1      -3.538  -0.381   1.733  1.00  0.00    -0.167 F 
ENDBRANCH  19  20
ENDBRANCH   6   8
ENDBRANCH   5   6
ENDBRANCH   4   5
ENDBRANCH   3   4
ENDBRANCH   2   3
ENDBRANCH   1   2
BRANCH   1  24
ATOM     24  C   UNL     1       0.222  -0.313   8.130  1.00  0.00     0.261 C 
BRANCH  24  25
ATOM     25  O   UNL     1      -0.117  -1.700   7.952  1.00  0.00    -0.460 OA
BRANCH  25  26
ATOM     26  C   UNL     1      -0.241  -2.402   9.105  1.00  0.00     0.338 C 
ATOM     27  O   UNL     1      -0.037  -1.992  10.240  1.00  0.00    -0.246 OA
BRANCH  26  28
ATOM     28  C   UNL     1      -0.853  -3.714   8.835  1.00  0.00     0.060 A 
ATOM     29  C   UNL     1      -2.054  -4.018   9.490  1.00  0.00     0.016 A 
ATOM     30  C   UNL     1      -0.221  -4.663   8.030  1.00  0.00     0.016 A 
ATOM     31  C   UNL     1      -2.606  -5.292   9.377  1.00  0.00     0.010 A 
ATOM     32  C   UNL     1      -0.770  -5.947   7.929  1.00  0.00     0.010 A 
ATOM     33  C   UNL     1      -1.945  -6.275   8.630  1.00  0.00    -0.014 A 
BRANCH  33  34
ATOM     34  C   UNL     1      -2.402  -7.683   8.723  1.00  0.00     0.031 A 
ATOM     35  C   UNL     1      -1.707  -8.608   9.684  1.00  0.00     0.074 A 
ATOM     36  C   UNL     1      -3.459  -8.113   8.010  1.00  0.00     0.049 A 
ATOM     37  N   UNL     1      -1.923  -9.877   9.917  1.00  0.00    -0.248 NA
ATOM     38  C   UNL     1      -0.627  -8.023  10.495  1.00  0.00     0.031 C 
ATOM     39  C   UNL     1      -4.254  -7.289   7.101  1.00  0.00     0.029 A 
ATOM     40  N   UNL     1      -4.052  -9.349   7.950  1.00  0.00    -0.354 N 
ATOM     41  C   UNL     1      -1.015 -10.240  10.905  1.00  0.00     0.074 A 
ATOM     42  C   UNL     1      -0.220  -9.068  11.201  1.00  0.00     0.031 C 
ATOM     43  C   UNL     1      -5.237  -8.042   6.579  1.00  0.00     0.029 A 
ATOM     44  C   UNL     1      -5.119  -9.408   7.086  1.00  0.00     0.049 A 
ATOM     45  H   UNL     1      -3.742 -10.121   8.477  1.00  0.00     0.167 HD
ATOM     46  C   UNL     1      -0.867 -11.439  11.518  1.00  0.00     0.034 A 
ATOM     47  C   UNL     1      -5.899 -10.450   6.731  1.00  0.00     0.034 A 
ATOM     48  C   UNL     1      -1.659 -12.602  11.212  1.00  0.00     0.049 A 
ATOM     49  C   UNL     1      -5.639 -11.804   7.343  1.00  0.00     0.074 A 
ATOM     50  C   UNL     1      -1.583 -13.865  11.772  1.00  0.00     0.029 A 
ATOM     51  N   UNL     1      -2.668 -12.647  10.261  1.00  0.00    -0.354 N 
ATOM     52  N   UNL     1      -4.750 -12.143   8.248  1.00  0.00    -0.248 NA
ATOM     53  C   UNL     1      -6.481 -12.916   6.880  1.00  0.00     0.031 C 
ATOM     54  C   UNL     1      -2.504 -14.689  11.117  1.00  0.00     0.029 A 
ATOM     55  C   UNL     1      -3.201 -13.924  10.195  1.00  0.00     0.049 A 
ATOM     56  H   UNL     1      -2.963 -11.883   9.714  1.00  0.00     0.167 HD
ATOM     57  C   UNL     1      -4.939 -13.503   8.475  1.00  0.00     0.074 A 
ATOM     58  C   UNL     1      -6.029 -13.922   7.619  1.00  0.00     0.031 C 
ATOM     59  C   UNL     1      -4.274 -14.330   9.321  1.00  0.00     0.034 A 
BRANCH  46  60
ATOM     60  C   UNL     1       0.217 -11.561  12.555  1.00  0.00     0.023 A 
ATOM     61  C   UNL     1       0.124 -10.910  13.796  1.00  0.00     0.031 A 
ATOM     62  C   UNL     1       1.352 -12.353  12.303  1.00  0.00     0.131 A 
ATOM     63  C   UNL     1       1.167 -11.031  14.727  1.00  0.00     0.055 A 
ATOM     64  C   UNL     1       2.357 -12.518  13.257  1.00  0.00     0.041 A 
ATOM     65  F   UNL     1       1.499 -12.979  11.125  1.00  0.00    -0.206 F 
ATOM     66  C   UNL     1       2.271 -11.850  14.475  1.00  0.00     0.022 A 
BRANCH  63  67
ATOM     67  S   UNL     1       1.098 -10.044  16.246  1.00  0.00     0.124 S 
ATOM     68  O   UNL     1       1.181  -8.685  15.716  1.00  0.00    -0.237 OA
ATOM     69  O   UNL     1      -0.187 -10.429  16.818  1.00  0.00    -0.237 OA
ATOM     70  O   UNL     1       2.272 -10.487  16.996  1.00  0.00    -0.744 OA
ENDBRANCH  63  67
ENDBRANCH  46  60
BRANCH  47  71
ATOM     71  C   UNL     1      -6.977 -10.267   5.721  1.00  0.00     0.023 A 
ATOM     72  C   UNL     1      -8.329 -10.378   6.076  1.00  0.00     0.031 A 
ATOM     73  C   UNL     1      -6.664  -9.996   4.377  1.00  0.00     0.131 A 
ATOM     74  C   UNL     1      -9.322 -10.240   5.093  1.00  0.00     0.055 A 
ATOM     75  C   UNL     1      -7.656  -9.821   3.410  1.00  0.00     0.041 A 
ATOM     76  F   UNL     1      -5.384  -9.881   3.988  1.00  0.00    -0.206 F 
ATOM     77  C   UNL     1      -8.995  -9.949   3.766  1.00  0.00     0.022 A 
BRANCH  74  78
ATOM     78  S   UNL     1     -11.057 -10.477   5.567  1.00  0.00     0.124 S 
ATOM     79  O   UNL     1     -11.068 -11.882   5.958  1.00  0.00    -0.237 OA
ATOM     80  O   UNL     1     -11.214  -9.507   6.646  1.00  0.00    -0.237 OA
ATOM     81  O   UNL     1     -11.790 -10.163   4.342  1.00  0.00    -0.744 OA
ENDBRANCH  74  78
ENDBRANCH  47  71
BRANCH  59  82
ATOM     82  C   UNL     1      -4.714 -15.769   9.377  1.00  0.00     0.023 A 
ATOM     83  C   UNL     1      -4.449 -16.657   8.322  1.00  0.00     0.031 A 
ATOM     84  C   UNL     1      -5.361 -16.267  10.522  1.00  0.00     0.131 A 
ATOM     85  C   UNL     1      -4.853 -17.997   8.422  1.00  0.00     0.055 A 
ATOM     86  C   UNL     1      -5.719 -17.611  10.634  1.00  0.00     0.041 A 
ATOM     87  F   UNL     1      -5.633 -15.459  11.558  1.00  0.00    -0.206 F 
ATOM     88  C   UNL     1      -5.470 -18.483   9.578  1.00  0.00     0.022 A 
BRANCH  85  89
ATOM     89  S   UNL     1      -4.587 -19.096   7.004  1.00  0.00     0.124 S 
ATOM     90  O   UNL     1      -5.450 -18.497   5.992  1.00  0.00    -0.237 OA
ATOM     91  O   UNL     1      -3.152 -18.973   6.772  1.00  0.00    -0.237 OA
ATOM     92  O   UNL     1      -5.023 -20.402   7.496  1.00  0.00    -0.744 OA
ENDBRANCH  85  89
ENDBRANCH  59  82
ENDBRANCH  33  34
ENDBRANCH  26  28
ENDBRANCH  25  26
ENDBRANCH  24  25
ENDBRANCH   1  24
TORSDOF 18
