REMARK SMILES O=C(OCCOCCOC(=O)[C@@H]1[C@H](C(=O)NCc2ccncc2)[C@H]2C=C[C@@H]1O2)c1ccc(-c2c3nc(c(-c4cc(S(=O)(=O)[O-])ccc4F)c4ccc([nH]4)c(-c4cc(S(=O)(=O)[O-])ccc4F)c4nc(c(-c5cc(S(=O)(=O)[O-])ccc5F)c5ccc2[nH]5)C=C4)C=C3)cc1
REMARK SMILES IDX 6 1 5 2 4 3 3 4 2 5 1 6 29 7 30 8 91 9 31 10 90 11 32 12
REMARK SMILES IDX 33 13 34 14 84 15 35 16 89 17 83 18 85 19 36 20 88 21 82 22
REMARK SMILES IDX 81 23 37 25 69 26 49 27 68 28 50 29 53 30 67 31 86 32 51 33
REMARK SMILES IDX 52 34 66 36 87 37 54 38 38 39 39 40 47 41 40 42 46 43 48 44
REMARK SMILES IDX 45 45 41 46 42 47 43 48 44 49 70 50 71 51 79 52 72 53 78 54
REMARK SMILES IDX 80 55 77 56 73 57 74 58 75 59 76 60 55 61 56 62 64 63 57 64
REMARK SMILES IDX 63 65 65 66 62 67 58 68 59 69 60 70 61 71 7 72 8 73 9 74
REMARK SMILES IDX 10 75 11 76 12 77 13 78 27 79 24 80 26 81 28 82 25 83 14 84
REMARK SMILES IDX 15 85 16 86 17 88 18 89 19 90 23 91 20 92 22 93 21 94
REMARK H PARENT 85 24 53 35 16 87
REMARK Flexibility Score: inf
ROOT
ATOM      1  O   UNL     1       3.739   1.131   0.769  1.00  0.00    -0.374 OA
ENDROOT
BRANCH   1   2
ATOM      2  C   UNL     1       4.253   1.268  -0.562  1.00  0.00     0.202 C 
BRANCH   2   3
ATOM      3  C   UNL     1       4.050   0.079  -1.516  1.00  0.00     0.261 C 
BRANCH   3   4
ATOM      4  O   UNL     1       2.693  -0.394  -1.513  1.00  0.00    -0.460 OA
BRANCH   4   5
ATOM      5  C   UNL     1       2.170  -1.375  -0.736  1.00  0.00     0.338 C 
ATOM      6  O   UNL     1       0.959  -1.585  -0.781  1.00  0.00    -0.246 OA
BRANCH   5   7
ATOM      7  C   UNL     1       3.004  -2.227   0.161  1.00  0.00     0.060 A 
ATOM      8  C   UNL     1       4.171  -1.799   0.790  1.00  0.00     0.016 A 
ATOM      9  C   UNL     1       2.549  -3.527   0.431  1.00  0.00     0.016 A 
ATOM     10  C   UNL     1       4.928  -2.643   1.571  1.00  0.00     0.010 A 
ATOM     11  C   UNL     1       3.275  -4.375   1.274  1.00  0.00     0.010 A 
ATOM     12  C   UNL     1       4.481  -3.932   1.826  1.00  0.00    -0.014 A 
BRANCH  12  13
ATOM     13  C   UNL     1       5.404  -4.785   2.587  1.00  0.00     0.031 A 
ATOM     14  C   UNL     1       6.197  -5.801   1.836  1.00  0.00     0.074 A 
ATOM     15  C   UNL     1       5.677  -4.457   3.864  1.00  0.00     0.049 A 
ATOM     16  N   UNL     1       7.079  -6.644   2.287  1.00  0.00    -0.248 NA
ATOM     17  C   UNL     1       5.972  -5.870   0.382  1.00  0.00     0.031 C 
ATOM     18  C   UNL     1       5.018  -3.373   4.595  1.00  0.00     0.029 A 
ATOM     19  N   UNL     1       6.604  -4.931   4.747  1.00  0.00    -0.354 N 
ATOM     20  C   UNL     1       7.495  -7.370   1.180  1.00  0.00     0.074 A 
ATOM     21  C   UNL     1       6.762  -6.875   0.038  1.00  0.00     0.031 C 
ATOM     22  C   UNL     1       5.611  -3.216   5.788  1.00  0.00     0.029 A 
ATOM     23  C   UNL     1       6.598  -4.273   5.957  1.00  0.00     0.049 A 
ATOM     24  H   UNL     1       7.217  -5.673   4.540  1.00  0.00     0.167 HD
ATOM     25  C   UNL     1       8.407  -8.369   1.147  1.00  0.00     0.034 A 
ATOM     26  C   UNL     1       7.274  -4.547   7.090  1.00  0.00     0.034 A 
ATOM     27  C   UNL     1       9.093  -8.825   2.327  1.00  0.00     0.049 A 
ATOM     28  C   UNL     1       8.189  -5.747   7.049  1.00  0.00     0.074 A 
ATOM     29  C   UNL     1       9.951  -9.898   2.471  1.00  0.00     0.029 A 
ATOM     30  N   UNL     1       8.994  -8.220   3.577  1.00  0.00    -0.354 N 
ATOM     31  N   UNL     1       8.492  -6.517   6.025  1.00  0.00    -0.248 NA
ATOM     32  C   UNL     1       8.833  -6.131   8.306  1.00  0.00     0.031 C 
ATOM     33  C   UNL     1      10.318  -9.978   3.819  1.00  0.00     0.029 A 
ATOM     34  C   UNL     1       9.760  -8.906   4.502  1.00  0.00     0.049 A 
ATOM     35  H   UNL     1       8.456  -7.419   3.775  1.00  0.00     0.167 HD
ATOM     36  C   UNL     1       9.368  -7.476   6.517  1.00  0.00     0.074 A 
ATOM     37  C   UNL     1       9.581  -7.151   7.916  1.00  0.00     0.031 C 
ATOM     38  C   UNL     1       9.934  -8.540   5.890  1.00  0.00     0.034 A 
BRANCH  25  39
ATOM     39  C   UNL     1       8.600  -9.068  -0.172  1.00  0.00     0.023 A 
ATOM     40  C   UNL     1       9.136  -8.408  -1.291  1.00  0.00     0.031 A 
ATOM     41  C   UNL     1       8.152 -10.390  -0.336  1.00  0.00     0.131 A 
ATOM     42  C   UNL     1       9.142  -9.047  -2.541  1.00  0.00     0.055 A 
ATOM     43  C   UNL     1       8.237 -11.049  -1.564  1.00  0.00     0.041 A 
ATOM     44  F   UNL     1       7.591 -11.054   0.687  1.00  0.00    -0.206 F 
ATOM     45  C   UNL     1       8.722 -10.372  -2.679  1.00  0.00     0.022 A 
BRANCH  42  46
ATOM     46  S   UNL     1       9.564  -8.073  -4.012  1.00  0.00     0.124 S 
ATOM     47  O   UNL     1       8.499  -7.073  -4.017  1.00  0.00    -0.237 OA
ATOM     48  O   UNL     1      10.900  -7.581  -3.695  1.00  0.00    -0.237 OA
ATOM     49  O   UNL     1       9.500  -9.048  -5.099  1.00  0.00    -0.744 OA
ENDBRANCH  42  46
ENDBRANCH  25  39
BRANCH  26  50
ATOM     50  C   UNL     1       7.028  -3.790   8.357  1.00  0.00     0.023 A 
ATOM     51  C   UNL     1       8.081  -3.216   9.088  1.00  0.00     0.031 A 
ATOM     52  C   UNL     1       5.736  -3.713   8.916  1.00  0.00     0.131 A 
ATOM     53  C   UNL     1       7.837  -2.660  10.356  1.00  0.00     0.055 A 
ATOM     54  C   UNL     1       5.486  -3.085  10.137  1.00  0.00     0.041 A 
ATOM     55  F   UNL     1       4.685  -4.262   8.286  1.00  0.00    -0.206 F 
ATOM     56  C   UNL     1       6.545  -2.574  10.877  1.00  0.00     0.022 A 
BRANCH  53  57
ATOM     57  S   UNL     1       9.255  -2.189  11.387  1.00  0.00     0.124 S 
ATOM     58  O   UNL     1      10.035  -3.422  11.398  1.00  0.00    -0.237 OA
ATOM     59  O   UNL     1       9.823  -1.078  10.631  1.00  0.00    -0.237 OA
ATOM     60  O   UNL     1       8.644  -1.827  12.664  1.00  0.00    -0.744 OA
ENDBRANCH  53  57
ENDBRANCH  26  50
BRANCH  38  61
ATOM     61  C   UNL     1      10.864  -9.383   6.723  1.00  0.00     0.023 A 
ATOM     62  C   UNL     1      10.399 -10.115   7.828  1.00  0.00     0.031 A 
ATOM     63  C   UNL     1      12.237  -9.424   6.424  1.00  0.00     0.131 A 
ATOM     64  C   UNL     1      11.314 -10.790   8.646  1.00  0.00     0.055 A 
ATOM     65  C   UNL     1      13.130 -10.168   7.193  1.00  0.00     0.041 A 
ATOM     66  F   UNL     1      12.731  -8.739   5.380  1.00  0.00    -0.206 F 
ATOM     67  C   UNL     1      12.672 -10.840   8.323  1.00  0.00     0.022 A 
BRANCH  64  68
ATOM     68  S   UNL     1      10.721 -11.483  10.212  1.00  0.00     0.124 S 
ATOM     69  O   UNL     1      10.159 -10.307  10.868  1.00  0.00    -0.237 OA
ATOM     70  O   UNL     1       9.759 -12.485   9.765  1.00  0.00    -0.237 OA
ATOM     71  O   UNL     1      11.933 -12.019  10.828  1.00  0.00    -0.744 OA
ENDBRANCH  64  68
ENDBRANCH  38  61
ENDBRANCH  12  13
ENDBRANCH   5   7
ENDBRANCH   4   5
ENDBRANCH   3   4
ENDBRANCH   2   3
ENDBRANCH   1   2
BRANCH   1  72
ATOM     72  C   UNL     1       2.319   1.267   0.911  1.00  0.00     0.202 C 
BRANCH  72  73
ATOM     73  C   UNL     1       1.968   2.566   1.617  1.00  0.00     0.261 C 
BRANCH  73  74
ATOM     74  O   UNL     1       2.647   3.605   0.898  1.00  0.00    -0.463 OA
BRANCH  74  75
ATOM     75  C   UNL     1       3.799   4.003   1.502  1.00  0.00     0.312 C 
ATOM     76  O   UNL     1       3.985   3.976   2.698  1.00  0.00    -0.252 OA
BRANCH  75  77
ATOM     77  C   UNL     1       4.719   4.635   0.520  1.00  0.00     0.147 C 
ATOM     78  C   UNL     1       6.224   4.274   0.503  1.00  0.00     0.128 C 
ATOM     79  C   UNL     1       4.752   6.116   0.903  1.00  0.00     0.157 C 
ATOM     80  C   UNL     1       6.867   5.610   0.894  1.00  0.00     0.155 C 
ATOM     81  C   UNL     1       5.345   6.902  -0.225  1.00  0.00     0.004 C 
ATOM     82  O   UNL     1       5.882   6.136   1.816  1.00  0.00    -0.365 OA
ATOM     83  C   UNL     1       6.652   6.599  -0.231  1.00  0.00     0.004 C 
BRANCH  78  84
ATOM     84  C   UNL     1       6.876   3.047   1.131  1.00  0.00     0.227 C 
ATOM     85  O   UNL     1       7.414   2.245   0.346  1.00  0.00    -0.275 OA
ATOM     86  N   UNL     1       7.026   2.718   2.423  1.00  0.00    -0.352 N 
ATOM     87  H   UNL     1       7.526   1.877   2.532  1.00  0.00     0.163 HD
BRANCH  86  88
ATOM     88  C   UNL     1       6.638   3.288   3.703  1.00  0.00     0.151 C 
BRANCH  88  89
ATOM     89  C   UNL     1       5.591   2.460   4.420  1.00  0.00    -0.026 A 
ATOM     90  C   UNL     1       4.617   3.107   5.192  1.00  0.00     0.025 A 
ATOM     91  C   UNL     1       5.508   1.069   4.314  1.00  0.00     0.025 A 
ATOM     92  C   UNL     1       3.545   2.378   5.684  1.00  0.00     0.111 A 
ATOM     93  C   UNL     1       4.411   0.427   4.871  1.00  0.00     0.111 A 
ATOM     94  N   UNL     1       3.410   1.049   5.530  1.00  0.00    -0.265 NA
ENDBRANCH  88  89
ENDBRANCH  86  88
ENDBRANCH  78  84
ENDBRANCH  75  77
ENDBRANCH  74  75
ENDBRANCH  73  74
ENDBRANCH  72  73
ENDBRANCH   1  72
TORSDOF 20
