REMARK SMILES O=C(OCCOCCOC(=O)[C@H](Cc1ccc(O)cc1)NC(=O)c1ccc(Cl)s1)c1ccc(-c2c3nc(c(-c4cc(S(=O)(=O)[O-])ccc4F)c4ccc([nH]4)c(-c4cc(S(=O)(=O)[O-])ccc4F)c4nc(c(-c5cc(S(=O)(=O)[O-])ccc5F)c5ccc2[nH]5)C=C4)C=C3)cc1
REMARK SMILES IDX 6 1 5 2 4 3 3 4 2 5 1 6 30 7 31 8 92 9 32 10 91 11 33 12
REMARK SMILES IDX 34 13 35 14 85 15 36 16 90 17 84 18 86 19 37 20 89 21 83 22
REMARK SMILES IDX 82 23 38 25 70 26 50 27 69 28 51 29 54 30 68 31 87 32 52 33
REMARK SMILES IDX 53 34 67 36 88 37 55 38 39 39 40 40 48 41 41 42 47 43 49 44
REMARK SMILES IDX 46 45 42 46 43 47 44 48 45 49 71 50 72 51 80 52 73 53 79 54
REMARK SMILES IDX 81 55 78 56 74 57 75 58 76 59 77 60 56 61 57 62 65 63 58 64
REMARK SMILES IDX 64 65 66 66 63 67 59 68 60 69 61 70 62 71 7 72 8 73 9 74
REMARK SMILES IDX 10 75 11 76 12 77 21 78 22 79 23 81 24 82 25 83 29 84 26 85
REMARK SMILES IDX 27 86 28 87 13 88 14 89 15 90 20 91 16 92 19 93 17 94 18 95
REMARK H PARENT 86 24 54 35 21 80 18 96
REMARK Flexibility Score: inf
ROOT
ATOM      1  O   UNL     1       5.013  -3.401   2.015  1.00  0.00    -0.374 OA
ENDROOT
BRANCH   1   2
ATOM      2  C   UNL     1       6.319  -3.056   1.548  1.00  0.00     0.202 C 
BRANCH   2   3
ATOM      3  C   UNL     1       7.416  -2.887   2.602  1.00  0.00     0.261 C 
BRANCH   3   4
ATOM      4  O   UNL     1       7.533  -4.080   3.394  1.00  0.00    -0.460 OA
BRANCH   4   5
ATOM      5  C   UNL     1       7.080  -4.270   4.656  1.00  0.00     0.338 C 
ATOM      6  O   UNL     1       7.279  -5.354   5.201  1.00  0.00    -0.246 OA
BRANCH   5   7
ATOM      7  C   UNL     1       6.342  -3.219   5.414  1.00  0.00     0.060 A 
ATOM      8  C   UNL     1       5.473  -2.290   4.834  1.00  0.00     0.016 A 
ATOM      9  C   UNL     1       6.472  -3.226   6.809  1.00  0.00     0.016 A 
ATOM     10  C   UNL     1       4.821  -1.333   5.589  1.00  0.00     0.010 A 
ATOM     11  C   UNL     1       5.787  -2.291   7.586  1.00  0.00     0.010 A 
ATOM     12  C   UNL     1       4.981  -1.328   6.967  1.00  0.00    -0.014 A 
BRANCH  12  13
ATOM     13  C   UNL     1       4.399  -0.212   7.721  1.00  0.00     0.031 A 
ATOM     14  C   UNL     1       5.314   0.884   8.157  1.00  0.00     0.074 A 
ATOM     15  C   UNL     1       3.070  -0.155   7.904  1.00  0.00     0.049 A 
ATOM     16  N   UNL     1       5.083   1.893   8.947  1.00  0.00    -0.248 NA
ATOM     17  C   UNL     1       6.683   0.831   7.619  1.00  0.00     0.031 C 
ATOM     18  C   UNL     1       2.104  -1.116   7.365  1.00  0.00     0.029 A 
ATOM     19  N   UNL     1       2.303   0.748   8.584  1.00  0.00    -0.354 N 
ATOM     20  C   UNL     1       6.289   2.577   9.038  1.00  0.00     0.074 A 
ATOM     21  C   UNL     1       7.247   1.865   8.221  1.00  0.00     0.031 C 
ATOM     22  C   UNL     1       0.870  -0.755   7.750  1.00  0.00     0.029 A 
ATOM     23  C   UNL     1       0.972   0.408   8.623  1.00  0.00     0.049 A 
ATOM     24  H   UNL     1       2.667   1.561   9.003  1.00  0.00     0.167 HD
ATOM     25  C   UNL     1       6.558   3.690   9.761  1.00  0.00     0.034 A 
ATOM     26  C   UNL     1      -0.029   0.946   9.345  1.00  0.00     0.034 A 
ATOM     27  C   UNL     1       5.563   4.331  10.584  1.00  0.00     0.049 A 
ATOM     28  C   UNL     1       0.310   2.113  10.235  1.00  0.00     0.074 A 
ATOM     29  C   UNL     1       5.700   5.399  11.448  1.00  0.00     0.029 A 
ATOM     30  N   UNL     1       4.227   3.937  10.644  1.00  0.00    -0.354 N 
ATOM     31  N   UNL     1       1.473   2.703  10.409  1.00  0.00    -0.248 NA
ATOM     32  C   UNL     1      -0.782   2.680  11.031  1.00  0.00     0.031 C 
ATOM     33  C   UNL     1       4.464   5.612  12.073  1.00  0.00     0.029 A 
ATOM     34  C   UNL     1       3.534   4.726  11.544  1.00  0.00     0.049 A 
ATOM     35  H   UNL     1       3.833   3.202  10.121  1.00  0.00     0.167 HD
ATOM     36  C   UNL     1       1.249   3.727  11.321  1.00  0.00     0.074 A 
ATOM     37  C   UNL     1      -0.164   3.675  11.653  1.00  0.00     0.031 C 
ATOM     38  C   UNL     1       2.121   4.631  11.838  1.00  0.00     0.034 A 
BRANCH  25  39
ATOM     39  C   UNL     1       7.993   4.160   9.766  1.00  0.00     0.023 A 
ATOM     40  C   UNL     1       8.643   4.571   8.588  1.00  0.00     0.031 A 
ATOM     41  C   UNL     1       8.764   4.052  10.937  1.00  0.00     0.131 A 
ATOM     42  C   UNL     1      10.036   4.745   8.582  1.00  0.00     0.055 A 
ATOM     43  C   UNL     1      10.135   4.320  10.944  1.00  0.00     0.041 A 
ATOM     44  F   UNL     1       8.210   3.632  12.085  1.00  0.00    -0.206 F 
ATOM     45  C   UNL     1      10.784   4.646   9.757  1.00  0.00     0.022 A 
BRANCH  42  46
ATOM     46  S   UNL     1      10.882   4.889   6.981  1.00  0.00     0.124 S 
ATOM     47  O   UNL     1      10.468   3.654   6.317  1.00  0.00    -0.237 OA
ATOM     48  O   UNL     1      10.324   6.122   6.439  1.00  0.00    -0.237 OA
ATOM     49  O   UNL     1      12.296   4.947   7.343  1.00  0.00    -0.744 OA
ENDBRANCH  42  46
ENDBRANCH  25  39
BRANCH  26  50
ATOM     50  C   UNL     1      -1.387   0.333   9.314  1.00  0.00     0.023 A 
ATOM     51  C   UNL     1      -2.496   1.028   8.811  1.00  0.00     0.031 A 
ATOM     52  C   UNL     1      -1.591  -0.981   9.782  1.00  0.00     0.131 A 
ATOM     53  C   UNL     1      -3.761   0.414   8.803  1.00  0.00     0.055 A 
ATOM     54  C   UNL     1      -2.839  -1.602   9.730  1.00  0.00     0.041 A 
ATOM     55  F   UNL     1      -0.564  -1.694  10.273  1.00  0.00    -0.206 F 
ATOM     56  C   UNL     1      -3.936  -0.900   9.244  1.00  0.00     0.022 A 
BRANCH  53  57
ATOM     57  S   UNL     1      -5.194   1.377   8.246  1.00  0.00     0.124 S 
ATOM     58  O   UNL     1      -5.183   2.495   9.183  1.00  0.00    -0.237 OA
ATOM     59  O   UNL     1      -4.832   1.690   6.868  1.00  0.00    -0.237 OA
ATOM     60  O   UNL     1      -6.310   0.446   8.399  1.00  0.00    -0.744 OA
ENDBRANCH  53  57
ENDBRANCH  26  50
BRANCH  38  61
ATOM     61  C   UNL     1       1.546   5.666  12.767  1.00  0.00     0.023 A 
ATOM     62  C   UNL     1       1.120   5.338  14.063  1.00  0.00     0.031 A 
ATOM     63  C   UNL     1       1.454   7.004  12.347  1.00  0.00     0.131 A 
ATOM     64  C   UNL     1       0.583   6.337  14.887  1.00  0.00     0.055 A 
ATOM     65  C   UNL     1       0.967   8.002  13.188  1.00  0.00     0.041 A 
ATOM     66  F   UNL     1       1.852   7.362  11.115  1.00  0.00    -0.206 F 
ATOM     67  C   UNL     1       0.520   7.669  14.464  1.00  0.00     0.022 A 
BRANCH  64  68
ATOM     68  S   UNL     1      -0.088   5.864  16.503  1.00  0.00     0.124 S 
ATOM     69  O   UNL     1      -1.161   4.949  16.128  1.00  0.00    -0.237 OA
ATOM     70  O   UNL     1       1.067   5.258  17.157  1.00  0.00    -0.237 OA
ATOM     71  O   UNL     1      -0.527   7.135  17.076  1.00  0.00    -0.744 OA
ENDBRANCH  64  68
ENDBRANCH  38  61
ENDBRANCH  12  13
ENDBRANCH   5   7
ENDBRANCH   4   5
ENDBRANCH   3   4
ENDBRANCH   2   3
ENDBRANCH   1   2
BRANCH   1  72
ATOM     72  C   UNL     1       4.803  -4.760   2.421  1.00  0.00     0.202 C 
BRANCH  72  73
ATOM     73  C   UNL     1       3.530  -5.302   1.767  1.00  0.00     0.261 C 
BRANCH  73  74
ATOM     74  O   UNL     1       3.735  -5.284   0.346  1.00  0.00    -0.462 OA
BRANCH  74  75
ATOM     75  C   UNL     1       3.417  -4.088  -0.240  1.00  0.00     0.329 C 
ATOM     76  O   UNL     1       2.602  -3.292   0.206  1.00  0.00    -0.250 OA
BRANCH  75  77
ATOM     77  C   UNL     1       4.364  -3.831  -1.423  1.00  0.00     0.197 C 
BRANCH  77  78
ATOM     78  N   UNL     1       4.345  -5.023  -2.285  1.00  0.00    -0.338 N 
ATOM     79  C   UNL     1       5.318  -5.959  -2.532  1.00  0.00     0.262 C 
ATOM     80  H   UNL     1       3.498  -5.173  -2.763  1.00  0.00     0.164 HD
ATOM     81  O   UNL     1       4.992  -6.948  -3.190  1.00  0.00    -0.268 OA
BRANCH  79  82
ATOM     82  C   UNL     1       6.670  -5.743  -2.065  1.00  0.00     0.093 A 
ATOM     83  C   UNL     1       7.188  -5.773  -0.783  1.00  0.00     0.027 A 
ATOM     84  S   UNL     1       7.912  -5.527  -3.231  1.00  0.00    -0.118 S 
ATOM     85  C   UNL     1       8.598  -5.534  -0.756  1.00  0.00     0.033 A 
ATOM     86  C   UNL     1       9.095  -5.413  -2.027  1.00  0.00     0.094 A 
ATOM     87  Cl  UNL     1      10.740  -5.187  -2.468  1.00  0.00    -0.072 Cl
ENDBRANCH  79  82
ENDBRANCH  77  78
BRANCH  77  88
ATOM     88  C   UNL     1       3.994  -2.544  -2.177  1.00  0.00     0.072 C 
BRANCH  88  89
ATOM     89  C   UNL     1       4.659  -1.313  -1.585  1.00  0.00    -0.045 A 
ATOM     90  C   UNL     1       4.060  -0.590  -0.540  1.00  0.00     0.007 A 
ATOM     91  C   UNL     1       5.912  -0.894  -2.057  1.00  0.00     0.007 A 
ATOM     92  C   UNL     1       4.695   0.524   0.021  1.00  0.00     0.046 A 
ATOM     93  C   UNL     1       6.542   0.225  -1.504  1.00  0.00     0.046 A 
ATOM     94  C   UNL     1       5.931   0.924  -0.470  1.00  0.00     0.115 A 
BRANCH  94  95
ATOM     95  O   UNL     1       6.588   2.004   0.036  1.00  0.00    -0.508 OA
ATOM     96  H   UNL     1       6.207   2.500   0.734  1.00  0.00     0.293 HD
ENDBRANCH  94  95
ENDBRANCH  88  89
ENDBRANCH  77  88
ENDBRANCH  75  77
ENDBRANCH  74  75
ENDBRANCH  73  74
ENDBRANCH  72  73
ENDBRANCH   1  72
TORSDOF 22
