REMARK SMILES Cc1cc(F)cc(N[C@H](C(=O)OCCOCCOC(=O)c2ccc(-c3c4nc(c(-c5cc(S(=O)(=O)[O-])ccc5F)c5ccc([nH]5)c(-c5cc(S(=O)(=O)[O-])ccc5F)c5nc(c(-c6cc(S(=O)(=O)[O-])ccc6F)c6ccc3[nH]6)C=C5)C=C4)cc2)c2cc(C)cc(C)c2)c1
REMARK SMILES IDX 16 1 15 2 14 3 13 4 12 5 10 6 11 7 9 8 8 9 7 11 1 12 2 13
REMARK SMILES IDX 3 14 92 15 4 16 5 17 6 18 84 19 85 20 91 21 86 22 89 23
REMARK SMILES IDX 87 24 88 25 90 26 17 27 18 28 19 29 20 30 21 31 22 32 83 33
REMARK SMILES IDX 23 34 82 35 24 36 25 37 26 38 76 39 27 40 81 41 75 42 77 43
REMARK SMILES IDX 28 44 80 45 74 46 73 47 29 49 61 50 41 51 60 52 42 53 45 54
REMARK SMILES IDX 59 55 78 56 43 57 44 58 58 60 79 61 46 62 30 63 31 64 39 65
REMARK SMILES IDX 32 66 38 67 40 68 37 69 33 70 34 71 35 72 36 73 62 74 63 75
REMARK SMILES IDX 71 76 64 77 70 78 72 79 69 80 65 81 66 82 67 83 68 84 47 85
REMARK SMILES IDX 48 86 56 87 49 88 55 89 57 90 54 91 50 92 51 93 52 94 53 95
REMARK H PARENT 8 10 77 48 45 59
REMARK Flexibility Score: inf
ROOT
ATOM      1  C   UNL     1       0.502  -0.869  -0.298  1.00  0.00     0.202 C 
ENDROOT
BRANCH   1   2
ATOM      2  O   UNL     1       1.858  -0.931   0.150  1.00  0.00    -0.374 OA
BRANCH   2   3
ATOM      3  C   UNL     1       2.787  -1.666  -0.640  1.00  0.00     0.202 C 
BRANCH   3   4
ATOM      4  C   UNL     1       2.802  -3.192  -0.506  1.00  0.00     0.261 C 
BRANCH   4   5
ATOM      5  O   UNL     1       1.506  -3.791  -0.582  1.00  0.00    -0.461 OA
BRANCH   5   6
ATOM      6  C   UNL     1       0.921  -3.970   0.639  1.00  0.00     0.333 C 
ATOM      7  O   UNL     1       1.399  -3.545   1.689  1.00  0.00    -0.249 OA
BRANCH   6   8
ATOM      8  C   UNL     1      -0.454  -4.664   0.545  1.00  0.00     0.221 C 
BRANCH   8   9
ATOM      9  N   UNL     1      -0.657  -5.498  -0.667  1.00  0.00    -0.369 N 
ATOM     10  H   UNL     1      -1.330  -5.156  -1.298  1.00  0.00     0.161 HD
BRANCH   9  11
ATOM     11  C   UNL     1      -0.050  -6.681  -1.050  1.00  0.00     0.038 A 
ATOM     12  C   UNL     1      -0.292  -9.161  -3.981  1.00  0.00     0.044 C 
ATOM     13  C   UNL     1       0.093  -8.538  -2.673  1.00  0.00    -0.046 A 
ATOM     14  C   UNL     1       0.988  -9.211  -1.842  1.00  0.00     0.042 A 
ATOM     15  C   UNL     1      -0.440  -7.300  -2.253  1.00  0.00     0.029 A 
ATOM     16  C   UNL     1       1.384  -8.612  -0.663  1.00  0.00     0.125 A 
ATOM     17  F   UNL     1       2.251  -9.240   0.144  1.00  0.00    -0.207 F 
ATOM     18  C   UNL     1       0.902  -7.360  -0.296  1.00  0.00     0.065 A 
ENDBRANCH   9  11
ENDBRANCH   8   9
BRANCH   8  19
ATOM     19  C   UNL     1      -0.841  -5.376   1.838  1.00  0.00    -0.014 A 
ATOM     20  C   UNL     1       0.125  -6.079   2.574  1.00  0.00     0.010 A 
ATOM     21  C   UNL     1      -2.150  -5.356   2.337  1.00  0.00     0.010 A 
ATOM     22  C   UNL     1      -0.203  -6.894   3.651  1.00  0.00    -0.051 A 
ATOM     23  C   UNL     1      -2.474  -6.051   3.514  1.00  0.00    -0.051 A 
ATOM     24  C   UNL     1       0.830  -7.852   4.159  1.00  0.00     0.044 C 
ATOM     25  C   UNL     1      -1.510  -6.870   4.126  1.00  0.00     0.006 A 
ATOM     26  C   UNL     1      -3.844  -5.962   4.116  1.00  0.00     0.044 C 
ENDBRANCH   8  19
ENDBRANCH   6   8
ENDBRANCH   5   6
ENDBRANCH   4   5
ENDBRANCH   3   4
ENDBRANCH   2   3
ENDBRANCH   1   2
BRANCH   1  27
ATOM     27  C   UNL     1       0.211  -0.011  -1.534  1.00  0.00     0.261 C 
BRANCH  27  28
ATOM     28  O   UNL     1       0.685  -0.640  -2.739  1.00  0.00    -0.460 OA
BRANCH  28  29
ATOM     29  C   UNL     1       1.696   0.007  -3.363  1.00  0.00     0.338 C 
ATOM     30  O   UNL     1       2.175   1.094  -3.054  1.00  0.00    -0.246 OA
BRANCH  29  31
ATOM     31  C   UNL     1       2.318  -0.885  -4.355  1.00  0.00     0.060 A 
ATOM     32  C   UNL     1       3.694  -1.131  -4.244  1.00  0.00     0.016 A 
ATOM     33  C   UNL     1       1.581  -1.428  -5.409  1.00  0.00     0.016 A 
ATOM     34  C   UNL     1       4.349  -1.887  -5.212  1.00  0.00     0.010 A 
ATOM     35  C   UNL     1       2.244  -2.171  -6.390  1.00  0.00     0.010 A 
ATOM     36  C   UNL     1       3.634  -2.374  -6.312  1.00  0.00    -0.014 A 
BRANCH  36  37
ATOM     37  C   UNL     1       4.368  -2.940  -7.468  1.00  0.00     0.031 A 
ATOM     38  C   UNL     1       4.634  -2.053  -8.653  1.00  0.00     0.074 A 
ATOM     39  C   UNL     1       4.807  -4.211  -7.452  1.00  0.00     0.049 A 
ATOM     40  N   UNL     1       5.182  -2.343  -9.803  1.00  0.00    -0.248 NA
ATOM     41  C   UNL     1       4.219  -0.648  -8.518  1.00  0.00     0.031 C 
ATOM     42  C   UNL     1       4.659  -5.140  -6.332  1.00  0.00     0.029 A 
ATOM     43  N   UNL     1       5.460  -4.941  -8.412  1.00  0.00    -0.354 N 
ATOM     44  C   UNL     1       5.172  -1.160 -10.535  1.00  0.00     0.074 A 
ATOM     45  C   UNL     1       4.532  -0.159  -9.709  1.00  0.00     0.031 C 
ATOM     46  C   UNL     1       5.192  -6.324  -6.678  1.00  0.00     0.029 A 
ATOM     47  C   UNL     1       5.677  -6.250  -8.055  1.00  0.00     0.049 A 
ATOM     48  H   UNL     1       5.745  -4.563  -9.276  1.00  0.00     0.167 HD
ATOM     49  C   UNL     1       5.659  -0.931 -11.780  1.00  0.00     0.034 A 
ATOM     50  C   UNL     1       6.177  -7.277  -8.772  1.00  0.00     0.034 A 
ATOM     51  C   UNL     1       6.281  -1.948 -12.591  1.00  0.00     0.049 A 
ATOM     52  C   UNL     1       6.618  -7.024 -10.195  1.00  0.00     0.074 A 
ATOM     53  C   UNL     1       6.820  -1.829 -13.861  1.00  0.00     0.029 A 
ATOM     54  N   UNL     1       6.436  -3.278 -12.219  1.00  0.00    -0.354 N 
ATOM     55  N   UNL     1       6.603  -5.902 -10.880  1.00  0.00    -0.248 NA
ATOM     56  C   UNL     1       7.143  -8.175 -10.940  1.00  0.00     0.031 C 
ATOM     57  C   UNL     1       7.229  -3.099 -14.284  1.00  0.00     0.029 A 
ATOM     58  C   UNL     1       7.023  -3.997 -13.248  1.00  0.00     0.049 A 
ATOM     59  H   UNL     1       6.167  -3.655 -11.350  1.00  0.00     0.167 HD
ATOM     60  C   UNL     1       7.144  -6.210 -12.126  1.00  0.00     0.074 A 
ATOM     61  C   UNL     1       7.488  -7.617 -12.091  1.00  0.00     0.031 C 
ATOM     62  C   UNL     1       7.343  -5.405 -13.202  1.00  0.00     0.034 A 
BRANCH  49  63
ATOM     63  C   UNL     1       5.477   0.454 -12.352  1.00  0.00     0.023 A 
ATOM     64  C   UNL     1       6.091   1.581 -11.778  1.00  0.00     0.031 A 
ATOM     65  C   UNL     1       4.647   0.654 -13.470  1.00  0.00     0.131 A 
ATOM     66  C   UNL     1       5.812   2.862 -12.280  1.00  0.00     0.055 A 
ATOM     67  C   UNL     1       4.437   1.923 -14.013  1.00  0.00     0.041 A 
ATOM     68  F   UNL     1       4.013  -0.380 -14.044  1.00  0.00    -0.206 F 
ATOM     69  C   UNL     1       5.009   3.038 -13.409  1.00  0.00     0.022 A 
BRANCH  66  70
ATOM     70  S   UNL     1       6.397   4.305 -11.350  1.00  0.00     0.124 S 
ATOM     71  O   UNL     1       5.766   4.094 -10.050  1.00  0.00    -0.237 OA
ATOM     72  O   UNL     1       7.846   4.141 -11.391  1.00  0.00    -0.237 OA
ATOM     73  O   UNL     1       5.875   5.438 -12.111  1.00  0.00    -0.744 OA
ENDBRANCH  66  70
ENDBRANCH  49  63
BRANCH  50  74
ATOM     74  C   UNL     1       6.242  -8.647  -8.188  1.00  0.00     0.023 A 
ATOM     75  C   UNL     1       7.470  -9.303  -8.008  1.00  0.00     0.031 A 
ATOM     76  C   UNL     1       5.067  -9.346  -7.856  1.00  0.00     0.131 A 
ATOM     77  C   UNL     1       7.493 -10.631  -7.553  1.00  0.00     0.055 A 
ATOM     78  C   UNL     1       5.098 -10.647  -7.351  1.00  0.00     0.041 A 
ATOM     79  F   UNL     1       3.865  -8.769  -8.013  1.00  0.00    -0.206 F 
ATOM     80  C   UNL     1       6.317 -11.302  -7.210  1.00  0.00     0.022 A 
BRANCH  77  81
ATOM     81  S   UNL     1       9.083 -11.504  -7.502  1.00  0.00     0.124 S 
ATOM     82  O   UNL     1       9.514 -11.414  -8.892  1.00  0.00    -0.237 OA
ATOM     83  O   UNL     1       9.836 -10.703  -6.542  1.00  0.00    -0.237 OA
ATOM     84  O   UNL     1       8.720 -12.844  -7.045  1.00  0.00    -0.744 OA
ENDBRANCH  77  81
ENDBRANCH  50  74
BRANCH  62  85
ATOM     85  C   UNL     1       7.998  -6.027 -14.412  1.00  0.00     0.023 A 
ATOM     86  C   UNL     1       7.354  -7.016 -15.176  1.00  0.00     0.031 A 
ATOM     87  C   UNL     1       9.288  -5.626 -14.803  1.00  0.00     0.131 A 
ATOM     88  C   UNL     1       8.023  -7.611 -16.256  1.00  0.00     0.055 A 
ATOM     89  C   UNL     1       9.924  -6.177 -15.916  1.00  0.00     0.041 A 
ATOM     90  F   UNL     1       9.951  -4.686 -14.110  1.00  0.00    -0.206 F 
ATOM     91  C   UNL     1       9.296  -7.185 -16.642  1.00  0.00     0.022 A 
BRANCH  88  92
ATOM     92  S   UNL     1       7.242  -9.016 -17.097  1.00  0.00     0.124 S 
ATOM     93  O   UNL     1       7.082  -9.971 -16.006  1.00  0.00    -0.237 OA
ATOM     94  O   UNL     1       6.012  -8.427 -17.614  1.00  0.00    -0.237 OA
ATOM     95  O   UNL     1       8.222  -9.395 -18.114  1.00  0.00    -0.744 OA
ENDBRANCH  88  92
ENDBRANCH  62  85
ENDBRANCH  36  37
ENDBRANCH  29  31
ENDBRANCH  28  29
ENDBRANCH  27  28
ENDBRANCH   1  27
TORSDOF 20
