REMARK SMILES Cc1nnc(SCC2=C(C(=O)OCCOCCOC(=O)c3ccc(-c4c5nc(c(-c6cc(S(=O)(=O)[O-])ccc6F)c6ccc([nH]6)c(-c6cc(S(=O)(=O)[O-])ccc6F)c6nc(c(-c7cc(S(=O)(=O)[O-])ccc7F)c7ccc4[nH]7)C=C6)C=C5)cc3)N3C(=O)[C@H](NC(=O)c4ccc(F)cc4F)[C@H]3SC2)s1
REMARK SMILES IDX 15 1 14 2 13 3 12 4 10 5 11 6 9 7 8 8 101 9 84 10 100 11
REMARK SMILES IDX 85 12 99 13 86 14 87 15 7 16 6 17 5 18 1 19 2 20 3 21 102 22
REMARK SMILES IDX 4 23 88 24 89 25 90 27 91 28 92 29 97 30 93 31 96 32 98 33
REMARK SMILES IDX 94 34 95 35 16 36 17 37 18 38 19 39 20 40 21 41 22 42 83 43
REMARK SMILES IDX 23 44 82 45 24 46 25 47 26 48 76 49 27 50 81 51 75 52 77 53
REMARK SMILES IDX 28 54 80 55 74 56 73 57 29 59 61 60 41 61 60 62 42 63 45 64
REMARK SMILES IDX 59 65 78 66 43 67 44 68 58 70 79 71 46 72 30 73 31 74 39 75
REMARK SMILES IDX 32 76 38 77 40 78 37 79 33 80 34 81 35 82 36 83 62 84 63 85
REMARK SMILES IDX 71 86 64 87 70 88 72 89 69 90 65 91 66 92 67 93 68 94 47 95
REMARK SMILES IDX 48 96 56 97 49 98 55 99 57 100 54 101 50 102 51 103 52 104
REMARK SMILES IDX 53 105
REMARK H PARENT 88 26 77 58 45 69
REMARK Flexibility Score: inf
ROOT
ATOM      1  O   UNL     1       3.560  -5.612  -2.357  1.00  0.00    -0.374 OA
ENDROOT
BRANCH   1   2
ATOM      2  C   UNL     1       3.071  -4.407  -2.947  1.00  0.00     0.202 C 
BRANCH   2   3
ATOM      3  C   UNL     1       2.169  -3.526  -2.084  1.00  0.00     0.261 C 
BRANCH   3   4
ATOM      4  O   UNL     1       2.947  -2.873  -1.069  1.00  0.00    -0.459 OA
BRANCH   4   5
ATOM      5  C   UNL     1       2.550  -3.123   0.199  1.00  0.00     0.355 C 
ATOM      6  O   UNL     1       1.593  -3.811   0.535  1.00  0.00    -0.244 OA
BRANCH   5   7
ATOM      7  C   UNL     1       3.521  -2.572   1.205  1.00  0.00     0.132 C 
ATOM      8  C   UNL     1       4.120  -1.350   1.197  1.00  0.00    -0.019 C 
ATOM      9  C   UNL     1       5.061  -0.869   2.311  1.00  0.00     0.106 C 
ATOM     10  N   UNL     1       3.700  -3.378   2.285  1.00  0.00    -0.289 N 
ATOM     11  S   UNL     1       5.497  -2.087   3.603  1.00  0.00    -0.129 SA
ATOM     12  C   UNL     1       3.585  -4.669   2.627  1.00  0.00     0.253 C 
ATOM     13  C   UNL     1       3.852  -2.837   3.601  1.00  0.00     0.181 C 
ATOM     14  O   UNL     1       3.451  -5.696   1.994  1.00  0.00    -0.272 OA
ATOM     15  C   UNL     1       3.730  -4.289   4.150  1.00  0.00     0.206 C 
BRANCH   8  16
ATOM     16  C   UNL     1       3.983  -0.322   0.083  1.00  0.00     0.111 C 
BRANCH  16  17
ATOM     17  S   UNL     1       3.005   1.130   0.590  1.00  0.00    -0.089 SA
BRANCH  17  18
ATOM     18  C   UNL     1       1.380   0.538   0.355  1.00  0.00     0.174 A 
ATOM     19  C   UNL     1      -2.402   0.127  -0.101  1.00  0.00     0.081 C 
ATOM     20  C   UNL     1      -0.930   0.094   0.066  1.00  0.00     0.115 A 
ATOM     21  N   UNL     1      -0.224  -1.009   0.175  1.00  0.00    -0.143 NA
ATOM     22  S   UNL     1       0.004   1.537   0.157  1.00  0.00    -0.091 S 
ATOM     23  N   UNL     1       1.111  -0.745   0.352  1.00  0.00    -0.132 NA
ENDBRANCH  17  18
ENDBRANCH  16  17
ENDBRANCH   8  16
BRANCH  15  24
ATOM     24  N   UNL     1       2.517  -4.709   4.919  1.00  0.00    -0.338 N 
ATOM     25  C   UNL     1       1.917  -4.191   6.038  1.00  0.00     0.254 C 
ATOM     26  H   UNL     1       2.066  -5.504   4.554  1.00  0.00     0.164 HD
ATOM     27  O   UNL     1       1.024  -4.801   6.617  1.00  0.00    -0.269 OA
BRANCH  25  28
ATOM     28  C   UNL     1       2.362  -2.912   6.590  1.00  0.00     0.075 A 
ATOM     29  C   UNL     1       3.111  -2.890   7.768  1.00  0.00     0.020 A 
ATOM     30  C   UNL     1       1.959  -1.718   5.992  1.00  0.00     0.138 A 
ATOM     31  C   UNL     1       3.532  -1.662   8.281  1.00  0.00     0.040 A 
ATOM     32  C   UNL     1       2.413  -0.498   6.472  1.00  0.00     0.079 A 
ATOM     33  F   UNL     1       1.162  -1.730   4.914  1.00  0.00    -0.206 F 
ATOM     34  C   UNL     1       3.203  -0.483   7.614  1.00  0.00     0.126 A 
ATOM     35  F   UNL     1       3.646   0.687   8.090  1.00  0.00    -0.207 F 
ENDBRANCH  25  28
ENDBRANCH  15  24
ENDBRANCH   5   7
ENDBRANCH   4   5
ENDBRANCH   3   4
ENDBRANCH   2   3
ENDBRANCH   1   2
BRANCH   1  36
ATOM     36  C   UNL     1       4.450  -5.512  -1.249  1.00  0.00     0.202 C 
BRANCH  36  37
ATOM     37  C   UNL     1       5.912  -5.151  -1.538  1.00  0.00     0.261 C 
BRANCH  37  38
ATOM     38  O   UNL     1       6.080  -3.930  -2.275  1.00  0.00    -0.460 OA
BRANCH  38  39
ATOM     39  C   UNL     1       6.321  -4.115  -3.599  1.00  0.00     0.338 C 
ATOM     40  O   UNL     1       6.407  -5.177  -4.191  1.00  0.00    -0.246 OA
BRANCH  39  41
ATOM     41  C   UNL     1       6.324  -2.814  -4.291  1.00  0.00     0.060 A 
ATOM     42  C   UNL     1       5.448  -2.637  -5.371  1.00  0.00     0.016 A 
ATOM     43  C   UNL     1       7.242  -1.821  -3.947  1.00  0.00     0.016 A 
ATOM     44  C   UNL     1       5.510  -1.475  -6.137  1.00  0.00     0.010 A 
ATOM     45  C   UNL     1       7.313  -0.664  -4.726  1.00  0.00     0.010 A 
ATOM     46  C   UNL     1       6.470  -0.500  -5.842  1.00  0.00    -0.014 A 
BRANCH  46  47
ATOM     47  C   UNL     1       6.729   0.612  -6.788  1.00  0.00     0.031 A 
ATOM     48  C   UNL     1       7.897   0.492  -7.728  1.00  0.00     0.074 A 
ATOM     49  C   UNL     1       5.956   1.711  -6.796  1.00  0.00     0.049 A 
ATOM     50  N   UNL     1       8.428   1.391  -8.513  1.00  0.00    -0.248 NA
ATOM     51  C   UNL     1       8.558  -0.822  -7.776  1.00  0.00     0.031 C 
ATOM     52  C   UNL     1       4.754   1.904  -5.987  1.00  0.00     0.029 A 
ATOM     53  N   UNL     1       6.082   2.884  -7.499  1.00  0.00    -0.354 N 
ATOM     54  C   UNL     1       9.496   0.758  -9.141  1.00  0.00     0.074 A 
ATOM     55  C   UNL     1       9.551  -0.592  -8.621  1.00  0.00     0.031 C 
ATOM     56  C   UNL     1       4.266   3.135  -6.221  1.00  0.00     0.029 A 
ATOM     57  C   UNL     1       5.150   3.834  -7.152  1.00  0.00     0.049 A 
ATOM     58  H   UNL     1       6.772   3.030  -8.185  1.00  0.00     0.167 HD
ATOM     59  C   UNL     1      10.349   1.260 -10.067  1.00  0.00     0.034 A 
ATOM     60  C   UNL     1       5.052   5.130  -7.512  1.00  0.00     0.034 A 
ATOM     61  C   UNL     1      10.284   2.614 -10.560  1.00  0.00     0.049 A 
ATOM     62  C   UNL     1       6.080   5.705  -8.461  1.00  0.00     0.074 A 
ATOM     63  C   UNL     1      11.104   3.238 -11.483  1.00  0.00     0.029 A 
ATOM     64  N   UNL     1       9.345   3.557 -10.162  1.00  0.00    -0.354 N 
ATOM     65  N   UNL     1       7.109   5.111  -9.022  1.00  0.00    -0.248 NA
ATOM     66  C   UNL     1       5.936   7.122  -8.825  1.00  0.00     0.031 C 
ATOM     67  C   UNL     1      10.703   4.573 -11.594  1.00  0.00     0.029 A 
ATOM     68  C   UNL     1       9.581   4.762 -10.803  1.00  0.00     0.049 A 
ATOM     69  H   UNL     1       8.617   3.393  -9.519  1.00  0.00     0.167 HD
ATOM     70  C   UNL     1       7.701   6.069  -9.843  1.00  0.00     0.074 A 
ATOM     71  C   UNL     1       6.922   7.281  -9.696  1.00  0.00     0.031 C 
ATOM     72  C   UNL     1       8.781   5.955 -10.655  1.00  0.00     0.034 A 
BRANCH  59  73
ATOM     73  C   UNL     1      11.455   0.357 -10.555  1.00  0.00     0.023 A 
ATOM     74  C   UNL     1      11.186  -0.818 -11.277  1.00  0.00     0.031 A 
ATOM     75  C   UNL     1      12.798   0.661 -10.267  1.00  0.00     0.131 A 
ATOM     76  C   UNL     1      12.237  -1.680 -11.627  1.00  0.00     0.055 A 
ATOM     77  C   UNL     1      13.845  -0.160 -10.688  1.00  0.00     0.041 A 
ATOM     78  F   UNL     1      13.114   1.757  -9.559  1.00  0.00    -0.206 F 
ATOM     79  C   UNL     1      13.567  -1.346 -11.360  1.00  0.00     0.022 A 
BRANCH  76  80
ATOM     80  S   UNL     1      11.830  -3.309 -12.311  1.00  0.00     0.124 S 
ATOM     81  O   UNL     1      11.020  -3.884 -11.240  1.00  0.00    -0.237 OA
ATOM     82  O   UNL     1      11.119  -2.968 -13.537  1.00  0.00    -0.237 OA
ATOM     83  O   UNL     1      13.136  -3.938 -12.500  1.00  0.00    -0.744 OA
ENDBRANCH  76  80
ENDBRANCH  59  73
BRANCH  60  84
ATOM     84  C   UNL     1       3.979   5.996  -6.944  1.00  0.00     0.023 A 
ATOM     85  C   UNL     1       3.011   6.586  -7.771  1.00  0.00     0.031 A 
ATOM     86  C   UNL     1       3.942   6.296  -5.570  1.00  0.00     0.131 A 
ATOM     87  C   UNL     1       2.079   7.484  -7.228  1.00  0.00     0.055 A 
ATOM     88  C   UNL     1       2.977   7.145  -5.025  1.00  0.00     0.041 A 
ATOM     89  F   UNL     1       4.844   5.762  -4.732  1.00  0.00    -0.206 F 
ATOM     90  C   UNL     1       2.046   7.757  -5.859  1.00  0.00     0.022 A 
BRANCH  87  91
ATOM     91  S   UNL     1       0.967   8.368  -8.356  1.00  0.00     0.124 S 
ATOM     92  O   UNL     1       1.915   9.041  -9.237  1.00  0.00    -0.237 OA
ATOM     93  O   UNL     1       0.204   7.273  -8.947  1.00  0.00    -0.237 OA
ATOM     94  O   UNL     1       0.209   9.245  -7.466  1.00  0.00    -0.744 OA
ENDBRANCH  87  91
ENDBRANCH  60  84
BRANCH  72  95
ATOM     95  C   UNL     1       9.133   7.140 -11.519  1.00  0.00     0.023 A 
ATOM     96  C   UNL     1       9.669   8.324 -10.986  1.00  0.00     0.031 A 
ATOM     97  C   UNL     1       8.960   7.057 -12.913  1.00  0.00     0.131 A 
ATOM     98  C   UNL     1       9.984   9.392 -11.842  1.00  0.00     0.055 A 
ATOM     99  C   UNL     1       9.322   8.102 -13.763  1.00  0.00     0.041 A 
ATOM    100  F   UNL     1       8.452   5.947 -13.473  1.00  0.00    -0.206 F 
ATOM    101  C   UNL     1       9.831   9.281 -13.227  1.00  0.00     0.022 A 
BRANCH  98 102
ATOM    102  S   UNL     1      10.555  10.954 -11.118  1.00  0.00     0.124 S 
ATOM    103  O   UNL     1       9.412  11.346 -10.300  1.00  0.00    -0.237 OA
ATOM    104  O   UNL     1      11.750  10.543 -10.388  1.00  0.00    -0.237 OA
ATOM    105  O   UNL     1      10.804  11.802 -12.283  1.00  0.00    -0.744 OA
ENDBRANCH  98 102
ENDBRANCH  72  95
ENDBRANCH  46  47
ENDBRANCH  39  41
ENDBRANCH  38  39
ENDBRANCH  37  38
ENDBRANCH  36  37
ENDBRANCH   1  36
TORSDOF 22
