REMARK SMILES Cc1cccc(C(=O)Nc2cc(C(=O)OCCOCCOC(=O)c3ccc(-c4c5nc(c(-c6cc(S(=O)(=O)[O-])ccc6F)c6ccc([nH]6)c(-c6cc(S(=O)(=O)[O-])ccc6F)c6nc(c(-c7cc(S(=O)(=O)[O-])ccc7F)c7ccc4[nH]7)C=C6)C=C5)cc3)ccc2N2CC[NH+](CC(=O)NC(C)(C)C)CC2)c1
REMARK SMILES IDX 17 1 16 2 15 3 13 4 14 5 12 6 10 7 11 8 89 9 88 10 87 11
REMARK SMILES IDX 9 12 7 13 8 14 6 16 1 17 2 18 3 19 104 20 4 21 5 22 90 23
REMARK SMILES IDX 91 24 103 25 92 26 102 27 93 28 94 30 95 31 96 32 97 33
REMARK SMILES IDX 98 35 99 36 100 37 101 38 18 39 19 40 20 41 21 42 22 43
REMARK SMILES IDX 23 44 24 45 25 46 86 47 26 48 85 49 27 50 28 51 29 52 79 53
REMARK SMILES IDX 30 54 84 55 78 56 80 57 31 58 83 59 77 60 76 61 32 63 64 64
REMARK SMILES IDX 44 65 63 66 45 67 48 68 62 69 81 70 46 71 47 72 61 74 82 75
REMARK SMILES IDX 49 76 33 77 34 78 42 79 35 80 41 81 43 82 40 83 36 84 37 85
REMARK SMILES IDX 38 86 39 87 65 88 66 89 74 90 67 91 73 92 75 93 72 94 68 95
REMARK SMILES IDX 69 96 70 97 71 98 50 99 51 100 59 101 52 102 58 103 60 104
REMARK SMILES IDX 57 105 53 106 54 107 55 108 56 109
REMARK H PARENT 9 15 93 29 97 34 80 62 48 73
REMARK Flexibility Score: inf
ROOT
ATOM      1  C   UNL     1       2.734   2.765  -4.288  1.00  0.00     0.202 C 
ENDROOT
BRANCH   1   2
ATOM      2  C   UNL     1       2.536   1.531  -3.464  1.00  0.00     0.261 C 
BRANCH   2   3
ATOM      3  O   UNL     1       2.415   1.840  -2.089  1.00  0.00    -0.460 OA
BRANCH   3   4
ATOM      4  C   UNL     1       3.352   2.526  -1.408  1.00  0.00     0.338 C 
ATOM      5  O   UNL     1       4.557   2.416  -1.398  1.00  0.00    -0.246 OA
BRANCH   4   6
ATOM      6  C   UNL     1       2.555   3.571  -0.740  1.00  0.00     0.062 A 
ATOM      7  C   UNL     1       0.377   4.463  -0.287  1.00  0.00     0.065 A 
ATOM      8  C   UNL     1       1.164   3.511  -0.863  1.00  0.00     0.044 A 
ATOM      9  C   UNL     1       0.967   5.596   0.338  1.00  0.00     0.061 A 
ATOM     10  C   UNL     1       2.367   5.642   0.464  1.00  0.00     0.029 A 
ATOM     11  C   UNL     1       3.164   4.611  -0.044  1.00  0.00     0.018 A 
BRANCH   7  12
ATOM     12  N   UNL     1      -1.005   4.188  -0.209  1.00  0.00    -0.320 N 
ATOM     13  C   UNL     1      -1.641   3.064   0.331  1.00  0.00     0.255 C 
ATOM     14  O   UNL     1      -2.876   3.048   0.347  1.00  0.00    -0.269 OA
ATOM     15  H   UNL     1      -1.600   4.877  -0.584  1.00  0.00     0.170 HD
BRANCH  13  16
ATOM     16  C   UNL     1      -0.924   1.963   1.082  1.00  0.00     0.040 A 
ATOM     17  C   UNL     1       2.464   1.164   2.569  1.00  0.00     0.044 C 
ATOM     18  C   UNL     1       0.987   1.050   2.318  1.00  0.00    -0.050 A 
ATOM     19  C   UNL     1       0.316  -0.163   2.481  1.00  0.00     0.003 A 
ATOM     20  C   UNL     1       0.324   2.118   1.701  1.00  0.00     0.017 A 
ATOM     21  C   UNL     1      -0.968  -0.318   1.956  1.00  0.00     0.001 A 
ATOM     22  C   UNL     1      -1.575   0.731   1.250  1.00  0.00     0.014 A 
ENDBRANCH  13  16
ENDBRANCH   7  12
BRANCH   9  23
ATOM     23  N   UNL     1       0.151   6.483   1.018  1.00  0.00    -0.359 N 
ATOM     24  C   UNL     1       0.459   7.863   1.398  1.00  0.00     0.178 C 
ATOM     25  C   UNL     1      -0.570   5.794   2.072  1.00  0.00     0.178 C 
ATOM     26  C   UNL     1      -0.864   8.564   1.877  1.00  0.00     0.284 C 
ATOM     27  C   UNL     1      -1.941   6.442   2.193  1.00  0.00     0.284 C 
ATOM     28  N   UNL     1      -1.828   7.801   2.723  1.00  0.00    -0.324 N 
ATOM     29  H   UNL     1      -2.710   8.307   2.646  1.00  0.00     0.348 HD
BRANCH  28  30
ATOM     30  C   UNL     1      -1.632   7.825   4.191  1.00  0.00     0.363 C 
BRANCH  30  31
ATOM     31  C   UNL     1      -0.499   6.984   4.790  1.00  0.00     0.275 C 
ATOM     32  O   UNL     1       0.631   7.487   4.878  1.00  0.00    -0.268 OA
ATOM     33  N   UNL     1      -0.615   5.700   5.245  1.00  0.00    -0.347 N 
ATOM     34  H   UNL     1       0.230   5.425   5.669  1.00  0.00     0.164 HD
BRANCH  33  35
ATOM     35  C   UNL     1      -1.599   4.570   5.315  1.00  0.00     0.032 C 
ATOM     36  C   UNL     1      -1.422   3.557   4.172  1.00  0.00     0.034 C 
ATOM     37  C   UNL     1      -1.253   3.767   6.588  1.00  0.00     0.034 C 
ATOM     38  C   UNL     1      -3.064   4.994   5.406  1.00  0.00     0.034 C 
ENDBRANCH  33  35
ENDBRANCH  30  31
ENDBRANCH  28  30
ENDBRANCH   9  23
ENDBRANCH   4   6
ENDBRANCH   3   4
ENDBRANCH   2   3
ENDBRANCH   1   2
BRANCH   1  39
ATOM     39  O   UNL     1       4.046   3.200  -3.947  1.00  0.00    -0.374 OA
BRANCH  39  40
ATOM     40  C   UNL     1       4.427   4.462  -4.433  1.00  0.00     0.202 C 
BRANCH  40  41
ATOM     41  C   UNL     1       4.527   4.425  -5.955  1.00  0.00     0.261 C 
BRANCH  41  42
ATOM     42  O   UNL     1       5.458   3.382  -6.339  1.00  0.00    -0.460 OA
BRANCH  42  43
ATOM     43  C   UNL     1       4.903   2.229  -6.819  1.00  0.00     0.338 C 
ATOM     44  O   UNL     1       4.135   2.173  -7.765  1.00  0.00    -0.246 OA
BRANCH  43  45
ATOM     45  C   UNL     1       5.240   1.060  -5.941  1.00  0.00     0.060 A 
ATOM     46  C   UNL     1       4.501  -0.140  -6.027  1.00  0.00     0.016 A 
ATOM     47  C   UNL     1       6.079   1.261  -4.851  1.00  0.00     0.016 A 
ATOM     48  C   UNL     1       4.487  -1.058  -4.954  1.00  0.00     0.010 A 
ATOM     49  C   UNL     1       5.987   0.407  -3.764  1.00  0.00     0.010 A 
ATOM     50  C   UNL     1       5.163  -0.740  -3.771  1.00  0.00    -0.014 A 
BRANCH  50  51
ATOM     51  C   UNL     1       4.870  -1.274  -2.414  1.00  0.00     0.031 A 
ATOM     52  C   UNL     1       5.962  -1.398  -1.416  1.00  0.00     0.074 A 
ATOM     53  C   UNL     1       3.624  -1.148  -1.909  1.00  0.00     0.049 A 
ATOM     54  N   UNL     1       5.824  -1.431  -0.136  1.00  0.00    -0.248 NA
ATOM     55  C   UNL     1       7.342  -1.560  -1.837  1.00  0.00     0.031 C 
ATOM     56  C   UNL     1       3.317  -0.538  -0.609  1.00  0.00     0.029 A 
ATOM     57  N   UNL     1       2.388  -1.270  -2.494  1.00  0.00    -0.354 N 
ATOM     58  C   UNL     1       7.063  -1.430   0.451  1.00  0.00     0.074 A 
ATOM     59  C   UNL     1       7.974  -1.555  -0.661  1.00  0.00     0.031 C 
ATOM     60  C   UNL     1       1.995  -0.398  -0.509  1.00  0.00     0.029 A 
ATOM     61  C   UNL     1       1.361  -1.088  -1.577  1.00  0.00     0.049 A 
ATOM     62  H   UNL     1       2.246  -1.463  -3.449  1.00  0.00     0.167 HD
ATOM     63  C   UNL     1       7.161  -1.319   1.808  1.00  0.00     0.034 A 
ATOM     64  C   UNL     1       0.368  -1.988  -1.374  1.00  0.00     0.034 A 
ATOM     65  C   UNL     1       5.850  -1.534   2.482  1.00  0.00     0.049 A 
ATOM     66  C   UNL     1       0.763  -2.909  -0.204  1.00  0.00     0.074 A 
ATOM     67  C   UNL     1       5.117  -0.937   3.493  1.00  0.00     0.029 A 
ATOM     68  N   UNL     1       5.026  -2.572   2.021  1.00  0.00    -0.354 N 
ATOM     69  N   UNL     1       1.679  -2.633   0.707  1.00  0.00    -0.248 NA
ATOM     70  C   UNL     1       0.192  -4.231   0.011  1.00  0.00     0.031 C 
ATOM     71  C   UNL     1       3.878  -1.651   3.642  1.00  0.00     0.029 A 
ATOM     72  C   UNL     1       3.817  -2.651   2.686  1.00  0.00     0.049 A 
ATOM     73  H   UNL     1       5.283  -3.184   1.294  1.00  0.00     0.167 HD
ATOM     74  C   UNL     1       1.938  -3.729   1.495  1.00  0.00     0.074 A 
ATOM     75  C   UNL     1       0.957  -4.702   1.014  1.00  0.00     0.031 C 
ATOM     76  C   UNL     1       2.940  -3.800   2.444  1.00  0.00     0.034 A 
BRANCH  63  77
ATOM     77  C   UNL     1       8.464  -1.009   2.562  1.00  0.00     0.023 A 
ATOM     78  C   UNL     1       8.458  -0.943   3.974  1.00  0.00     0.031 A 
ATOM     79  C   UNL     1       9.717  -0.692   1.980  1.00  0.00     0.131 A 
ATOM     80  C   UNL     1       9.611  -0.585   4.713  1.00  0.00     0.055 A 
ATOM     81  C   UNL     1      10.878  -0.407   2.715  1.00  0.00     0.041 A 
ATOM     82  F   UNL     1       9.900  -0.568   0.663  1.00  0.00    -0.206 F 
ATOM     83  C   UNL     1      10.829  -0.340   4.090  1.00  0.00     0.022 A 
BRANCH  80  84
ATOM     84  S   UNL     1       9.492  -0.377   6.511  1.00  0.00     0.124 S 
ATOM     85  O   UNL     1       8.518   0.703   6.631  1.00  0.00    -0.237 OA
ATOM     86  O   UNL     1       9.054  -1.697   6.949  1.00  0.00    -0.237 OA
ATOM     87  O   UNL     1      10.855  -0.019   6.904  1.00  0.00    -0.744 OA
ENDBRANCH  80  84
ENDBRANCH  63  77
BRANCH  64  88
ATOM     88  C   UNL     1      -0.348  -2.160  -2.692  1.00  0.00     0.023 A 
ATOM     89  C   UNL     1      -1.026  -0.970  -3.102  1.00  0.00     0.031 A 
ATOM     90  C   UNL     1       0.264  -2.924  -3.701  1.00  0.00     0.131 A 
ATOM     91  C   UNL     1      -0.774  -0.415  -4.373  1.00  0.00     0.055 A 
ATOM     92  C   UNL     1       0.481  -2.380  -4.981  1.00  0.00     0.041 A 
ATOM     93  F   UNL     1       0.914  -4.055  -3.390  1.00  0.00    -0.206 F 
ATOM     94  C   UNL     1       0.024  -1.096  -5.296  1.00  0.00     0.022 A 
BRANCH  91  95
ATOM     95  S   UNL     1      -1.165   1.353  -4.674  1.00  0.00     0.124 S 
ATOM     96  O   UNL     1      -2.563   1.291  -5.082  1.00  0.00    -0.237 OA
ATOM     97  O   UNL     1      -0.898   1.970  -3.380  1.00  0.00    -0.237 OA
ATOM     98  O   UNL     1      -0.217   1.730  -5.722  1.00  0.00    -0.744 OA
ENDBRANCH  91  95
ENDBRANCH  64  88
BRANCH  76  99
ATOM     99  C   UNL     1       3.250  -5.062   3.236  1.00  0.00     0.023 A 
ATOM    100  C   UNL     1       2.261  -5.991   3.564  1.00  0.00     0.031 A 
ATOM    101  C   UNL     1       4.556  -5.373   3.697  1.00  0.00     0.131 A 
ATOM    102  C   UNL     1       2.598  -7.241   4.107  1.00  0.00     0.055 A 
ATOM    103  C   UNL     1       4.869  -6.568   4.352  1.00  0.00     0.041 A 
ATOM    104  F   UNL     1       5.597  -4.552   3.507  1.00  0.00    -0.206 F 
ATOM    105  C   UNL     1       3.894  -7.536   4.518  1.00  0.00     0.022 A 
BRANCH 102 106
ATOM    106  S   UNL     1       1.316  -8.515   4.115  1.00  0.00     0.124 S 
ATOM    107  O   UNL     1       0.230  -7.866   4.842  1.00  0.00    -0.237 OA
ATOM    108  O   UNL     1       1.088  -8.709   2.684  1.00  0.00    -0.237 OA
ATOM    109  O   UNL     1       1.948  -9.638   4.802  1.00  0.00    -0.744 OA
ENDBRANCH 102 106
ENDBRANCH  76  99
ENDBRANCH  50  51
ENDBRANCH  43  45
ENDBRANCH  42  43
ENDBRANCH  41  42
ENDBRANCH  40  41
ENDBRANCH  39  40
ENDBRANCH   1  39
TORSDOF 23
