REMARK SMILES O=C(OCCOCCOC(=O)c1ccc(-c2c3nc(c(-c4cc(S(=O)(=O)[O-])ccc4F)c4ccc([nH]4)c(-c4cc(S(=O)(=O)[O-])ccc4F)c4nc(c(-c5cc(S(=O)(=O)[O-])ccc5F)c5ccc2[nH]5)C=C4)C=C3)cc1)C1=Cc2c(ccc(Cl)c2-c2ccccc2)O[C@H]1C(F)(F)F
REMARK SMILES IDX 7 1 6 2 5 3 4 4 3 5 2 6 1 7 75 8 76 9 91 10 77 11 90 12
REMARK SMILES IDX 78 13 83 14 79 15 81 16 80 17 82 18 92 19 93 20 94 21 95 22
REMARK SMILES IDX 84 23 85 24 89 25 86 26 88 27 87 28 8 29 9 30 10 31 11 32
REMARK SMILES IDX 12 33 13 34 74 35 14 36 73 37 15 38 16 39 17 40 67 41 18 42
REMARK SMILES IDX 72 43 66 44 68 45 19 46 71 47 65 48 64 49 20 51 52 52 32 53
REMARK SMILES IDX 51 54 33 55 36 56 50 57 69 58 34 59 35 60 49 62 70 63 37 64
REMARK SMILES IDX 21 65 22 66 30 67 23 68 29 69 31 70 28 71 24 72 25 73 26 74
REMARK SMILES IDX 27 75 53 76 54 77 62 78 55 79 61 80 63 81 60 82 56 83 57 84
REMARK SMILES IDX 58 85 59 86 38 87 39 88 47 89 40 90 46 91 48 92 45 93 41 94
REMARK SMILES IDX 42 95 43 96 44 97
REMARK H PARENT 68 50 36 61
REMARK Flexibility Score: inf
ROOT
ATOM      1  C   UNL     1       0.871  -2.283   1.763  1.00  0.00     0.202 C 
ENDROOT
BRANCH   1   2
ATOM      2  O   UNL     1       0.908  -2.769   0.413  1.00  0.00    -0.374 OA
BRANCH   2   3
ATOM      3  C   UNL     1       1.757  -2.121  -0.506  1.00  0.00     0.202 C 
BRANCH   3   4
ATOM      4  C   UNL     1       1.401  -0.659  -0.848  1.00  0.00     0.261 C 
BRANCH   4   5
ATOM      5  O   UNL     1       1.530  -0.402  -2.259  1.00  0.00    -0.460 OA
BRANCH   5   6
ATOM      6  C   UNL     1       2.698  -0.274  -2.927  1.00  0.00     0.338 C 
ATOM      7  O   UNL     1       2.687  -0.002  -4.125  1.00  0.00    -0.246 OA
BRANCH   6   8
ATOM      8  C   UNL     1       4.006  -0.469  -2.258  1.00  0.00     0.087 C 
ATOM      9  C   UNL     1       4.225  -0.914  -1.012  1.00  0.00     0.028 C 
ATOM     10  C   UNL     1       5.189  -0.580  -3.185  1.00  0.00     0.316 C 
ATOM     11  C   UNL     1       5.273  -0.146  -0.345  1.00  0.00     0.027 A 
ATOM     12  O   UNL     1       6.444  -0.225  -2.511  1.00  0.00    -0.475 OA
ATOM     13  C   UNL     1       6.347   0.213  -1.204  1.00  0.00     0.128 A 
ATOM     14  C   UNL     1       5.107   0.323   0.990  1.00  0.00     0.011 A 
ATOM     15  C   UNL     1       7.326   1.067  -0.748  1.00  0.00     0.049 A 
ATOM     16  C   UNL     1       6.017   1.350   1.309  1.00  0.00     0.049 A 
ATOM     17  C   UNL     1       7.131   1.669   0.490  1.00  0.00     0.025 A 
ATOM     18  Cl  UNL     1       5.761   2.454   2.600  1.00  0.00    -0.084 Cl
BRANCH  10  19
ATOM     19  C   UNL     1       5.225  -2.021  -3.752  1.00  0.00     0.430 C 
ATOM     20  F   UNL     1       3.998  -2.610  -3.732  1.00  0.00    -0.167 F 
ATOM     21  F   UNL     1       5.658  -2.064  -5.029  1.00  0.00    -0.167 F 
ATOM     22  F   UNL     1       6.028  -2.827  -3.015  1.00  0.00    -0.167 F 
ENDBRANCH  10  19
BRANCH  14  23
ATOM     23  C   UNL     1       4.051  -0.244   1.955  1.00  0.00    -0.016 A 
ATOM     24  C   UNL     1       2.979   0.814   2.962  1.00  0.00     0.009 A 
ATOM     25  C   UNL     1       3.877  -2.040   2.138  1.00  0.00     0.009 A 
ATOM     26  C   UNL     1       1.828   0.123   4.187  1.00  0.00     0.001 A 
ATOM     27  C   UNL     1       2.720  -2.763   3.341  1.00  0.00     0.001 A 
ATOM     28  C   UNL     1       1.683  -1.672   4.367  1.00  0.00     0.000 A 
ENDBRANCH  14  23
ENDBRANCH   6   8
ENDBRANCH   5   6
ENDBRANCH   4   5
ENDBRANCH   3   4
ENDBRANCH   2   3
ENDBRANCH   1   2
BRANCH   1  29
ATOM     29  C   UNL     1       1.873  -1.060   2.255  1.00  0.00     0.261 C 
BRANCH  29  30
ATOM     30  O   UNL     1       3.326  -0.959   3.649  1.00  0.00    -0.460 OA
BRANCH  30  31
ATOM     31  C   UNL     1       4.274  -1.313   4.634  1.00  0.00     0.338 C 
ATOM     32  O   UNL     1       4.598  -2.424   5.041  1.00  0.00    -0.246 OA
BRANCH  31  33
ATOM     33  C   UNL     1       4.905  -0.117   5.185  1.00  0.00     0.060 A 
ATOM     34  C   UNL     1       6.241   0.123   4.872  1.00  0.00     0.016 A 
ATOM     35  C   UNL     1       4.172   0.736   6.019  1.00  0.00     0.016 A 
ATOM     36  C   UNL     1       6.848   1.259   5.381  1.00  0.00     0.010 A 
ATOM     37  C   UNL     1       4.751   1.905   6.472  1.00  0.00     0.010 A 
ATOM     38  C   UNL     1       6.103   2.136   6.187  1.00  0.00    -0.014 A 
BRANCH  38  39
ATOM     39  C   UNL     1       6.830   3.064   7.058  1.00  0.00     0.031 A 
ATOM     40  C   UNL     1       7.238   2.505   8.387  1.00  0.00     0.074 A 
ATOM     41  C   UNL     1       7.091   4.319   6.669  1.00  0.00     0.049 A 
ATOM     42  N   UNL     1       7.881   3.075   9.364  1.00  0.00    -0.248 NA
ATOM     43  C   UNL     1       6.850   1.105   8.654  1.00  0.00     0.031 C 
ATOM     44  C   UNL     1       6.716   4.906   5.384  1.00  0.00     0.029 A 
ATOM     45  N   UNL     1       7.737   5.328   7.324  1.00  0.00    -0.354 N 
ATOM     46  C   UNL     1       7.982   2.101  10.351  1.00  0.00     0.074 A 
ATOM     47  C   UNL     1       7.286   0.928   9.886  1.00  0.00     0.031 C 
ATOM     48  C   UNL     1       7.155   6.176   5.337  1.00  0.00     0.029 A 
ATOM     49  C   UNL     1       7.803   6.496   6.604  1.00  0.00     0.049 A 
ATOM     50  H   UNL     1       8.119   5.227   8.226  1.00  0.00     0.167 HD
ATOM     51  C   UNL     1       8.614   2.187  11.542  1.00  0.00     0.034 A 
ATOM     52  C   UNL     1       8.324   7.685   6.961  1.00  0.00     0.034 A 
ATOM     53  C   UNL     1       9.242   3.401  11.985  1.00  0.00     0.049 A 
ATOM     54  C   UNL     1       8.960   7.779   8.328  1.00  0.00     0.074 A 
ATOM     55  C   UNL     1       9.885   3.659  13.178  1.00  0.00     0.029 A 
ATOM     56  N   UNL     1       9.278   4.579  11.243  1.00  0.00    -0.354 N 
ATOM     57  N   UNL     1       9.077   6.851   9.255  1.00  0.00    -0.248 NA
ATOM     58  C   UNL     1       9.548   9.070   8.691  1.00  0.00     0.031 C 
ATOM     59  C   UNL     1      10.246   5.011  13.187  1.00  0.00     0.029 A 
ATOM     60  C   UNL     1       9.912   5.574  11.962  1.00  0.00     0.049 A 
ATOM     61  H   UNL     1       8.906   4.687  10.338  1.00  0.00     0.167 HD
ATOM     62  C   UNL     1       9.793   7.436  10.294  1.00  0.00     0.074 A 
ATOM     63  C   UNL     1      10.087   8.792   9.869  1.00  0.00     0.031 C 
ATOM     64  C   UNL     1      10.180   6.914  11.488  1.00  0.00     0.034 A 
BRANCH  51  65
ATOM     65  C   UNL     1       8.559   0.970  12.430  1.00  0.00     0.023 A 
ATOM     66  C   UNL     1       9.116  -0.262  12.034  1.00  0.00     0.031 A 
ATOM     67  C   UNL     1       7.845   1.011  13.638  1.00  0.00     0.131 A 
ATOM     68  C   UNL     1       8.878  -1.415  12.797  1.00  0.00     0.055 A 
ATOM     69  C   UNL     1       7.685  -0.123  14.436  1.00  0.00     0.041 A 
ATOM     70  F   UNL     1       7.253   2.145  14.045  1.00  0.00    -0.206 F 
ATOM     71  C   UNL     1       8.189  -1.349  14.009  1.00  0.00     0.022 A 
BRANCH  68  72
ATOM     72  S   UNL     1       9.336  -3.029  12.103  1.00  0.00     0.124 S 
ATOM     73  O   UNL     1       8.525  -3.070  10.889  1.00  0.00    -0.237 OA
ATOM     74  O   UNL     1      10.774  -2.893  11.906  1.00  0.00    -0.237 OA
ATOM     75  O   UNL     1       8.936  -3.975  13.143  1.00  0.00    -0.744 OA
ENDBRANCH  68  72
ENDBRANCH  51  65
BRANCH  52  76
ATOM     76  C   UNL     1       8.268   8.857   6.042  1.00  0.00     0.023 A 
ATOM     77  C   UNL     1       9.442   9.463   5.568  1.00  0.00     0.031 A 
ATOM     78  C   UNL     1       7.038   9.423   5.660  1.00  0.00     0.131 A 
ATOM     79  C   UNL     1       9.367  10.628   4.788  1.00  0.00     0.055 A 
ATOM     80  C   UNL     1       6.966  10.551   4.838  1.00  0.00     0.041 A 
ATOM     81  F   UNL     1       5.882   8.884   6.077  1.00  0.00    -0.206 F 
ATOM     82  C   UNL     1       8.136  11.170   4.411  1.00  0.00     0.022 A 
BRANCH  79  83
ATOM     83  S   UNL     1      10.906  11.483   4.353  1.00  0.00     0.124 S 
ATOM     84  O   UNL     1      11.489  11.731   5.666  1.00  0.00    -0.237 OA
ATOM     85  O   UNL     1      11.582  10.487   3.528  1.00  0.00    -0.237 OA
ATOM     86  O   UNL     1      10.445  12.671   3.639  1.00  0.00    -0.744 OA
ENDBRANCH  79  83
ENDBRANCH  52  76
BRANCH  64  87
ATOM     87  C   UNL     1      11.021   7.800  12.371  1.00  0.00     0.023 A 
ATOM     88  C   UNL     1      10.516   8.986  12.927  1.00  0.00     0.031 A 
ATOM     89  C   UNL     1      12.356   7.452  12.643  1.00  0.00     0.131 A 
ATOM     90  C   UNL     1      11.365   9.823  13.662  1.00  0.00     0.055 A 
ATOM     91  C   UNL     1      13.172   8.249  13.442  1.00  0.00     0.041 A 
ATOM     92  F   UNL     1      12.887   6.327  12.135  1.00  0.00    -0.206 F 
ATOM     93  C   UNL     1      12.684   9.453  13.941  1.00  0.00     0.022 A 
BRANCH  90  94
ATOM     94  S   UNL     1      10.761  11.466  14.133  1.00  0.00     0.124 S 
ATOM     95  O   UNL     1      10.370  12.026  12.844  1.00  0.00    -0.237 OA
ATOM     96  O   UNL     1       9.669  11.146  15.046  1.00  0.00    -0.237 OA
ATOM     97  O   UNL     1      11.926  12.093  14.755  1.00  0.00    -0.744 OA
ENDBRANCH  90  94
ENDBRANCH  64  87
ENDBRANCH  38  39
ENDBRANCH  31  33
ENDBRANCH  30  31
ENDBRANCH  29  30
ENDBRANCH   1  29
TORSDOF 19
