REMARK SMILES O=C(OCCOCCOC(=O)c1ccc(-c2c3nc(c(-c4cc(S(=O)(=O)[O-])ccc4F)c4ccc([nH]4)c(-c4cc(S(=O)(=O)[O-])ccc4F)c4nc(c(-c5cc(S(=O)(=O)[O-])ccc5F)c5ccc2[nH]5)C=C4)C=C3)cc1)C1=Cc2cc(Cl)cc(-c3ccc(CO)cc3)c2O[C@@H]1C(F)(F)F
REMARK SMILES IDX 6 1 5 2 4 3 3 4 2 5 1 6 75 7 76 8 93 9 77 10 92 11 78 12
REMARK SMILES IDX 91 13 79 14 82 15 80 16 81 17 94 18 95 19 96 20 97 21 83 22
REMARK SMILES IDX 84 23 90 24 85 25 89 26 86 27 87 28 88 29 7 31 8 32 9 33
REMARK SMILES IDX 10 34 11 35 12 36 13 37 74 38 14 39 73 40 15 41 16 42 17 43
REMARK SMILES IDX 67 44 18 45 72 46 66 47 68 48 19 49 71 50 65 51 64 52 20 54
REMARK SMILES IDX 52 55 32 56 51 57 33 58 36 59 50 60 69 61 34 62 35 63 49 65
REMARK SMILES IDX 70 66 37 67 21 68 22 69 30 70 23 71 29 72 31 73 28 74 24 75
REMARK SMILES IDX 25 76 26 77 27 78 53 79 54 80 62 81 55 82 61 83 63 84 60 85
REMARK SMILES IDX 56 86 57 87 58 88 59 89 38 90 39 91 47 92 40 93 46 94 48 95
REMARK SMILES IDX 45 96 41 97 42 98 43 99 44 100
REMARK H PARENT 88 30 68 53 36 64
REMARK Flexibility Score: inf
ROOT
ATOM      1  O   UNL     1       3.905  -1.295  -2.194  1.00  0.00    -0.374 OA
ENDROOT
BRANCH   1   2
ATOM      2  C   UNL     1       4.379  -0.125  -1.117  1.00  0.00     0.202 C 
BRANCH   2   3
ATOM      3  C   UNL     1       3.571   0.311   0.857  1.00  0.00     0.261 C 
BRANCH   3   4
ATOM      4  O   UNL     1       2.593   1.503   1.192  1.00  0.00    -0.460 OA
BRANCH   4   5
ATOM      5  C   UNL     1       2.697   2.537   0.348  1.00  0.00     0.338 C 
ATOM      6  O   UNL     1       2.054   3.550   0.254  1.00  0.00    -0.246 OA
BRANCH   5   7
ATOM      7  C   UNL     1       3.563   1.849  -0.570  1.00  0.00     0.087 C 
ATOM      8  C   UNL     1       4.944   1.841  -0.088  1.00  0.00     0.027 C 
ATOM      9  C   UNL     1       2.467   0.275  -0.820  1.00  0.00     0.316 C 
ATOM     10  C   UNL     1       5.765   0.369   0.545  1.00  0.00     0.019 A 
ATOM     11  O   UNL     1       3.337  -1.327  -0.116  1.00  0.00    -0.475 OA
ATOM     12  C   UNL     1       6.970   0.604   1.153  1.00  0.00     0.032 A 
ATOM     13  C   UNL     1       5.013  -1.211   0.629  1.00  0.00     0.135 A 
ATOM     14  C   UNL     1       7.485  -0.472   1.867  1.00  0.00     0.042 A 
ATOM     15  C   UNL     1       5.690  -2.273   1.307  1.00  0.00     0.026 A 
ATOM     16  Cl  UNL     1       8.997  -0.223   2.676  1.00  0.00    -0.084 Cl
ATOM     17  C   UNL     1       6.871  -1.777   1.968  1.00  0.00     0.033 A 
BRANCH   9  18
ATOM     18  C   UNL     1       1.949   0.730  -2.289  1.00  0.00     0.430 C 
ATOM     19  F   UNL     1       0.917   0.012  -2.781  1.00  0.00    -0.167 F 
ATOM     20  F   UNL     1       1.444   1.998  -2.188  1.00  0.00    -0.167 F 
ATOM     21  F   UNL     1       2.905   0.830  -3.240  1.00  0.00    -0.167 F 
ENDBRANCH   9  18
BRANCH  15  22
ATOM     22  C   UNL     1       5.410  -3.863   1.442  1.00  0.00    -0.015 A 
ATOM     23  C   UNL     1       3.935  -3.987   2.491  1.00  0.00     0.009 A 
ATOM     24  C   UNL     1       5.937  -5.559   0.451  1.00  0.00     0.009 A 
ATOM     25  C   UNL     1       3.055  -5.519   2.563  1.00  0.00     0.007 A 
ATOM     26  C   UNL     1       4.926  -7.031   0.601  1.00  0.00     0.007 A 
ATOM     27  C   UNL     1       3.537  -6.971   1.656  1.00  0.00    -0.023 A 
BRANCH  27  28
ATOM     28  C   UNL     1       2.935  -8.307   1.992  1.00  0.00     0.191 C 
BRANCH  28  29
ATOM     29  O   UNL     1       3.778  -8.990   2.907  1.00  0.00    -0.392 OA
ATOM     30  H   UNL     1       4.651  -9.121   2.506  1.00  0.00     0.211 HD
ENDBRANCH  28  29
ENDBRANCH  27  28
ENDBRANCH  15  22
ENDBRANCH   5   7
ENDBRANCH   4   5
ENDBRANCH   3   4
ENDBRANCH   2   3
ENDBRANCH   1   2
BRANCH   1  31
ATOM     31  C   UNL     1       2.600  -1.841  -2.547  1.00  0.00     0.202 C 
BRANCH  31  32
ATOM     32  C   UNL     1       2.485  -3.344  -2.821  1.00  0.00     0.261 C 
BRANCH  32  33
ATOM     33  O   UNL     1       3.154  -4.043  -1.807  1.00  0.00    -0.460 OA
BRANCH  33  34
ATOM     34  C   UNL     1       4.482  -3.928  -1.980  1.00  0.00     0.338 C 
ATOM     35  O   UNL     1       5.116  -3.653  -2.981  1.00  0.00    -0.246 OA
BRANCH  34  36
ATOM     36  C   UNL     1       5.042  -4.101  -0.672  1.00  0.00     0.060 A 
ATOM     37  C   UNL     1       6.777  -3.765  -0.448  1.00  0.00     0.016 A 
ATOM     38  C   UNL     1       4.154  -5.020   0.619  1.00  0.00     0.016 A 
ATOM     39  C   UNL     1       7.695  -4.347   0.969  1.00  0.00     0.010 A 
ATOM     40  C   UNL     1       5.254  -5.626   2.200  1.00  0.00     0.010 A 
ATOM     41  C   UNL     1       6.993  -5.279   2.272  1.00  0.00    -0.014 A 
BRANCH  41  42
ATOM     42  C   UNL     1       7.723  -6.114   3.276  1.00  0.00     0.031 A 
ATOM     43  C   UNL     1       8.039  -7.583   3.018  1.00  0.00     0.074 A 
ATOM     44  C   UNL     1       7.748  -5.674   4.544  1.00  0.00     0.049 A 
ATOM     45  N   UNL     1       8.428  -8.525   3.848  1.00  0.00    -0.248 NA
ATOM     46  C   UNL     1       7.794  -8.086   1.663  1.00  0.00     0.031 C 
ATOM     47  C   UNL     1       7.237  -4.380   4.987  1.00  0.00     0.029 A 
ATOM     48  N   UNL     1       8.160  -6.285   5.700  1.00  0.00    -0.354 N 
ATOM     49  C   UNL     1       8.438  -9.719   3.119  1.00  0.00     0.074 A 
ATOM     50  C   UNL     1       7.902  -9.398   1.816  1.00  0.00     0.031 C 
ATOM     51  C   UNL     1       7.379  -4.284   6.317  1.00  0.00     0.029 A 
ATOM     52  C   UNL     1       7.984  -5.511   6.821  1.00  0.00     0.049 A 
ATOM     53  H   UNL     1       8.545  -7.191   5.724  1.00  0.00     0.167 HD
ATOM     54  C   UNL     1       8.907 -10.948   3.471  1.00  0.00     0.034 A 
ATOM     55  C   UNL     1       8.295  -5.756   8.107  1.00  0.00     0.034 A 
ATOM     56  C   UNL     1       9.489 -11.227   4.764  1.00  0.00     0.049 A 
ATOM     57  C   UNL     1       8.973  -7.055   8.455  1.00  0.00     0.074 A 
ATOM     58  C   UNL     1      10.158 -12.362   5.193  1.00  0.00     0.029 A 
ATOM     59  N   UNL     1       9.470 -10.352   5.841  1.00  0.00    -0.354 N 
ATOM     60  N   UNL     1       9.167  -8.115   7.704  1.00  0.00    -0.248 NA
ATOM     61  C   UNL     1       9.525  -7.165   9.809  1.00  0.00     0.031 C 
ATOM     62  C   UNL     1      10.496 -12.192   6.541  1.00  0.00     0.029 A 
ATOM     63  C   UNL     1      10.113 -10.919   6.930  1.00  0.00     0.049 A 
ATOM     64  H   UNL     1       9.060  -9.457   5.832  1.00  0.00     0.167 HD
ATOM     65  C   UNL     1       9.900  -9.003   8.487  1.00  0.00     0.074 A 
ATOM     66  C   UNL     1      10.141  -8.335   9.750  1.00  0.00     0.031 C 
ATOM     67  C   UNL     1      10.335 -10.255   8.191  1.00  0.00     0.034 A 
BRANCH  54  68
ATOM     68  C   UNL     1       8.891 -12.065   2.434  1.00  0.00     0.023 A 
ATOM     69  C   UNL     1       9.520 -11.908   1.186  1.00  0.00     0.031 A 
ATOM     70  C   UNL     1       8.295 -13.314   2.696  1.00  0.00     0.131 A 
ATOM     71  C   UNL     1       9.462 -12.927   0.222  1.00  0.00     0.055 A 
ATOM     72  C   UNL     1       8.329 -14.364   1.770  1.00  0.00     0.041 A 
ATOM     73  F   UNL     1       7.672 -13.546   3.863  1.00  0.00    -0.206 F 
ATOM     74  C   UNL     1       8.899 -14.168   0.516  1.00  0.00     0.022 A 
BRANCH  71  75
ATOM     75  S   UNL     1      10.007 -12.543  -1.464  1.00  0.00     0.124 S 
ATOM     76  O   UNL     1       9.115 -11.439  -1.813  1.00  0.00    -0.237 OA
ATOM     77  O   UNL     1      11.409 -12.191  -1.270  1.00  0.00    -0.237 OA
ATOM     78  O   UNL     1       9.768 -13.785  -2.195  1.00  0.00    -0.744 OA
ENDBRANCH  71  75
ENDBRANCH  54  68
BRANCH  55  79
ATOM     79  C   UNL     1       8.082  -4.700   9.134  1.00  0.00     0.023 A 
ATOM     80  C   UNL     1       9.182  -4.065   9.728  1.00  0.00     0.031 A 
ATOM     81  C   UNL     1       6.795  -4.311   9.540  1.00  0.00     0.131 A 
ATOM     82  C   UNL     1       8.983  -3.126  10.748  1.00  0.00     0.055 A 
ATOM     83  C   UNL     1       6.599  -3.327  10.511  1.00  0.00     0.041 A 
ATOM     84  F   UNL     1       5.708  -4.866   8.980  1.00  0.00    -0.206 F 
ATOM     85  C   UNL     1       7.699  -2.741  11.135  1.00  0.00     0.022 A 
BRANCH  82  86
ATOM     86  S   UNL     1      10.436  -2.497  11.631  1.00  0.00     0.124 S 
ATOM     87  O   UNL     1      11.065  -3.732  12.085  1.00  0.00    -0.237 OA
ATOM     88  O   UNL     1      11.137  -1.769  10.578  1.00  0.00    -0.237 OA
ATOM     89  O   UNL     1       9.857  -1.665  12.684  1.00  0.00    -0.744 OA
ENDBRANCH  82  86
ENDBRANCH  55  79
BRANCH  67  90
ATOM     90  C   UNL     1      11.153 -10.960   9.247  1.00  0.00     0.023 A 
ATOM     91  C   UNL     1      10.619 -11.257  10.513  1.00  0.00     0.031 A 
ATOM     92  C   UNL     1      12.500 -11.283   9.008  1.00  0.00     0.131 A 
ATOM     93  C   UNL     1      11.453 -11.756  11.523  1.00  0.00     0.055 A 
ATOM     94  C   UNL     1      13.302 -11.866   9.991  1.00  0.00     0.041 A 
ATOM     95  F   UNL     1      13.068 -11.022   7.819  1.00  0.00    -0.206 F 
ATOM     96  C   UNL     1      12.786 -12.083  11.265  1.00  0.00     0.022 A 
BRANCH  93  97
ATOM     97  S   UNL     1      10.812 -11.810  13.219  1.00  0.00     0.124 S 
ATOM     98  O   UNL     1      10.414 -10.423  13.433  1.00  0.00    -0.237 OA
ATOM     99  O   UNL     1       9.725 -12.777  13.110  1.00  0.00    -0.237 OA
ATOM    100  O   UNL     1      11.962 -12.254  14.004  1.00  0.00    -0.744 OA
ENDBRANCH  93  97
ENDBRANCH  67  90
ENDBRANCH  41  42
ENDBRANCH  34  36
ENDBRANCH  33  34
ENDBRANCH  32  33
ENDBRANCH  31  32
ENDBRANCH   1  31
TORSDOF 21
