REMARK SMILES CCc1cc(OCC(=O)OCCOCCOC(=O)c2ccc(-c3c4nc(c(-c5cc(S(=O)(=O)[O-])ccc5F)c5ccc([nH]5)c(-c5cc(S(=O)(=O)[O-])ccc5F)c5nc(c(-c6cc(S(=O)(=O)[O-])ccc6F)c6ccc3[nH]6)C=C5)C=C4)cc2)nc(Nc2ccc(C)c(F)c2)n1
REMARK SMILES IDX 12 1 11 2 10 3 8 4 9 5 7 6 6 7 5 8 3 9 4 10 93 11 83 12
REMARK SMILES IDX 82 13 2 14 1 15 84 16 85 18 86 19 92 20 87 21 90 22 88 23
REMARK SMILES IDX 91 24 89 25 13 26 14 27 15 28 16 29 17 30 18 31 19 32 20 33
REMARK SMILES IDX 81 34 21 35 80 36 22 37 23 38 24 39 74 40 25 41 79 42 73 43
REMARK SMILES IDX 75 44 26 45 78 46 72 47 71 48 27 50 59 51 39 52 58 53 40 54
REMARK SMILES IDX 43 55 57 56 76 57 41 58 42 59 56 61 77 62 44 63 28 64 29 65
REMARK SMILES IDX 37 66 30 67 36 68 38 69 35 70 31 71 32 72 33 73 34 74 60 75
REMARK SMILES IDX 61 76 69 77 62 78 68 79 70 80 67 81 63 82 64 83 65 84 66 85
REMARK SMILES IDX 45 86 46 87 54 88 47 89 53 90 55 91 52 92 48 93 49 94 50 95
REMARK SMILES IDX 51 96
REMARK H PARENT 84 17 75 49 43 60
REMARK Flexibility Score: inf
ROOT
ATOM      1  C   UNL     1       0.550   3.303  -3.388  1.00  0.00     0.202 C 
ENDROOT
BRANCH   1   2
ATOM      2  C   UNL     1      -0.275   4.561  -3.068  1.00  0.00     0.261 C 
BRANCH   2   3
ATOM      3  O   UNL     1      -0.276   4.926  -1.668  1.00  0.00    -0.461 OA
BRANCH   3   4
ATOM      4  C   UNL     1      -1.482   4.871  -1.035  1.00  0.00     0.344 C 
ATOM      5  O   UNL     1      -2.550   4.618  -1.585  1.00  0.00    -0.248 OA
BRANCH   4   6
ATOM      6  C   UNL     1      -1.407   5.148   0.474  1.00  0.00     0.353 C 
BRANCH   6   7
ATOM      7  O   UNL     1      -0.191   5.039   1.179  1.00  0.00    -0.466 OA
BRANCH   7   8
ATOM      8  C   UNL     1       0.161   3.908   1.854  1.00  0.00     0.218 A 
ATOM      9  C   UNL     1       0.246   1.604   2.310  1.00  0.00     0.050 A 
ATOM     10  C   UNL     1      -0.453   2.673   1.768  1.00  0.00     0.092 A 
ATOM     11  N   UNL     1       1.411   1.780   2.962  1.00  0.00    -0.218 NA
ATOM     12  C   UNL     1       1.897   3.022   3.080  1.00  0.00     0.230 A 
ATOM     13  N   UNL     1       1.298   4.093   2.549  1.00  0.00    -0.177 NA
BRANCH   9  14
ATOM     14  C   UNL     1      -0.176   0.165   2.124  1.00  0.00     0.053 C 
ATOM     15  C   UNL     1       0.739  -0.635   1.195  1.00  0.00     0.011 C 
ENDBRANCH   9  14
BRANCH  12  16
ATOM     16  N   UNL     1       3.061   3.245   3.807  1.00  0.00    -0.324 N 
ATOM     17  H   UNL     1       3.247   4.185   4.032  1.00  0.00     0.170 HD
BRANCH  16  18
ATOM     18  C   UNL     1       4.001   2.318   4.262  1.00  0.00     0.044 A 
ATOM     19  C   UNL     1       4.369   2.311   5.613  1.00  0.00     0.026 A 
ATOM     20  C   UNL     1       4.559   1.357   3.414  1.00  0.00     0.065 A 
ATOM     21  C   UNL     1       5.245   1.341   6.115  1.00  0.00     0.008 A 
ATOM     22  C   UNL     1       5.453   0.411   3.911  1.00  0.00     0.128 A 
ATOM     23  C   UNL     1       5.798   0.378   5.263  1.00  0.00    -0.015 A 
ATOM     24  F   UNL     1       5.976  -0.489   3.067  1.00  0.00    -0.207 F 
ATOM     25  C   UNL     1       6.706  -0.681   5.807  1.00  0.00     0.047 C 
ENDBRANCH  16  18
ENDBRANCH  12  16
ENDBRANCH   7   8
ENDBRANCH   6   7
ENDBRANCH   4   6
ENDBRANCH   3   4
ENDBRANCH   2   3
ENDBRANCH   1   2
BRANCH   1  26
ATOM     26  O   UNL     1       0.185   2.090  -2.731  1.00  0.00    -0.374 OA
BRANCH  26  27
ATOM     27  C   UNL     1       0.346   2.048  -1.323  1.00  0.00     0.202 C 
BRANCH  27  28
ATOM     28  C   UNL     1       1.758   1.978  -0.742  1.00  0.00     0.261 C 
BRANCH  28  29
ATOM     29  O   UNL     1       2.651   2.931  -1.280  1.00  0.00    -0.460 OA
BRANCH  29  30
ATOM     30  C   UNL     1       3.654   2.369  -1.982  1.00  0.00     0.338 C 
ATOM     31  O   UNL     1       3.853   1.187  -2.215  1.00  0.00    -0.246 OA
BRANCH  30  32
ATOM     32  C   UNL     1       4.404   3.464  -2.572  1.00  0.00     0.060 A 
ATOM     33  C   UNL     1       4.481   3.504  -3.964  1.00  0.00     0.016 A 
ATOM     34  C   UNL     1       5.013   4.421  -1.756  1.00  0.00     0.016 A 
ATOM     35  C   UNL     1       5.241   4.491  -4.559  1.00  0.00     0.010 A 
ATOM     36  C   UNL     1       5.768   5.415  -2.356  1.00  0.00     0.010 A 
ATOM     37  C   UNL     1       5.917   5.417  -3.752  1.00  0.00    -0.014 A 
BRANCH  37  38
ATOM     38  C   UNL     1       6.936   6.277  -4.369  1.00  0.00     0.031 A 
ATOM     39  C   UNL     1       8.373   5.881  -4.213  1.00  0.00     0.074 A 
ATOM     40  C   UNL     1       6.555   7.350  -5.077  1.00  0.00     0.049 A 
ATOM     41  N   UNL     1       9.448   6.488  -4.633  1.00  0.00    -0.248 NA
ATOM     42  C   UNL     1       8.631   4.635  -3.471  1.00  0.00     0.031 C 
ATOM     43  C   UNL     1       5.168   7.759  -5.304  1.00  0.00     0.029 A 
ATOM     44  N   UNL     1       7.299   8.285  -5.738  1.00  0.00    -0.354 N 
ATOM     45  C   UNL     1      10.511   5.701  -4.205  1.00  0.00     0.074 A 
ATOM     46  C   UNL     1       9.953   4.605  -3.444  1.00  0.00     0.031 C 
ATOM     47  C   UNL     1       5.162   8.866  -6.064  1.00  0.00     0.029 A 
ATOM     48  C   UNL     1       6.541   9.264  -6.331  1.00  0.00     0.049 A 
ATOM     49  H   UNL     1       8.282   8.260  -5.784  1.00  0.00     0.167 HD
ATOM     50  C   UNL     1      11.831   5.878  -4.446  1.00  0.00     0.034 A 
ATOM     51  C   UNL     1       6.935  10.366  -6.995  1.00  0.00     0.034 A 
ATOM     52  C   UNL     1      12.341   6.998  -5.195  1.00  0.00     0.049 A 
ATOM     53  C   UNL     1       8.415  10.594  -7.169  1.00  0.00     0.074 A 
ATOM     54  C   UNL     1      13.651   7.308  -5.506  1.00  0.00     0.029 A 
ATOM     55  N   UNL     1      11.551   8.005  -5.744  1.00  0.00    -0.354 N 
ATOM     56  N   UNL     1       9.420   9.850  -6.760  1.00  0.00    -0.248 NA
ATOM     57  C   UNL     1       8.816  11.799  -7.901  1.00  0.00     0.031 C 
ATOM     58  C   UNL     1      13.659   8.537  -6.173  1.00  0.00     0.029 A 
ATOM     59  C   UNL     1      12.349   8.952  -6.364  1.00  0.00     0.049 A 
ATOM     60  H   UNL     1      10.569   8.039  -5.699  1.00  0.00     0.167 HD
ATOM     61  C   UNL     1      10.572  10.480  -7.221  1.00  0.00     0.074 A 
ATOM     62  C   UNL     1      10.133  11.659  -7.943  1.00  0.00     0.031 C 
ATOM     63  C   UNL     1      11.873  10.119  -7.072  1.00  0.00     0.034 A 
BRANCH  50  64
ATOM     64  C   UNL     1      12.786   4.876  -3.843  1.00  0.00     0.023 A 
ATOM     65  C   UNL     1      12.739   3.511  -4.181  1.00  0.00     0.031 A 
ATOM     66  C   UNL     1      13.715   5.277  -2.868  1.00  0.00     0.131 A 
ATOM     67  C   UNL     1      13.541   2.589  -3.492  1.00  0.00     0.055 A 
ATOM     68  C   UNL     1      14.575   4.367  -2.249  1.00  0.00     0.041 A 
ATOM     69  F   UNL     1      13.788   6.560  -2.479  1.00  0.00    -0.206 F 
ATOM     70  C   UNL     1      14.479   3.011  -2.547  1.00  0.00     0.022 A 
BRANCH  67  71
ATOM     71  S   UNL     1      13.226   0.818  -3.729  1.00  0.00     0.124 S 
ATOM     72  O   UNL     1      11.825   0.712  -3.328  1.00  0.00    -0.237 OA
ATOM     73  O   UNL     1      13.500   0.635  -5.149  1.00  0.00    -0.237 OA
ATOM     74  O   UNL     1      14.176   0.176  -2.822  1.00  0.00    -0.744 OA
ENDBRANCH  67  71
ENDBRANCH  50  64
BRANCH  51  75
ATOM     75  C   UNL     1       5.928  11.328  -7.521  1.00  0.00     0.023 A 
ATOM     76  C   UNL     1       5.813  11.570  -8.897  1.00  0.00     0.031 A 
ATOM     77  C   UNL     1       5.082  12.041  -6.652  1.00  0.00     0.131 A 
ATOM     78  C   UNL     1       4.906  12.534  -9.364  1.00  0.00     0.055 A 
ATOM     79  C   UNL     1       4.141  12.958  -7.125  1.00  0.00     0.041 A 
ATOM     80  F   UNL     1       5.146  11.845  -5.326  1.00  0.00    -0.206 F 
ATOM     81  C   UNL     1       4.060  13.219  -8.489  1.00  0.00     0.022 A 
BRANCH  78  82
ATOM     82  S   UNL     1       4.915  12.944 -11.130  1.00  0.00     0.124 S 
ATOM     83  O   UNL     1       6.300  13.353 -11.332  1.00  0.00    -0.237 OA
ATOM     84  O   UNL     1       4.523  11.677 -11.736  1.00  0.00    -0.237 OA
ATOM     85  O   UNL     1       3.926  14.016 -11.233  1.00  0.00    -0.744 OA
ENDBRANCH  78  82
ENDBRANCH  51  75
BRANCH  63  86
ATOM     86  C   UNL     1      12.902  10.981  -7.760  1.00  0.00     0.023 A 
ATOM     87  C   UNL     1      13.147  12.305  -7.362  1.00  0.00     0.031 A 
ATOM     88  C   UNL     1      13.654  10.457  -8.827  1.00  0.00     0.131 A 
ATOM     89  C   UNL     1      14.082  13.080  -8.063  1.00  0.00     0.055 A 
ATOM     90  C   UNL     1      14.631  11.210  -9.475  1.00  0.00     0.041 A 
ATOM     91  F   UNL     1      13.457   9.197  -9.249  1.00  0.00    -0.206 F 
ATOM     92  C   UNL     1      14.841  12.535  -9.102  1.00  0.00     0.022 A 
BRANCH  89  93
ATOM     93  S   UNL     1      14.226  14.842  -7.660  1.00  0.00     0.124 S 
ATOM     94  O   UNL     1      12.870  15.320  -7.907  1.00  0.00    -0.237 OA
ATOM     95  O   UNL     1      14.646  14.810  -6.263  1.00  0.00    -0.237 OA
ATOM     96  O   UNL     1      15.235  15.326  -8.600  1.00  0.00    -0.744 OA
ENDBRANCH  89  93
ENDBRANCH  63  86
ENDBRANCH  37  38
ENDBRANCH  30  32
ENDBRANCH  29  30
ENDBRANCH  28  29
ENDBRANCH  27  28
ENDBRANCH  26  27
ENDBRANCH   1  26
TORSDOF 22
