REMARK SMILES Cc1cc(OC(F)(F)F)cc2c1O[C@H](C(F)(F)F)C(C(=O)OCCOCCOC(=O)c1ccc(-c3c4nc(c(-c5cc(S(=O)(=O)[O-])ccc5F)c5ccc([nH]5)c(-c5cc(S(=O)(=O)[O-])ccc5F)c5nc(c(-c6cc(S(=O)(=O)[O-])ccc6F)c6ccc3[nH]6)C=C5)C=C4)cc1)=C2
REMARK SMILES IDX 26 1 25 2 24 3 23 4 22 5 20 6 21 7 19 8 1 9 2 10 3 11 12 12
REMARK SMILES IDX 4 13 11 14 13 15 10 16 94 17 14 18 5 19 6 20 7 21 8 22 9 23
REMARK SMILES IDX 15 24 16 25 17 26 18 27 27 28 28 29 29 30 30 31 31 32 32 33
REMARK SMILES IDX 93 34 33 35 92 36 34 37 35 38 36 39 86 40 37 41 91 42 85 43
REMARK SMILES IDX 87 44 38 45 90 46 84 47 83 48 39 50 71 51 51 52 70 53 52 54
REMARK SMILES IDX 55 55 69 56 88 57 53 58 54 59 68 61 89 62 56 63 40 64 41 65
REMARK SMILES IDX 49 66 42 67 48 68 50 69 47 70 43 71 44 72 45 73 46 74 72 75
REMARK SMILES IDX 73 76 81 77 74 78 80 79 82 80 79 81 75 82 76 83 77 84 78 85
REMARK SMILES IDX 57 86 58 87 66 88 59 89 65 90 67 91 64 92 60 93 61 94 62 95
REMARK SMILES IDX 63 96
REMARK H PARENT 87 49 55 60
REMARK Flexibility Score: inf
ROOT
ATOM      1  C   UNL     1      -3.603  -2.668  -5.883  1.00  0.00     0.202 C 
ENDROOT
BRANCH   1   2
ATOM      2  O   UNL     1      -3.314  -3.440  -7.052  1.00  0.00    -0.374 OA
BRANCH   2   3
ATOM      3  C   UNL     1      -2.796  -4.755  -6.857  1.00  0.00     0.202 C 
BRANCH   3   4
ATOM      4  C   UNL     1      -1.296  -4.856  -6.570  1.00  0.00     0.261 C 
BRANCH   4   5
ATOM      5  O   UNL     1      -0.929  -4.093  -5.410  1.00  0.00    -0.460 OA
BRANCH   5   6
ATOM      6  C   UNL     1      -0.169  -3.005  -5.667  1.00  0.00     0.338 C 
ATOM      7  O   UNL     1       0.307  -2.680  -6.744  1.00  0.00    -0.246 OA
BRANCH   6   8
ATOM      8  C   UNL     1      -0.090  -2.153  -4.465  1.00  0.00     0.087 C 
ATOM      9  C   UNL     1       0.911  -0.102   0.131  1.00  0.00     0.048 C 
ATOM     10  C   UNL     1       0.550   0.417  -1.235  1.00  0.00    -0.005 A 
ATOM     11  C   UNL     1       0.610   1.804  -1.477  1.00  0.00     0.054 A 
ATOM     12  C   UNL     1       0.253  -0.455  -2.295  1.00  0.00     0.131 A 
ATOM     13  C   UNL     1       0.345   2.320  -2.745  1.00  0.00     0.130 A 
ATOM     14  C   UNL     1       0.015   0.059  -3.569  1.00  0.00     0.021 A 
ATOM     15  O   UNL     1       0.203  -1.792  -2.015  1.00  0.00    -0.475 OA
ATOM     16  C   UNL     1       0.036   1.441  -3.784  1.00  0.00     0.058 A 
ATOM     17  C   UNL     1      -0.183  -0.837  -4.691  1.00  0.00     0.027 C 
ATOM     18  C   UNL     1       0.116  -2.757  -3.103  1.00  0.00     0.316 C 
BRANCH  13  19
ATOM     19  O   UNL     1       0.362   3.634  -3.114  1.00  0.00    -0.406 OA
BRANCH  19  20
ATOM     20  C   UNL     1       0.862   4.576  -2.182  1.00  0.00     0.573 C 
ATOM     21  F   UNL     1       0.073   4.647  -1.090  1.00  0.00    -0.132 F 
ATOM     22  F   UNL     1       2.125   4.277  -1.811  1.00  0.00    -0.132 F 
ATOM     23  F   UNL     1       0.876   5.795  -2.768  1.00  0.00    -0.132 F 
ENDBRANCH  19  20
ENDBRANCH  13  19
BRANCH  18  24
ATOM     24  C   UNL     1       1.355  -3.663  -3.039  1.00  0.00     0.430 C 
ATOM     25  F   UNL     1       1.542  -4.146  -1.789  1.00  0.00    -0.167 F 
ATOM     26  F   UNL     1       1.241  -4.728  -3.864  1.00  0.00    -0.167 F 
ATOM     27  F   UNL     1       2.478  -2.995  -3.391  1.00  0.00    -0.167 F 
ENDBRANCH  18  24
ENDBRANCH   6   8
ENDBRANCH   5   6
ENDBRANCH   4   5
ENDBRANCH   3   4
ENDBRANCH   2   3
ENDBRANCH   1   2
BRANCH   1  28
ATOM     28  C   UNL     1      -4.836  -3.081  -5.069  1.00  0.00     0.261 C 
BRANCH  28  29
ATOM     29  O   UNL     1      -4.612  -4.302  -4.340  1.00  0.00    -0.460 OA
BRANCH  29  30
ATOM     30  C   UNL     1      -5.407  -5.337  -4.703  1.00  0.00     0.338 C 
ATOM     31  O   UNL     1      -6.305  -5.323  -5.532  1.00  0.00    -0.246 OA
BRANCH  30  32
ATOM     32  C   UNL     1      -4.925  -6.581  -4.082  1.00  0.00     0.060 A 
ATOM     33  C   UNL     1      -4.503  -7.615  -4.928  1.00  0.00     0.016 A 
ATOM     34  C   UNL     1      -4.993  -6.772  -2.701  1.00  0.00     0.016 A 
ATOM     35  C   UNL     1      -4.192  -8.864  -4.398  1.00  0.00     0.010 A 
ATOM     36  C   UNL     1      -4.699  -8.033  -2.173  1.00  0.00     0.010 A 
ATOM     37  C   UNL     1      -4.337  -9.092  -3.024  1.00  0.00    -0.014 A 
BRANCH  37  38
ATOM     38  C   UNL     1      -4.271 -10.478  -2.507  1.00  0.00     0.031 A 
ATOM     39  C   UNL     1      -5.547 -11.261  -2.370  1.00  0.00     0.074 A 
ATOM     40  C   UNL     1      -3.091 -11.038  -2.190  1.00  0.00     0.049 A 
ATOM     41  N   UNL     1      -5.722 -12.485  -1.950  1.00  0.00    -0.248 NA
ATOM     42  C   UNL     1      -6.789 -10.574  -2.762  1.00  0.00     0.031 C 
ATOM     43  C   UNL     1      -1.791 -10.383  -2.314  1.00  0.00     0.029 A 
ATOM     44  N   UNL     1      -2.799 -12.283  -1.692  1.00  0.00    -0.354 N 
ATOM     45  C   UNL     1      -7.089 -12.719  -2.031  1.00  0.00     0.074 A 
ATOM     46  C   UNL     1      -7.702 -11.501  -2.509  1.00  0.00     0.031 C 
ATOM     47  C   UNL     1      -0.838 -11.229  -1.889  1.00  0.00     0.029 A 
ATOM     48  C   UNL     1      -1.462 -12.475  -1.441  1.00  0.00     0.049 A 
ATOM     49  H   UNL     1      -3.482 -12.973  -1.531  1.00  0.00     0.167 HD
ATOM     50  C   UNL     1      -7.768 -13.854  -1.743  1.00  0.00     0.034 A 
ATOM     51  C   UNL     1      -0.816 -13.528  -0.899  1.00  0.00     0.034 A 
ATOM     52  C   UNL     1      -7.149 -15.059  -1.260  1.00  0.00     0.049 A 
ATOM     53  C   UNL     1      -1.601 -14.763  -0.530  1.00  0.00     0.074 A 
ATOM     54  C   UNL     1      -7.753 -16.266  -0.959  1.00  0.00     0.029 A 
ATOM     55  N   UNL     1      -5.796 -15.211  -1.003  1.00  0.00    -0.354 N 
ATOM     56  N   UNL     1      -2.886 -14.993  -0.668  1.00  0.00    -0.248 NA
ATOM     57  C   UNL     1      -0.854 -15.884   0.059  1.00  0.00     0.031 C 
ATOM     58  C   UNL     1      -6.774 -17.132  -0.471  1.00  0.00     0.029 A 
ATOM     59  C   UNL     1      -5.548 -16.485  -0.523  1.00  0.00     0.049 A 
ATOM     60  H   UNL     1      -5.112 -14.516  -1.141  1.00  0.00     0.167 HD
ATOM     61  C   UNL     1      -3.095 -16.293  -0.213  1.00  0.00     0.074 A 
ATOM     62  C   UNL     1      -1.803 -16.803   0.195  1.00  0.00     0.031 C 
ATOM     63  C   UNL     1      -4.253 -16.996  -0.143  1.00  0.00     0.034 A 
BRANCH  50  64
ATOM     64  C   UNL     1      -9.259 -13.866  -1.943  1.00  0.00     0.023 A 
ATOM     65  C   UNL     1     -10.117 -13.987  -0.835  1.00  0.00     0.031 A 
ATOM     66  C   UNL     1      -9.821 -13.879  -3.231  1.00  0.00     0.131 A 
ATOM     67  C   UNL     1     -11.492 -14.148  -1.038  1.00  0.00     0.055 A 
ATOM     68  C   UNL     1     -11.196 -14.007  -3.427  1.00  0.00     0.041 A 
ATOM     69  F   UNL     1      -9.040 -13.760  -4.317  1.00  0.00    -0.206 F 
ATOM     70  C   UNL     1     -12.037 -14.153  -2.327  1.00  0.00     0.022 A 
BRANCH  67  71
ATOM     71  S   UNL     1     -12.621 -14.392   0.359  1.00  0.00     0.124 S 
ATOM     72  O   UNL     1     -13.614 -13.345   0.132  1.00  0.00    -0.237 OA
ATOM     73  O   UNL     1     -13.090 -15.756   0.136  1.00  0.00    -0.237 OA
ATOM     74  O   UNL     1     -11.775 -14.196   1.531  1.00  0.00    -0.744 OA
ENDBRANCH  67  71
ENDBRANCH  50  64
BRANCH  51  75
ATOM     75  C   UNL     1       0.661 -13.458  -0.719  1.00  0.00     0.023 A 
ATOM     76  C   UNL     1       1.235 -12.527   0.165  1.00  0.00     0.031 A 
ATOM     77  C   UNL     1       1.519 -14.255  -1.493  1.00  0.00     0.131 A 
ATOM     78  C   UNL     1       2.627 -12.379   0.212  1.00  0.00     0.055 A 
ATOM     79  C   UNL     1       2.907 -14.145  -1.402  1.00  0.00     0.041 A 
ATOM     80  F   UNL     1       1.014 -15.150  -2.356  1.00  0.00    -0.206 F 
ATOM     81  C   UNL     1       3.468 -13.193  -0.555  1.00  0.00     0.022 A 
BRANCH  78  82
ATOM     82  S   UNL     1       3.389 -11.063   1.200  1.00  0.00     0.124 S 
ATOM     83  O   UNL     1       4.345 -11.805   2.016  1.00  0.00    -0.237 OA
ATOM     84  O   UNL     1       3.970 -10.215   0.162  1.00  0.00    -0.237 OA
ATOM     85  O   UNL     1       2.264 -10.480   1.924  1.00  0.00    -0.744 OA
ENDBRANCH  78  82
ENDBRANCH  51  75
BRANCH  63  86
ATOM     86  C   UNL     1      -4.215 -18.412   0.373  1.00  0.00     0.023 A 
ATOM     87  C   UNL     1      -4.556 -19.477  -0.483  1.00  0.00     0.031 A 
ATOM     88  C   UNL     1      -4.018 -18.688   1.736  1.00  0.00     0.131 A 
ATOM     89  C   UNL     1      -4.735 -20.763   0.043  1.00  0.00     0.055 A 
ATOM     90  C   UNL     1      -4.155 -19.979   2.248  1.00  0.00     0.041 A 
ATOM     91  F   UNL     1      -3.703 -17.702   2.591  1.00  0.00    -0.206 F 
ATOM     92  C   UNL     1      -4.529 -21.020   1.402  1.00  0.00     0.022 A 
BRANCH  89  93
ATOM     93  S   UNL     1      -5.312 -22.128  -1.002  1.00  0.00     0.124 S 
ATOM     94  O   UNL     1      -4.268 -23.130  -0.797  1.00  0.00    -0.237 OA
ATOM     95  O   UNL     1      -6.606 -22.445  -0.405  1.00  0.00    -0.237 OA
ATOM     96  O   UNL     1      -5.361 -21.551  -2.341  1.00  0.00    -0.744 OA
ENDBRANCH  89  93
ENDBRANCH  63  86
ENDBRANCH  37  38
ENDBRANCH  30  32
ENDBRANCH  29  30
ENDBRANCH  28  29
ENDBRANCH   1  28
TORSDOF 20
