REMARK SMILES Cc1c(C#N)c2ccccc2n1CC(=O)N1CC[C@H](O)C[C@@H]1C(=O)OCCOCCOC(=O)c1ccc(-c2c3nc(c(-c4cc(S(=O)(=O)[O-])ccc4F)c4ccc([nH]4)c(-c4cc(S(=O)(=O)[O-])ccc4F)c4nc(c(-c5cc(S(=O)(=O)[O-])ccc5F)c5ccc2[nH]5)C=C4)C=C3)cc1
REMARK SMILES IDX 27 1 26 2 25 3 23 4 24 5 22 6 16 7 17 8 18 9 21 10 19 11
REMARK SMILES IDX 14 12 15 13 13 14 12 15 1 16 2 17 3 18 6 19 11 20 7 21 10 22
REMARK SMILES IDX 8 23 9 24 4 25 5 26 20 27 28 29 29 30 30 31 31 32 32 33
REMARK SMILES IDX 33 34 34 35 35 36 96 37 36 38 95 39 37 40 38 41 39 42 89 43
REMARK SMILES IDX 40 44 94 45 88 46 90 47 41 48 93 49 87 50 86 51 42 53 74 54
REMARK SMILES IDX 54 55 73 56 55 57 58 58 72 59 91 60 56 61 57 62 71 64 92 65
REMARK SMILES IDX 59 66 43 67 44 68 52 69 45 70 51 71 53 72 50 73 46 74 47 75
REMARK SMILES IDX 48 76 49 77 75 78 76 79 84 80 77 81 83 82 85 83 82 84 78 85
REMARK SMILES IDX 79 86 80 87 81 88 60 89 61 90 69 91 62 92 68 93 70 94 67 95
REMARK SMILES IDX 63 96 64 97 65 98 66 99
REMARK H PARENT 20 28 90 52 58 63
REMARK Flexibility Score: inf
ROOT
ATOM      1  C   UNL     1      -7.391  -2.545  -1.655  1.00  0.00     0.202 C 
ENDROOT
BRANCH   1   2
ATOM      2  C   UNL     1      -6.962  -2.561  -0.181  1.00  0.00     0.261 C 
BRANCH   2   3
ATOM      3  O   UNL     1      -6.273  -1.389   0.244  1.00  0.00    -0.462 OA
BRANCH   3   4
ATOM      4  C   UNL     1      -4.937  -1.524   0.069  1.00  0.00     0.329 C 
ATOM      5  O   UNL     1      -4.419  -2.483  -0.501  1.00  0.00    -0.250 OA
BRANCH   4   6
ATOM      6  C   UNL     1      -4.152  -0.290   0.539  1.00  0.00     0.197 C 
ATOM      7  N   UNL     1      -2.725  -0.603   0.323  1.00  0.00    -0.327 N 
ATOM      8  C   UNL     1      -2.216  -1.708   1.146  1.00  0.00     0.123 C 
ATOM      9  C   UNL     1      -2.553  -1.538   2.629  1.00  0.00     0.053 C 
ATOM     10  C   UNL     1      -4.379   0.104   1.986  1.00  0.00     0.069 C 
ATOM     11  C   UNL     1      -3.961  -1.020   2.924  1.00  0.00     0.118 C 
BRANCH   7  12
ATOM     12  C   UNL     1      -2.128   0.000  -0.769  1.00  0.00     0.243 C 
ATOM     13  O   UNL     1      -2.460   1.154  -1.085  1.00  0.00    -0.273 OA
BRANCH  12  14
ATOM     14  C   UNL     1      -1.255  -0.758  -1.753  1.00  0.00     0.222 C 
BRANCH  14  15
ATOM     15  N   UNL     1      -0.286  -1.702  -1.228  1.00  0.00    -0.334 N 
ATOM     16  C   UNL     1       1.121   0.010   0.002  1.00  0.00     0.066 C 
ATOM     17  C   UNL     1       0.792  -1.383  -0.422  1.00  0.00     0.034 A 
ATOM     18  C   UNL     1       1.347  -2.586  -0.013  1.00  0.00     0.080 A 
ATOM     19  C   UNL     1       0.653  -3.649  -0.657  1.00  0.00     0.018 A 
ATOM     20  C   UNL     1      -0.339  -3.068  -1.451  1.00  0.00     0.050 A 
ATOM     21  C   UNL     1       0.753  -5.057  -0.621  1.00  0.00     0.012 A 
ATOM     22  C   UNL     1      -1.210  -3.845  -2.236  1.00  0.00     0.027 A 
ATOM     23  C   UNL     1      -0.117  -5.835  -1.392  1.00  0.00     0.001 A 
ATOM     24  C   UNL     1      -1.078  -5.235  -2.195  1.00  0.00     0.002 A 
BRANCH  18  25
ATOM     25  C   UNL     1       2.405  -2.721   0.949  1.00  0.00     0.102 C 
ATOM     26  N   UNL     1       3.246  -2.813   1.733  1.00  0.00    -0.192 NA
ENDBRANCH  18  25
ENDBRANCH  14  15
ENDBRANCH  12  14
ENDBRANCH   7  12
BRANCH  11  27
ATOM     27  O   UNL     1      -4.945  -2.043   2.859  1.00  0.00    -0.393 OA
ATOM     28  H   UNL     1      -4.996  -2.385   1.952  1.00  0.00     0.210 HD
ENDBRANCH  11  27
ENDBRANCH   4   6
ENDBRANCH   3   4
ENDBRANCH   2   3
ENDBRANCH   1   2
BRANCH   1  29
ATOM     29  O   UNL     1      -6.495  -2.075  -2.654  1.00  0.00    -0.374 OA
BRANCH  29  30
ATOM     30  C   UNL     1      -6.141  -0.694  -2.692  1.00  0.00     0.202 C 
BRANCH  30  31
ATOM     31  C   UNL     1      -7.203   0.423  -2.599  1.00  0.00     0.261 C 
BRANCH  31  32
ATOM     32  O   UNL     1      -8.059   0.309  -1.452  1.00  0.00    -0.460 OA
BRANCH  32  33
ATOM     33  C   UNL     1      -9.401   0.326  -1.712  1.00  0.00     0.338 C 
ATOM     34  O   UNL     1      -9.942   0.727  -2.727  1.00  0.00    -0.246 OA
BRANCH  33  35
ATOM     35  C   UNL     1     -10.032  -0.587  -0.727  1.00  0.00     0.060 A 
ATOM     36  C   UNL     1      -9.744  -0.504   0.636  1.00  0.00     0.016 A 
ATOM     37  C   UNL     1     -10.647  -1.734  -1.259  1.00  0.00     0.016 A 
ATOM     38  C   UNL     1      -9.957  -1.628   1.437  1.00  0.00     0.010 A 
ATOM     39  C   UNL     1     -10.787  -2.874  -0.471  1.00  0.00     0.010 A 
ATOM     40  C   UNL     1     -10.390  -2.847   0.866  1.00  0.00    -0.014 A 
BRANCH  40  41
ATOM     41  C   UNL     1     -10.702  -3.986   1.749  1.00  0.00     0.031 A 
ATOM     42  C   UNL     1     -11.928  -3.661   2.533  1.00  0.00     0.074 A 
ATOM     43  C   UNL     1     -10.116  -5.210   1.808  1.00  0.00     0.049 A 
ATOM     44  N   UNL     1     -11.985  -3.378   3.791  1.00  0.00    -0.248 NA
ATOM     45  C   UNL     1     -13.166  -3.345   1.795  1.00  0.00     0.031 C 
ATOM     46  C   UNL     1      -9.069  -5.776   0.952  1.00  0.00     0.029 A 
ATOM     47  N   UNL     1     -10.396  -6.273   2.637  1.00  0.00    -0.354 N 
ATOM     48  C   UNL     1     -13.323  -3.094   4.046  1.00  0.00     0.074 A 
ATOM     49  C   UNL     1     -13.934  -2.856   2.768  1.00  0.00     0.031 C 
ATOM     50  C   UNL     1      -8.995  -7.119   1.137  1.00  0.00     0.029 A 
ATOM     51  C   UNL     1      -9.884  -7.510   2.218  1.00  0.00     0.049 A 
ATOM     52  H   UNL     1     -10.919  -6.172   3.465  1.00  0.00     0.167 HD
ATOM     53  C   UNL     1     -13.875  -3.349   5.264  1.00  0.00     0.034 A 
ATOM     54  C   UNL     1     -10.202  -8.758   2.689  1.00  0.00     0.034 A 
ATOM     55  C   UNL     1     -12.847  -3.562   6.248  1.00  0.00     0.049 A 
ATOM     56  C   UNL     1     -10.838  -8.597   4.017  1.00  0.00     0.074 A 
ATOM     57  C   UNL     1     -11.819  -2.792   6.755  1.00  0.00     0.029 A 
ATOM     58  N   UNL     1     -12.534  -4.866   6.545  1.00  0.00    -0.354 N 
ATOM     59  N   UNL     1     -10.182  -8.225   5.077  1.00  0.00    -0.248 NA
ATOM     60  C   UNL     1     -12.271  -8.341   4.020  1.00  0.00     0.031 C 
ATOM     61  C   UNL     1     -10.724  -3.689   6.891  1.00  0.00     0.029 A 
ATOM     62  C   UNL     1     -11.169  -4.974   6.584  1.00  0.00     0.049 A 
ATOM     63  H   UNL     1     -13.177  -5.594   6.702  1.00  0.00     0.167 HD
ATOM     64  C   UNL     1     -10.991  -7.245   5.621  1.00  0.00     0.074 A 
ATOM     65  C   UNL     1     -12.284  -7.382   4.947  1.00  0.00     0.031 C 
ATOM     66  C   UNL     1     -10.464  -6.207   6.326  1.00  0.00     0.034 A 
BRANCH  53  67
ATOM     67  C   UNL     1     -15.302  -3.805   5.459  1.00  0.00     0.023 A 
ATOM     68  C   UNL     1     -16.157  -4.168   4.400  1.00  0.00     0.031 A 
ATOM     69  C   UNL     1     -15.768  -4.110   6.754  1.00  0.00     0.131 A 
ATOM     70  C   UNL     1     -17.394  -4.783   4.630  1.00  0.00     0.055 A 
ATOM     71  C   UNL     1     -16.969  -4.790   6.981  1.00  0.00     0.041 A 
ATOM     72  F   UNL     1     -15.037  -3.811   7.840  1.00  0.00    -0.206 F 
ATOM     73  C   UNL     1     -17.790  -5.131   5.915  1.00  0.00     0.022 A 
BRANCH  70  74
ATOM     74  S   UNL     1     -18.511  -5.149   3.248  1.00  0.00     0.124 S 
ATOM     75  O   UNL     1     -18.713  -6.586   3.392  1.00  0.00    -0.237 OA
ATOM     76  O   UNL     1     -19.663  -4.312   3.577  1.00  0.00    -0.237 OA
ATOM     77  O   UNL     1     -17.755  -4.726   2.073  1.00  0.00    -0.744 OA
ENDBRANCH  70  74
ENDBRANCH  53  67
BRANCH  54  78
ATOM     78  C   UNL     1     -10.539  -9.976   1.885  1.00  0.00     0.023 A 
ATOM     79  C   UNL     1     -10.963  -9.802   0.561  1.00  0.00     0.031 A 
ATOM     80  C   UNL     1     -10.844 -11.217   2.493  1.00  0.00     0.131 A 
ATOM     81  C   UNL     1     -11.755 -10.771  -0.071  1.00  0.00     0.055 A 
ATOM     82  C   UNL     1     -11.597 -12.208   1.840  1.00  0.00     0.041 A 
ATOM     83  F   UNL     1     -10.505 -11.455   3.770  1.00  0.00    -0.206 F 
ATOM     84  C   UNL     1     -12.082 -11.974   0.557  1.00  0.00     0.022 A 
BRANCH  81  85
ATOM     85  S   UNL     1     -12.510 -10.385  -1.673  1.00  0.00     0.124 S 
ATOM     86  O   UNL     1     -12.253 -11.601  -2.439  1.00  0.00    -0.237 OA
ATOM     87  O   UNL     1     -13.899 -10.157  -1.294  1.00  0.00    -0.237 OA
ATOM     88  O   UNL     1     -11.771  -9.207  -2.119  1.00  0.00    -0.744 OA
ENDBRANCH  81  85
ENDBRANCH  54  78
BRANCH  66  89
ATOM     89  C   UNL     1      -9.010  -6.238   6.725  1.00  0.00     0.023 A 
ATOM     90  C   UNL     1      -8.752  -5.920   8.066  1.00  0.00     0.031 A 
ATOM     91  C   UNL     1      -7.912  -6.316   5.847  1.00  0.00     0.131 A 
ATOM     92  C   UNL     1      -7.459  -5.616   8.489  1.00  0.00     0.055 A 
ATOM     93  C   UNL     1      -6.603  -6.092   6.294  1.00  0.00     0.041 A 
ATOM     94  F   UNL     1      -8.075  -6.515   4.531  1.00  0.00    -0.206 F 
ATOM     95  C   UNL     1      -6.375  -5.716   7.616  1.00  0.00     0.022 A 
BRANCH  92  96
ATOM     96  S   UNL     1      -7.210  -4.902  10.133  1.00  0.00     0.124 S 
ATOM     97  O   UNL     1      -6.469  -5.959  10.815  1.00  0.00    -0.237 OA
ATOM     98  O   UNL     1      -6.448  -3.691   9.835  1.00  0.00    -0.237 OA
ATOM     99  O   UNL     1      -8.564  -4.669  10.627  1.00  0.00    -0.744 OA
ENDBRANCH  92  96
ENDBRANCH  66  89
ENDBRANCH  40  41
ENDBRANCH  33  35
ENDBRANCH  32  33
ENDBRANCH  31  32
ENDBRANCH  30  31
ENDBRANCH  29  30
ENDBRANCH   1  29
TORSDOF 22
