REMARK SMILES CC[C@@H](C)N(C)c1ccc(/C=C/C(=O)OCCOCCOC(=O)c2ccc(-c3c4nc(c(-c5cc(S(=O)(=O)[O-])ccc5F)c5ccc([nH]5)c(-c5cc(S(=O)(=O)[O-])ccc5F)c5nc(c(-c6cc(S(=O)(=O)[O-])ccc6F)c6ccc3[nH]6)C=C5)C=C4)cc2)cc1F
REMARK SMILES IDX 17 1 16 2 15 3 13 4 14 5 12 6 11 7 10 8 7 9 8 10 88 11 9 12
REMARK SMILES IDX 87 13 89 14 5 15 6 16 3 17 4 18 2 19 1 20 18 21 19 22 20 23
REMARK SMILES IDX 21 24 22 25 23 26 24 27 25 28 86 29 26 30 85 31 27 32 28 33
REMARK SMILES IDX 29 34 79 35 30 36 84 37 78 38 80 39 31 40 83 41 77 42 76 43
REMARK SMILES IDX 32 45 64 46 44 47 63 48 45 49 48 50 62 51 81 52 46 53 47 54
REMARK SMILES IDX 61 56 82 57 49 58 33 59 34 60 42 61 35 62 41 63 43 64 40 65
REMARK SMILES IDX 36 66 37 67 38 68 39 69 65 70 66 71 74 72 67 73 73 74 75 75
REMARK SMILES IDX 72 76 68 77 69 78 70 79 71 80 50 81 51 82 59 83 52 84 58 85
REMARK SMILES IDX 60 86 57 87 53 88 54 89 55 90 56 91
REMARK H PARENT 80 44 48 55
REMARK Flexibility Score: inf
ROOT
ATOM      1  C   UNL     1      -9.600   3.249  -5.505  1.00  0.00     0.202 C 
ENDROOT
BRANCH   1   2
ATOM      2  C   UNL     1      -9.241   1.815  -5.113  1.00  0.00     0.261 C 
BRANCH   2   3
ATOM      3  O   UNL     1      -7.858   1.720  -4.730  1.00  0.00    -0.460 OA
BRANCH   3   4
ATOM      4  C   UNL     1      -7.074   0.998  -5.561  1.00  0.00     0.330 C 
ATOM      5  O   UNL     1      -7.437   0.332  -6.519  1.00  0.00    -0.247 OA
BRANCH   4   6
ATOM      6  C   UNL     1      -5.638   1.138  -5.240  1.00  0.00     0.094 C 
ATOM      7  C   UNL     1      -5.108   1.858  -4.237  1.00  0.00     0.016 C 
BRANCH   7   8
ATOM      8  C   UNL     1      -3.658   1.944  -3.987  1.00  0.00    -0.022 A 
ATOM      9  C   UNL     1      -0.858   1.950  -3.391  1.00  0.00     0.073 A 
ATOM     10  C   UNL     1      -1.330   1.732  -4.693  1.00  0.00     0.029 A 
ATOM     11  C   UNL     1      -1.829   2.264  -2.425  1.00  0.00     0.147 A 
ATOM     12  C   UNL     1      -2.701   1.738  -4.989  1.00  0.00     0.010 A 
ATOM     13  C   UNL     1      -3.200   2.256  -2.706  1.00  0.00     0.049 A 
ATOM     14  F   UNL     1      -1.461   2.616  -1.184  1.00  0.00    -0.205 F 
BRANCH   9  15
ATOM     15  N   UNL     1       0.501   1.824  -3.087  1.00  0.00    -0.370 N 
ATOM     16  C   UNL     1       1.460   2.409  -4.018  1.00  0.00     0.144 C 
BRANCH  15  17
ATOM     17  C   UNL     1       0.971   0.673  -2.272  1.00  0.00     0.078 C 
ATOM     18  C   UNL     1       0.490  -0.662  -2.851  1.00  0.00     0.031 C 
BRANCH  17  19
ATOM     19  C   UNL     1       0.624   0.835  -0.783  1.00  0.00     0.021 C 
ATOM     20  C   UNL     1       1.420  -0.089   0.129  1.00  0.00     0.006 C 
ENDBRANCH  17  19
ENDBRANCH  15  17
ENDBRANCH   9  15
ENDBRANCH   7   8
ENDBRANCH   4   6
ENDBRANCH   3   4
ENDBRANCH   2   3
ENDBRANCH   1   2
BRANCH   1  21
ATOM     21  O   UNL     1      -8.904   3.761  -6.643  1.00  0.00    -0.374 OA
BRANCH  21  22
ATOM     22  C   UNL     1      -7.609   4.317  -6.402  1.00  0.00     0.202 C 
BRANCH  22  23
ATOM     23  C   UNL     1      -7.588   5.750  -5.854  1.00  0.00     0.261 C 
BRANCH  23  24
ATOM     24  O   UNL     1      -8.056   5.810  -4.495  1.00  0.00    -0.460 OA
BRANCH  24  25
ATOM     25  C   UNL     1      -9.265   6.402  -4.334  1.00  0.00     0.338 C 
ATOM     26  O   UNL     1      -9.934   6.948  -5.201  1.00  0.00    -0.246 OA
BRANCH  25  27
ATOM     27  C   UNL     1      -9.779   6.142  -2.976  1.00  0.00     0.060 A 
ATOM     28  C   UNL     1     -11.085   5.649  -2.864  1.00  0.00     0.016 A 
ATOM     29  C   UNL     1      -9.028   6.424  -1.832  1.00  0.00     0.016 A 
ATOM     30  C   UNL     1     -11.664   5.481  -1.607  1.00  0.00     0.010 A 
ATOM     31  C   UNL     1      -9.614   6.262  -0.570  1.00  0.00     0.010 A 
ATOM     32  C   UNL     1     -10.945   5.821  -0.454  1.00  0.00    -0.014 A 
BRANCH  32  33
ATOM     33  C   UNL     1     -11.636   5.843   0.859  1.00  0.00     0.031 A 
ATOM     34  C   UNL     1     -12.118   7.158   1.409  1.00  0.00     0.074 A 
ATOM     35  C   UNL     1     -11.871   4.702   1.532  1.00  0.00     0.049 A 
ATOM     36  N   UNL     1     -12.710   7.413   2.546  1.00  0.00    -0.248 NA
ATOM     37  C   UNL     1     -11.903   8.343   0.563  1.00  0.00     0.031 C 
ATOM     38  C   UNL     1     -11.503   3.362   1.074  1.00  0.00     0.029 A 
ATOM     39  N   UNL     1     -12.480   4.488   2.743  1.00  0.00    -0.354 N 
ATOM     40  C   UNL     1     -12.936   8.785   2.557  1.00  0.00     0.074 A 
ATOM     41  C   UNL     1     -12.392   9.311   1.324  1.00  0.00     0.031 C 
ATOM     42  C   UNL     1     -11.896   2.465   1.994  1.00  0.00     0.029 A 
ATOM     43  C   UNL     1     -12.507   3.166   3.121  1.00  0.00     0.049 A 
ATOM     44  H   UNL     1     -12.862   5.212   3.289  1.00  0.00     0.167 HD
ATOM     45  C   UNL     1     -13.547   9.534   3.505  1.00  0.00     0.034 A 
ATOM     46  C   UNL     1     -12.953   2.590   4.256  1.00  0.00     0.034 A 
ATOM     47  C   UNL     1     -14.089   8.999   4.729  1.00  0.00     0.049 A 
ATOM     48  C   UNL     1     -13.552   3.453   5.336  1.00  0.00     0.074 A 
ATOM     49  C   UNL     1     -14.745   9.672   5.745  1.00  0.00     0.029 A 
ATOM     50  N   UNL     1     -14.032   7.665   5.108  1.00  0.00    -0.354 N 
ATOM     51  N   UNL     1     -13.734   4.753   5.345  1.00  0.00    -0.248 NA
ATOM     52  C   UNL     1     -14.002   2.774   6.560  1.00  0.00     0.031 C 
ATOM     53  C   UNL     1     -15.025   8.759   6.765  1.00  0.00     0.029 A 
ATOM     54  C   UNL     1     -14.609   7.502   6.356  1.00  0.00     0.049 A 
ATOM     55  H   UNL     1     -13.639   6.941   4.568  1.00  0.00     0.167 HD
ATOM     56  C   UNL     1     -14.335   5.045   6.566  1.00  0.00     0.074 A 
ATOM     57  C   UNL     1     -14.487   3.786   7.268  1.00  0.00     0.031 C 
ATOM     58  C   UNL     1     -14.735   6.245   7.055  1.00  0.00     0.034 A 
BRANCH  45  59
ATOM     59  C   UNL     1     -13.623  11.021   3.280  1.00  0.00     0.023 A 
ATOM     60  C   UNL     1     -14.439  11.578   2.281  1.00  0.00     0.031 A 
ATOM     61  C   UNL     1     -12.877  11.894   4.091  1.00  0.00     0.131 A 
ATOM     62  C   UNL     1     -14.460  12.968   2.094  1.00  0.00     0.055 A 
ATOM     63  C   UNL     1     -12.948  13.279   3.940  1.00  0.00     0.041 A 
ATOM     64  F   UNL     1     -12.066  11.411   5.047  1.00  0.00    -0.206 F 
ATOM     65  C   UNL     1     -13.738  13.823   2.932  1.00  0.00     0.022 A 
BRANCH  62  66
ATOM     66  S   UNL     1     -15.384  13.645   0.689  1.00  0.00     0.124 S 
ATOM     67  O   UNL     1     -14.646  13.091  -0.443  1.00  0.00    -0.237 OA
ATOM     68  O   UNL     1     -16.724  13.110   0.902  1.00  0.00    -0.237 OA
ATOM     69  O   UNL     1     -15.257  15.091   0.860  1.00  0.00    -0.744 OA
ENDBRANCH  62  66
ENDBRANCH  45  59
BRANCH  46  70
ATOM     70  C   UNL     1     -12.810   1.120   4.442  1.00  0.00     0.023 A 
ATOM     71  C   UNL     1     -13.929   0.274   4.437  1.00  0.00     0.031 A 
ATOM     72  C   UNL     1     -11.540   0.543   4.620  1.00  0.00     0.131 A 
ATOM     73  C   UNL     1     -13.757  -1.108   4.620  1.00  0.00     0.055 A 
ATOM     74  C   UNL     1     -11.371  -0.834   4.767  1.00  0.00     0.041 A 
ATOM     75  F   UNL     1     -10.441   1.313   4.627  1.00  0.00    -0.206 F 
ATOM     76  C   UNL     1     -12.485  -1.668   4.771  1.00  0.00     0.022 A 
BRANCH  73  77
ATOM     77  S   UNL     1     -15.224  -2.173   4.668  1.00  0.00     0.124 S 
ATOM     78  O   UNL     1     -15.876  -1.724   5.893  1.00  0.00    -0.237 OA
ATOM     79  O   UNL     1     -15.895  -1.826   3.419  1.00  0.00    -0.237 OA
ATOM     80  O   UNL     1     -14.664  -3.522   4.715  1.00  0.00    -0.744 OA
ENDBRANCH  73  77
ENDBRANCH  46  70
BRANCH  58  81
ATOM     81  C   UNL     1     -15.403   6.263   8.405  1.00  0.00     0.023 A 
ATOM     82  C   UNL     1     -14.675   6.064   9.589  1.00  0.00     0.031 A 
ATOM     83  C   UNL     1     -16.778   6.542   8.507  1.00  0.00     0.131 A 
ATOM     84  C   UNL     1     -15.331   6.126  10.828  1.00  0.00     0.055 A 
ATOM     85  C   UNL     1     -17.416   6.646   9.743  1.00  0.00     0.041 A 
ATOM     86  F   UNL     1     -17.516   6.744   7.403  1.00  0.00    -0.206 F 
ATOM     87  C   UNL     1     -16.692   6.433  10.913  1.00  0.00     0.022 A 
BRANCH  84  88
ATOM     88  S   UNL     1     -14.387   5.776  12.337  1.00  0.00     0.124 S 
ATOM     89  O   UNL     1     -14.045   4.368  12.159  1.00  0.00    -0.237 OA
ATOM     90  O   UNL     1     -13.277   6.718  12.242  1.00  0.00    -0.237 OA
ATOM     91  O   UNL     1     -15.341   6.051  13.410  1.00  0.00    -0.744 OA
ENDBRANCH  84  88
ENDBRANCH  58  81
ENDBRANCH  32  33
ENDBRANCH  25  27
ENDBRANCH  24  25
ENDBRANCH  23  24
ENDBRANCH  22  23
ENDBRANCH  21  22
ENDBRANCH   1  21
TORSDOF 21
