REMARK SMILES CC(C)[C@H](NS(=O)(=O)c1cccc(F)c1)C(=O)OCCOCCOC(=O)c1ccc(-c2c3nc(c(-c4cc(S(=O)(=O)[O-])ccc4F)c4ccc([nH]4)c(-c4cc(S(=O)(=O)[O-])ccc4F)c4nc(c(-c5cc(S(=O)(=O)[O-])ccc5F)c5ccc2[nH]5)C=C4)C=C3)cc1
REMARK SMILES IDX 21 1 20 2 19 3 18 4 16 5 17 6 4 7 2 8 1 9 3 10 5 11 6 13
REMARK SMILES IDX 7 14 8 15 9 16 10 17 15 18 11 19 13 20 12 21 14 22 22 23
REMARK SMILES IDX 23 24 24 25 25 26 26 27 27 28 28 29 89 30 29 31 88 32 30 33
REMARK SMILES IDX 31 34 32 35 82 36 33 37 87 38 81 39 83 40 34 41 86 42 80 43
REMARK SMILES IDX 79 44 35 46 67 47 47 48 66 49 48 50 51 51 65 52 84 53 49 54
REMARK SMILES IDX 50 55 64 57 85 58 52 59 36 60 37 61 45 62 38 63 44 64 46 65
REMARK SMILES IDX 43 66 39 67 40 68 41 69 42 70 68 71 69 72 77 73 70 74 76 75
REMARK SMILES IDX 78 76 75 77 71 78 72 79 73 80 74 81 53 82 54 83 62 84 55 85
REMARK SMILES IDX 61 86 63 87 60 88 56 89 57 90 58 91 59 92
REMARK H PARENT 5 12 83 45 51 56
REMARK Flexibility Score: inf
ROOT
ATOM      1  O   UNL     1      -2.809  -1.097  -5.697  1.00  0.00    -0.374 OA
ENDROOT
BRANCH   1   2
ATOM      2  C   UNL     1      -2.671   0.311  -5.830  1.00  0.00     0.202 C 
BRANCH   2   3
ATOM      3  C   UNL     1      -2.637   1.165  -4.555  1.00  0.00     0.261 C 
BRANCH   3   4
ATOM      4  O   UNL     1      -1.692   0.739  -3.551  1.00  0.00    -0.462 OA
BRANCH   4   5
ATOM      5  C   UNL     1      -2.232   0.252  -2.395  1.00  0.00     0.324 C 
ATOM      6  O   UNL     1      -3.432   0.078  -2.207  1.00  0.00    -0.250 OA
BRANCH   5   7
ATOM      7  C   UNL     1      -1.198   0.029  -1.294  1.00  0.00     0.182 C 
BRANCH   7   8
ATOM      8  C   UNL     1      -1.147   1.335  -0.451  1.00  0.00     0.012 C 
ATOM      9  C   UNL     1      -0.174   1.270   0.724  1.00  0.00     0.009 C 
ATOM     10  C   UNL     1      -0.892   2.616  -1.261  1.00  0.00     0.009 C 
ENDBRANCH   7   8
BRANCH   7  11
ATOM     11  N   UNL     1       0.145  -0.447  -1.757  1.00  0.00    -0.197 NA
ATOM     12  H   UNL     1       0.800   0.318  -1.596  1.00  0.00     0.142 HD
BRANCH  11  13
ATOM     13  S   UNL     1       0.835  -1.841  -1.067  1.00  0.00     0.241 S 
ATOM     14  O   UNL     1       2.224  -1.514  -0.831  1.00  0.00    -0.207 OA
ATOM     15  O   UNL     1      -0.018  -2.323  -0.005  1.00  0.00    -0.207 OA
BRANCH  13  16
ATOM     16  C   UNL     1       0.808  -3.064  -2.373  1.00  0.00     0.085 A 
ATOM     17  C   UNL     1       1.887  -3.159  -3.270  1.00  0.00     0.022 A 
ATOM     18  C   UNL     1      -0.296  -3.910  -2.515  1.00  0.00     0.061 A 
ATOM     19  C   UNL     1       1.812  -4.032  -4.365  1.00  0.00     0.004 A 
ATOM     20  C   UNL     1      -0.349  -4.777  -3.606  1.00  0.00     0.124 A 
ATOM     21  C   UNL     1       0.680  -4.831  -4.543  1.00  0.00     0.039 A 
ATOM     22  F   UNL     1      -1.446  -5.522  -3.800  1.00  0.00    -0.207 F 
ENDBRANCH  13  16
ENDBRANCH  11  13
ENDBRANCH   7  11
ENDBRANCH   5   7
ENDBRANCH   4   5
ENDBRANCH   3   4
ENDBRANCH   2   3
ENDBRANCH   1   2
BRANCH   1  23
ATOM     23  C   UNL     1      -1.868  -1.783  -4.895  1.00  0.00     0.202 C 
BRANCH  23  24
ATOM     24  C   UNL     1      -0.374  -1.544  -5.108  1.00  0.00     0.261 C 
BRANCH  24  25
ATOM     25  O   UNL     1       0.023  -0.337  -5.725  1.00  0.00    -0.460 OA
BRANCH  25  26
ATOM     26  C   UNL     1       0.960  -0.499  -6.677  1.00  0.00     0.338 C 
ATOM     27  O   UNL     1       1.451  -1.531  -7.108  1.00  0.00    -0.246 OA
BRANCH  26  28
ATOM     28  C   UNL     1       1.389   0.831  -7.061  1.00  0.00     0.060 A 
ATOM     29  C   UNL     1       0.621   1.550  -7.978  1.00  0.00     0.016 A 
ATOM     30  C   UNL     1       2.586   1.317  -6.533  1.00  0.00     0.016 A 
ATOM     31  C   UNL     1       1.106   2.760  -8.438  1.00  0.00     0.010 A 
ATOM     32  C   UNL     1       3.052   2.544  -6.972  1.00  0.00     0.010 A 
ATOM     33  C   UNL     1       2.334   3.238  -7.958  1.00  0.00    -0.014 A 
BRANCH  33  34
ATOM     34  C   UNL     1       2.940   4.420  -8.584  1.00  0.00     0.031 A 
ATOM     35  C   UNL     1       4.088   4.220  -9.524  1.00  0.00     0.074 A 
ATOM     36  C   UNL     1       2.439   5.631  -8.295  1.00  0.00     0.049 A 
ATOM     37  N   UNL     1       4.830   5.112 -10.117  1.00  0.00    -0.248 NA
ATOM     38  C   UNL     1       4.461   2.826  -9.824  1.00  0.00     0.031 C 
ATOM     39  C   UNL     1       1.298   5.878  -7.411  1.00  0.00     0.029 A 
ATOM     40  N   UNL     1       2.824   6.874  -8.707  1.00  0.00    -0.354 N 
ATOM     41  C   UNL     1       5.769   4.392 -10.846  1.00  0.00     0.074 A 
ATOM     42  C   UNL     1       5.523   2.990 -10.598  1.00  0.00     0.031 C 
ATOM     43  C   UNL     1       1.072   7.199  -7.352  1.00  0.00     0.029 A 
ATOM     44  C   UNL     1       2.085   7.885  -8.146  1.00  0.00     0.049 A 
ATOM     45  H   UNL     1       3.559   7.029  -9.344  1.00  0.00     0.167 HD
ATOM     46  C   UNL     1       6.743   4.877 -11.649  1.00  0.00     0.034 A 
ATOM     47  C   UNL     1       2.239   9.217  -8.244  1.00  0.00     0.034 A 
ATOM     48  C   UNL     1       6.941   6.287 -11.866  1.00  0.00     0.049 A 
ATOM     49  C   UNL     1       3.359   9.732  -9.102  1.00  0.00     0.074 A 
ATOM     50  C   UNL     1       7.869   6.912 -12.676  1.00  0.00     0.029 A 
ATOM     51  N   UNL     1       6.197   7.292 -11.257  1.00  0.00    -0.354 N 
ATOM     52  N   UNL     1       4.249   9.048  -9.788  1.00  0.00    -0.248 NA
ATOM     53  C   UNL     1       3.499  11.186  -9.203  1.00  0.00     0.031 C 
ATOM     54  C   UNL     1       7.734   8.293 -12.500  1.00  0.00     0.029 A 
ATOM     55  C   UNL     1       6.670   8.534 -11.641  1.00  0.00     0.049 A 
ATOM     56  H   UNL     1       5.443   7.142 -10.642  1.00  0.00     0.167 HD
ATOM     57  C   UNL     1       5.057   9.992 -10.409  1.00  0.00     0.074 A 
ATOM     58  C   UNL     1       4.531  11.292 -10.030  1.00  0.00     0.031 C 
ATOM     59  C   UNL     1       6.134   9.808 -11.216  1.00  0.00     0.034 A 
BRANCH  46  60
ATOM     60  C   UNL     1       7.683   3.889 -12.291  1.00  0.00     0.023 A 
ATOM     61  C   UNL     1       7.249   2.965 -13.258  1.00  0.00     0.031 A 
ATOM     62  C   UNL     1       9.040   3.869 -11.922  1.00  0.00     0.131 A 
ATOM     63  C   UNL     1       8.154   2.032 -13.790  1.00  0.00     0.055 A 
ATOM     64  C   UNL     1       9.948   2.982 -12.502  1.00  0.00     0.041 A 
ATOM     65  F   UNL     1       9.504   4.708 -10.982  1.00  0.00    -0.206 F 
ATOM     66  C   UNL     1       9.505   2.051 -13.437  1.00  0.00     0.022 A 
BRANCH  63  67
ATOM     67  S   UNL     1       7.524   0.733 -14.888  1.00  0.00     0.124 S 
ATOM     68  O   UNL     1       6.639  -0.006 -13.992  1.00  0.00    -0.237 OA
ATOM     69  O   UNL     1       6.870   1.499 -15.942  1.00  0.00    -0.237 OA
ATOM     70  O   UNL     1       8.729   0.015 -15.296  1.00  0.00    -0.744 OA
ENDBRANCH  63  67
ENDBRANCH  46  60
BRANCH  47  71
ATOM     71  C   UNL     1       1.331  10.115  -7.486  1.00  0.00     0.023 A 
ATOM     72  C   UNL     1       0.367  10.891  -8.144  1.00  0.00     0.031 A 
ATOM     73  C   UNL     1       1.367  10.151  -6.079  1.00  0.00     0.131 A 
ATOM     74  C   UNL     1      -0.523  11.676  -7.394  1.00  0.00     0.055 A 
ATOM     75  C   UNL     1       0.459  10.907  -5.338  1.00  0.00     0.041 A 
ATOM     76  F   UNL     1       2.259   9.408  -5.404  1.00  0.00    -0.206 F 
ATOM     77  C   UNL     1      -0.493  11.678  -5.997  1.00  0.00     0.022 A 
BRANCH  74  78
ATOM     78  S   UNL     1      -1.735  12.697  -8.276  1.00  0.00     0.124 S 
ATOM     79  O   UNL     1      -0.873  13.632  -8.989  1.00  0.00    -0.237 OA
ATOM     80  O   UNL     1      -2.427  11.707  -9.096  1.00  0.00    -0.237 OA
ATOM     81  O   UNL     1      -2.536  13.278  -7.201  1.00  0.00    -0.744 OA
ENDBRANCH  74  78
ENDBRANCH  47  71
BRANCH  59  82
ATOM     82  C   UNL     1       6.805  11.048 -11.739  1.00  0.00     0.023 A 
ATOM     83  C   UNL     1       7.521  11.901 -10.884  1.00  0.00     0.031 A 
ATOM     84  C   UNL     1       6.752  11.363 -13.107  1.00  0.00     0.131 A 
ATOM     85  C   UNL     1       8.120  13.057 -11.400  1.00  0.00     0.055 A 
ATOM     86  C   UNL     1       7.403  12.481 -13.626  1.00  0.00     0.041 A 
ATOM     87  F   UNL     1       6.080  10.576 -13.964  1.00  0.00    -0.206 F 
ATOM     88  C   UNL     1       8.084  13.342 -12.768  1.00  0.00     0.022 A 
BRANCH  85  89
ATOM     89  S   UNL     1       8.888  14.222 -10.245  1.00  0.00     0.124 S 
ATOM     90  O   UNL     1       7.749  14.629  -9.427  1.00  0.00    -0.237 OA
ATOM     91  O   UNL     1       9.887  13.392  -9.579  1.00  0.00    -0.237 OA
ATOM     92  O   UNL     1       9.429  15.262 -11.117  1.00  0.00    -0.744 OA
ENDBRANCH  85  89
ENDBRANCH  59  82
ENDBRANCH  33  34
ENDBRANCH  26  28
ENDBRANCH  25  26
ENDBRANCH  24  25
ENDBRANCH  23  24
ENDBRANCH   1  23
TORSDOF 21
