REMARK SMILES CC[C@@](C)(NS(=O)(=O)c1ccc(Cl)s1)C(=O)OCCOCCOC(=O)c1ccc(-c2c3nc(c(-c4cc(S(=O)(=O)[O-])ccc4F)c4ccc([nH]4)c(-c4cc(S(=O)(=O)[O-])ccc4F)c4nc(c(-c5cc(S(=O)(=O)[O-])ccc5F)c5ccc2[nH]5)C=C4)C=C3)cc1
REMARK SMILES IDX 20 1 19 2 18 3 17 4 15 5 16 6 3 7 4 8 2 9 1 10 5 11 6 13
REMARK SMILES IDX 7 14 8 15 9 16 10 17 14 18 11 19 12 20 13 21 21 22 22 23
REMARK SMILES IDX 23 24 24 25 25 26 26 27 27 28 88 29 28 30 87 31 29 32 30 33
REMARK SMILES IDX 31 34 81 35 32 36 86 37 80 38 82 39 33 40 85 41 79 42 78 43
REMARK SMILES IDX 34 45 66 46 46 47 65 48 47 49 50 50 64 51 83 52 48 53 49 54
REMARK SMILES IDX 63 56 84 57 51 58 35 59 36 60 44 61 37 62 43 63 45 64 42 65
REMARK SMILES IDX 38 66 39 67 40 68 41 69 67 70 68 71 76 72 69 73 75 74 77 75
REMARK SMILES IDX 74 76 70 77 71 78 72 79 73 80 52 81 53 82 61 83 54 84 60 85
REMARK SMILES IDX 62 86 59 87 55 88 56 89 57 90 58 91
REMARK H PARENT 5 12 82 44 50 55
REMARK Flexibility Score: inf
ROOT
ATOM      1  O   UNL     1       4.575   0.421   3.026  1.00  0.00    -0.374 OA
ENDROOT
BRANCH   1   2
ATOM      2  C   UNL     1       5.251   1.348   2.169  1.00  0.00     0.202 C 
BRANCH   2   3
ATOM      3  C   UNL     1       4.576   1.443   0.796  1.00  0.00     0.261 C 
BRANCH   3   4
ATOM      4  O   UNL     1       3.251   1.978   0.967  1.00  0.00    -0.462 OA
BRANCH   4   5
ATOM      5  C   UNL     1       2.255   1.479   0.200  1.00  0.00     0.327 C 
ATOM      6  O   UNL     1       2.436   0.695  -0.724  1.00  0.00    -0.250 OA
BRANCH   5   7
ATOM      7  C   UNL     1       0.868   2.023   0.624  1.00  0.00     0.127 C 
ATOM      8  C   UNL     1       0.314   2.796  -0.573  1.00  0.00     0.042 C 
BRANCH   7   9
ATOM      9  C   UNL     1      -0.050   0.817   0.997  1.00  0.00     0.032 C 
ATOM     10  C   UNL     1      -0.298  -0.243  -0.068  1.00  0.00     0.006 C 
ENDBRANCH   7   9
BRANCH   7  11
ATOM     11  N   UNL     1       0.909   2.839   1.879  1.00  0.00    -0.193 NA
ATOM     12  H   UNL     1       1.822   2.635   2.285  1.00  0.00     0.142 HD
BRANCH  11  13
ATOM     13  S   UNL     1       0.732   4.487   2.062  1.00  0.00     0.251 S 
ATOM     14  O   UNL     1      -0.349   4.943   1.229  1.00  0.00    -0.206 OA
ATOM     15  O   UNL     1       0.706   4.700   3.499  1.00  0.00    -0.206 OA
BRANCH  13  16
ATOM     16  C   UNL     1       2.173   5.338   1.496  1.00  0.00     0.136 A 
ATOM     17  C   UNL     1       2.376   6.454   0.702  1.00  0.00     0.035 A 
ATOM     18  S   UNL     1       3.659   4.722   2.056  1.00  0.00    -0.110 S 
ATOM     19  C   UNL     1       3.762   6.659   0.406  1.00  0.00     0.034 A 
ATOM     20  C   UNL     1       4.535   5.702   1.009  1.00  0.00     0.094 A 
ATOM     21  Cl  UNL     1       6.218   5.426   0.818  1.00  0.00    -0.072 Cl
ENDBRANCH  13  16
ENDBRANCH  11  13
ENDBRANCH   7  11
ENDBRANCH   5   7
ENDBRANCH   4   5
ENDBRANCH   3   4
ENDBRANCH   2   3
ENDBRANCH   1   2
BRANCH   1  22
ATOM     22  C   UNL     1       3.501   0.976   3.792  1.00  0.00     0.202 C 
BRANCH  22  23
ATOM     23  C   UNL     1       3.940   1.518   5.153  1.00  0.00     0.261 C 
BRANCH  23  24
ATOM     24  O   UNL     1       4.262   2.921   5.059  1.00  0.00    -0.460 OA
BRANCH  24  25
ATOM     25  C   UNL     1       5.566   3.250   5.232  1.00  0.00     0.338 C 
ATOM     26  O   UNL     1       6.477   2.468   5.447  1.00  0.00    -0.246 OA
BRANCH  25  27
ATOM     27  C   UNL     1       5.775   4.707   5.014  1.00  0.00     0.060 A 
ATOM     28  C   UNL     1       7.042   5.120   4.586  1.00  0.00     0.016 A 
ATOM     29  C   UNL     1       4.770   5.664   5.216  1.00  0.00     0.016 A 
ATOM     30  C   UNL     1       7.309   6.474   4.365  1.00  0.00     0.010 A 
ATOM     31  C   UNL     1       5.036   7.023   4.984  1.00  0.00     0.010 A 
ATOM     32  C   UNL     1       6.314   7.438   4.574  1.00  0.00    -0.014 A 
BRANCH  32  33
ATOM     33  C   UNL     1       6.676   8.879   4.503  1.00  0.00     0.031 A 
ATOM     34  C   UNL     1       7.132   9.570   5.755  1.00  0.00     0.074 A 
ATOM     35  C   UNL     1       6.666   9.557   3.341  1.00  0.00     0.049 A 
ATOM     36  N   UNL     1       7.626  10.771   5.903  1.00  0.00    -0.248 NA
ATOM     37  C   UNL     1       7.024   8.796   7.000  1.00  0.00     0.031 C 
ATOM     38  C   UNL     1       6.266   9.001   2.055  1.00  0.00     0.029 A 
ATOM     39  N   UNL     1       7.005  10.855   3.047  1.00  0.00    -0.354 N 
ATOM     40  C   UNL     1       7.942  10.880   7.250  1.00  0.00     0.074 A 
ATOM     41  C   UNL     1       7.510   9.652   7.885  1.00  0.00     0.031 C 
ATOM     42  C   UNL     1       6.370   9.947   1.107  1.00  0.00     0.029 A 
ATOM     43  C   UNL     1       6.838  11.186   1.722  1.00  0.00     0.049 A 
ATOM     44  H   UNL     1       7.338  11.489   3.722  1.00  0.00     0.167 HD
ATOM     45  C   UNL     1       8.563  11.898   7.896  1.00  0.00     0.034 A 
ATOM     46  C   UNL     1       7.034  12.354   1.077  1.00  0.00     0.034 A 
ATOM     47  C   UNL     1       8.926  13.146   7.274  1.00  0.00     0.049 A 
ATOM     48  C   UNL     1       7.588  13.528   1.846  1.00  0.00     0.074 A 
ATOM     49  C   UNL     1       9.547  14.245   7.840  1.00  0.00     0.029 A 
ATOM     50  N   UNL     1       8.667  13.476   5.950  1.00  0.00    -0.354 N 
ATOM     51  N   UNL     1       7.947  13.593   3.107  1.00  0.00    -0.248 NA
ATOM     52  C   UNL     1       7.782  14.778   1.100  1.00  0.00     0.031 C 
ATOM     53  C   UNL     1       9.601  15.262   6.879  1.00  0.00     0.029 A 
ATOM     54  C   UNL     1       9.074  14.777   5.693  1.00  0.00     0.049 A 
ATOM     55  H   UNL     1       8.253  12.874   5.290  1.00  0.00     0.167 HD
ATOM     56  C   UNL     1       8.443  14.880   3.295  1.00  0.00     0.074 A 
ATOM     57  C   UNL     1       8.340  15.555   2.017  1.00  0.00     0.031 C 
ATOM     58  C   UNL     1       8.951  15.447   4.419  1.00  0.00     0.034 A 
BRANCH  45  59
ATOM     59  C   UNL     1       8.837  11.688   9.361  1.00  0.00     0.023 A 
ATOM     60  C   UNL     1       9.730  10.692   9.796  1.00  0.00     0.031 A 
ATOM     61  C   UNL     1       8.144  12.428  10.333  1.00  0.00     0.131 A 
ATOM     62  C   UNL     1       9.844  10.406  11.164  1.00  0.00     0.055 A 
ATOM     63  C   UNL     1       8.318  12.188  11.697  1.00  0.00     0.041 A 
ATOM     64  F   UNL     1       7.262  13.373   9.972  1.00  0.00    -0.206 F 
ATOM     65  C   UNL     1       9.159  11.161  12.119  1.00  0.00     0.022 A 
BRANCH  62  66
ATOM     66  S   UNL     1      10.779   8.935  11.665  1.00  0.00     0.124 S 
ATOM     67  O   UNL     1      10.061   7.874  10.964  1.00  0.00    -0.237 OA
ATOM     68  O   UNL     1      12.121   9.231  11.176  1.00  0.00    -0.237 OA
ATOM     69  O   UNL     1      10.635   8.917  13.120  1.00  0.00    -0.744 OA
ENDBRANCH  62  66
ENDBRANCH  45  59
BRANCH  46  70
ATOM     70  C   UNL     1       6.679  12.495  -0.364  1.00  0.00     0.023 A 
ATOM     71  C   UNL     1       7.659  12.742  -1.339  1.00  0.00     0.031 A 
ATOM     72  C   UNL     1       5.334  12.454  -0.774  1.00  0.00     0.131 A 
ATOM     73  C   UNL     1       7.275  12.984  -2.669  1.00  0.00     0.055 A 
ATOM     74  C   UNL     1       4.962  12.655  -2.104  1.00  0.00     0.041 A 
ATOM     75  F   UNL     1       4.360  12.217   0.118  1.00  0.00    -0.206 F 
ATOM     76  C   UNL     1       5.934  12.935  -3.058  1.00  0.00     0.022 A 
BRANCH  73  77
ATOM     77  S   UNL     1       8.551  13.443  -3.874  1.00  0.00     0.124 S 
ATOM     78  O   UNL     1       9.120  14.639  -3.266  1.00  0.00    -0.237 OA
ATOM     79  O   UNL     1       9.401  12.257  -3.879  1.00  0.00    -0.237 OA
ATOM     80  O   UNL     1       7.793  13.667  -5.103  1.00  0.00    -0.744 OA
ENDBRANCH  73  77
ENDBRANCH  46  70
BRANCH  58  81
ATOM     81  C   UNL     1       9.469  16.858   4.299  1.00  0.00     0.023 A 
ATOM     82  C   UNL     1       8.607  17.947   4.083  1.00  0.00     0.031 A 
ATOM     83  C   UNL     1      10.849  17.113   4.393  1.00  0.00     0.131 A 
ATOM     84  C   UNL     1       9.138  19.236   3.922  1.00  0.00     0.055 A 
ATOM     85  C   UNL     1      11.367  18.404   4.284  1.00  0.00     0.041 A 
ATOM     86  F   UNL     1      11.717  16.109   4.595  1.00  0.00    -0.206 F 
ATOM     87  C   UNL     1      10.511  19.474   4.036  1.00  0.00     0.022 A 
BRANCH  84  88
ATOM     88  S   UNL     1       8.016  20.595   3.489  1.00  0.00     0.124 S 
ATOM     89  O   UNL     1       7.464  20.139   2.217  1.00  0.00    -0.237 OA
ATOM     90  O   UNL     1       7.090  20.608   4.617  1.00  0.00    -0.237 OA
ATOM     91  O   UNL     1       8.900  21.756   3.401  1.00  0.00    -0.744 OA
ENDBRANCH  84  88
ENDBRANCH  58  81
ENDBRANCH  32  33
ENDBRANCH  25  27
ENDBRANCH  24  25
ENDBRANCH  23  24
ENDBRANCH  22  23
ENDBRANCH   1  22
TORSDOF 21
