REMARK SMILES CS(=O)(=O)c1ccc(C2=NN(c3ccc(C(=O)OCCOCCOC(=O)c4ccc(-c5c6nc(c(-c7cc(S(=O)(=O)[O-])ccc7F)c7ccc([nH]7)c(-c7cc(S(=O)(=O)[O-])ccc7F)c7nc(c(-c8cc(S(=O)(=O)[O-])ccc8F)c8ccc5[nH]8)C=C7)C=C6)cc4)cc3)[C@H](c3cccs3)C2)cc1
REMARK SMILES IDX 21 1 20 2 19 3 18 4 16 5 17 6 15 7 12 8 13 9 91 10 14 11
REMARK SMILES IDX 90 12 11 13 9 14 10 15 98 16 92 17 8 18 5 19 6 20 100 21
REMARK SMILES IDX 7 22 99 23 2 24 1 25 3 26 4 27 93 28 94 29 97 30 95 31 96 32
REMARK SMILES IDX 22 33 23 34 24 35 25 36 26 37 27 38 28 39 89 40 29 41 88 42
REMARK SMILES IDX 30 43 31 44 32 45 82 46 33 47 87 48 81 49 83 50 34 51 86 52
REMARK SMILES IDX 80 53 79 54 35 56 67 57 47 58 66 59 48 60 51 61 65 62 84 63
REMARK SMILES IDX 49 64 50 65 64 67 85 68 52 69 36 70 37 71 45 72 38 73 44 74
REMARK SMILES IDX 46 75 43 76 39 77 40 78 41 79 42 80 68 81 69 82 77 83 70 84
REMARK SMILES IDX 76 85 78 86 75 87 71 88 72 89 73 90 74 91 53 92 54 93 62 94
REMARK SMILES IDX 55 95 61 96 63 97 60 98 56 99 57 100 58 101 59 102
REMARK H PARENT 83 55 51 66
REMARK Flexibility Score: inf
ROOT
ATOM      1  O   UNL     1      -1.989 -14.161  -6.402  1.00  0.00    -0.374 OA
ENDROOT
BRANCH   1   2
ATOM      2  C   UNL     1      -1.383 -15.300  -5.787  1.00  0.00     0.202 C 
BRANCH   2   3
ATOM      3  C   UNL     1       0.137 -15.232  -5.617  1.00  0.00     0.261 C 
BRANCH   3   4
ATOM      4  O   UNL     1       0.498 -14.178  -4.710  1.00  0.00    -0.460 OA
BRANCH   4   5
ATOM      5  C   UNL     1       1.111 -13.109  -5.268  1.00  0.00     0.338 C 
ATOM      6  O   UNL     1       1.524 -13.018  -6.416  1.00  0.00    -0.246 OA
BRANCH   5   7
ATOM      7  C   UNL     1       1.140 -11.972  -4.314  1.00  0.00     0.060 A 
ATOM      8  C   UNL     1       1.419  -9.769  -2.596  1.00  0.00     0.060 A 
ATOM      9  C   UNL     1       1.476  -9.592  -3.980  1.00  0.00     0.029 A 
ATOM     10  C   UNL     1       1.108 -11.039  -2.090  1.00  0.00     0.029 A 
ATOM     11  C   UNL     1       1.348 -10.688  -4.835  1.00  0.00     0.018 A 
ATOM     12  C   UNL     1       0.973 -12.140  -2.937  1.00  0.00     0.018 A 
BRANCH   8  13
ATOM     13  N   UNL     1       1.828  -8.763  -1.722  1.00  0.00    -0.257 N 
ATOM     14  C   UNL     1       2.028  -6.732  -1.141  1.00  0.00     0.071 C 
ATOM     15  N   UNL     1       1.176  -7.577  -1.635  1.00  0.00    -0.176 NA
ATOM     16  C   UNL     1       3.448  -7.222  -1.030  1.00  0.00     0.091 C 
ATOM     17  C   UNL     1       3.244  -8.707  -1.336  1.00  0.00     0.154 C 
BRANCH  14  18
ATOM     18  C   UNL     1       1.651  -5.380  -0.693  1.00  0.00    -0.002 A 
ATOM     19  C   UNL     1       0.917  -2.890   0.321  1.00  0.00     0.067 A 
ATOM     20  C   UNL     1       0.053  -3.980   0.468  1.00  0.00     0.021 A 
ATOM     21  C   UNL     1       2.142  -3.035  -0.340  1.00  0.00     0.021 A 
ATOM     22  C   UNL     1       0.420  -5.224  -0.046  1.00  0.00     0.011 A 
ATOM     23  C   UNL     1       2.511  -4.287  -0.845  1.00  0.00     0.011 A 
BRANCH  19  24
ATOM     24  S   UNL     1       0.427  -1.322   1.005  1.00  0.00     0.175 S 
ATOM     25  C   UNL     1       0.955  -0.093  -0.155  1.00  0.00     0.163 C 
ATOM     26  O   UNL     1       1.191  -1.146   2.224  1.00  0.00    -0.224 OA
ATOM     27  O   UNL     1      -1.023  -1.291   1.014  1.00  0.00    -0.224 OA
ENDBRANCH  19  24
ENDBRANCH  14  18
BRANCH  17  28
ATOM     28  C   UNL     1       3.627  -9.688  -0.245  1.00  0.00     0.030 A 
ATOM     29  C   UNL     1       4.009 -11.007  -0.434  1.00  0.00     0.017 A 
ATOM     30  S   UNL     1       3.517  -9.321   1.426  1.00  0.00    -0.147 S 
ATOM     31  C   UNL     1       4.175 -11.716   0.788  1.00  0.00     0.012 A 
ATOM     32  C   UNL     1       3.964 -10.907   1.879  1.00  0.00     0.065 A 
ENDBRANCH  17  28
ENDBRANCH   8  13
ENDBRANCH   5   7
ENDBRANCH   4   5
ENDBRANCH   3   4
ENDBRANCH   2   3
ENDBRANCH   1   2
BRANCH   1  33
ATOM     33  C   UNL     1      -2.262 -13.040  -5.558  1.00  0.00     0.202 C 
BRANCH  33  34
ATOM     34  C   UNL     1      -3.528 -13.125  -4.698  1.00  0.00     0.261 C 
BRANCH  34  35
ATOM     35  O   UNL     1      -3.427 -14.141  -3.685  1.00  0.00    -0.460 OA
BRANCH  35  36
ATOM     36  C   UNL     1      -4.188 -15.239  -3.908  1.00  0.00     0.338 C 
ATOM     37  O   UNL     1      -4.983 -15.406  -4.823  1.00  0.00    -0.246 OA
BRANCH  36  38
ATOM     38  C   UNL     1      -3.799 -16.323  -2.985  1.00  0.00     0.060 A 
ATOM     39  C   UNL     1      -3.545 -17.582  -3.544  1.00  0.00     0.016 A 
ATOM     40  C   UNL     1      -3.740 -16.137  -1.602  1.00  0.00     0.016 A 
ATOM     41  C   UNL     1      -3.282 -18.673  -2.718  1.00  0.00     0.010 A 
ATOM     42  C   UNL     1      -3.482 -17.237  -0.773  1.00  0.00     0.010 A 
ATOM     43  C   UNL     1      -3.285 -18.516  -1.326  1.00  0.00    -0.014 A 
BRANCH  43  44
ATOM     44  C   UNL     1      -3.227 -19.718  -0.457  1.00  0.00     0.031 A 
ATOM     45  C   UNL     1      -4.504 -20.256   0.130  1.00  0.00     0.074 A 
ATOM     46  C   UNL     1      -2.059 -20.344  -0.226  1.00  0.00     0.049 A 
ATOM     47  N   UNL     1      -4.689 -21.277   0.926  1.00  0.00    -0.248 NA
ATOM     48  C   UNL     1      -5.739 -19.542  -0.231  1.00  0.00     0.031 C 
ATOM     49  C   UNL     1      -0.765 -19.942  -0.775  1.00  0.00     0.029 A 
ATOM     50  N   UNL     1      -1.773 -21.452   0.532  1.00  0.00    -0.354 N 
ATOM     51  C   UNL     1      -6.058 -21.330   1.164  1.00  0.00     0.074 A 
ATOM     52  C   UNL     1      -6.649 -20.212   0.459  1.00  0.00     0.031 C 
ATOM     53  C   UNL     1       0.179 -20.788  -0.329  1.00  0.00     0.029 A 
ATOM     54  C   UNL     1      -0.435 -21.769   0.565  1.00  0.00     0.049 A 
ATOM     55  H   UNL     1      -2.461 -21.971   1.008  1.00  0.00     0.167 HD
ATOM     56  C   UNL     1      -6.759 -22.234   1.893  1.00  0.00     0.034 A 
ATOM     57  C   UNL     1       0.220 -22.724   1.255  1.00  0.00     0.034 A 
ATOM     58  C   UNL     1      -6.153 -23.337   2.601  1.00  0.00     0.049 A 
ATOM     59  C   UNL     1      -0.571 -23.666   2.132  1.00  0.00     0.074 A 
ATOM     60  C   UNL     1      -6.770 -24.320   3.356  1.00  0.00     0.029 A 
ATOM     61  N   UNL     1      -4.789 -23.596   2.654  1.00  0.00    -0.354 N 
ATOM     62  N   UNL     1      -1.867 -23.713   2.339  1.00  0.00    -0.248 NA
ATOM     63  C   UNL     1       0.191 -24.688   2.863  1.00  0.00     0.031 C 
ATOM     64  C   UNL     1      -5.776 -25.126   3.923  1.00  0.00     0.029 A 
ATOM     65  C   UNL     1      -4.543 -24.698   3.458  1.00  0.00     0.049 A 
ATOM     66  H   UNL     1      -4.098 -23.072   2.188  1.00  0.00     0.167 HD
ATOM     67  C   UNL     1      -2.076 -24.789   3.200  1.00  0.00     0.074 A 
ATOM     68  C   UNL     1      -0.775 -25.369   3.460  1.00  0.00     0.031 C 
ATOM     69  C   UNL     1      -3.238 -25.259   3.723  1.00  0.00     0.034 A 
BRANCH  56  70
ATOM     70  C   UNL     1      -8.251 -22.029   2.002  1.00  0.00     0.023 A 
ATOM     71  C   UNL     1      -9.094 -22.109   0.879  1.00  0.00     0.031 A 
ATOM     72  C   UNL     1      -8.835 -21.719   3.243  1.00  0.00     0.131 A 
ATOM     73  C   UNL     1     -10.460 -21.814   1.007  1.00  0.00     0.055 A 
ATOM     74  C   UNL     1     -10.208 -21.502   3.377  1.00  0.00     0.041 A 
ATOM     75  F   UNL     1      -8.078 -21.606   4.345  1.00  0.00    -0.206 F 
ATOM     76  C   UNL     1     -11.027 -21.534   2.253  1.00  0.00     0.022 A 
BRANCH  73  77
ATOM     77  S   UNL     1     -11.460 -21.660  -0.499  1.00  0.00     0.124 S 
ATOM     78  O   UNL     1     -10.751 -20.604  -1.218  1.00  0.00    -0.237 OA
ATOM     79  O   UNL     1     -11.370 -22.996  -1.075  1.00  0.00    -0.237 OA
ATOM     80  O   UNL     1     -12.780 -21.283   0.003  1.00  0.00    -0.744 OA
ENDBRANCH  73  77
ENDBRANCH  56  70
BRANCH  57  81
ATOM     81  C   UNL     1       1.706 -22.822   1.186  1.00  0.00     0.023 A 
ATOM     82  C   UNL     1       2.339 -23.959   0.660  1.00  0.00     0.031 A 
ATOM     83  C   UNL     1       2.518 -21.794   1.702  1.00  0.00     0.131 A 
ATOM     84  C   UNL     1       3.739 -24.062   0.703  1.00  0.00     0.055 A 
ATOM     85  C   UNL     1       3.911 -21.879   1.694  1.00  0.00     0.041 A 
ATOM     86  F   UNL     1       1.964 -20.685   2.218  1.00  0.00    -0.206 F 
ATOM     87  C   UNL     1       4.529 -23.025   1.204  1.00  0.00     0.022 A 
BRANCH  84  88
ATOM     88  S   UNL     1       4.513 -25.614   0.171  1.00  0.00     0.124 S 
ATOM     89  O   UNL     1       3.890 -26.580   1.068  1.00  0.00    -0.237 OA
ATOM     90  O   UNL     1       4.111 -25.686  -1.230  1.00  0.00    -0.237 OA
ATOM     91  O   UNL     1       5.937 -25.379   0.397  1.00  0.00    -0.744 OA
ENDBRANCH  84  88
ENDBRANCH  57  81
BRANCH  69  92
ATOM     92  C   UNL     1      -3.151 -26.488   4.595  1.00  0.00     0.023 A 
ATOM     93  C   UNL     1      -2.509 -26.467   5.846  1.00  0.00     0.031 A 
ATOM     94  C   UNL     1      -3.711 -27.703   4.161  1.00  0.00     0.131 A 
ATOM     95  C   UNL     1      -2.393 -27.649   6.593  1.00  0.00     0.055 A 
ATOM     96  C   UNL     1      -3.647 -28.862   4.937  1.00  0.00     0.041 A 
ATOM     97  F   UNL     1      -4.335 -27.784   2.975  1.00  0.00    -0.206 F 
ATOM     98  C   UNL     1      -2.973 -28.843   6.154  1.00  0.00     0.022 A 
BRANCH  95  99
ATOM     99  S   UNL     1      -1.393 -27.630   8.107  1.00  0.00     0.124 S 
ATOM    100  O   UNL     1      -0.091 -27.202   7.605  1.00  0.00    -0.237 OA
ATOM    101  O   UNL     1      -2.104 -26.666   8.939  1.00  0.00    -0.237 OA
ATOM    102  O   UNL     1      -1.452 -29.014   8.575  1.00  0.00    -0.744 OA
ENDBRANCH  95  99
ENDBRANCH  69  92
ENDBRANCH  43  44
ENDBRANCH  36  38
ENDBRANCH  35  36
ENDBRANCH  34  35
ENDBRANCH  33  34
ENDBRANCH   1  33
TORSDOF 21
