REMARK SMILES C=CCN1C(=O)/C(=C/c2ccccc2[N+](=O)[O-])S/C1=[NH+]\c1ccc(O)cc1C(=O)OCCOCCOC(=O)c1ccc(-c2c3nc(c(-c4cc(S(=O)(=O)[O-])ccc4F)c4ccc([nH]4)c(-c4cc(S(=O)(=O)[O-])ccc4F)c4nc(c(-c5cc(S(=O)(=O)[O-])ccc5F)c5ccc2[nH]5)C=C4)C=C3)cc1
REMARK SMILES IDX 33 1 32 2 31 3 30 4 28 5 29 6 27 7 21 8 22 9 23 10 26 11
REMARK SMILES IDX 24 12 20 13 4 14 5 15 19 16 6 17 7 18 18 19 8 20 3 22 2 23
REMARK SMILES IDX 1 24 9 25 10 26 14 27 11 28 13 29 12 30 15 31 16 32 17 33
REMARK SMILES IDX 25 34 34 36 35 37 36 38 37 39 38 40 39 41 40 42 101 43 41 44
REMARK SMILES IDX 100 45 42 46 43 47 44 48 94 49 45 50 99 51 93 52 95 53 46 54
REMARK SMILES IDX 98 55 92 56 91 57 47 59 79 60 59 61 78 62 60 63 63 64 77 65
REMARK SMILES IDX 96 66 61 67 62 68 76 70 97 71 64 72 48 73 49 74 57 75 50 76
REMARK SMILES IDX 56 77 58 78 55 79 51 80 52 81 53 82 54 83 80 84 81 85 89 86
REMARK SMILES IDX 82 87 88 88 90 89 87 90 83 91 84 92 85 93 86 94 65 95 66 96
REMARK SMILES IDX 74 97 67 98 73 99 75 100 72 101 68 102 69 103 70 104 71 105
REMARK H PARENT 20 21 25 35 95 58 63 69
REMARK Flexibility Score: inf
ROOT
ATOM      1  O   UNL     1      -7.536   3.419   0.576  1.00  0.00    -0.374 OA
ENDROOT
BRANCH   1   2
ATOM      2  C   UNL     1      -6.477   3.860  -0.269  1.00  0.00     0.202 C 
BRANCH   2   3
ATOM      3  C   UNL     1      -5.175   4.309   0.399  1.00  0.00     0.261 C 
BRANCH   3   4
ATOM      4  O   UNL     1      -4.612   3.298   1.249  1.00  0.00    -0.460 OA
BRANCH   4   5
ATOM      5  C   UNL     1      -4.553   3.624   2.563  1.00  0.00     0.342 C 
ATOM      6  O   UNL     1      -4.920   4.680   3.059  1.00  0.00    -0.246 OA
BRANCH   5   7
ATOM      7  C   UNL     1      -4.087   2.496   3.409  1.00  0.00     0.110 A 
ATOM      8  C   UNL     1      -3.091   1.556   3.064  1.00  0.00     0.140 A 
ATOM      9  C   UNL     1      -2.773   0.569   4.014  1.00  0.00     0.056 A 
ATOM     10  C   UNL     1      -3.405   0.511   5.260  1.00  0.00     0.050 A 
ATOM     11  C   UNL     1      -4.720   2.433   4.668  1.00  0.00     0.066 A 
ATOM     12  C   UNL     1      -4.381   1.440   5.574  1.00  0.00     0.116 A 
BRANCH   8  13
ATOM     13  N   UNL     1      -2.449   1.420   1.817  1.00  0.00    -0.234 N 
ATOM     14  N   UNL     1      -1.270   2.253  -0.019  1.00  0.00    -0.182 N 
ATOM     15  C   UNL     1      -0.984   3.439  -0.665  1.00  0.00     0.348 C 
ATOM     16  C   UNL     1      -1.793   2.370   1.240  1.00  0.00     0.324 C 
ATOM     17  O   UNL     1      -0.714   3.578  -1.844  1.00  0.00    -0.240 OA
ATOM     18  C   UNL     1      -1.164   4.578   0.278  1.00  0.00     0.110 C 
ATOM     19  S   UNL     1      -1.488   3.978   1.851  1.00  0.00     0.007 SA
ATOM     20  C   UNL     1      -1.164   5.850  -0.142  1.00  0.00     0.039 C 
ATOM     21  H   UNL     1      -2.503   0.549   1.361  1.00  0.00     0.313 HD
BRANCH  14  22
ATOM     22  C   UNL     1      -1.130   0.990  -0.717  1.00  0.00     0.275 C 
BRANCH  22  23
ATOM     23  C   UNL     1       0.338   0.662  -0.787  1.00  0.00     0.011 C 
ATOM     24  C   UNL     1       0.968  -0.255  -0.041  1.00  0.00     0.008 C 
ENDBRANCH  22  23
ENDBRANCH  14  22
BRANCH  20  25
ATOM     25  C   UNL     1      -1.483   7.048   0.655  1.00  0.00     0.054 A 
ATOM     26  C   UNL     1      -2.526   7.852   0.156  1.00  0.00     0.015 A 
ATOM     27  C   UNL     1      -0.857   7.466   1.842  1.00  0.00     0.276 A 
ATOM     28  C   UNL     1      -2.940   9.007   0.830  1.00  0.00     0.001 A 
ATOM     29  C   UNL     1      -1.281   8.616   2.531  1.00  0.00     0.086 A 
ATOM     30  C   UNL     1      -2.325   9.384   2.020  1.00  0.00     0.007 A 
BRANCH  27  31
ATOM     31  N   UNL     1       0.287   6.755   2.400  1.00  0.00     0.063 N 
ATOM     32  O   UNL     1       0.298   6.578   3.628  1.00  0.00    -0.258 OA
ATOM     33  O   UNL     1       1.190   6.410   1.627  1.00  0.00    -0.258 OA
ENDBRANCH  27  31
ENDBRANCH  20  25
ENDBRANCH   8  13
BRANCH  12  34
ATOM     34  O   UNL     1      -5.000   1.345   6.784  1.00  0.00    -0.508 OA
ATOM     35  H   UNL     1      -4.757   0.667   7.383  1.00  0.00     0.293 HD
ENDBRANCH  12  34
ENDBRANCH   5   7
ENDBRANCH   4   5
ENDBRANCH   3   4
ENDBRANCH   2   3
ENDBRANCH   1   2
BRANCH   1  36
ATOM     36  C   UNL     1      -7.370   2.198   1.291  1.00  0.00     0.202 C 
BRANCH  36  37
ATOM     37  C   UNL     1      -7.297   0.879   0.508  1.00  0.00     0.261 C 
BRANCH  37  38
ATOM     38  O   UNL     1      -6.246   0.820  -0.471  1.00  0.00    -0.460 OA
BRANCH  38  39
ATOM     39  C   UNL     1      -6.687   0.818  -1.754  1.00  0.00     0.338 C 
ATOM     40  O   UNL     1      -7.850   0.875  -2.128  1.00  0.00    -0.246 OA
BRANCH  39  41
ATOM     41  C   UNL     1      -5.559   0.901  -2.698  1.00  0.00     0.060 A 
ATOM     42  C   UNL     1      -5.551   1.970  -3.602  1.00  0.00     0.016 A 
ATOM     43  C   UNL     1      -4.609  -0.118  -2.794  1.00  0.00     0.016 A 
ATOM     44  C   UNL     1      -4.623   1.997  -4.640  1.00  0.00     0.010 A 
ATOM     45  C   UNL     1      -3.680  -0.091  -3.843  1.00  0.00     0.010 A 
ATOM     46  C   UNL     1      -3.708   0.946  -4.793  1.00  0.00    -0.014 A 
BRANCH  46  47
ATOM     47  C   UNL     1      -2.882   0.889  -6.026  1.00  0.00     0.031 A 
ATOM     48  C   UNL     1      -3.289  -0.024  -7.151  1.00  0.00     0.074 A 
ATOM     49  C   UNL     1      -1.817   1.699  -6.168  1.00  0.00     0.049 A 
ATOM     50  N   UNL     1      -2.749  -0.180  -8.333  1.00  0.00    -0.248 NA
ATOM     51  C   UNL     1      -4.460  -0.877  -6.906  1.00  0.00     0.031 C 
ATOM     52  C   UNL     1      -1.346   2.647  -5.161  1.00  0.00     0.029 A 
ATOM     53  N   UNL     1      -0.949   1.861  -7.217  1.00  0.00    -0.354 N 
ATOM     54  C   UNL     1      -3.516  -1.146  -8.977  1.00  0.00     0.074 A 
ATOM     55  C   UNL     1      -4.526  -1.574  -8.030  1.00  0.00     0.031 C 
ATOM     56  C   UNL     1      -0.277   3.301  -5.645  1.00  0.00     0.029 A 
ATOM     57  C   UNL     1       0.027   2.800  -6.984  1.00  0.00     0.049 A 
ATOM     58  H   UNL     1      -1.018   1.352  -8.057  1.00  0.00     0.167 HD
ATOM     59  C   UNL     1      -3.398  -1.620 -10.244  1.00  0.00     0.034 A 
ATOM     60  C   UNL     1       1.053   3.206  -7.758  1.00  0.00     0.034 A 
ATOM     61  C   UNL     1      -2.373  -1.196 -11.169  1.00  0.00     0.049 A 
ATOM     62  C   UNL     1       1.213   2.611  -9.135  1.00  0.00     0.074 A 
ATOM     63  C   UNL     1      -2.171  -1.597 -12.479  1.00  0.00     0.029 A 
ATOM     64  N   UNL     1      -1.363  -0.285 -10.877  1.00  0.00    -0.354 N 
ATOM     65  N   UNL     1       0.469   1.715  -9.741  1.00  0.00    -0.248 NA
ATOM     66  C   UNL     1       2.344   3.096  -9.935  1.00  0.00     0.031 C 
ATOM     67  C   UNL     1      -1.001  -0.989 -12.951  1.00  0.00     0.029 A 
ATOM     68  C   UNL     1      -0.517  -0.141 -11.968  1.00  0.00     0.049 A 
ATOM     69  H   UNL     1      -1.264   0.190 -10.020  1.00  0.00     0.167 HD
ATOM     70  C   UNL     1       1.025   1.553 -11.008  1.00  0.00     0.074 A 
ATOM     71  C   UNL     1       2.159   2.453 -11.079  1.00  0.00     0.031 C 
ATOM     72  C   UNL     1       0.626   0.744 -12.024  1.00  0.00     0.034 A 
BRANCH  59  73
ATOM     73  C   UNL     1      -4.375  -2.693 -10.671  1.00  0.00     0.023 A 
ATOM     74  C   UNL     1      -5.761  -2.457 -10.723  1.00  0.00     0.031 A 
ATOM     75  C   UNL     1      -3.920  -3.987 -10.981  1.00  0.00     0.131 A 
ATOM     76  C   UNL     1      -6.644  -3.515 -10.987  1.00  0.00     0.055 A 
ATOM     77  C   UNL     1      -4.799  -5.015 -11.329  1.00  0.00     0.041 A 
ATOM     78  F   UNL     1      -2.611  -4.283 -10.929  1.00  0.00    -0.206 F 
ATOM     79  C   UNL     1      -6.171  -4.788 -11.315  1.00  0.00     0.022 A 
BRANCH  76  80
ATOM     80  S   UNL     1      -8.420  -3.249 -10.726  1.00  0.00     0.124 S 
ATOM     81  O   UNL     1      -8.450  -2.802  -9.335  1.00  0.00    -0.237 OA
ATOM     82  O   UNL     1      -8.738  -2.240 -11.729  1.00  0.00    -0.237 OA
ATOM     83  O   UNL     1      -9.003  -4.569 -10.960  1.00  0.00    -0.744 OA
ENDBRANCH  76  80
ENDBRANCH  59  73
BRANCH  60  84
ATOM     84  C   UNL     1       2.017   4.221  -7.248  1.00  0.00     0.023 A 
ATOM     85  C   UNL     1       2.115   5.491  -7.836  1.00  0.00     0.031 A 
ATOM     86  C   UNL     1       2.873   3.921  -6.173  1.00  0.00     0.131 A 
ATOM     87  C   UNL     1       3.070   6.407  -7.366  1.00  0.00     0.055 A 
ATOM     88  C   UNL     1       3.789   4.851  -5.679  1.00  0.00     0.041 A 
ATOM     89  F   UNL     1       2.820   2.719  -5.577  1.00  0.00    -0.206 F 
ATOM     90  C   UNL     1       3.897   6.100  -6.283  1.00  0.00     0.022 A 
BRANCH  87  91
ATOM     91  S   UNL     1       3.255   7.991  -8.229  1.00  0.00     0.124 S 
ATOM     92  O   UNL     1       3.620   7.558  -9.573  1.00  0.00    -0.237 OA
ATOM     93  O   UNL     1       1.926   8.575  -8.082  1.00  0.00    -0.237 OA
ATOM     94  O   UNL     1       4.314   8.665  -7.481  1.00  0.00    -0.744 OA
ENDBRANCH  87  91
ENDBRANCH  60  84
BRANCH  72  95
ATOM     95  C   UNL     1       1.403   0.833 -13.317  1.00  0.00     0.023 A 
ATOM     96  C   UNL     1       2.749   0.436 -13.407  1.00  0.00     0.031 A 
ATOM     97  C   UNL     1       0.789   1.347 -14.474  1.00  0.00     0.131 A 
ATOM     98  C   UNL     1       3.454   0.617 -14.607  1.00  0.00     0.055 A 
ATOM     99  C   UNL     1       1.478   1.466 -15.683  1.00  0.00     0.041 A 
ATOM    100  F   UNL     1      -0.493   1.745 -14.449  1.00  0.00    -0.206 F 
ATOM    101  C   UNL     1       2.822   1.114 -15.750  1.00  0.00     0.022 A 
BRANCH  98 102
ATOM    102  S   UNL     1       5.240   0.295 -14.628  1.00  0.00     0.124 S 
ATOM    103  O   UNL     1       5.721   1.180 -13.572  1.00  0.00    -0.237 OA
ATOM    104  O   UNL     1       5.302  -1.134 -14.341  1.00  0.00    -0.237 OA
ATOM    105  O   UNL     1       5.641   0.671 -15.983  1.00  0.00    -0.744 OA
ENDBRANCH  98 102
ENDBRANCH  72  95
ENDBRANCH  46  47
ENDBRANCH  39  41
ENDBRANCH  38  39
ENDBRANCH  37  38
ENDBRANCH  36  37
ENDBRANCH   1  36
TORSDOF 23
