REMARK SMILES O=C(CCc1ccc(S(=O)(=O)Nc2cccc(I)c2)cc1)OCCOCCOC(=O)c1ccc(-c2c3nc(c(-c4cc(S(=O)(=O)[O-])ccc4F)c4ccc([nH]4)c(-c4cc(S(=O)(=O)[O-])ccc4F)c4nc(c(-c5cc(S(=O)(=O)[O-])ccc5F)c5ccc2[nH]5)C=C4)C=C3)cc1
REMARK SMILES IDX 24 1 23 2 22 3 2 4 1 5 3 6 4 7 5 8 6 9 21 10 7 11 20 12 8 13
REMARK SMILES IDX 9 14 10 15 11 16 12 17 13 19 14 20 19 21 15 22 17 23 16 24
REMARK SMILES IDX 18 25 25 26 26 27 27 28 28 29 29 30 30 31 31 32 32 33 93 34
REMARK SMILES IDX 33 35 92 36 34 37 35 38 36 39 86 40 37 41 91 42 85 43 87 44
REMARK SMILES IDX 38 45 90 46 84 47 83 48 39 50 71 51 51 52 70 53 52 54 55 55
REMARK SMILES IDX 69 56 88 57 53 58 54 59 68 61 89 62 56 63 40 64 41 65 49 66
REMARK SMILES IDX 42 67 48 68 50 69 47 70 43 71 44 72 45 73 46 74 72 75 73 76
REMARK SMILES IDX 81 77 74 78 80 79 82 80 79 81 75 82 76 83 77 84 78 85 57 86
REMARK SMILES IDX 58 87 66 88 59 89 65 90 67 91 64 92 60 93 61 94 62 95 63 96
REMARK H PARENT 12 18 87 49 55 60
REMARK Flexibility Score: inf
ROOT
ATOM      1  C   UNL     1       4.679  -0.192   1.408  1.00  0.00     0.202 C 
ENDROOT
BRANCH   1   2
ATOM      2  C   UNL     1       4.010   0.776   0.436  1.00  0.00     0.261 C 
BRANCH   2   3
ATOM      3  O   UNL     1       2.731   0.445  -0.146  1.00  0.00    -0.463 OA
BRANCH   3   4
ATOM      4  C   UNL     1       2.359  -0.587  -0.919  1.00  0.00     0.306 C 
ATOM      5  O   UNL     1       1.276  -0.552  -1.503  1.00  0.00    -0.252 OA
BRANCH   4   6
ATOM      6  C   UNL     1       3.238  -1.797  -1.041  1.00  0.00     0.127 C 
BRANCH   6   7
ATOM      7  C   UNL     1       3.976  -1.864  -2.375  1.00  0.00     0.047 C 
BRANCH   7   8
ATOM      8  C   UNL     1       4.993  -0.761  -2.521  1.00  0.00    -0.047 A 
ATOM      9  C   UNL     1       6.222  -0.838  -1.851  1.00  0.00     0.005 A 
ATOM     10  C   UNL     1       4.660   0.407  -3.221  1.00  0.00     0.005 A 
ATOM     11  C   UNL     1       7.030   0.293  -1.755  1.00  0.00     0.022 A 
ATOM     12  C   UNL     1       5.492   1.524  -3.168  1.00  0.00     0.022 A 
ATOM     13  C   UNL     1       6.626   1.490  -2.361  1.00  0.00     0.087 A 
BRANCH  13  14
ATOM     14  S   UNL     1       7.430   2.968  -1.793  1.00  0.00     0.261 S 
ATOM     15  O   UNL     1       7.344   2.936  -0.348  1.00  0.00    -0.201 OA
ATOM     16  O   UNL     1       8.713   3.014  -2.460  1.00  0.00    -0.201 OA
BRANCH  14  17
ATOM     17  N   UNL     1       6.556   4.280  -2.341  1.00  0.00    -0.280 N 
ATOM     18  H   UNL     1       7.060   4.975  -2.823  1.00  0.00     0.180 HD
BRANCH  17  19
ATOM     19  C   UNL     1       5.156   4.499  -2.182  1.00  0.00     0.050 A 
ATOM     20  C   UNL     1       4.584   5.308  -3.173  1.00  0.00     0.027 A 
ATOM     21  C   UNL     1       4.380   4.099  -1.090  1.00  0.00     0.041 A 
ATOM     22  C   UNL     1       3.249   5.695  -3.104  1.00  0.00     0.003 A 
ATOM     23  C   UNL     1       3.034   4.494  -1.028  1.00  0.00     0.015 A 
ATOM     24  C   UNL     1       2.470   5.283  -2.031  1.00  0.00     0.015 A 
ATOM     25  I   UNL     1       1.803   4.006   0.578  1.00  0.00    -0.044 I 
ENDBRANCH  17  19
ENDBRANCH  14  17
ENDBRANCH  13  14
ENDBRANCH   7   8
ENDBRANCH   6   7
ENDBRANCH   4   6
ENDBRANCH   3   4
ENDBRANCH   2   3
ENDBRANCH   1   2
BRANCH   1  26
ATOM     26  O   UNL     1       3.849  -1.051   2.176  1.00  0.00    -0.374 OA
BRANCH  26  27
ATOM     27  C   UNL     1       2.641  -0.537   2.724  1.00  0.00     0.202 C 
BRANCH  27  28
ATOM     28  C   UNL     1       2.759   0.477   3.862  1.00  0.00     0.261 C 
BRANCH  28  29
ATOM     29  O   UNL     1       3.253   1.757   3.434  1.00  0.00    -0.460 OA
BRANCH  29  30
ATOM     30  C   UNL     1       4.506   2.072   3.841  1.00  0.00     0.338 C 
ATOM     31  O   UNL     1       5.272   1.352   4.465  1.00  0.00    -0.246 OA
BRANCH  30  32
ATOM     32  C   UNL     1       4.889   3.393   3.303  1.00  0.00     0.060 A 
ATOM     33  C   UNL     1       6.106   3.518   2.627  1.00  0.00     0.016 A 
ATOM     34  C   UNL     1       4.085   4.517   3.513  1.00  0.00     0.016 A 
ATOM     35  C   UNL     1       6.534   4.773   2.180  1.00  0.00     0.010 A 
ATOM     36  C   UNL     1       4.513   5.771   3.060  1.00  0.00     0.010 A 
ATOM     37  C   UNL     1       5.755   5.913   2.417  1.00  0.00    -0.014 A 
BRANCH  37  38
ATOM     38  C   UNL     1       6.322   7.269   2.176  1.00  0.00     0.031 A 
ATOM     39  C   UNL     1       6.909   8.005   3.339  1.00  0.00     0.074 A 
ATOM     40  C   UNL     1       6.327   7.843   0.960  1.00  0.00     0.049 A 
ATOM     41  N   UNL     1       7.390   9.217   3.387  1.00  0.00    -0.248 NA
ATOM     42  C   UNL     1       6.927   7.286   4.621  1.00  0.00     0.031 C 
ATOM     43  C   UNL     1       5.775   7.222  -0.227  1.00  0.00     0.029 A 
ATOM     44  N   UNL     1       6.789   9.055   0.507  1.00  0.00    -0.354 N 
ATOM     45  C   UNL     1       7.755   9.418   4.710  1.00  0.00     0.074 A 
ATOM     46  C   UNL     1       7.402   8.215   5.434  1.00  0.00     0.031 C 
ATOM     47  C   UNL     1       5.953   8.024  -1.286  1.00  0.00     0.029 A 
ATOM     48  C   UNL     1       6.572   9.264  -0.839  1.00  0.00     0.049 A 
ATOM     49  H   UNL     1       7.233   9.713   1.089  1.00  0.00     0.167 HD
ATOM     50  C   UNL     1       8.335  10.510   5.263  1.00  0.00     0.034 A 
ATOM     51  C   UNL     1       6.805  10.342  -1.617  1.00  0.00     0.034 A 
ATOM     52  C   UNL     1       8.652  11.707   4.524  1.00  0.00     0.049 A 
ATOM     53  C   UNL     1       7.387  11.570  -0.962  1.00  0.00     0.074 A 
ATOM     54  C   UNL     1       9.238  12.871   4.986  1.00  0.00     0.029 A 
ATOM     55  N   UNL     1       8.394  11.902   3.171  1.00  0.00    -0.354 N 
ATOM     56  N   UNL     1       7.732  11.746   0.293  1.00  0.00    -0.248 NA
ATOM     57  C   UNL     1       7.600  12.744  -1.816  1.00  0.00     0.031 C 
ATOM     58  C   UNL     1       9.263  13.795   3.936  1.00  0.00     0.029 A 
ATOM     59  C   UNL     1       8.780  13.179   2.792  1.00  0.00     0.049 A 
ATOM     60  H   UNL     1       7.996  11.232   2.570  1.00  0.00     0.167 HD
ATOM     61  C   UNL     1       8.223  13.044   0.373  1.00  0.00     0.074 A 
ATOM     62  C   UNL     1       8.152  13.596  -0.965  1.00  0.00     0.031 C 
ATOM     63  C   UNL     1       8.690  13.719   1.454  1.00  0.00     0.034 A 
BRANCH  50  64
ATOM     64  C   UNL     1       8.589  10.462   6.747  1.00  0.00     0.023 A 
ATOM     65  C   UNL     1       9.459   9.516   7.316  1.00  0.00     0.031 A 
ATOM     66  C   UNL     1       7.898  11.328   7.612  1.00  0.00     0.131 A 
ATOM     67  C   UNL     1       9.548   9.400   8.710  1.00  0.00     0.055 A 
ATOM     68  C   UNL     1       8.063  11.268   8.996  1.00  0.00     0.041 A 
ATOM     69  F   UNL     1       7.029  12.229   7.127  1.00  0.00    -0.206 F 
ATOM     70  C   UNL     1       8.878  10.288   9.554  1.00  0.00     0.022 A 
BRANCH  67  71
ATOM     71  S   UNL     1      10.415   7.966   9.403  1.00  0.00     0.124 S 
ATOM     72  O   UNL     1       9.646   6.858   8.841  1.00  0.00    -0.237 OA
ATOM     73  O   UNL     1      11.768   8.133   8.884  1.00  0.00    -0.237 OA
ATOM     74  O   UNL     1      10.273   8.145  10.847  1.00  0.00    -0.744 OA
ENDBRANCH  67  71
ENDBRANCH  50  64
BRANCH  51  75
ATOM     75  C   UNL     1       6.446  10.348  -3.070  1.00  0.00     0.023 A 
ATOM     76  C   UNL     1       7.420  10.558  -4.061  1.00  0.00     0.031 A 
ATOM     77  C   UNL     1       5.110  10.208  -3.492  1.00  0.00     0.131 A 
ATOM     78  C   UNL     1       7.040  10.671  -5.410  1.00  0.00     0.055 A 
ATOM     79  C   UNL     1       4.746  10.255  -4.840  1.00  0.00     0.041 A 
ATOM     80  F   UNL     1       4.130  10.011  -2.595  1.00  0.00    -0.206 F 
ATOM     81  C   UNL     1       5.712  10.503  -5.807  1.00  0.00     0.022 A 
BRANCH  78  82
ATOM     82  S   UNL     1       8.293  11.147  -6.635  1.00  0.00     0.124 S 
ATOM     83  O   UNL     1       8.764  12.418  -6.097  1.00  0.00    -0.237 OA
ATOM     84  O   UNL     1       9.228  10.029  -6.557  1.00  0.00    -0.237 OA
ATOM     85  O   UNL     1       7.534  11.236  -7.880  1.00  0.00    -0.744 OA
ENDBRANCH  78  82
ENDBRANCH  51  75
BRANCH  63  86
ATOM     86  C   UNL     1       9.208  15.117   1.215  1.00  0.00     0.023 A 
ATOM     87  C   UNL     1       8.362  16.162   0.805  1.00  0.00     0.031 A 
ATOM     88  C   UNL     1      10.574  15.399   1.388  1.00  0.00     0.131 A 
ATOM     89  C   UNL     1       8.903  17.426   0.522  1.00  0.00     0.055 A 
ATOM     90  C   UNL     1      11.093  16.676   1.175  1.00  0.00     0.041 A 
ATOM     91  F   UNL     1      11.429  14.437   1.770  1.00  0.00    -0.206 F 
ATOM     92  C   UNL     1      10.259  17.695   0.726  1.00  0.00     0.022 A 
BRANCH  89  93
ATOM     93  S   UNL     1       7.829  18.685  -0.220  1.00  0.00     0.124 S 
ATOM     94  O   UNL     1       7.384  18.021  -1.441  1.00  0.00    -0.237 OA
ATOM     95  O   UNL     1       6.812  18.875   0.809  1.00  0.00    -0.237 OA
ATOM     96  O   UNL     1       8.724  19.823  -0.423  1.00  0.00    -0.744 OA
ENDBRANCH  89  93
ENDBRANCH  63  86
ENDBRANCH  37  38
ENDBRANCH  30  32
ENDBRANCH  29  30
ENDBRANCH  28  29
ENDBRANCH  27  28
ENDBRANCH  26  27
ENDBRANCH   1  26
TORSDOF 22
