REMARK SMILES CC(C)(C)c1cc(Nc2ccccc2C(=O)OCCOCCOC(=O)c2ccc(-c3c4nc(c(-c5cc(S(=O)(=O)[O-])ccc5F)c5ccc([nH]5)c(-c5cc(S(=O)(=O)[O-])ccc5F)c5nc(c(-c6cc(S(=O)(=O)[O-])ccc6F)c6ccc3[nH]6)C=C5)C=C4)cc2)cc2c1OCC2(C)C
REMARK SMILES IDX 20 1 19 2 18 3 17 4 15 5 16 6 14 7 9 8 10 9 11 10 13 11
REMARK SMILES IDX 12 12 8 13 7 15 5 16 6 17 91 18 90 19 92 20 89 21 94 22
REMARK SMILES IDX 93 23 95 24 96 25 2 26 1 27 3 28 4 29 21 30 22 31 23 32
REMARK SMILES IDX 24 33 25 34 26 35 27 36 88 37 28 38 87 39 29 40 30 41 31 42
REMARK SMILES IDX 81 43 32 44 86 45 80 46 82 47 33 48 85 49 79 50 78 51 34 53
REMARK SMILES IDX 66 54 46 55 65 56 47 57 50 58 64 59 83 60 48 61 49 62 63 64
REMARK SMILES IDX 84 65 51 66 35 67 36 68 44 69 37 70 43 71 45 72 42 73 38 74
REMARK SMILES IDX 39 75 40 76 41 77 67 78 68 79 76 80 69 81 75 82 77 83 74 84
REMARK SMILES IDX 70 85 71 86 72 87 73 88 52 89 53 90 61 91 54 92 60 93 62 94
REMARK SMILES IDX 59 95 55 96 56 97 57 98 58 99
REMARK H PARENT 8 14 82 52 50 63
REMARK Flexibility Score: inf
ROOT
ATOM      1  O   UNL     1      -3.019   6.147   6.367  1.00  0.00    -0.374 OA
ENDROOT
BRANCH   1   2
ATOM      2  C   UNL     1      -3.138   6.250   4.948  1.00  0.00     0.202 C 
BRANCH   2   3
ATOM      3  C   UNL     1      -2.114   7.128   4.227  1.00  0.00     0.261 C 
BRANCH   3   4
ATOM      4  O   UNL     1      -0.785   6.607   4.397  1.00  0.00    -0.460 OA
BRANCH   4   5
ATOM      5  C   UNL     1      -0.019   7.312   5.262  1.00  0.00     0.340 C 
ATOM      6  O   UNL     1      -0.294   8.407   5.733  1.00  0.00    -0.246 OA
BRANCH   5   7
ATOM      7  C   UNL     1       1.161   6.538   5.725  1.00  0.00     0.083 A 
ATOM      8  C   UNL     1       1.843   5.544   4.998  1.00  0.00     0.053 A 
ATOM      9  C   UNL     1       3.032   5.039   5.572  1.00  0.00     0.027 A 
ATOM     10  C   UNL     1       3.437   5.366   6.868  1.00  0.00     0.002 A 
ATOM     11  C   UNL     1       1.570   6.852   7.042  1.00  0.00     0.018 A 
ATOM     12  C   UNL     1       2.678   6.244   7.623  1.00  0.00     0.001 A 
BRANCH   8  13
ATOM     13  N   UNL     1       1.331   4.928   3.827  1.00  0.00    -0.355 N 
ATOM     14  H   UNL     1       0.898   5.528   3.178  1.00  0.00     0.167 HD
BRANCH  13  15
ATOM     15  C   UNL     1       1.366   3.552   3.476  1.00  0.00     0.039 A 
ATOM     16  C   UNL     1       1.365   1.771   1.720  1.00  0.00     0.002 A 
ATOM     17  C   UNL     1       1.210   3.131   2.134  1.00  0.00     0.034 A 
ATOM     18  C   UNL     1       1.696   0.870   2.732  1.00  0.00     0.127 A 
ATOM     19  C   UNL     1       1.832   1.261   4.055  1.00  0.00     0.006 A 
ATOM     20  O   UNL     1       1.945  -0.468   2.566  1.00  0.00    -0.492 OA
ATOM     21  C   UNL     1       1.646   2.576   4.436  1.00  0.00     0.034 A 
ATOM     22  C   UNL     1       2.271   0.119   4.905  1.00  0.00     0.028 C 
ATOM     23  C   UNL     1       2.064  -1.020   3.895  1.00  0.00     0.240 C 
ATOM     24  C   UNL     1       3.748   0.286   5.283  1.00  0.00     0.020 C 
ATOM     25  C   UNL     1       1.415  -0.068   6.159  1.00  0.00     0.020 C 
BRANCH  16  26
ATOM     26  C   UNL     1       1.062   1.336   0.269  1.00  0.00    -0.009 C 
ATOM     27  C   UNL     1       1.641  -0.029  -0.168  1.00  0.00     0.016 C 
ATOM     28  C   UNL     1       1.508   2.372  -0.783  1.00  0.00     0.016 C 
ATOM     29  C   UNL     1      -0.455   1.194   0.175  1.00  0.00     0.016 C 
ENDBRANCH  16  26
ENDBRANCH  13  15
ENDBRANCH   8  13
ENDBRANCH   5   7
ENDBRANCH   4   5
ENDBRANCH   3   4
ENDBRANCH   2   3
ENDBRANCH   1   2
BRANCH   1  30
ATOM     30  C   UNL     1      -2.093   5.179   6.866  1.00  0.00     0.202 C 
BRANCH  30  31
ATOM     31  C   UNL     1      -2.520   3.704   6.829  1.00  0.00     0.261 C 
BRANCH  31  32
ATOM     32  O   UNL     1      -2.660   3.199   5.491  1.00  0.00    -0.460 OA
BRANCH  32  33
ATOM     33  C   UNL     1      -3.934   3.064   5.043  1.00  0.00     0.338 C 
ATOM     34  O   UNL     1      -4.963   3.266   5.668  1.00  0.00    -0.246 OA
BRANCH  33  35
ATOM     35  C   UNL     1      -3.888   2.812   3.590  1.00  0.00     0.060 A 
ATOM     36  C   UNL     1      -3.264   1.673   3.108  1.00  0.00     0.016 A 
ATOM     37  C   UNL     1      -4.473   3.728   2.701  1.00  0.00     0.016 A 
ATOM     38  C   UNL     1      -3.222   1.468   1.731  1.00  0.00     0.010 A 
ATOM     39  C   UNL     1      -4.391   3.528   1.314  1.00  0.00     0.010 A 
ATOM     40  C   UNL     1      -3.747   2.398   0.803  1.00  0.00    -0.014 A 
BRANCH  40  41
ATOM     41  C   UNL     1      -3.637   2.130  -0.670  1.00  0.00     0.031 A 
ATOM     42  C   UNL     1      -2.862   3.033  -1.610  1.00  0.00     0.074 A 
ATOM     43  C   UNL     1      -4.157   0.986  -1.162  1.00  0.00     0.049 A 
ATOM     44  N   UNL     1      -2.620   2.875  -2.890  1.00  0.00    -0.248 NA
ATOM     45  C   UNL     1      -2.263   4.253  -1.047  1.00  0.00     0.031 C 
ATOM     46  C   UNL     1      -4.893   0.006  -0.366  1.00  0.00     0.029 A 
ATOM     47  N   UNL     1      -4.119   0.432  -2.420  1.00  0.00    -0.354 N 
ATOM     48  C   UNL     1      -1.854   3.968  -3.288  1.00  0.00     0.074 A 
ATOM     49  C   UNL     1      -1.684   4.797  -2.113  1.00  0.00     0.031 C 
ATOM     50  C   UNL     1      -5.171  -1.057  -1.128  1.00  0.00     0.029 A 
ATOM     51  C   UNL     1      -4.742  -0.793  -2.499  1.00  0.00     0.049 A 
ATOM     52  H   UNL     1      -3.688   0.869  -3.189  1.00  0.00     0.167 HD
ATOM     53  C   UNL     1      -1.336   4.249  -4.511  1.00  0.00     0.034 A 
ATOM     54  C   UNL     1      -4.983  -1.609  -3.547  1.00  0.00     0.034 A 
ATOM     55  C   UNL     1      -1.492   3.407  -5.676  1.00  0.00     0.049 A 
ATOM     56  C   UNL     1      -4.471  -1.234  -4.910  1.00  0.00     0.074 A 
ATOM     57  C   UNL     1      -0.974   3.610  -6.946  1.00  0.00     0.029 A 
ATOM     58  N   UNL     1      -2.206   2.220  -5.730  1.00  0.00    -0.354 N 
ATOM     59  N   UNL     1      -3.728  -0.209  -5.254  1.00  0.00    -0.248 NA
ATOM     60  C   UNL     1      -4.827  -2.117  -6.030  1.00  0.00     0.031 C 
ATOM     61  C   UNL     1      -1.452   2.605  -7.784  1.00  0.00     0.029 A 
ATOM     62  C   UNL     1      -2.184   1.711  -7.021  1.00  0.00     0.049 A 
ATOM     63  H   UNL     1      -2.662   1.800  -4.965  1.00  0.00     0.167 HD
ATOM     64  C   UNL     1      -3.514  -0.334  -6.624  1.00  0.00     0.074 A 
ATOM     65  C   UNL     1      -4.181  -1.548  -7.041  1.00  0.00     0.031 C 
ATOM     66  C   UNL     1      -2.831   0.494  -7.452  1.00  0.00     0.034 A 
BRANCH  53  67
ATOM     67  C   UNL     1      -0.535   5.520  -4.709  1.00  0.00     0.023 A 
ATOM     68  C   UNL     1      -0.983   6.491  -5.630  1.00  0.00     0.031 A 
ATOM     69  C   UNL     1       0.747   5.677  -4.155  1.00  0.00     0.131 A 
ATOM     70  C   UNL     1      -0.134   7.539  -6.013  1.00  0.00     0.055 A 
ATOM     71  C   UNL     1       1.571   6.750  -4.506  1.00  0.00     0.041 A 
ATOM     72  F   UNL     1       1.226   4.779  -3.280  1.00  0.00    -0.206 F 
ATOM     73  C   UNL     1       1.138   7.676  -5.452  1.00  0.00     0.022 A 
BRANCH  70  74
ATOM     74  S   UNL     1      -0.608   8.702  -7.324  1.00  0.00     0.124 S 
ATOM     75  O   UNL     1      -0.572   9.980  -6.617  1.00  0.00    -0.237 OA
ATOM     76  O   UNL     1       0.452   8.503  -8.308  1.00  0.00    -0.237 OA
ATOM     77  O   UNL     1      -1.937   8.254  -7.728  1.00  0.00    -0.744 OA
ENDBRANCH  70  74
ENDBRANCH  53  67
BRANCH  54  78
ATOM     78  C   UNL     1      -5.760  -2.863  -3.311  1.00  0.00     0.023 A 
ATOM     79  C   UNL     1      -7.053  -2.802  -2.757  1.00  0.00     0.031 A 
ATOM     80  C   UNL     1      -5.186  -4.129  -3.504  1.00  0.00     0.131 A 
ATOM     81  C   UNL     1      -7.678  -3.970  -2.308  1.00  0.00     0.055 A 
ATOM     82  C   UNL     1      -5.856  -5.301  -3.145  1.00  0.00     0.041 A 
ATOM     83  F   UNL     1      -3.955  -4.243  -4.026  1.00  0.00    -0.206 F 
ATOM     84  C   UNL     1      -7.096  -5.223  -2.518  1.00  0.00     0.022 A 
BRANCH  81  85
ATOM     85  S   UNL     1      -9.169  -3.879  -1.278  1.00  0.00     0.124 S 
ATOM     86  O   UNL     1     -10.138  -4.620  -2.079  1.00  0.00    -0.237 OA
ATOM     87  O   UNL     1      -8.724  -4.539  -0.052  1.00  0.00    -0.237 OA
ATOM     88  O   UNL     1      -9.415  -2.446  -1.152  1.00  0.00    -0.744 OA
ENDBRANCH  81  85
ENDBRANCH  54  78
BRANCH  66  89
ATOM     89  C   UNL     1      -2.735   0.149  -8.922  1.00  0.00     0.023 A 
ATOM     90  C   UNL     1      -1.474  -0.055  -9.516  1.00  0.00     0.031 A 
ATOM     91  C   UNL     1      -3.861   0.194  -9.762  1.00  0.00     0.131 A 
ATOM     92  C   UNL     1      -1.362  -0.144 -10.910  1.00  0.00     0.055 A 
ATOM     93  C   UNL     1      -3.752   0.046 -11.146  1.00  0.00     0.041 A 
ATOM     94  F   UNL     1      -5.086   0.396  -9.250  1.00  0.00    -0.206 F 
ATOM     95  C   UNL     1      -2.496  -0.106 -11.727  1.00  0.00     0.022 A 
BRANCH  92  96
ATOM     96  S   UNL     1       0.261  -0.210 -11.719  1.00  0.00     0.124 S 
ATOM     97  O   UNL     1       0.178  -1.464 -12.465  1.00  0.00    -0.237 OA
ATOM     98  O   UNL     1       0.247   1.002 -12.534  1.00  0.00    -0.237 OA
ATOM     99  O   UNL     1       1.208  -0.211 -10.609  1.00  0.00    -0.744 OA
ENDBRANCH  92  96
ENDBRANCH  66  89
ENDBRANCH  40  41
ENDBRANCH  33  35
ENDBRANCH  32  33
ENDBRANCH  31  32
ENDBRANCH  30  31
ENDBRANCH   1  30
TORSDOF 20
