REMARK SMILES C[C@@H](C(=O)OCCOCCOC(=O)c1ccc(-c2c3nc(c(-c4cc(S(=O)(=O)[O-])ccc4F)c4ccc([nH]4)c(-c4cc(S(=O)(=O)[O-])ccc4F)c4nc(c(-c5cc(S(=O)(=O)[O-])ccc5F)c5ccc2[nH]5)C=C4)C=C3)cc1)c1ccc2c(c1)[nH]c1ccc(Cl)cc12
REMARK SMILES IDX 9 1 8 2 7 3 6 4 5 5 3 6 4 7 2 8 1 9 77 10 78 11 82 12 79 13
REMARK SMILES IDX 81 14 80 15 83 16 90 17 84 18 89 20 85 21 87 22 86 23 88 24
REMARK SMILES IDX 10 25 11 26 12 27 13 28 14 29 15 30 76 31 16 32 75 33 17 34
REMARK SMILES IDX 18 35 19 36 69 37 20 38 74 39 68 40 70 41 21 42 73 43 67 44
REMARK SMILES IDX 66 45 22 47 54 48 34 49 53 50 35 51 38 52 52 53 71 54 36 55
REMARK SMILES IDX 37 56 51 58 72 59 39 60 23 61 24 62 32 63 25 64 31 65 33 66
REMARK SMILES IDX 30 67 26 68 27 69 28 70 29 71 55 72 56 73 64 74 57 75 63 76
REMARK SMILES IDX 65 77 62 78 58 79 59 80 60 81 61 82 40 83 41 84 49 85 42 86
REMARK SMILES IDX 48 87 50 88 47 89 43 90 44 91 45 92 46 93
REMARK H PARENT 83 19 70 46 38 57
REMARK Flexibility Score: inf
ROOT
ATOM      1  C   UNL     1       0.418   3.333   1.615  1.00  0.00     0.202 C 
ENDROOT
BRANCH   1   2
ATOM      2  O   UNL     1       0.944   3.718   2.881  1.00  0.00    -0.374 OA
BRANCH   2   3
ATOM      3  C   UNL     1       2.167   3.108   3.300  1.00  0.00     0.202 C 
BRANCH   3   4
ATOM      4  C   UNL     1       2.083   1.648   3.750  1.00  0.00     0.261 C 
BRANCH   4   5
ATOM      5  O   UNL     1       1.805   0.783   2.632  1.00  0.00    -0.463 OA
BRANCH   5   6
ATOM      6  C   UNL     1       0.658   0.056   2.719  1.00  0.00     0.313 C 
ATOM      7  O   UNL     1      -0.041  -0.005   3.725  1.00  0.00    -0.252 OA
BRANCH   6   8
ATOM      8  C   UNL     1       0.364  -0.719   1.426  1.00  0.00     0.126 C 
ATOM      9  C   UNL     1       0.945  -0.124   0.140  1.00  0.00     0.025 C 
BRANCH   8  10
ATOM     10  C   UNL     1      -1.139  -0.975   1.305  1.00  0.00    -0.032 A 
ATOM     11  C   UNL     1      -2.046   0.041   0.960  1.00  0.00     0.005 A 
ATOM     12  C   UNL     1      -1.625  -2.232   1.692  1.00  0.00     0.031 A 
ATOM     13  C   UNL     1      -3.433  -0.171   1.011  1.00  0.00     0.011 A 
ATOM     14  C   UNL     1      -3.008  -2.406   1.784  1.00  0.00     0.047 A 
ATOM     15  C   UNL     1      -3.927  -1.414   1.456  1.00  0.00     0.007 A 
ATOM     16  N   UNL     1      -3.719  -3.490   2.233  1.00  0.00    -0.355 N 
ATOM     17  C   UNL     1      -5.234  -1.943   1.718  1.00  0.00     0.009 A 
ATOM     18  C   UNL     1      -5.064  -3.221   2.253  1.00  0.00     0.047 A 
ATOM     19  H   UNL     1      -3.317  -4.347   2.506  1.00  0.00     0.167 HD
ATOM     20  C   UNL     1      -6.545  -1.438   1.592  1.00  0.00     0.031 A 
ATOM     21  C   UNL     1      -6.126  -4.007   2.712  1.00  0.00     0.028 A 
ATOM     22  C   UNL     1      -7.618  -2.222   2.032  1.00  0.00     0.041 A 
ATOM     23  C   UNL     1      -7.413  -3.479   2.597  1.00  0.00     0.022 A 
ATOM     24  Cl  UNL     1      -9.226  -1.619   1.883  1.00  0.00    -0.084 Cl
ENDBRANCH   8  10
ENDBRANCH   6   8
ENDBRANCH   5   6
ENDBRANCH   4   5
ENDBRANCH   3   4
ENDBRANCH   2   3
ENDBRANCH   1   2
BRANCH   1  25
ATOM     25  C   UNL     1       1.071   3.939   0.365  1.00  0.00     0.261 C 
BRANCH  25  26
ATOM     26  O   UNL     1       2.473   3.645   0.262  1.00  0.00    -0.460 OA
BRANCH  26  27
ATOM     27  C   UNL     1       3.280   4.702   0.532  1.00  0.00     0.338 C 
ATOM     28  O   UNL     1       2.926   5.851   0.765  1.00  0.00    -0.246 OA
BRANCH  27  29
ATOM     29  C   UNL     1       4.676   4.259   0.700  1.00  0.00     0.060 A 
ATOM     30  C   UNL     1       5.339   4.665   1.866  1.00  0.00     0.016 A 
ATOM     31  C   UNL     1       5.351   3.531  -0.282  1.00  0.00     0.016 A 
ATOM     32  C   UNL     1       6.695   4.396   2.029  1.00  0.00     0.010 A 
ATOM     33  C   UNL     1       6.718   3.268  -0.120  1.00  0.00     0.010 A 
ATOM     34  C   UNL     1       7.403   3.733   1.019  1.00  0.00    -0.014 A 
BRANCH  34  35
ATOM     35  C   UNL     1       8.885   3.681   1.091  1.00  0.00     0.031 A 
ATOM     36  C   UNL     1       9.685   4.681   0.299  1.00  0.00     0.074 A 
ATOM     37  C   UNL     1       9.506   2.795   1.890  1.00  0.00     0.049 A 
ATOM     38  N   UNL     1      10.982   4.820   0.203  1.00  0.00    -0.248 NA
ATOM     39  C   UNL     1       8.915   5.655  -0.490  1.00  0.00     0.031 C 
ATOM     40  C   UNL     1       8.834   1.816   2.744  1.00  0.00     0.029 A 
ATOM     41  N   UNL     1      10.841   2.578   2.116  1.00  0.00    -0.354 N 
ATOM     42  C   UNL     1      11.185   5.892  -0.659  1.00  0.00     0.074 A 
ATOM     43  C   UNL     1       9.877   6.342  -1.086  1.00  0.00     0.031 C 
ATOM     44  C   UNL     1       9.764   1.100   3.400  1.00  0.00     0.029 A 
ATOM     45  C   UNL     1      11.094   1.542   2.985  1.00  0.00     0.049 A 
ATOM     46  H   UNL     1      11.553   3.113   1.696  1.00  0.00     0.167 HD
ATOM     47  C   UNL     1      12.355   6.455  -1.052  1.00  0.00     0.034 A 
ATOM     48  C   UNL     1      12.264   1.000   3.381  1.00  0.00     0.034 A 
ATOM     49  C   UNL     1      13.652   5.990  -0.622  1.00  0.00     0.049 A 
ATOM     50  C   UNL     1      13.554   1.585   2.858  1.00  0.00     0.074 A 
ATOM     51  C   UNL     1      14.899   6.497  -0.943  1.00  0.00     0.029 A 
ATOM     52  N   UNL     1      13.870   4.900   0.211  1.00  0.00    -0.354 N 
ATOM     53  N   UNL     1      13.733   2.605   2.050  1.00  0.00    -0.248 NA
ATOM     54  C   UNL     1      14.800   0.950   3.308  1.00  0.00     0.031 C 
ATOM     55  C   UNL     1      15.870   5.670  -0.367  1.00  0.00     0.029 A 
ATOM     56  C   UNL     1      15.231   4.695   0.382  1.00  0.00     0.049 A 
ATOM     57  H   UNL     1      13.162   4.352   0.620  1.00  0.00     0.167 HD
ATOM     58  C   UNL     1      15.113   2.752   1.923  1.00  0.00     0.074 A 
ATOM     59  C   UNL     1      15.716   1.725   2.747  1.00  0.00     0.031 C 
ATOM     60  C   UNL     1      15.819   3.658   1.198  1.00  0.00     0.034 A 
BRANCH  47  61
ATOM     61  C   UNL     1      12.281   7.595  -2.039  1.00  0.00     0.023 A 
ATOM     62  C   UNL     1      11.677   8.823  -1.714  1.00  0.00     0.031 A 
ATOM     63  C   UNL     1      12.800   7.441  -3.337  1.00  0.00     0.131 A 
ATOM     64  C   UNL     1      11.547   9.820  -2.694  1.00  0.00     0.055 A 
ATOM     65  C   UNL     1      12.736   8.465  -4.283  1.00  0.00     0.041 A 
ATOM     66  F   UNL     1      13.367   6.283  -3.712  1.00  0.00    -0.206 F 
ATOM     67  C   UNL     1      12.094   9.658  -3.969  1.00  0.00     0.022 A 
BRANCH  64  68
ATOM     68  S   UNL     1      10.529  11.275  -2.323  1.00  0.00     0.124 S 
ATOM     69  O   UNL     1       9.240  10.663  -2.014  1.00  0.00    -0.237 OA
ATOM     70  O   UNL     1      11.238  11.877  -1.200  1.00  0.00    -0.237 OA
ATOM     71  O   UNL     1      10.563  12.043  -3.566  1.00  0.00    -0.744 OA
ENDBRANCH  64  68
ENDBRANCH  47  61
BRANCH  48  72
ATOM     72  C   UNL     1      12.282  -0.185   4.287  1.00  0.00     0.023 A 
ATOM     73  C   UNL     1      12.867  -0.118   5.561  1.00  0.00     0.031 A 
ATOM     74  C   UNL     1      11.766  -1.423   3.863  1.00  0.00     0.131 A 
ATOM     75  C   UNL     1      12.964  -1.278   6.348  1.00  0.00     0.055 A 
ATOM     76  C   UNL     1      11.817  -2.561   4.670  1.00  0.00     0.041 A 
ATOM     77  F   UNL     1      11.198  -1.544   2.652  1.00  0.00    -0.206 F 
ATOM     78  C   UNL     1      12.432  -2.495   5.916  1.00  0.00     0.022 A 
BRANCH  75  79
ATOM     79  S   UNL     1      13.881  -1.193   7.911  1.00  0.00     0.124 S 
ATOM     80  O   UNL     1      15.194  -0.747   7.461  1.00  0.00    -0.237 OA
ATOM     81  O   UNL     1      13.097  -0.223   8.668  1.00  0.00    -0.237 OA
ATOM     82  O   UNL     1      13.824  -2.564   8.413  1.00  0.00    -0.744 OA
ENDBRANCH  75  79
ENDBRANCH  48  72
BRANCH  60  83
ATOM     83  C   UNL     1      17.324   3.604   1.307  1.00  0.00     0.023 A 
ATOM     84  C   UNL     1      18.066   2.518   0.809  1.00  0.00     0.031 A 
ATOM     85  C   UNL     1      18.025   4.653   1.929  1.00  0.00     0.131 A 
ATOM     86  C   UNL     1      19.457   2.480   0.990  1.00  0.00     0.055 A 
ATOM     87  C   UNL     1      19.415   4.639   2.051  1.00  0.00     0.041 A 
ATOM     88  F   UNL     1      17.368   5.714   2.424  1.00  0.00    -0.206 F 
ATOM     89  C   UNL     1      20.138   3.541   1.593  1.00  0.00     0.022 A 
BRANCH  86  90
ATOM     90  S   UNL     1      20.358   0.981   0.510  1.00  0.00     0.124 S 
ATOM     91  O   UNL     1      19.701  -0.041   1.318  1.00  0.00    -0.237 OA
ATOM     92  O   UNL     1      20.110   0.914  -0.927  1.00  0.00    -0.237 OA
ATOM     93  O   UNL     1      21.740   1.275   0.886  1.00  0.00    -0.744 OA
ENDBRANCH  86  90
ENDBRANCH  60  83
ENDBRANCH  34  35
ENDBRANCH  27  29
ENDBRANCH  26  27
ENDBRANCH  25  26
ENDBRANCH   1  25
TORSDOF 18
