REMARK SMILES CCCSc1nc2n(n1)[C@@H](c1ccccc1C(=O)OCCOCCOC(=O)c1ccc(-c3c4nc(c(-c5cc(S(=O)(=O)[O-])ccc5F)c5ccc([nH]5)c(-c5cc(S(=O)(=O)[O-])ccc5F)c5nc(c(-c6cc(S(=O)(=O)[O-])ccc6F)c6ccc3[nH]6)C=C5)C=C4)cc1)C(C(=O)Nc1cccc(C)c1C)=C(C)N2
REMARK SMILES IDX 21 1 20 2 19 3 17 4 18 5 16 6 11 7 12 8 13 9 15 10 14 11
REMARK SMILES IDX 10 12 5 13 6 14 9 15 7 16 8 17 105 18 103 19 91 21 104 22
REMARK SMILES IDX 4 23 3 24 2 25 1 26 92 27 93 28 94 29 95 31 96 32 101 33
REMARK SMILES IDX 97 34 99 35 102 36 98 37 100 38 22 39 23 40 24 41 25 42
REMARK SMILES IDX 26 43 27 44 28 45 29 46 90 47 30 48 89 49 31 50 32 51 33 52
REMARK SMILES IDX 83 53 34 54 88 55 82 56 84 57 35 58 87 59 81 60 80 61 36 63
REMARK SMILES IDX 68 64 48 65 67 66 49 67 52 68 66 69 85 70 50 71 51 72 65 74
REMARK SMILES IDX 86 75 53 76 37 77 38 78 46 79 39 80 45 81 47 82 44 83 40 84
REMARK SMILES IDX 41 85 42 86 43 87 69 88 70 89 78 90 71 91 77 92 79 93 76 94
REMARK SMILES IDX 72 95 73 96 74 97 75 98 54 99 55 100 63 101 56 102 62 103
REMARK SMILES IDX 64 104 61 105 57 106 58 107 59 108 60 109
REMARK H PARENT 105 20 94 30 84 62 52 73
REMARK Flexibility Score: inf
ROOT
ATOM      1  C   UNL     1       5.816   3.304  -5.944  1.00  0.00     0.202 C 
ENDROOT
BRANCH   1   2
ATOM      2  C   UNL     1       4.708   4.075  -5.218  1.00  0.00     0.261 C 
BRANCH   2   3
ATOM      3  O   UNL     1       3.730   3.320  -4.477  1.00  0.00    -0.460 OA
BRANCH   3   4
ATOM      4  C   UNL     1       2.546   3.202  -5.125  1.00  0.00     0.338 C 
ATOM      5  O   UNL     1       2.348   3.543  -6.285  1.00  0.00    -0.246 OA
BRANCH   4   6
ATOM      6  C   UNL     1       1.474   2.551  -4.324  1.00  0.00     0.065 A 
ATOM      7  C   UNL     1       1.096   2.868  -2.994  1.00  0.00    -0.004 A 
ATOM      8  C   UNL     1      -0.120   2.297  -2.536  1.00  0.00     0.007 A 
ATOM      9  C   UNL     1      -0.891   1.431  -3.316  1.00  0.00     0.000 A 
ATOM     10  C   UNL     1       0.678   1.679  -5.101  1.00  0.00     0.016 A 
ATOM     11  C   UNL     1      -0.490   1.118  -4.601  1.00  0.00     0.001 A 
BRANCH   7  12
ATOM     12  C   UNL     1       1.834   3.890  -2.096  1.00  0.00     0.180 C 
ATOM     13  C   UNL     1       1.127   2.743   1.187  1.00  0.00     0.210 A 
ATOM     14  N   UNL     1       0.485   3.954   1.248  1.00  0.00    -0.185 NA
ATOM     15  N   UNL     1       1.834   2.528   0.062  1.00  0.00    -0.141 NA
ATOM     16  C   UNL     1       0.745   4.494   0.094  1.00  0.00     0.227 A 
ATOM     17  N   UNL     1       1.542   3.656  -0.649  1.00  0.00    -0.218 N 
ATOM     18  N   UNL     1       0.297   5.644  -0.428  1.00  0.00    -0.328 N 
ATOM     19  C   UNL     1       0.637   6.088  -1.691  1.00  0.00     0.026 C 
ATOM     20  H   UNL     1      -0.304   6.202   0.117  1.00  0.00     0.169 HD
ATOM     21  C   UNL     1       1.444   5.330  -2.470  1.00  0.00     0.065 C 
ATOM     22  C   UNL     1       0.031   7.407  -2.095  1.00  0.00     0.065 C 
BRANCH  13  23
ATOM     23  S   UNL     1       0.893   1.650   2.523  1.00  0.00    -0.084 SA
BRANCH  23  24
ATOM     24  C   UNL     1       1.570   0.048   2.046  1.00  0.00     0.078 C 
BRANCH  24  25
ATOM     25  C   UNL     1       0.647  -0.819   1.189  1.00  0.00     0.008 C 
ATOM     26  C   UNL     1       0.735  -0.506  -0.292  1.00  0.00     0.005 C 
ENDBRANCH  24  25
ENDBRANCH  23  24
ENDBRANCH  13  23
BRANCH  21  27
ATOM     27  C   UNL     1       1.851   5.831  -3.792  1.00  0.00     0.255 C 
ATOM     28  O   UNL     1       1.127   5.651  -4.766  1.00  0.00    -0.269 OA
ATOM     29  N   UNL     1       3.043   6.507  -3.925  1.00  0.00    -0.322 N 
ATOM     30  H   UNL     1       3.778   6.120  -4.453  1.00  0.00     0.170 HD
BRANCH  29  31
ATOM     31  C   UNL     1       3.202   7.764  -3.293  1.00  0.00     0.044 A 
ATOM     32  C   UNL     1       2.886   8.874  -4.091  1.00  0.00     0.026 A 
ATOM     33  C   UNL     1       3.480   7.912  -1.925  1.00  0.00    -0.025 A 
ATOM     34  C   UNL     1       2.687  10.116  -3.508  1.00  0.00     0.002 A 
ATOM     35  C   UNL     1       3.195   9.159  -1.326  1.00  0.00    -0.046 A 
ATOM     36  C   UNL     1       4.092   6.793  -1.125  1.00  0.00     0.047 C 
ATOM     37  C   UNL     1       2.797  10.245  -2.128  1.00  0.00     0.004 A 
ATOM     38  C   UNL     1       3.203   9.371   0.165  1.00  0.00     0.044 C 
ENDBRANCH  29  31
ENDBRANCH  21  27
ENDBRANCH   7  12
ENDBRANCH   4   6
ENDBRANCH   3   4
ENDBRANCH   2   3
ENDBRANCH   1   2
BRANCH   1  39
ATOM     39  O   UNL     1       5.525   2.300  -6.905  1.00  0.00    -0.374 OA
BRANCH  39  40
ATOM     40  C   UNL     1       4.664   1.205  -6.626  1.00  0.00     0.202 C 
BRANCH  40  41
ATOM     41  C   UNL     1       4.978   0.232  -5.495  1.00  0.00     0.261 C 
BRANCH  41  42
ATOM     42  O   UNL     1       5.210   0.893  -4.265  1.00  0.00    -0.460 OA
BRANCH  42  43
ATOM     43  C   UNL     1       6.518   1.088  -4.012  1.00  0.00     0.338 C 
ATOM     44  O   UNL     1       7.453   0.896  -4.792  1.00  0.00    -0.246 OA
BRANCH  43  45
ATOM     45  C   UNL     1       6.700   1.500  -2.618  1.00  0.00     0.060 A 
ATOM     46  C   UNL     1       8.027   1.445  -2.196  1.00  0.00     0.016 A 
ATOM     47  C   UNL     1       5.618   1.370  -1.734  1.00  0.00     0.016 A 
ATOM     48  C   UNL     1       8.266   0.827  -0.999  1.00  0.00     0.010 A 
ATOM     49  C   UNL     1       5.861   0.762  -0.528  1.00  0.00     0.010 A 
ATOM     50  C   UNL     1       7.169   0.372  -0.258  1.00  0.00    -0.014 A 
BRANCH  50  51
ATOM     51  C   UNL     1       7.458  -0.592   0.776  1.00  0.00     0.031 A 
ATOM     52  C   UNL     1       8.121  -0.009   1.950  1.00  0.00     0.074 A 
ATOM     53  C   UNL     1       7.133  -1.892   0.673  1.00  0.00     0.049 A 
ATOM     54  N   UNL     1       9.326  -0.209   2.361  1.00  0.00    -0.248 NA
ATOM     55  C   UNL     1       7.397   1.057   2.652  1.00  0.00     0.031 C 
ATOM     56  C   UNL     1       6.263  -2.537  -0.314  1.00  0.00     0.029 A 
ATOM     57  N   UNL     1       7.439  -2.901   1.530  1.00  0.00    -0.354 N 
ATOM     58  C   UNL     1       9.444   0.549   3.514  1.00  0.00     0.074 A 
ATOM     59  C   UNL     1       8.317   1.445   3.532  1.00  0.00     0.031 C 
ATOM     60  C   UNL     1       5.920  -3.763   0.142  1.00  0.00     0.029 A 
ATOM     61  C   UNL     1       6.646  -4.027   1.375  1.00  0.00     0.049 A 
ATOM     62  H   UNL     1       8.157  -2.838   2.200  1.00  0.00     0.167 HD
ATOM     63  C   UNL     1      10.325   0.215   4.492  1.00  0.00     0.034 A 
ATOM     64  C   UNL     1       6.517  -5.043   2.266  1.00  0.00     0.034 A 
ATOM     65  C   UNL     1      11.368  -0.652   3.999  1.00  0.00     0.049 A 
ATOM     66  C   UNL     1       7.727  -5.032   3.128  1.00  0.00     0.074 A 
ATOM     67  C   UNL     1      12.323  -0.544   3.005  1.00  0.00     0.029 A 
ATOM     68  N   UNL     1      11.309  -1.993   4.304  1.00  0.00    -0.354 N 
ATOM     69  N   UNL     1       8.929  -5.286   2.685  1.00  0.00    -0.248 NA
ATOM     70  C   UNL     1       7.683  -4.293   4.383  1.00  0.00     0.031 C 
ATOM     71  C   UNL     1      12.422  -1.849   2.438  1.00  0.00     0.029 A 
ATOM     72  C   UNL     1      11.555  -2.686   3.142  1.00  0.00     0.049 A 
ATOM     73  H   UNL     1      11.125  -2.383   5.189  1.00  0.00     0.167 HD
ATOM     74  C   UNL     1       9.759  -4.395   3.350  1.00  0.00     0.074 A 
ATOM     75  C   UNL     1       8.956  -3.893   4.462  1.00  0.00     0.031 C 
ATOM     76  C   UNL     1      10.913  -3.937   2.780  1.00  0.00     0.034 A 
BRANCH  63  77
ATOM     77  C   UNL     1      10.037   0.409   5.957  1.00  0.00     0.023 A 
ATOM     78  C   UNL     1      11.069   0.122   6.864  1.00  0.00     0.031 A 
ATOM     79  C   UNL     1       8.750   0.593   6.520  1.00  0.00     0.131 A 
ATOM     80  C   UNL     1      10.796  -0.038   8.233  1.00  0.00     0.055 A 
ATOM     81  C   UNL     1       8.500   0.514   7.890  1.00  0.00     0.041 A 
ATOM     82  F   UNL     1       7.649   0.754   5.776  1.00  0.00    -0.206 F 
ATOM     83  C   UNL     1       9.521   0.167   8.754  1.00  0.00     0.022 A 
BRANCH  80  84
ATOM     84  S   UNL     1      12.099  -0.712   9.292  1.00  0.00     0.124 S 
ATOM     85  O   UNL     1      12.532  -1.877   8.528  1.00  0.00    -0.237 OA
ATOM     86  O   UNL     1      13.037   0.404   9.355  1.00  0.00    -0.237 OA
ATOM     87  O   UNL     1      11.398  -1.011  10.538  1.00  0.00    -0.744 OA
ENDBRANCH  80  84
ENDBRANCH  63  77
BRANCH  64  88
ATOM     88  C   UNL     1       5.241  -5.718   2.617  1.00  0.00     0.023 A 
ATOM     89  C   UNL     1       5.196  -6.983   3.232  1.00  0.00     0.031 A 
ATOM     90  C   UNL     1       4.019  -5.006   2.534  1.00  0.00     0.131 A 
ATOM     91  C   UNL     1       3.968  -7.492   3.715  1.00  0.00     0.055 A 
ATOM     92  C   UNL     1       2.808  -5.521   2.996  1.00  0.00     0.041 A 
ATOM     93  F   UNL     1       3.974  -3.745   2.074  1.00  0.00    -0.206 F 
ATOM     94  C   UNL     1       2.779  -6.768   3.596  1.00  0.00     0.022 A 
BRANCH  91  95
ATOM     95  S   UNL     1       3.923  -9.080   4.603  1.00  0.00     0.124 S 
ATOM     96  O   UNL     1       4.224 -10.035   3.544  1.00  0.00    -0.237 OA
ATOM     97  O   UNL     1       4.950  -8.896   5.622  1.00  0.00    -0.237 OA
ATOM     98  O   UNL     1       2.555  -9.143   5.119  1.00  0.00    -0.744 OA
ENDBRANCH  91  95
ENDBRANCH  64  88
BRANCH  76  99
ATOM     99  C   UNL     1      11.418  -4.629   1.530  1.00  0.00     0.023 A 
ATOM    100  C   UNL     1      10.691  -4.712   0.321  1.00  0.00     0.031 A 
ATOM    101  C   UNL     1      12.741  -5.104   1.528  1.00  0.00     0.131 A 
ATOM    102  C   UNL     1      11.288  -5.269  -0.826  1.00  0.00     0.055 A 
ATOM    103  C   UNL     1      13.336  -5.638   0.385  1.00  0.00     0.041 A 
ATOM    104  F   UNL     1      13.496  -5.018   2.636  1.00  0.00    -0.206 F 
ATOM    105  C   UNL     1      12.608  -5.728  -0.797  1.00  0.00     0.022 A 
BRANCH 102 106
ATOM    106  S   UNL     1      10.350  -5.401  -2.383  1.00  0.00     0.124 S 
ATOM    107  O   UNL     1       9.109  -6.051  -1.978  1.00  0.00    -0.237 OA
ATOM    108  O   UNL     1      10.237  -4.006  -2.801  1.00  0.00    -0.237 OA
ATOM    109  O   UNL     1      11.216  -6.220  -3.234  1.00  0.00    -0.744 OA
ENDBRANCH 102 106
ENDBRANCH  76  99
ENDBRANCH  50  51
ENDBRANCH  43  45
ENDBRANCH  42  43
ENDBRANCH  41  42
ENDBRANCH  40  41
ENDBRANCH  39  40
ENDBRANCH   1  39
TORSDOF 23
