REMARK SMILES O=C(OCCOCCOC(=O)[C@H]1CC[C@@H]([NH+]2CCCC2)CC1)c1ccc(-c2c3nc(c(-c4cc(S(=O)(=O)[O-])ccc4F)c4ccc([nH]4)c(-c4cc(S(=O)(=O)[O-])ccc4F)c4nc(c(-c5cc(S(=O)(=O)[O-])ccc5F)c5ccc2[nH]5)C=C4)C=C3)cc1
REMARK SMILES IDX 5 1 4 2 3 3 2 4 1 5 23 6 24 7 85 8 25 9 84 10 26 11 27 12
REMARK SMILES IDX 28 13 78 14 29 15 83 16 77 17 79 18 30 19 82 20 76 21 75 22
REMARK SMILES IDX 31 24 63 25 43 26 62 27 44 28 47 29 61 30 80 31 45 32 46 33
REMARK SMILES IDX 60 35 81 36 48 37 32 38 33 39 41 40 34 41 40 42 42 43 39 44
REMARK SMILES IDX 35 45 36 46 37 47 38 48 64 49 65 50 73 51 66 52 72 53 74 54
REMARK SMILES IDX 71 55 67 56 68 57 69 58 70 59 49 60 50 61 58 62 51 63 57 64
REMARK SMILES IDX 59 65 56 66 52 67 53 68 54 69 55 70 6 71 7 72 8 73 9 74
REMARK SMILES IDX 10 75 11 76 12 77 13 78 22 79 14 80 21 81 15 82 16 83 17 84
REMARK SMILES IDX 20 85 18 87 19 88
REMARK H PARENT 79 23 47 34 16 86
REMARK Flexibility Score: inf
ROOT
ATOM      1  C   UNL     1       4.480   0.509  -1.281  1.00  0.00     0.202 C 
ENDROOT
BRANCH   1   2
ATOM      2  C   UNL     1       3.869  -0.625  -0.422  1.00  0.00     0.261 C 
BRANCH   2   3
ATOM      3  O   UNL     1       2.457  -0.498  -0.159  1.00  0.00    -0.460 OA
BRANCH   3   4
ATOM      4  C   UNL     1       1.871  -0.022   0.972  1.00  0.00     0.338 C 
ATOM      5  O   UNL     1       0.663  -0.164   1.140  1.00  0.00    -0.246 OA
BRANCH   4   6
ATOM      6  C   UNL     1       2.669   0.676   2.014  1.00  0.00     0.060 A 
ATOM      7  C   UNL     1       3.825   1.373   1.702  1.00  0.00     0.016 A 
ATOM      8  C   UNL     1       2.236   0.696   3.343  1.00  0.00     0.016 A 
ATOM      9  C   UNL     1       4.647   1.913   2.653  1.00  0.00     0.010 A 
ATOM     10  C   UNL     1       2.992   1.371   4.314  1.00  0.00     0.010 A 
ATOM     11  C   UNL     1       4.215   1.961   3.963  1.00  0.00    -0.014 A 
BRANCH  11  12
ATOM     12  C   UNL     1       5.164   2.562   4.911  1.00  0.00     0.031 A 
ATOM     13  C   UNL     1       5.855   1.653   5.872  1.00  0.00     0.074 A 
ATOM     14  C   UNL     1       5.540   3.843   4.728  1.00  0.00     0.049 A 
ATOM     15  N   UNL     1       6.698   1.944   6.821  1.00  0.00    -0.248 NA
ATOM     16  C   UNL     1       5.559   0.216   5.742  1.00  0.00     0.031 C 
ATOM     17  C   UNL     1       5.036   4.730   3.668  1.00  0.00     0.029 A 
ATOM     18  N   UNL     1       6.476   4.605   5.368  1.00  0.00    -0.354 N 
ATOM     19  C   UNL     1       6.985   0.736   7.444  1.00  0.00     0.074 A 
ATOM     20  C   UNL     1       6.231  -0.290   6.761  1.00  0.00     0.031 C 
ATOM     21  C   UNL     1       5.713   5.887   3.699  1.00  0.00     0.029 A 
ATOM     22  C   UNL     1       6.604   5.873   4.848  1.00  0.00     0.049 A 
ATOM     23  H   UNL     1       7.009   4.278   6.129  1.00  0.00     0.167 HD
ATOM     24  C   UNL     1       7.796   0.531   8.508  1.00  0.00     0.034 A 
ATOM     25  C   UNL     1       7.325   6.918   5.296  1.00  0.00     0.034 A 
ATOM     26  C   UNL     1       8.525   1.605   9.133  1.00  0.00     0.049 A 
ATOM     27  C   UNL     1       8.132   6.689   6.547  1.00  0.00     0.074 A 
ATOM     28  C   UNL     1       9.312   1.578  10.268  1.00  0.00     0.029 A 
ATOM     29  N   UNL     1       8.551   2.916   8.660  1.00  0.00    -0.354 N 
ATOM     30  N   UNL     1       8.300   5.575   7.227  1.00  0.00    -0.248 NA
ATOM     31  C   UNL     1       8.826   7.851   7.104  1.00  0.00     0.031 C 
ATOM     32  C   UNL     1       9.756   2.882  10.517  1.00  0.00     0.029 A 
ATOM     33  C   UNL     1       9.320   3.711   9.492  1.00  0.00     0.049 A 
ATOM     34  H   UNL     1       8.089   3.231   7.850  1.00  0.00     0.167 HD
ATOM     35  C   UNL     1       9.141   5.898   8.284  1.00  0.00     0.074 A 
ATOM     36  C   UNL     1       9.461   7.306   8.132  1.00  0.00     0.031 C 
ATOM     37  C   UNL     1       9.605   5.115   9.293  1.00  0.00     0.034 A 
BRANCH  24  38
ATOM     38  C   UNL     1       7.795  -0.856   9.102  1.00  0.00     0.023 A 
ATOM     39  C   UNL     1       8.234  -1.984   8.384  1.00  0.00     0.031 A 
ATOM     40  C   UNL     1       7.216  -1.067  10.366  1.00  0.00     0.131 A 
ATOM     41  C   UNL     1       7.992  -3.271   8.890  1.00  0.00     0.055 A 
ATOM     42  C   UNL     1       7.063  -2.346  10.904  1.00  0.00     0.041 A 
ATOM     43  F   UNL     1       6.743  -0.035  11.082  1.00  0.00    -0.206 F 
ATOM     44  C   UNL     1       7.433  -3.460  10.157  1.00  0.00     0.022 A 
BRANCH  41  45
ATOM     45  S   UNL     1       8.239  -4.697   7.792  1.00  0.00     0.124 S 
ATOM     46  O   UNL     1       7.314  -4.392   6.703  1.00  0.00    -0.237 OA
ATOM     47  O   UNL     1       9.658  -4.606   7.469  1.00  0.00    -0.237 OA
ATOM     48  O   UNL     1       7.859  -5.839   8.621  1.00  0.00    -0.744 OA
ENDBRANCH  41  45
ENDBRANCH  24  38
BRANCH  25  49
ATOM     49  C   UNL     1       7.248   8.256   4.636  1.00  0.00     0.023 A 
ATOM     50  C   UNL     1       8.396   8.899   4.149  1.00  0.00     0.031 A 
ATOM     51  C   UNL     1       6.022   8.943   4.529  1.00  0.00     0.131 A 
ATOM     52  C   UNL     1       8.304  10.198   3.621  1.00  0.00     0.055 A 
ATOM     53  C   UNL     1       5.926  10.208   3.946  1.00  0.00     0.041 A 
ATOM     54  F   UNL     1       4.887   8.389   4.986  1.00  0.00    -0.206 F 
ATOM     55  C   UNL     1       7.075  10.850   3.502  1.00  0.00     0.022 A 
BRANCH  52  56
ATOM     56  S   UNL     1       9.834  11.071   3.184  1.00  0.00     0.124 S 
ATOM     57  O   UNL     1      10.572  11.025   4.441  1.00  0.00    -0.237 OA
ATOM     58  O   UNL     1      10.356  10.243   2.102  1.00  0.00    -0.237 OA
ATOM     59  O   UNL     1       9.367  12.396   2.783  1.00  0.00    -0.744 OA
ENDBRANCH  52  56
ENDBRANCH  25  49
BRANCH  37  60
ATOM     60  C   UNL     1      10.553   5.773  10.259  1.00  0.00     0.023 A 
ATOM     61  C   UNL     1      10.133   6.799  11.122  1.00  0.00     0.031 A 
ATOM     62  C   UNL     1      11.901   5.378  10.297  1.00  0.00     0.131 A 
ATOM     63  C   UNL     1      11.070   7.445  11.937  1.00  0.00     0.055 A 
ATOM     64  C   UNL     1      12.813   5.974  11.165  1.00  0.00     0.041 A 
ATOM     65  F   UNL     1      12.351   4.404   9.489  1.00  0.00    -0.206 F 
ATOM     66  C   UNL     1      12.403   7.026  11.980  1.00  0.00     0.022 A 
BRANCH  63  67
ATOM     67  S   UNL     1      10.547   8.918  12.855  1.00  0.00     0.124 S 
ATOM     68  O   UNL     1      10.070   9.787  11.784  1.00  0.00    -0.237 OA
ATOM     69  O   UNL     1       9.523   8.383  13.746  1.00  0.00    -0.237 OA
ATOM     70  O   UNL     1      11.773   9.362  13.515  1.00  0.00    -0.744 OA
ENDBRANCH  63  67
ENDBRANCH  37  60
ENDBRANCH  11  12
ENDBRANCH   4   6
ENDBRANCH   3   4
ENDBRANCH   2   3
ENDBRANCH   1   2
BRANCH   1  71
ATOM     71  O   UNL     1       3.869   1.797  -1.281  1.00  0.00    -0.374 OA
BRANCH  71  72
ATOM     72  C   UNL     1       2.536   1.891  -1.775  1.00  0.00     0.202 C 
BRANCH  72  73
ATOM     73  C   UNL     1       2.499   2.582  -3.130  1.00  0.00     0.261 C 
BRANCH  73  74
ATOM     74  O   UNL     1       3.040   1.666  -4.101  1.00  0.00    -0.463 OA
BRANCH  74  75
ATOM     75  C   UNL     1       4.353   1.847  -4.393  1.00  0.00     0.309 C 
ATOM     76  O   UNL     1       4.985   2.869  -4.146  1.00  0.00    -0.252 OA
BRANCH  75  77
ATOM     77  C   UNL     1       4.956   0.633  -5.098  1.00  0.00     0.099 C 
ATOM     78  C   UNL     1       6.458   0.599  -4.786  1.00  0.00     0.021 C 
ATOM     79  C   UNL     1       4.290  -0.715  -4.768  1.00  0.00     0.021 C 
ATOM     80  C   UNL     1       7.167  -0.572  -5.452  1.00  0.00     0.066 C 
ATOM     81  C   UNL     1       5.009  -1.910  -5.383  1.00  0.00     0.066 C 
ATOM     82  C   UNL     1       6.542  -1.954  -5.194  1.00  0.00     0.184 C 
BRANCH  82  83
ATOM     83  N   UNL     1       7.067  -2.622  -3.996  1.00  0.00    -0.333 N 
ATOM     84  C   UNL     1       6.723  -4.037  -3.855  1.00  0.00     0.262 C 
ATOM     85  C   UNL     1       6.980  -1.983  -2.688  1.00  0.00     0.262 C 
ATOM     86  H   UNL     1       8.045  -2.511  -4.263  1.00  0.00     0.348 HD
ATOM     87  C   UNL     1       5.942  -4.120  -2.559  1.00  0.00     0.067 C 
ATOM     88  C   UNL     1       6.647  -3.094  -1.698  1.00  0.00     0.067 C 
ENDBRANCH  82  83
ENDBRANCH  75  77
ENDBRANCH  74  75
ENDBRANCH  73  74
ENDBRANCH  72  73
ENDBRANCH  71  72
ENDBRANCH   1  71
TORSDOF 18
