REMARK SMILES O=C(OCCOCCOC(=O)c1cccnc1C(=O)Nc1ccc(Cl)cn1)c1ccc(-c2c3nc(c(-c4cc(S(=O)(=O)[O-])ccc4F)c4ccc([nH]4)c(-c4cc(S(=O)(=O)[O-])ccc4F)c4nc(c(-c5cc(S(=O)(=O)[O-])ccc5F)c5ccc2[nH]5)C=C4)C=C3)cc1
REMARK SMILES IDX 5 1 4 2 3 3 2 4 1 5 28 6 29 7 90 8 30 9 89 10 31 11 32 12
REMARK SMILES IDX 33 13 83 14 34 15 88 16 82 17 84 18 35 19 87 20 81 21 80 22
REMARK SMILES IDX 36 24 68 25 48 26 67 27 49 28 52 29 66 30 85 31 50 32 51 33
REMARK SMILES IDX 65 35 86 36 53 37 37 38 38 39 46 40 39 41 45 42 47 43 44 44
REMARK SMILES IDX 40 45 41 46 42 47 43 48 69 49 70 50 78 51 71 52 77 53 79 54
REMARK SMILES IDX 76 55 72 56 73 57 74 58 75 59 54 60 55 61 63 62 56 63 62 64
REMARK SMILES IDX 64 65 61 66 57 67 58 68 59 69 60 70 6 71 7 72 8 73 9 74
REMARK SMILES IDX 10 75 11 76 12 77 13 78 17 79 14 80 16 81 15 82 18 83 19 84
REMARK SMILES IDX 20 85 21 87 22 88 27 89 23 90 26 91 24 92 25 93
REMARK H PARENT 84 23 52 34 20 86
REMARK Flexibility Score: inf
ROOT
ATOM      1  C   UNL     1       4.045  -0.134  -1.436  1.00  0.00     0.202 C 
ENDROOT
BRANCH   1   2
ATOM      2  C   UNL     1       3.477  -1.542  -1.198  1.00  0.00     0.261 C 
BRANCH   2   3
ATOM      3  O   UNL     1       2.096  -1.556  -0.792  1.00  0.00    -0.460 OA
BRANCH   3   4
ATOM      4  C   UNL     1       1.635  -1.637   0.481  1.00  0.00     0.338 C 
ATOM      5  O   UNL     1       0.429  -1.738   0.690  1.00  0.00    -0.246 OA
BRANCH   4   6
ATOM      6  C   UNL     1       2.561  -1.632   1.640  1.00  0.00     0.060 A 
ATOM      7  C   UNL     1       3.597  -0.710   1.791  1.00  0.00     0.016 A 
ATOM      8  C   UNL     1       2.314  -2.541   2.672  1.00  0.00     0.016 A 
ATOM      9  C   UNL     1       4.469  -0.776   2.867  1.00  0.00     0.010 A 
ATOM     10  C   UNL     1       3.133  -2.553   3.803  1.00  0.00     0.010 A 
ATOM     11  C   UNL     1       4.239  -1.693   3.888  1.00  0.00    -0.014 A 
BRANCH  11  12
ATOM     12  C   UNL     1       5.220  -1.817   4.986  1.00  0.00     0.031 A 
ATOM     13  C   UNL     1       6.003  -3.091   5.091  1.00  0.00     0.074 A 
ATOM     14  C   UNL     1       5.440  -0.789   5.827  1.00  0.00     0.049 A 
ATOM     15  N   UNL     1       6.755  -3.526   6.064  1.00  0.00    -0.248 NA
ATOM     16  C   UNL     1       5.899  -4.011   3.946  1.00  0.00     0.031 C 
ATOM     17  C   UNL     1       4.794   0.523   5.746  1.00  0.00     0.029 A 
ATOM     18  N   UNL     1       6.275  -0.679   6.907  1.00  0.00    -0.354 N 
ATOM     19  C   UNL     1       7.175  -4.792   5.673  1.00  0.00     0.074 A 
ATOM     20  C   UNL     1       6.574  -5.061   4.384  1.00  0.00     0.031 C 
ATOM     21  C   UNL     1       5.282   1.315   6.714  1.00  0.00     0.029 A 
ATOM     22  C   UNL     1       6.194   0.538   7.545  1.00  0.00     0.049 A 
ATOM     23  H   UNL     1       6.876  -1.402   7.199  1.00  0.00     0.167 HD
ATOM     24  C   UNL     1       7.985  -5.648   6.341  1.00  0.00     0.034 A 
ATOM     25  C   UNL     1       6.754   0.949   8.700  1.00  0.00     0.034 A 
ATOM     26  C   UNL     1       8.567  -5.332   7.621  1.00  0.00     0.049 A 
ATOM     27  C   UNL     1       7.603  -0.044   9.458  1.00  0.00     0.074 A 
ATOM     28  C   UNL     1       9.333  -6.128   8.451  1.00  0.00     0.029 A 
ATOM     29  N   UNL     1       8.450  -4.096   8.251  1.00  0.00    -0.354 N 
ATOM     30  N   UNL     1       7.906  -1.284   9.142  1.00  0.00    -0.248 NA
ATOM     31  C   UNL     1       8.172   0.408  10.732  1.00  0.00     0.031 C 
ATOM     32  C   UNL     1       9.643  -5.389   9.600  1.00  0.00     0.029 A 
ATOM     33  C   UNL     1       9.127  -4.109   9.459  1.00  0.00     0.049 A 
ATOM     34  H   UNL     1       7.957  -3.324   7.890  1.00  0.00     0.167 HD
ATOM     35  C   UNL     1       8.710  -1.755  10.174  1.00  0.00     0.074 A 
ATOM     36  C   UNL     1       8.872  -0.653  11.103  1.00  0.00     0.031 C 
ATOM     37  C   UNL     1       9.260  -2.985  10.355  1.00  0.00     0.034 A 
BRANCH  24  38
ATOM     38  C   UNL     1       8.201  -7.007   5.721  1.00  0.00     0.023 A 
ATOM     39  C   UNL     1       8.838  -7.161   4.477  1.00  0.00     0.031 A 
ATOM     40  C   UNL     1       7.673  -8.156   6.336  1.00  0.00     0.131 A 
ATOM     41  C   UNL     1       8.848  -8.415   3.846  1.00  0.00     0.055 A 
ATOM     42  C   UNL     1       7.765  -9.418   5.742  1.00  0.00     0.041 A 
ATOM     43  F   UNL     1       7.027  -8.069   7.509  1.00  0.00    -0.206 F 
ATOM     44  C   UNL     1       8.338  -9.549   4.481  1.00  0.00     0.022 A 
BRANCH  41  45
ATOM     45  S   UNL     1       9.384  -8.510   2.115  1.00  0.00     0.124 S 
ATOM     46  O   UNL     1       8.403  -7.650   1.457  1.00  0.00    -0.237 OA
ATOM     47  O   UNL     1      10.747  -7.996   2.176  1.00  0.00    -0.237 OA
ATOM     48  O   UNL     1       9.267  -9.932   1.797  1.00  0.00    -0.744 OA
ENDBRANCH  41  45
ENDBRANCH  24  38
BRANCH  25  49
ATOM     49  C   UNL     1       6.473   2.308   9.253  1.00  0.00     0.023 A 
ATOM     50  C   UNL     1       7.508   3.225   9.499  1.00  0.00     0.031 A 
ATOM     51  C   UNL     1       5.164   2.694   9.603  1.00  0.00     0.131 A 
ATOM     52  C   UNL     1       7.227   4.454  10.119  1.00  0.00     0.055 A 
ATOM     53  C   UNL     1       4.881   3.943  10.159  1.00  0.00     0.041 A 
ATOM     54  F   UNL     1       4.132   1.860   9.402  1.00  0.00    -0.206 F 
ATOM     55  C   UNL     1       5.919   4.826  10.435  1.00  0.00     0.022 A 
BRANCH  52  56
ATOM     56  S   UNL     1       8.613   5.518  10.612  1.00  0.00     0.124 S 
ATOM     57  O   UNL     1       9.412   4.609  11.426  1.00  0.00    -0.237 OA
ATOM     58  O   UNL     1       9.181   5.891   9.321  1.00  0.00    -0.237 OA
ATOM     59  O   UNL     1       7.964   6.604  11.343  1.00  0.00    -0.744 OA
ENDBRANCH  52  56
ENDBRANCH  25  49
BRANCH  37  60
ATOM     60  C   UNL     1      10.115  -3.163  11.582  1.00  0.00     0.023 A 
ATOM     61  C   UNL     1       9.559  -3.152  12.873  1.00  0.00     0.031 A 
ATOM     62  C   UNL     1      11.505  -3.326  11.454  1.00  0.00     0.131 A 
ATOM     63  C   UNL     1      10.400  -3.240  13.991  1.00  0.00     0.055 A 
ATOM     64  C   UNL     1      12.329  -3.473  12.569  1.00  0.00     0.041 A 
ATOM     65  F   UNL     1      12.082  -3.344  10.242  1.00  0.00    -0.206 F 
ATOM     66  C   UNL     1      11.779  -3.416  13.847  1.00  0.00     0.022 A 
BRANCH  63  67
ATOM     67  S   UNL     1       9.676  -3.028  15.639  1.00  0.00     0.124 S 
ATOM     68  O   UNL     1       9.082  -1.699  15.541  1.00  0.00    -0.237 OA
ATOM     69  O   UNL     1       8.736  -4.142  15.714  1.00  0.00    -0.237 OA
ATOM     70  O   UNL     1      10.827  -3.128  16.535  1.00  0.00    -0.744 OA
ENDBRANCH  63  67
ENDBRANCH  37  60
ENDBRANCH  11  12
ENDBRANCH   4   6
ENDBRANCH   3   4
ENDBRANCH   2   3
ENDBRANCH   1   2
BRANCH   1  71
ATOM     71  O   UNL     1       3.396   0.948  -0.766  1.00  0.00    -0.374 OA
BRANCH  71  72
ATOM     72  C   UNL     1       2.027   1.164  -1.116  1.00  0.00     0.202 C 
BRANCH  72  73
ATOM     73  C   UNL     1       1.843   2.640  -1.381  1.00  0.00     0.261 C 
BRANCH  73  74
ATOM     74  O   UNL     1       2.779   2.935  -2.424  1.00  0.00    -0.460 OA
BRANCH  74  75
ATOM     75  C   UNL     1       3.429   4.091  -2.264  1.00  0.00     0.340 C 
ATOM     76  O   UNL     1       3.072   5.065  -1.615  1.00  0.00    -0.246 OA
BRANCH  75  77
ATOM     77  C   UNL     1       4.537   4.112  -3.198  1.00  0.00     0.091 A 
ATOM     78  C   UNL     1       4.232   4.757  -4.412  1.00  0.00     0.020 A 
ATOM     79  C   UNL     1       5.778   3.509  -3.039  1.00  0.00     0.143 A 
ATOM     80  C   UNL     1       5.147   4.757  -5.452  1.00  0.00     0.021 A 
ATOM     81  N   UNL     1       6.701   3.578  -4.056  1.00  0.00    -0.250 NA
ATOM     82  C   UNL     1       6.367   4.160  -5.226  1.00  0.00     0.112 A 
BRANCH  79  83
ATOM     83  C   UNL     1       6.213   2.486  -2.037  1.00  0.00     0.276 C 
ATOM     84  O   UNL     1       6.667   1.436  -2.526  1.00  0.00    -0.267 OA
ATOM     85  N   UNL     1       6.239   2.520  -0.674  1.00  0.00    -0.305 N 
ATOM     86  H   UNL     1       6.757   1.751  -0.344  1.00  0.00     0.171 HD
BRANCH  85  87
ATOM     87  C   UNL     1       5.793   3.257   0.403  1.00  0.00     0.132 A 
ATOM     88  C   UNL     1       5.170   4.481   0.353  1.00  0.00     0.049 A 
ATOM     89  N   UNL     1       5.947   2.578   1.563  1.00  0.00    -0.238 NA
ATOM     90  C   UNL     1       4.504   4.937   1.498  1.00  0.00     0.026 A 
ATOM     91  C   UNL     1       5.362   3.074   2.680  1.00  0.00     0.134 A 
ATOM     92  C   UNL     1       4.583   4.212   2.680  1.00  0.00     0.059 A 
ATOM     93  Cl  UNL     1       3.730   4.704   4.082  1.00  0.00    -0.083 Cl
ENDBRANCH  85  87
ENDBRANCH  79  83
ENDBRANCH  75  77
ENDBRANCH  74  75
ENDBRANCH  73  74
ENDBRANCH  72  73
ENDBRANCH  71  72
ENDBRANCH   1  71
TORSDOF 19
