REMARK SMILES CC[C@@H](C)N(C)S(=O)(=O)c1cc(C(=O)OCCOCCOC(=O)c2ccc(-c3c4nc(c(-c5cc(S(=O)(=O)[O-])ccc5F)c5ccc([nH]5)c(-c5cc(S(=O)(=O)[O-])ccc5F)c5nc(c(-c6cc(S(=O)(=O)[O-])ccc6F)c6ccc3[nH]6)C=C5)C=C4)cc2)c(C)cc1C
REMARK SMILES IDX 17 1 16 2 15 3 13 4 14 5 12 6 10 7 11 8 90 9 89 10 91 11
REMARK SMILES IDX 87 12 88 13 7 14 8 15 9 16 5 17 6 18 3 19 4 20 2 21 1 22
REMARK SMILES IDX 18 23 19 24 20 25 21 26 22 27 23 28 24 29 25 30 86 31 26 32
REMARK SMILES IDX 85 33 27 34 28 35 29 36 79 37 30 38 84 39 78 40 80 41 31 42
REMARK SMILES IDX 83 43 77 44 76 45 32 47 64 48 44 49 63 50 45 51 48 52 62 53
REMARK SMILES IDX 81 54 46 55 47 56 61 58 82 59 49 60 33 61 34 62 42 63 35 64
REMARK SMILES IDX 41 65 43 66 40 67 36 68 37 69 38 70 39 71 65 72 66 73 74 74
REMARK SMILES IDX 67 75 73 76 75 77 72 78 68 79 69 80 70 81 71 82 50 83 51 84
REMARK SMILES IDX 59 85 52 86 58 87 60 88 57 89 53 90 54 91 55 92 56 93
REMARK H PARENT 80 46 48 57
REMARK Flexibility Score: inf
ROOT
ATOM      1  C   UNL     1       0.659  11.184  -0.064  1.00  0.00     0.202 C 
ENDROOT
BRANCH   1   2
ATOM      2  C   UNL     1      -0.696  10.926  -0.726  1.00  0.00     0.261 C 
BRANCH   2   3
ATOM      3  O   UNL     1      -1.437   9.985   0.071  1.00  0.00    -0.460 OA
BRANCH   3   4
ATOM      4  C   UNL     1      -1.972   8.940  -0.593  1.00  0.00     0.338 C 
ATOM      5  O   UNL     1      -2.059   8.819  -1.804  1.00  0.00    -0.246 OA
BRANCH   4   6
ATOM      6  C   UNL     1      -2.244   7.813   0.342  1.00  0.00     0.064 A 
ATOM      7  C   UNL     1      -2.094   5.369   0.589  1.00  0.00     0.086 A 
ATOM      8  C   UNL     1      -1.903   6.545  -0.158  1.00  0.00     0.038 A 
ATOM      9  C   UNL     1      -2.761   5.449   1.821  1.00  0.00    -0.031 A 
ATOM     10  C   UNL     1      -3.048   6.735   2.338  1.00  0.00     0.009 A 
ATOM     11  C   UNL     1      -3.208   4.280   2.653  1.00  0.00     0.046 C 
ATOM     12  C   UNL     1      -2.778   7.925   1.632  1.00  0.00    -0.036 A 
ATOM     13  C   UNL     1      -3.151   9.234   2.273  1.00  0.00     0.045 C 
BRANCH   7  14
ATOM     14  S   UNL     1      -1.571   3.848  -0.220  1.00  0.00     0.243 S 
ATOM     15  O   UNL     1      -1.780   4.044  -1.640  1.00  0.00    -0.207 OA
ATOM     16  O   UNL     1      -2.185   2.721   0.447  1.00  0.00    -0.207 OA
BRANCH  14  17
ATOM     17  N   UNL     1       0.138   3.751   0.048  1.00  0.00    -0.198 NA
ATOM     18  C   UNL     1       0.910   4.948  -0.386  1.00  0.00     0.124 C 
BRANCH  17  19
ATOM     19  C   UNL     1       0.827   2.477  -0.421  1.00  0.00     0.069 C 
ATOM     20  C   UNL     1       0.552   2.166  -1.893  1.00  0.00     0.026 C 
BRANCH  19  21
ATOM     21  C   UNL     1       0.528   1.298   0.519  1.00  0.00     0.016 C 
ATOM     22  C   UNL     1       1.345   0.051   0.197  1.00  0.00     0.005 C 
ENDBRANCH  19  21
ENDBRANCH  17  19
ENDBRANCH  14  17
ENDBRANCH   7  14
ENDBRANCH   4   6
ENDBRANCH   3   4
ENDBRANCH   2   3
ENDBRANCH   1   2
BRANCH   1  23
ATOM     23  O   UNL     1       1.567  10.077  -0.129  1.00  0.00    -0.374 OA
BRANCH  23  24
ATOM     24  C   UNL     1       1.372   9.034   0.826  1.00  0.00     0.202 C 
BRANCH  24  25
ATOM     25  C   UNL     1       2.007   9.261   2.201  1.00  0.00     0.261 C 
BRANCH  25  26
ATOM     26  O   UNL     1       1.412  10.372   2.892  1.00  0.00    -0.460 OA
BRANCH  26  27
ATOM     27  C   UNL     1       2.196  11.479   2.946  1.00  0.00     0.338 C 
ATOM     28  O   UNL     1       3.347  11.576   2.555  1.00  0.00    -0.246 OA
BRANCH  27  29
ATOM     29  C   UNL     1       1.408  12.643   3.399  1.00  0.00     0.060 A 
ATOM     30  C   UNL     1       1.559  13.831   2.675  1.00  0.00     0.016 A 
ATOM     31  C   UNL     1       0.587  12.604   4.530  1.00  0.00     0.016 A 
ATOM     32  C   UNL     1       0.934  14.997   3.109  1.00  0.00     0.010 A 
ATOM     33  C   UNL     1      -0.039  13.780   4.967  1.00  0.00     0.010 A 
ATOM     34  C   UNL     1       0.161  14.989   4.278  1.00  0.00    -0.014 A 
BRANCH  34  35
ATOM     35  C   UNL     1      -0.318  16.285   4.821  1.00  0.00     0.031 A 
ATOM     36  C   UNL     1       0.457  16.951   5.927  1.00  0.00     0.074 A 
ATOM     37  C   UNL     1      -1.384  16.899   4.277  1.00  0.00     0.049 A 
ATOM     38  N   UNL     1       0.276  18.124   6.478  1.00  0.00    -0.248 NA
ATOM     39  C   UNL     1       1.585  16.190   6.484  1.00  0.00     0.031 C 
ATOM     40  C   UNL     1      -2.201  16.362   3.189  1.00  0.00     0.029 A 
ATOM     41  N   UNL     1      -1.954  18.116   4.556  1.00  0.00    -0.354 N 
ATOM     42  C   UNL     1       1.276  18.251   7.437  1.00  0.00     0.074 A 
ATOM     43  C   UNL     1       2.025  17.011   7.425  1.00  0.00     0.031 C 
ATOM     44  C   UNL     1      -3.164  17.250   2.888  1.00  0.00     0.029 A 
ATOM     45  C   UNL     1      -3.044  18.408   3.771  1.00  0.00     0.049 A 
ATOM     46  H   UNL     1      -1.615  18.722   5.253  1.00  0.00     0.167 HD
ATOM     47  C   UNL     1       1.554  19.308   8.240  1.00  0.00     0.034 A 
ATOM     48  C   UNL     1      -3.853  19.487   3.766  1.00  0.00     0.034 A 
ATOM     49  C   UNL     1       0.787  20.531   8.255  1.00  0.00     0.049 A 
ATOM     50  C   UNL     1      -3.560  20.627   4.709  1.00  0.00     0.074 A 
ATOM     51  C   UNL     1       0.990  21.668   9.018  1.00  0.00     0.029 A 
ATOM     52  N   UNL     1      -0.340  20.773   7.479  1.00  0.00    -0.354 N 
ATOM     53  N   UNL     1      -2.591  20.747   5.588  1.00  0.00    -0.248 NA
ATOM     54  C   UNL     1      -4.460  21.785   4.644  1.00  0.00     0.031 C 
ATOM     55  C   UNL     1      -0.050  22.568   8.753  1.00  0.00     0.029 A 
ATOM     56  C   UNL     1      -0.862  22.026   7.770  1.00  0.00     0.049 A 
ATOM     57  H   UNL     1      -0.714  20.146   6.819  1.00  0.00     0.167 HD
ATOM     58  C   UNL     1      -2.752  22.006   6.161  1.00  0.00     0.074 A 
ATOM     59  C   UNL     1      -3.897  22.612   5.512  1.00  0.00     0.031 C 
ATOM     60  C   UNL     1      -2.019  22.610   7.132  1.00  0.00     0.034 A 
BRANCH  47  61
ATOM     61  C   UNL     1       2.711  19.160   9.199  1.00  0.00     0.023 A 
ATOM     62  C   UNL     1       4.034  19.011   8.745  1.00  0.00     0.031 A 
ATOM     63  C   UNL     1       2.485  19.134  10.587  1.00  0.00     0.131 A 
ATOM     64  C   UNL     1       5.067  18.774   9.665  1.00  0.00     0.055 A 
ATOM     65  C   UNL     1       3.528  18.974  11.500  1.00  0.00     0.041 A 
ATOM     66  F   UNL     1       1.241  19.249  11.078  1.00  0.00    -0.206 F 
ATOM     67  C   UNL     1       4.827  18.778  11.040  1.00  0.00     0.022 A 
BRANCH  64  68
ATOM     68  S   UNL     1       6.707  18.322   9.032  1.00  0.00     0.124 S 
ATOM     69  O   UNL     1       6.403  17.121   8.257  1.00  0.00    -0.237 OA
ATOM     70  O   UNL     1       7.084  19.502   8.262  1.00  0.00    -0.237 OA
ATOM     71  O   UNL     1       7.490  18.090  10.244  1.00  0.00    -0.744 OA
ENDBRANCH  64  68
ENDBRANCH  47  61
BRANCH  48  72
ATOM     72  C   UNL     1      -5.030  19.541   2.854  1.00  0.00     0.023 A 
ATOM     73  C   UNL     1      -5.117  20.496   1.829  1.00  0.00     0.031 A 
ATOM     74  C   UNL     1      -6.115  18.664   3.034  1.00  0.00     0.131 A 
ATOM     75  C   UNL     1      -6.283  20.581   1.051  1.00  0.00     0.055 A 
ATOM     76  C   UNL     1      -7.252  18.721   2.226  1.00  0.00     0.041 A 
ATOM     77  F   UNL     1      -6.080  17.730   3.998  1.00  0.00    -0.206 F 
ATOM     78  C   UNL     1      -7.346  19.693   1.236  1.00  0.00     0.022 A 
BRANCH  75  79
ATOM     79  S   UNL     1      -6.423  21.924  -0.160  1.00  0.00     0.124 S 
ATOM     80  O   UNL     1      -6.272  23.104   0.683  1.00  0.00    -0.237 OA
ATOM     81  O   UNL     1      -5.315  21.633  -1.063  1.00  0.00    -0.237 OA
ATOM     82  O   UNL     1      -7.755  21.730  -0.730  1.00  0.00    -0.744 OA
ENDBRANCH  75  79
ENDBRANCH  48  72
BRANCH  60  83
ATOM     83  C   UNL     1      -2.426  24.012   7.521  1.00  0.00     0.023 A 
ATOM     84  C   UNL     1      -3.658  24.276   8.146  1.00  0.00     0.031 A 
ATOM     85  C   UNL     1      -1.586  25.101   7.230  1.00  0.00     0.131 A 
ATOM     86  C   UNL     1      -4.045  25.602   8.396  1.00  0.00     0.055 A 
ATOM     87  C   UNL     1      -1.949  26.413   7.539  1.00  0.00     0.041 A 
ATOM     88  F   UNL     1      -0.398  24.909   6.634  1.00  0.00    -0.206 F 
ATOM     89  C   UNL     1      -3.192  26.671   8.110  1.00  0.00     0.022 A 
BRANCH  86  90
ATOM     90  S   UNL     1      -5.728  25.918   8.997  1.00  0.00     0.124 S 
ATOM     91  O   UNL     1      -6.543  25.273   7.973  1.00  0.00    -0.237 OA
ATOM     92  O   UNL     1      -5.718  25.270  10.305  1.00  0.00    -0.237 OA
ATOM     93  O   UNL     1      -5.812  27.377   9.029  1.00  0.00    -0.744 OA
ENDBRANCH  86  90
ENDBRANCH  60  83
ENDBRANCH  34  35
ENDBRANCH  27  29
ENDBRANCH  26  27
ENDBRANCH  25  26
ENDBRANCH  24  25
ENDBRANCH  23  24
ENDBRANCH   1  23
TORSDOF 21
