REMARK SMILES C[NH2+][C@]1(C(=O)OCCOCCOC(=O)c2ccc(-c3c4nc(c(-c5cc(S(=O)(=O)[O-])ccc5F)c5ccc([nH]5)c(-c5cc(S(=O)(=O)[O-])ccc5F)c5nc(c(-c6cc(S(=O)(=O)[O-])ccc6F)c6ccc3[nH]6)C=C5)C=C4)cc2)CCC[C@@H]1CC[N@H+]1CCC[C@H]([NH+](C)C)C1
REMARK SMILES IDX 8 1 7 2 6 3 4 4 5 5 3 6 78 7 81 8 79 9 80 10 2 11 1 12 82 15
REMARK SMILES IDX 83 16 84 17 85 18 92 19 86 21 88 22 87 23 89 24 90 25 91 26
REMARK SMILES IDX 9 28 10 29 11 30 12 31 13 32 14 33 15 34 16 35 77 36 17 37
REMARK SMILES IDX 76 38 18 39 19 40 20 41 70 42 21 43 75 44 69 45 71 46 22 47
REMARK SMILES IDX 74 48 68 49 67 50 23 52 55 53 35 54 54 55 36 56 39 57 53 58
REMARK SMILES IDX 72 59 37 60 38 61 52 63 73 64 40 65 24 66 25 67 33 68 26 69
REMARK SMILES IDX 32 70 34 71 31 72 27 73 28 74 29 75 30 76 56 77 57 78 65 79
REMARK SMILES IDX 58 80 64 81 66 82 63 83 59 84 60 85 61 86 62 87 41 88 42 89
REMARK SMILES IDX 50 90 43 91 49 92 51 93 48 94 44 95 45 96 46 97 47 98
REMARK H PARENT 2 13 2 14 84 20 89 27 71 51 39 62
REMARK Flexibility Score: inf
ROOT
ATOM      1  C   UNL     1       3.172   2.279   0.765  1.00  0.00     0.202 C 
ENDROOT
BRANCH   1   2
ATOM      2  C   UNL     1       2.300   1.469  -0.198  1.00  0.00     0.261 C 
BRANCH   2   3
ATOM      3  O   UNL     1       0.907   1.820  -0.230  1.00  0.00    -0.459 OA
BRANCH   3   4
ATOM      4  C   UNL     1       0.123   1.090   0.605  1.00  0.00     0.368 C 
ATOM      5  O   UNL     1       0.560   0.343   1.482  1.00  0.00    -0.245 OA
BRANCH   4   6
ATOM      6  C   UNL     1      -1.393   1.253   0.363  1.00  0.00     0.197 C 
ATOM      7  C   UNL     1      -1.809   2.385  -0.590  1.00  0.00     0.081 C 
ATOM      8  C   UNL     1      -1.889   0.021  -0.459  1.00  0.00     0.068 C 
ATOM      9  C   UNL     1      -3.214   1.998  -1.050  1.00  0.00     0.008 C 
ATOM     10  C   UNL     1      -3.281   0.468  -0.944  1.00  0.00     0.011 C 
BRANCH   6  11
ATOM     11  N   UNL     1      -2.090   1.267   1.690  1.00  0.00    -0.334 N 
ATOM     12  C   UNL     1      -2.224   2.577   2.304  1.00  0.00     0.331 C 
ATOM     13  H   UNL     1      -3.025   0.883   1.559  1.00  0.00     0.347 HD
ATOM     14  H   UNL     1      -1.508   0.717   2.321  1.00  0.00     0.347 HD
ENDBRANCH   6  11
BRANCH   8  15
ATOM     15  C   UNL     1      -1.896  -1.314   0.314  1.00  0.00     0.072 C 
BRANCH  15  16
ATOM     16  C   UNL     1      -1.591  -2.581  -0.507  1.00  0.00     0.262 C 
BRANCH  16  17
ATOM     17  N   UNL     1      -0.327  -2.653  -1.264  1.00  0.00    -0.330 N 
ATOM     18  C   UNL     1       0.838  -2.079  -0.594  1.00  0.00     0.262 C 
ATOM     19  C   UNL     1      -0.032  -4.053  -1.619  1.00  0.00     0.327 C 
ATOM     20  H   UNL     1      -0.486  -2.078  -2.091  1.00  0.00     0.348 HD
ATOM     21  C   UNL     1       2.124  -2.132  -1.422  1.00  0.00     0.068 C 
ATOM     22  C   UNL     1       1.154  -4.195  -2.613  1.00  0.00     0.239 C 
ATOM     23  C   UNL     1       2.401  -3.500  -2.028  1.00  0.00     0.077 C 
BRANCH  22  24
ATOM     24  N   UNL     1       0.885  -3.863  -4.035  1.00  0.00    -0.333 N 
ATOM     25  C   UNL     1      -0.147  -4.732  -4.603  1.00  0.00     0.332 C 
ATOM     26  C   UNL     1       0.543  -2.469  -4.308  1.00  0.00     0.332 C 
ATOM     27  H   UNL     1       1.783  -4.026  -4.489  1.00  0.00     0.348 HD
ENDBRANCH  22  24
ENDBRANCH  16  17
ENDBRANCH  15  16
ENDBRANCH   8  15
ENDBRANCH   4   6
ENDBRANCH   3   4
ENDBRANCH   2   3
ENDBRANCH   1   2
BRANCH   1  28
ATOM     28  O   UNL     1       2.876   2.249   2.157  1.00  0.00    -0.374 OA
BRANCH  28  29
ATOM     29  C   UNL     1       1.737   2.960   2.628  1.00  0.00     0.202 C 
BRANCH  29  30
ATOM     30  C   UNL     1       1.780   4.489   2.648  1.00  0.00     0.261 C 
BRANCH  30  31
ATOM     31  O   UNL     1       1.951   5.055   1.341  1.00  0.00    -0.460 OA
BRANCH  31  32
ATOM     32  C   UNL     1       3.177   5.592   1.134  1.00  0.00     0.338 C 
ATOM     33  O   UNL     1       4.081   5.688   1.960  1.00  0.00    -0.246 OA
BRANCH  32  34
ATOM     34  C   UNL     1       3.383   5.881  -0.295  1.00  0.00     0.060 A 
ATOM     35  C   UNL     1       4.578   5.431  -0.871  1.00  0.00     0.016 A 
ATOM     36  C   UNL     1       2.477   6.640  -1.036  1.00  0.00     0.016 A 
ATOM     37  C   UNL     1       4.914   5.808  -2.166  1.00  0.00     0.010 A 
ATOM     38  C   UNL     1       2.818   7.029  -2.334  1.00  0.00     0.010 A 
ATOM     39  C   UNL     1       4.060   6.657  -2.882  1.00  0.00    -0.014 A 
BRANCH  39  40
ATOM     40  C   UNL     1       4.571   7.316  -4.106  1.00  0.00     0.031 A 
ATOM     41  C   UNL     1       5.116   8.714  -3.989  1.00  0.00     0.074 A 
ATOM     42  C   UNL     1       4.599   6.664  -5.281  1.00  0.00     0.049 A 
ATOM     43  N   UNL     1       5.592   9.503  -4.916  1.00  0.00    -0.248 NA
ATOM     44  C   UNL     1       5.120   9.300  -2.639  1.00  0.00     0.031 C 
ATOM     45  C   UNL     1       4.151   5.288  -5.491  1.00  0.00     0.029 A 
ATOM     46  N   UNL     1       5.022   7.075  -6.518  1.00  0.00    -0.354 N 
ATOM     47  C   UNL     1       5.950  10.679  -4.264  1.00  0.00     0.074 A 
ATOM     48  C   UNL     1       5.597  10.513  -2.871  1.00  0.00     0.031 C 
ATOM     49  C   UNL     1       4.315   4.972  -6.787  1.00  0.00     0.029 A 
ATOM     50  C   UNL     1       4.842   6.132  -7.502  1.00  0.00     0.049 A 
ATOM     51  H   UNL     1       5.418   7.961  -6.686  1.00  0.00     0.167 HD
ATOM     52  C   UNL     1       6.528  11.790  -4.782  1.00  0.00     0.034 A 
ATOM     53  C   UNL     1       5.056   6.212  -8.831  1.00  0.00     0.034 A 
ATOM     54  C   UNL     1       6.859  11.938  -6.178  1.00  0.00     0.049 A 
ATOM     55  C   UNL     1       5.615   7.494  -9.401  1.00  0.00     0.074 A 
ATOM     56  C   UNL     1       7.450  13.015  -6.816  1.00  0.00     0.029 A 
ATOM     57  N   UNL     1       6.615  10.982  -7.156  1.00  0.00    -0.354 N 
ATOM     58  N   UNL     1       5.950   8.600  -8.777  1.00  0.00    -0.248 NA
ATOM     59  C   UNL     1       5.834   7.533 -10.852  1.00  0.00     0.031 C 
ATOM     60  C   UNL     1       7.496  12.739  -8.187  1.00  0.00     0.029 A 
ATOM     61  C   UNL     1       7.011  11.457  -8.397  1.00  0.00     0.049 A 
ATOM     62  H   UNL     1       6.219  10.096  -6.992  1.00  0.00     0.167 HD
ATOM     63  C   UNL     1       6.448   9.455  -9.758  1.00  0.00     0.074 A 
ATOM     64  C   UNL     1       6.381   8.729 -11.010  1.00  0.00     0.031 C 
ATOM     65  C   UNL     1       6.924  10.721  -9.637  1.00  0.00     0.034 A 
BRANCH  52  66
ATOM     66  C   UNL     1       6.777  12.944  -3.840  1.00  0.00     0.023 A 
ATOM     67  C   UNL     1       7.669  12.841  -2.757  1.00  0.00     0.031 A 
ATOM     68  C   UNL     1       6.082  14.155  -4.005  1.00  0.00     0.131 A 
ATOM     69  C   UNL     1       7.787  13.900  -1.843  1.00  0.00     0.055 A 
ATOM     70  C   UNL     1       6.264  15.234  -3.138  1.00  0.00     0.041 A 
ATOM     71  F   UNL     1       5.199  14.305  -5.005  1.00  0.00    -0.206 F 
ATOM     72  C   UNL     1       7.109  15.105  -2.040  1.00  0.00     0.022 A 
BRANCH  69  73
ATOM     73  S   UNL     1       8.725  13.628  -0.314  1.00  0.00     0.124 S 
ATOM     74  O   UNL     1       8.008  12.500   0.275  1.00  0.00    -0.237 OA
ATOM     75  O   UNL     1      10.066  13.344  -0.813  1.00  0.00    -0.237 OA
ATOM     76  O   UNL     1       8.582  14.892   0.406  1.00  0.00    -0.744 OA
ENDBRANCH  69  73
ENDBRANCH  52  66
BRANCH  53  77
ATOM     77  C   UNL     1       4.703   5.070  -9.722  1.00  0.00     0.023 A 
ATOM     78  C   UNL     1       5.684   4.395 -10.466  1.00  0.00     0.031 A 
ATOM     79  C   UNL     1       3.364   4.668  -9.881  1.00  0.00     0.131 A 
ATOM     80  C   UNL     1       5.307   3.386 -11.366  1.00  0.00     0.055 A 
ATOM     81  C   UNL     1       3.001   3.628 -10.737  1.00  0.00     0.041 A 
ATOM     82  F   UNL     1       2.385   5.281  -9.195  1.00  0.00    -0.206 F 
ATOM     83  C   UNL     1       3.974   2.989 -11.497  1.00  0.00     0.022 A 
BRANCH  80  84
ATOM     84  S   UNL     1       6.580   2.655 -12.432  1.00  0.00     0.124 S 
ATOM     85  O   UNL     1       7.091   3.828 -13.132  1.00  0.00    -0.237 OA
ATOM     86  O   UNL     1       7.478   2.046 -11.457  1.00  0.00    -0.237 OA
ATOM     87  O   UNL     1       5.830   1.712 -13.260  1.00  0.00    -0.744 OA
ENDBRANCH  80  84
ENDBRANCH  53  77
BRANCH  65  88
ATOM     88  C   UNL     1       7.450  11.378 -10.890  1.00  0.00     0.023 A 
ATOM     89  C   UNL     1       6.604  11.720 -11.959  1.00  0.00     0.031 A 
ATOM     90  C   UNL     1       8.822  11.659 -11.017  1.00  0.00     0.131 A 
ATOM     91  C   UNL     1       7.146  12.271 -13.130  1.00  0.00     0.055 A 
ATOM     92  C   UNL     1       9.347  12.264 -12.159  1.00  0.00     0.041 A 
ATOM     93  F   UNL     1       9.677  11.352 -10.027  1.00  0.00    -0.206 F 
ATOM     94  C   UNL     1       8.509  12.561 -13.230  1.00  0.00     0.022 A 
BRANCH  91  95
ATOM     95  S   UNL     1       6.059  12.520 -14.560  1.00  0.00     0.124 S 
ATOM     96  O   UNL     1       5.562  11.169 -14.803  1.00  0.00    -0.237 OA
ATOM     97  O   UNL     1       5.082  13.476 -14.048  1.00  0.00    -0.237 OA
ATOM     98  O   UNL     1       6.957  13.044 -15.588  1.00  0.00    -0.744 OA
ENDBRANCH  91  95
ENDBRANCH  65  88
ENDBRANCH  39  40
ENDBRANCH  32  34
ENDBRANCH  31  32
ENDBRANCH  30  31
ENDBRANCH  29  30
ENDBRANCH  28  29
ENDBRANCH   1  28
TORSDOF 22
