REMARK SMILES Cc1nn([C@H]2CCS(=O)(=O)C2)c(C)c1/C=C(\CC(=O)OCCOCCOC(=O)c1ccc(-c2c3nc(c(-c4cc(S(=O)(=O)[O-])ccc4F)c4ccc([nH]4)c(-c4cc(S(=O)(=O)[O-])ccc4F)c4nc(c(-c5cc(S(=O)(=O)[O-])ccc5F)c5ccc2[nH]5)C=C4)C=C3)cc1)c1nc2ccccc2s1
REMARK SMILES IDX 23 1 22 2 21 3 20 4 18 5 19 6 17 7 16 8 15 9 14 10 1 11 2 12
REMARK SMILES IDX 3 13 4 14 12 15 13 16 5 17 6 18 11 19 7 20 8 21 9 22 10 23
REMARK SMILES IDX 92 24 93 25 100 26 94 27 99 28 95 29 98 30 96 31 97 32 24 33
REMARK SMILES IDX 25 34 26 35 27 36 28 37 29 38 30 39 91 40 31 41 90 42 32 43
REMARK SMILES IDX 33 44 34 45 84 46 35 47 89 48 83 49 85 50 36 51 88 52 82 53
REMARK SMILES IDX 81 54 37 56 69 57 49 58 68 59 50 60 53 61 67 62 86 63 51 64
REMARK SMILES IDX 52 65 66 67 87 68 54 69 38 70 39 71 47 72 40 73 46 74 48 75
REMARK SMILES IDX 45 76 41 77 42 78 43 79 44 80 70 81 71 82 79 83 72 84 78 85
REMARK SMILES IDX 80 86 77 87 73 88 74 89 75 90 76 91 55 92 56 93 64 94 57 95
REMARK SMILES IDX 63 96 65 97 62 98 58 99 59 100 60 101 61 102
REMARK H PARENT 85 55 53 66
REMARK Flexibility Score: inf
ROOT
ATOM      1  O   UNL     1       4.709  -5.101  10.516  1.00  0.00    -0.374 OA
ENDROOT
BRANCH   1   2
ATOM      2  C   UNL     1       3.595  -5.986  10.554  1.00  0.00     0.202 C 
BRANCH   2   3
ATOM      3  C   UNL     1       2.488  -5.859   9.498  1.00  0.00     0.261 C 
BRANCH   3   4
ATOM      4  O   UNL     1       2.948  -6.069   8.143  1.00  0.00    -0.463 OA
BRANCH   4   5
ATOM      5  C   UNL     1       2.963  -4.955   7.388  1.00  0.00     0.310 C 
ATOM      6  O   UNL     1       2.477  -3.880   7.754  1.00  0.00    -0.252 OA
BRANCH   5   7
ATOM      7  C   UNL     1       3.805  -4.971   6.119  1.00  0.00     0.161 C 
BRANCH   7   8
ATOM      8  C   UNL     1       4.029  -5.953   4.981  1.00  0.00    -0.000 C 
ATOM      9  C   UNL     1       3.222  -5.993   3.883  1.00  0.00     0.019 C 
BRANCH   9  10
ATOM     10  C   UNL     1       2.001  -5.248   3.695  1.00  0.00     0.019 A 
ATOM     11  C   UNL     1       0.487  -6.934   2.369  1.00  0.00     0.069 C 
ATOM     12  C   UNL     1       0.773  -5.691   3.134  1.00  0.00     0.067 A 
ATOM     13  N   UNL     1      -0.205  -4.793   3.344  1.00  0.00    -0.177 NA
ATOM     14  N   UNL     1       0.415  -3.771   3.966  1.00  0.00    -0.265 N 
ATOM     15  C   UNL     1       1.785  -3.886   3.886  1.00  0.00     0.043 A 
ATOM     16  C   UNL     1       2.714  -2.724   4.034  1.00  0.00     0.067 C 
BRANCH  14  17
ATOM     17  C   UNL     1      -0.353  -2.647   4.479  1.00  0.00     0.123 C 
ATOM     18  C   UNL     1      -1.845  -2.933   4.766  1.00  0.00     0.044 C 
ATOM     19  C   UNL     1       0.151  -2.101   5.819  1.00  0.00     0.164 C 
ATOM     20  C   UNL     1      -2.421  -1.661   5.386  1.00  0.00     0.139 C 
ATOM     21  S   UNL     1      -1.072  -0.897   6.264  1.00  0.00     0.152 S 
ATOM     22  O   UNL     1      -0.736   0.344   5.581  1.00  0.00    -0.229 OA
ATOM     23  O   UNL     1      -1.318  -0.950   7.681  1.00  0.00    -0.229 OA
ENDBRANCH  14  17
ENDBRANCH   9  10
BRANCH   8  24
ATOM     24  C   UNL     1       5.305  -6.633   4.889  1.00  0.00     0.121 A 
ATOM     25  N   UNL     1       5.616  -7.788   5.428  1.00  0.00    -0.236 NA
ATOM     26  S   UNL     1       6.690  -5.804   4.236  1.00  0.00    -0.114 S 
ATOM     27  C   UNL     1       6.977  -7.854   5.703  1.00  0.00     0.082 A 
ATOM     28  C   UNL     1       7.739  -6.832   5.145  1.00  0.00     0.055 A 
ATOM     29  C   UNL     1       7.619  -8.768   6.566  1.00  0.00     0.030 A 
ATOM     30  C   UNL     1       9.119  -6.721   5.401  1.00  0.00     0.021 A 
ATOM     31  C   UNL     1       8.958  -8.608   6.915  1.00  0.00     0.002 A 
ATOM     32  C   UNL     1       9.701  -7.597   6.329  1.00  0.00     0.002 A 
ENDBRANCH   8  24
ENDBRANCH   7   8
ENDBRANCH   5   7
ENDBRANCH   4   5
ENDBRANCH   3   4
ENDBRANCH   2   3
ENDBRANCH   1   2
BRANCH   1  33
ATOM     33  C   UNL     1       5.516  -5.002   9.354  1.00  0.00     0.202 C 
BRANCH  33  34
ATOM     34  C   UNL     1       6.133  -6.251   8.722  1.00  0.00     0.261 C 
BRANCH  34  35
ATOM     35  O   UNL     1       5.214  -7.297   8.399  1.00  0.00    -0.460 OA
BRANCH  35  36
ATOM     36  C   UNL     1       5.246  -8.355   9.245  1.00  0.00     0.338 C 
ATOM     37  O   UNL     1       5.766  -8.358  10.351  1.00  0.00    -0.246 OA
BRANCH  36  38
ATOM     38  C   UNL     1       4.742  -9.589   8.601  1.00  0.00     0.060 A 
ATOM     39  C   UNL     1       5.097 -10.769   9.253  1.00  0.00     0.016 A 
ATOM     40  C   UNL     1       4.361  -9.610   7.259  1.00  0.00     0.016 A 
ATOM     41  C   UNL     1       5.406 -11.878   8.490  1.00  0.00     0.010 A 
ATOM     42  C   UNL     1       4.724 -10.705   6.485  1.00  0.00     0.010 A 
ATOM     43  C   UNL     1       5.347 -11.793   7.095  1.00  0.00    -0.014 A 
BRANCH  43  44
ATOM     44  C   UNL     1       5.715 -12.972   6.324  1.00  0.00     0.031 A 
ATOM     45  C   UNL     1       4.592 -13.932   6.317  1.00  0.00     0.074 A 
ATOM     46  C   UNL     1       6.875 -13.213   5.676  1.00  0.00     0.049 A 
ATOM     47  N   UNL     1       4.450 -14.941   7.107  1.00  0.00    -0.248 NA
ATOM     48  C   UNL     1       3.378 -13.578   5.566  1.00  0.00     0.031 C 
ATOM     49  C   UNL     1       8.000 -12.320   5.411  1.00  0.00     0.029 A 
ATOM     50  N   UNL     1       7.268 -14.364   5.053  1.00  0.00    -0.354 N 
ATOM     51  C   UNL     1       3.231 -15.501   6.765  1.00  0.00     0.074 A 
ATOM     52  C   UNL     1       2.523 -14.488   6.033  1.00  0.00     0.031 C 
ATOM     53  C   UNL     1       8.830 -12.886   4.498  1.00  0.00     0.029 A 
ATOM     54  C   UNL     1       8.377 -14.240   4.215  1.00  0.00     0.049 A 
ATOM     55  H   UNL     1       6.801 -15.221   5.185  1.00  0.00     0.167 HD
ATOM     56  C   UNL     1       3.032 -16.842   6.861  1.00  0.00     0.034 A 
ATOM     57  C   UNL     1       8.861 -15.171   3.339  1.00  0.00     0.034 A 
ATOM     58  C   UNL     1       4.059 -17.461   7.672  1.00  0.00     0.049 A 
ATOM     59  C   UNL     1       8.382 -16.492   3.824  1.00  0.00     0.074 A 
ATOM     60  C   UNL     1       4.484 -17.312   8.979  1.00  0.00     0.029 A 
ATOM     61  N   UNL     1       5.087 -18.105   7.019  1.00  0.00    -0.354 N 
ATOM     62  N   UNL     1       8.790 -17.024   4.944  1.00  0.00    -0.248 NA
ATOM     63  C   UNL     1       7.087 -16.963   3.352  1.00  0.00     0.031 C 
ATOM     64  C   UNL     1       5.905 -17.417   8.918  1.00  0.00     0.029 A 
ATOM     65  C   UNL     1       6.267 -17.712   7.602  1.00  0.00     0.049 A 
ATOM     66  H   UNL     1       4.993 -18.735   6.268  1.00  0.00     0.167 HD
ATOM     67  C   UNL     1       7.645 -17.530   5.538  1.00  0.00     0.074 A 
ATOM     68  C   UNL     1       6.638 -17.534   4.475  1.00  0.00     0.031 C 
ATOM     69  C   UNL     1       7.533 -17.624   6.896  1.00  0.00     0.034 A 
BRANCH  56  70
ATOM     70  C   UNL     1       2.174 -17.637   5.906  1.00  0.00     0.023 A 
ATOM     71  C   UNL     1       2.061 -19.015   6.157  1.00  0.00     0.031 A 
ATOM     72  C   UNL     1       1.718 -17.201   4.640  1.00  0.00     0.131 A 
ATOM     73  C   UNL     1       1.627 -19.895   5.153  1.00  0.00     0.055 A 
ATOM     74  C   UNL     1       1.219 -18.072   3.671  1.00  0.00     0.041 A 
ATOM     75  F   UNL     1       1.816 -15.935   4.221  1.00  0.00    -0.206 F 
ATOM     76  C   UNL     1       1.203 -19.433   3.910  1.00  0.00     0.022 A 
BRANCH  73  77
ATOM     77  S   UNL     1       1.802 -21.671   5.443  1.00  0.00     0.124 S 
ATOM     78  O   UNL     1       3.229 -21.782   5.721  1.00  0.00    -0.237 OA
ATOM     79  O   UNL     1       0.905 -21.879   6.574  1.00  0.00    -0.237 OA
ATOM     80  O   UNL     1       1.362 -22.263   4.181  1.00  0.00    -0.744 OA
ENDBRANCH  73  77
ENDBRANCH  56  70
BRANCH  57  81
ATOM     81  C   UNL     1       9.360 -14.953   1.941  1.00  0.00     0.023 A 
ATOM     82  C   UNL     1      10.085 -15.921   1.198  1.00  0.00     0.031 A 
ATOM     83  C   UNL     1       8.880 -13.842   1.211  1.00  0.00     0.131 A 
ATOM     84  C   UNL     1      10.294 -15.749  -0.198  1.00  0.00     0.055 A 
ATOM     85  C   UNL     1       9.083 -13.684  -0.163  1.00  0.00     0.041 A 
ATOM     86  F   UNL     1       8.113 -12.908   1.794  1.00  0.00    -0.206 F 
ATOM     87  C   UNL     1       9.783 -14.642  -0.876  1.00  0.00     0.022 A 
BRANCH  84  88
ATOM     88  S   UNL     1      11.176 -17.008  -1.193  1.00  0.00     0.124 S 
ATOM     89  O   UNL     1      12.538 -16.912  -0.683  1.00  0.00    -0.237 OA
ATOM     90  O   UNL     1      10.447 -18.230  -0.876  1.00  0.00    -0.237 OA
ATOM     91  O   UNL     1      11.005 -16.538  -2.570  1.00  0.00    -0.744 OA
ENDBRANCH  84  88
ENDBRANCH  57  81
BRANCH  69  92
ATOM     92  C   UNL     1       8.781 -17.449   7.741  1.00  0.00     0.023 A 
ATOM     93  C   UNL     1       9.613 -16.304   7.749  1.00  0.00     0.031 A 
ATOM     94  C   UNL     1       9.065 -18.465   8.670  1.00  0.00     0.131 A 
ATOM     95  C   UNL     1      10.685 -16.219   8.663  1.00  0.00     0.055 A 
ATOM     96  C   UNL     1      10.108 -18.366   9.588  1.00  0.00     0.041 A 
ATOM     97  F   UNL     1       8.301 -19.569   8.725  1.00  0.00    -0.206 F 
ATOM     98  C   UNL     1      10.926 -17.244   9.585  1.00  0.00     0.022 A 
BRANCH  95  99
ATOM     99  S   UNL     1      11.806 -14.781   8.661  1.00  0.00     0.124 S 
ATOM    100  O   UNL     1      12.154 -14.621   7.253  1.00  0.00    -0.237 OA
ATOM    101  O   UNL     1      10.974 -13.727   9.236  1.00  0.00    -0.237 OA
ATOM    102  O   UNL     1      12.915 -15.211   9.515  1.00  0.00    -0.744 OA
ENDBRANCH  95  99
ENDBRANCH  69  92
ENDBRANCH  43  44
ENDBRANCH  36  38
ENDBRANCH  35  36
ENDBRANCH  34  35
ENDBRANCH  33  34
ENDBRANCH   1  33
TORSDOF 21
