REMARK SMILES CC[C@@H]1CCC[C@@](CC[NH+]2CCOCC2)(C(=O)OCCOCCOC(=O)c2ccc(-c3c4nc(c(-c5cc(S(=O)(=O)[O-])ccc5F)c5ccc([nH]5)c(-c5cc(S(=O)(=O)[O-])ccc5F)c5nc(c(-c6cc(S(=O)(=O)[O-])ccc6F)c6ccc3[nH]6)C=C5)C=C4)cc2)C1
REMARK SMILES IDX 21 1 20 2 19 3 18 4 16 5 17 6 7 7 3 8 4 9 90 10 5 11 6 12
REMARK SMILES IDX 2 13 1 14 8 15 9 16 10 17 11 18 15 19 12 21 14 22 13 23
REMARK SMILES IDX 22 24 23 25 24 26 25 27 26 28 27 29 28 30 89 31 29 32 88 33
REMARK SMILES IDX 30 34 31 35 32 36 82 37 33 38 87 39 81 40 83 41 34 42 86 43
REMARK SMILES IDX 80 44 79 45 35 47 67 48 47 49 66 50 48 51 51 52 65 53 84 54
REMARK SMILES IDX 49 55 50 56 64 58 85 59 52 60 36 61 37 62 45 63 38 64 44 65
REMARK SMILES IDX 46 66 43 67 39 68 40 69 41 70 42 71 68 72 69 73 77 74 70 75
REMARK SMILES IDX 76 76 78 77 75 78 71 79 72 80 73 81 74 82 53 83 54 84 62 85
REMARK SMILES IDX 55 86 61 87 63 88 60 89 56 90 57 91 58 92 59 93
REMARK H PARENT 10 20 83 46 51 57
REMARK Flexibility Score: inf
ROOT
ATOM      1  O   UNL     1      -0.638   0.074  -6.713  1.00  0.00    -0.374 OA
ENDROOT
BRANCH   1   2
ATOM      2  C   UNL     1       0.392  -0.432  -7.557  1.00  0.00     0.202 C 
BRANCH   2   3
ATOM      3  C   UNL     1       1.823  -0.413  -7.015  1.00  0.00     0.261 C 
BRANCH   3   4
ATOM      4  O   UNL     1       2.034  -1.168  -5.805  1.00  0.00    -0.463 OA
BRANCH   4   5
ATOM      5  C   UNL     1       2.416  -0.420  -4.735  1.00  0.00     0.312 C 
ATOM      6  O   UNL     1       2.327   0.806  -4.688  1.00  0.00    -0.252 OA
BRANCH   5   7
ATOM      7  C   UNL     1       3.018  -1.232  -3.575  1.00  0.00     0.074 C 
ATOM      8  C   UNL     1       1.060  -0.706  -1.998  1.00  0.00    -0.010 C 
ATOM      9  C   UNL     1       0.765  -2.192  -1.800  1.00  0.00     0.003 C 
ATOM     10  C   UNL     1       2.565  -0.533  -2.253  1.00  0.00     0.022 C 
ATOM     11  C   UNL     1       1.178  -2.995  -3.035  1.00  0.00     0.001 C 
ATOM     12  C   UNL     1       2.611  -2.723  -3.509  1.00  0.00     0.019 C 
BRANCH   8  13
ATOM     13  C   UNL     1       0.531   0.200  -0.875  1.00  0.00     0.000 C 
ATOM     14  C   UNL     1       1.079  -0.068   0.514  1.00  0.00     0.004 C 
ENDBRANCH   8  13
BRANCH   7  15
ATOM     15  C   UNL     1       4.570  -1.091  -3.652  1.00  0.00     0.080 C 
BRANCH  15  16
ATOM     16  C   UNL     1       5.304  -1.685  -4.872  1.00  0.00     0.263 C 
BRANCH  16  17
ATOM     17  N   UNL     1       5.005  -1.092  -6.181  1.00  0.00    -0.331 N 
ATOM     18  C   UNL     1       5.802  -1.738  -7.258  1.00  0.00     0.291 C 
ATOM     19  C   UNL     1       5.229   0.366  -6.279  1.00  0.00     0.291 C 
ATOM     20  H   UNL     1       4.005  -1.259  -6.295  1.00  0.00     0.348 HD
ATOM     21  C   UNL     1       7.274  -1.277  -7.316  1.00  0.00     0.221 C 
ATOM     22  C   UNL     1       6.704   0.777  -6.309  1.00  0.00     0.221 C 
ATOM     23  O   UNL     1       7.387   0.150  -7.395  1.00  0.00    -0.370 OA
ENDBRANCH  16  17
ENDBRANCH  15  16
ENDBRANCH   7  15
ENDBRANCH   5   7
ENDBRANCH   4   5
ENDBRANCH   3   4
ENDBRANCH   2   3
ENDBRANCH   1   2
BRANCH   1  24
ATOM     24  C   UNL     1      -0.960  -0.694  -5.556  1.00  0.00     0.202 C 
BRANCH  24  25
ATOM     25  C   UNL     1      -1.585  -2.072  -5.798  1.00  0.00     0.261 C 
BRANCH  25  26
ATOM     26  O   UNL     1      -0.675  -2.968  -6.464  1.00  0.00    -0.460 OA
BRANCH  26  27
ATOM     27  C   UNL     1      -1.234  -3.675  -7.479  1.00  0.00     0.338 C 
ATOM     28  O   UNL     1      -2.417  -3.743  -7.762  1.00  0.00    -0.246 OA
BRANCH  27  29
ATOM     29  C   UNL     1      -0.183  -4.269  -8.325  1.00  0.00     0.060 A 
ATOM     30  C   UNL     1       0.068  -3.691  -9.576  1.00  0.00     0.016 A 
ATOM     31  C   UNL     1       0.441  -5.461  -7.956  1.00  0.00     0.016 A 
ATOM     32  C   UNL     1       0.924  -4.323 -10.479  1.00  0.00     0.010 A 
ATOM     33  C   UNL     1       1.288  -6.101  -8.869  1.00  0.00     0.010 A 
ATOM     34  C   UNL     1       1.510  -5.552 -10.145  1.00  0.00    -0.014 A 
BRANCH  34  35
ATOM     35  C   UNL     1       2.243  -6.327 -11.178  1.00  0.00     0.031 A 
ATOM     36  C   UNL     1       1.517  -7.403 -11.941  1.00  0.00     0.074 A 
ATOM     37  C   UNL     1       3.535  -6.065 -11.445  1.00  0.00     0.049 A 
ATOM     38  N   UNL     1       1.976  -8.241 -12.834  1.00  0.00    -0.248 NA
ATOM     39  C   UNL     1       0.081  -7.549 -11.657  1.00  0.00     0.031 C 
ATOM     40  C   UNL     1       4.327  -5.008 -10.818  1.00  0.00     0.029 A 
ATOM     41  N   UNL     1       4.410  -6.676 -12.308  1.00  0.00    -0.354 N 
ATOM     42  C   UNL     1       0.886  -9.013 -13.224  1.00  0.00     0.074 A 
ATOM     43  C   UNL     1      -0.248  -8.561 -12.446  1.00  0.00     0.031 C 
ATOM     44  C   UNL     1       5.580  -5.059 -11.303  1.00  0.00     0.029 A 
ATOM     45  C   UNL     1       5.690  -6.177 -12.239  1.00  0.00     0.049 A 
ATOM     46  H   UNL     1       4.147  -7.403 -12.918  1.00  0.00     0.167 HD
ATOM     47  C   UNL     1       0.838 -10.005 -14.148  1.00  0.00     0.034 A 
ATOM     48  C   UNL     1       6.826  -6.599 -12.832  1.00  0.00     0.034 A 
ATOM     49  C   UNL     1       1.980 -10.459 -14.903  1.00  0.00     0.049 A 
ATOM     50  C   UNL     1       6.774  -7.790 -13.758  1.00  0.00     0.074 A 
ATOM     51  C   UNL     1       2.034 -11.433 -15.885  1.00  0.00     0.029 A 
ATOM     52  N   UNL     1       3.276  -9.988 -14.743  1.00  0.00    -0.354 N 
ATOM     53  N   UNL     1       5.736  -8.507 -14.125  1.00  0.00    -0.248 NA
ATOM     54  C   UNL     1       8.047  -8.234 -14.342  1.00  0.00     0.031 C 
ATOM     55  C   UNL     1       3.371 -11.602 -16.264  1.00  0.00     0.029 A 
ATOM     56  C   UNL     1       4.144 -10.685 -15.569  1.00  0.00     0.049 A 
ATOM     57  H   UNL     1       3.541  -9.263 -14.131  1.00  0.00     0.167 HD
ATOM     58  C   UNL     1       6.232  -9.474 -14.996  1.00  0.00     0.074 A 
ATOM     59  C   UNL     1       7.657  -9.241 -15.110  1.00  0.00     0.031 C 
ATOM     60  C   UNL     1       5.568 -10.463 -15.648  1.00  0.00     0.034 A 
BRANCH  47  61
ATOM     61  C   UNL     1      -0.485 -10.703 -14.347  1.00  0.00     0.023 A 
ATOM     62  C   UNL     1      -1.599 -10.040 -14.891  1.00  0.00     0.031 A 
ATOM     63  C   UNL     1      -0.637 -12.048 -13.968  1.00  0.00     0.131 A 
ATOM     64  C   UNL     1      -2.830 -10.707 -14.986  1.00  0.00     0.055 A 
ATOM     65  C   UNL     1      -1.847 -12.726 -14.127  1.00  0.00     0.041 A 
ATOM     66  F   UNL     1       0.388 -12.724 -13.424  1.00  0.00    -0.206 F 
ATOM     67  C   UNL     1      -2.956 -12.051 -14.627  1.00  0.00     0.022 A 
BRANCH  64  68
ATOM     68  S   UNL     1      -4.298  -9.758 -15.472  1.00  0.00     0.124 S 
ATOM     69  O   UNL     1      -4.330  -8.716 -14.447  1.00  0.00    -0.237 OA
ATOM     70  O   UNL     1      -3.958  -9.318 -16.820  1.00  0.00    -0.237 OA
ATOM     71  O   UNL     1      -5.382 -10.735 -15.389  1.00  0.00    -0.744 OA
ENDBRANCH  64  68
ENDBRANCH  47  61
BRANCH  48  72
ATOM     72  C   UNL     1       8.128  -5.946 -12.513  1.00  0.00     0.023 A 
ATOM     73  C   UNL     1       8.866  -5.270 -13.496  1.00  0.00     0.031 A 
ATOM     74  C   UNL     1       8.679  -6.042 -11.222  1.00  0.00     0.131 A 
ATOM     75  C   UNL     1      10.131  -4.748 -13.183  1.00  0.00     0.055 A 
ATOM     76  C   UNL     1       9.915  -5.479 -10.903  1.00  0.00     0.041 A 
ATOM     77  F   UNL     1       8.015  -6.681 -10.245  1.00  0.00    -0.206 F 
ATOM     78  C   UNL     1      10.654  -4.836 -11.890  1.00  0.00     0.022 A 
BRANCH  75  79
ATOM     79  S   UNL     1      11.123  -4.014 -14.512  1.00  0.00     0.124 S 
ATOM     80  O   UNL     1      11.245  -5.131 -15.443  1.00  0.00    -0.237 OA
ATOM     81  O   UNL     1      10.277  -2.907 -14.945  1.00  0.00    -0.237 OA
ATOM     82  O   UNL     1      12.360  -3.625 -13.838  1.00  0.00    -0.744 OA
ENDBRANCH  75  79
ENDBRANCH  48  72
BRANCH  60  83
ATOM     83  C   UNL     1       6.383 -11.354 -16.552  1.00  0.00     0.023 A 
ATOM     84  C   UNL     1       7.312 -12.274 -16.035  1.00  0.00     0.031 A 
ATOM     85  C   UNL     1       6.228 -11.282 -17.948  1.00  0.00     0.131 A 
ATOM     86  C   UNL     1       8.083 -13.055 -16.910  1.00  0.00     0.055 A 
ATOM     87  C   UNL     1       6.961 -12.097 -18.811  1.00  0.00     0.041 A 
ATOM     88  F   UNL     1       5.356 -10.420 -18.494  1.00  0.00    -0.206 F 
ATOM     89  C   UNL     1       7.902 -12.983 -18.294  1.00  0.00     0.022 A 
BRANCH  86  90
ATOM     90  S   UNL     1       9.375 -14.124 -16.218  1.00  0.00     0.124 S 
ATOM     91  O   UNL     1      10.260 -13.156 -15.579  1.00  0.00    -0.237 OA
ATOM     92  O   UNL     1       8.619 -14.988 -15.318  1.00  0.00    -0.237 OA
ATOM     93  O   UNL     1       9.932 -14.793 -17.393  1.00  0.00    -0.744 OA
ENDBRANCH  86  90
ENDBRANCH  60  83
ENDBRANCH  34  35
ENDBRANCH  27  29
ENDBRANCH  26  27
ENDBRANCH  25  26
ENDBRANCH  24  25
ENDBRANCH   1  24
TORSDOF 21
