REMARK SMILES O=C(COc1nc(NCc2cccc(Cl)c2)nc2c1CCC2)OCCOCCOC(=O)c1ccc(-c2c3nc(c(-c4cc(S(=O)(=O)[O-])ccc4F)c4ccc([nH]4)c(-c4cc(S(=O)(=O)[O-])ccc4F)c4nc(c(-c5cc(S(=O)(=O)[O-])ccc5F)c5ccc2[nH]5)C=C4)C=C3)cc1
REMARK SMILES IDX 25 1 24 2 23 3 2 4 1 5 3 6 4 7 5 8 6 9 19 10 7 11 18 12
REMARK SMILES IDX 20 13 17 14 22 15 21 16 8 17 9 19 10 20 11 21 16 22 12 23
REMARK SMILES IDX 14 24 13 25 15 26 26 27 27 28 28 29 29 30 30 31 31 32 32 33
REMARK SMILES IDX 33 34 94 35 34 36 93 37 35 38 36 39 37 40 87 41 38 42 92 43
REMARK SMILES IDX 86 44 88 45 39 46 91 47 85 48 84 49 40 51 72 52 52 53 71 54
REMARK SMILES IDX 53 55 56 56 70 57 89 58 54 59 55 60 69 62 90 63 57 64 41 65
REMARK SMILES IDX 42 66 50 67 43 68 49 69 51 70 48 71 44 72 45 73 46 74 47 75
REMARK SMILES IDX 73 76 74 77 82 78 75 79 81 80 83 81 80 82 76 83 77 84 78 85
REMARK SMILES IDX 79 86 58 87 59 88 67 89 60 90 66 91 68 92 65 93 61 94 62 95
REMARK SMILES IDX 63 96 64 97
REMARK H PARENT 8 18 88 50 56 61
REMARK Flexibility Score: inf
ROOT
ATOM      1  C   UNL     1       4.779  -0.191  -1.067  1.00  0.00     0.202 C 
ENDROOT
BRANCH   1   2
ATOM      2  C   UNL     1       4.240  -0.753   0.247  1.00  0.00     0.261 C 
BRANCH   2   3
ATOM      3  O   UNL     1       2.811  -0.893   0.254  1.00  0.00    -0.461 OA
BRANCH   3   4
ATOM      4  C   UNL     1       1.948   0.092   0.597  1.00  0.00     0.344 C 
ATOM      5  O   UNL     1       0.736  -0.084   0.453  1.00  0.00    -0.248 OA
BRANCH   4   6
ATOM      6  C   UNL     1       2.491   1.458   1.033  1.00  0.00     0.353 C 
BRANCH   6   7
ATOM      7  O   UNL     1       3.595   1.564   1.911  1.00  0.00    -0.465 OA
BRANCH   7   8
ATOM      8  C   UNL     1       3.233   1.152   3.167  1.00  0.00     0.222 A 
ATOM      9  N   UNL     1       2.315   0.185   3.284  1.00  0.00    -0.177 NA
ATOM     10  C   UNL     1       3.756   1.802   4.227  1.00  0.00     0.036 A 
ATOM     11  C   UNL     1       1.832  -0.075   4.503  1.00  0.00     0.226 A 
ATOM     12  C   UNL     1       3.188   1.490   5.435  1.00  0.00     0.053 A 
ATOM     13  C   UNL     1       4.724   2.921   4.298  1.00  0.00     0.043 C 
ATOM     14  N   UNL     1       2.219   0.576   5.613  1.00  0.00    -0.218 NA
ATOM     15  C   UNL     1       3.676   2.452   6.482  1.00  0.00     0.057 C 
ATOM     16  C   UNL     1       4.951   2.999   5.814  1.00  0.00     0.011 C 
BRANCH  11  17
ATOM     17  N   UNL     1       0.846  -1.012   4.509  1.00  0.00    -0.350 N 
ATOM     18  H   UNL     1       0.621  -1.442   3.652  1.00  0.00     0.164 HD
BRANCH  17  19
ATOM     19  C   UNL     1       0.113  -1.420   5.666  1.00  0.00     0.152 C 
BRANCH  19  20
ATOM     20  C   UNL     1      -1.368  -1.233   5.420  1.00  0.00    -0.027 A 
ATOM     21  C   UNL     1      -2.226  -2.335   5.286  1.00  0.00     0.005 A 
ATOM     22  C   UNL     1      -1.909   0.061   5.330  1.00  0.00     0.026 A 
ATOM     23  C   UNL     1      -3.598  -2.150   5.098  1.00  0.00     0.002 A 
ATOM     24  C   UNL     1      -3.279   0.239   5.142  1.00  0.00     0.041 A 
ATOM     25  C   UNL     1      -4.127  -0.861   5.033  1.00  0.00     0.020 A 
ATOM     26  Cl  UNL     1      -3.932   1.830   5.058  1.00  0.00    -0.084 Cl
ENDBRANCH  19  20
ENDBRANCH  17  19
ENDBRANCH  11  17
ENDBRANCH   7   8
ENDBRANCH   6   7
ENDBRANCH   4   6
ENDBRANCH   3   4
ENDBRANCH   2   3
ENDBRANCH   1   2
BRANCH   1  27
ATOM     27  O   UNL     1       4.254   1.058  -1.513  1.00  0.00    -0.374 OA
BRANCH  27  28
ATOM     28  C   UNL     1       3.044   1.019  -2.280  1.00  0.00     0.202 C 
BRANCH  28  29
ATOM     29  C   UNL     1       3.137   0.622  -3.755  1.00  0.00     0.261 C 
BRANCH  29  30
ATOM     30  O   UNL     1       3.470  -0.762  -3.912  1.00  0.00    -0.460 OA
BRANCH  30  31
ATOM     31  C   UNL     1       4.770  -1.000  -4.203  1.00  0.00     0.338 C 
ATOM     32  O   UNL     1       5.635  -0.168  -4.430  1.00  0.00    -0.246 OA
BRANCH  31  33
ATOM     33  C   UNL     1       5.055  -2.427  -3.963  1.00  0.00     0.060 A 
ATOM     34  C   UNL     1       6.204  -2.745  -3.225  1.00  0.00     0.016 A 
ATOM     35  C   UNL     1       4.217  -3.432  -4.451  1.00  0.00     0.016 A 
ATOM     36  C   UNL     1       6.556  -4.074  -3.029  1.00  0.00     0.010 A 
ATOM     37  C   UNL     1       4.578  -4.765  -4.265  1.00  0.00     0.010 A 
ATOM     38  C   UNL     1       5.771  -5.086  -3.594  1.00  0.00    -0.014 A 
BRANCH  38  39
ATOM     39  C   UNL     1       6.305  -6.462  -3.667  1.00  0.00     0.031 A 
ATOM     40  C   UNL     1       6.944  -6.904  -4.953  1.00  0.00     0.074 A 
ATOM     41  C   UNL     1       6.255  -7.277  -2.601  1.00  0.00     0.049 A 
ATOM     42  N   UNL     1       7.430  -8.072  -5.278  1.00  0.00    -0.248 NA
ATOM     43  C   UNL     1       7.046  -5.890  -6.017  1.00  0.00     0.031 C 
ATOM     44  C   UNL     1       5.720  -6.918  -1.289  1.00  0.00     0.029 A 
ATOM     45  N   UNL     1       6.668  -8.575  -2.456  1.00  0.00    -0.354 N 
ATOM     46  C   UNL     1       7.895  -7.934  -6.581  1.00  0.00     0.074 A 
ATOM     47  C   UNL     1       7.593  -6.584  -7.002  1.00  0.00     0.031 C 
ATOM     48  C   UNL     1       5.844  -7.973  -0.467  1.00  0.00     0.029 A 
ATOM     49  C   UNL     1       6.427  -9.092  -1.207  1.00  0.00     0.049 A 
ATOM     50  H   UNL     1       7.097  -9.088  -3.178  1.00  0.00     0.167 HD
ATOM     51  C   UNL     1       8.531  -8.851  -7.348  1.00  0.00     0.034 A 
ATOM     52  C   UNL     1       6.636 -10.333  -0.726  1.00  0.00     0.034 A 
ATOM     53  C   UNL     1       8.814 -10.193  -6.910  1.00  0.00     0.049 A 
ATOM     54  C   UNL     1       7.242 -11.372  -1.634  1.00  0.00     0.074 A 
ATOM     55  C   UNL     1       9.443 -11.209  -7.605  1.00  0.00     0.029 A 
ATOM     56  N   UNL     1       8.480 -10.707  -5.664  1.00  0.00    -0.354 N 
ATOM     57  N   UNL     1       7.645 -11.246  -2.878  1.00  0.00    -0.248 NA
ATOM     58  C   UNL     1       7.417 -12.720  -1.077  1.00  0.00     0.031 C 
ATOM     59  C   UNL     1       9.428 -12.356  -6.806  1.00  0.00     0.029 A 
ATOM     60  C   UNL     1       8.861 -12.035  -5.582  1.00  0.00     0.049 A 
ATOM     61  H   UNL     1       8.038 -10.201  -4.944  1.00  0.00     0.167 HD
ATOM     62  C   UNL     1       8.146 -12.492  -3.244  1.00  0.00     0.074 A 
ATOM     63  C   UNL     1       7.995 -13.354  -2.089  1.00  0.00     0.031 C 
ATOM     64  C   UNL     1       8.688 -12.883  -4.425  1.00  0.00     0.034 A 
BRANCH  51  65
ATOM     65  C   UNL     1       8.924  -8.439  -8.742  1.00  0.00     0.023 A 
ATOM     66  C   UNL     1       9.899  -7.454  -8.972  1.00  0.00     0.031 A 
ATOM     67  C   UNL     1       8.313  -9.038  -9.858  1.00  0.00     0.131 A 
ATOM     68  C   UNL     1      10.202  -7.063 -10.285  1.00  0.00     0.055 A 
ATOM     69  C   UNL     1       8.668  -8.693 -11.163  1.00  0.00     0.041 A 
ATOM     70  F   UNL     1       7.357  -9.966  -9.697  1.00  0.00    -0.206 F 
ATOM     71  C   UNL     1       9.611  -7.693 -11.382  1.00  0.00     0.022 A 
BRANCH  68  72
ATOM     72  S   UNL     1      11.310  -5.649 -10.537  1.00  0.00     0.124 S 
ATOM     73  O   UNL     1      10.557  -4.569  -9.905  1.00  0.00    -0.237 OA
ATOM     74  O   UNL     1      12.523  -6.071  -9.847  1.00  0.00    -0.237 OA
ATOM     75  O   UNL     1      11.420  -5.556 -11.991  1.00  0.00    -0.744 OA
ENDBRANCH  68  72
ENDBRANCH  51  65
BRANCH  52  76
ATOM     76  C   UNL     1       6.260 -10.653   0.677  1.00  0.00     0.023 A 
ATOM     77  C   UNL     1       7.243 -10.912   1.643  1.00  0.00     0.031 A 
ATOM     78  C   UNL     1       4.912 -10.677   1.079  1.00  0.00     0.131 A 
ATOM     79  C   UNL     1       6.865 -11.191   2.965  1.00  0.00     0.055 A 
ATOM     80  C   UNL     1       4.543 -10.919   2.402  1.00  0.00     0.041 A 
ATOM     81  F   UNL     1       3.936 -10.429   0.191  1.00  0.00    -0.206 F 
ATOM     82  C   UNL     1       5.522 -11.182   3.354  1.00  0.00     0.022 A 
BRANCH  79  83
ATOM     83  S   UNL     1       8.157 -11.580   4.176  1.00  0.00     0.124 S 
ATOM     84  O   UNL     1       8.700 -12.823   3.642  1.00  0.00    -0.237 OA
ATOM     85  O   UNL     1       9.023 -10.409   4.085  1.00  0.00    -0.237 OA
ATOM     86  O   UNL     1       7.420 -11.708   5.431  1.00  0.00    -0.744 OA
ENDBRANCH  79  83
ENDBRANCH  52  76
BRANCH  64  87
ATOM     87  C   UNL     1       9.187 -14.301  -4.527  1.00  0.00     0.023 A 
ATOM     88  C   UNL     1       8.301 -15.390  -4.563  1.00  0.00     0.031 A 
ATOM     89  C   UNL     1      10.564 -14.558  -4.650  1.00  0.00     0.131 A 
ATOM     90  C   UNL     1       8.805 -16.693  -4.692  1.00  0.00     0.055 A 
ATOM     91  C   UNL     1      11.055 -15.851  -4.831  1.00  0.00     0.041 A 
ATOM     92  F   UNL     1      11.451 -13.551  -4.626  1.00  0.00    -0.206 F 
ATOM     93  C   UNL     1      10.174 -16.928  -4.847  1.00  0.00     0.022 A 
BRANCH  90  94
ATOM     94  S   UNL     1       7.647 -18.086  -4.616  1.00  0.00     0.124 S 
ATOM     95  O   UNL     1       7.117 -17.963  -3.262  1.00  0.00    -0.237 OA
ATOM     96  O   UNL     1       6.714 -17.780  -5.696  1.00  0.00    -0.237 OA
ATOM     97  O   UNL     1       8.498 -19.252  -4.846  1.00  0.00    -0.744 OA
ENDBRANCH  90  94
ENDBRANCH  64  87
ENDBRANCH  38  39
ENDBRANCH  31  33
ENDBRANCH  30  31
ENDBRANCH  29  30
ENDBRANCH  28  29
ENDBRANCH  27  28
ENDBRANCH   1  27
TORSDOF 22
