REMARK SMILES Cc1cccc(CN(C)c2ccc(C(=O)OCCOCCOC(=O)c3ccc(-c4c5nc(c(-c6cc(S(=O)(=O)[O-])ccc6F)c6ccc([nH]6)c(-c6cc(S(=O)(=O)[O-])ccc6F)c6nc(c(-c7cc(S(=O)(=O)[O-])ccc7F)c7ccc4[nH]7)C=C6)C=C5)cc3)cc2C)n1
REMARK SMILES IDX 19 1 18 2 17 3 16 4 14 5 15 6 13 7 10 8 11 9 89 10 12 11
REMARK SMILES IDX 88 12 90 13 8 14 9 15 7 16 6 17 1 18 2 19 3 20 91 21 4 22
REMARK SMILES IDX 5 23 20 24 21 25 22 26 23 27 24 28 25 29 26 30 87 31 27 32
REMARK SMILES IDX 86 33 28 34 29 35 30 36 80 37 31 38 85 39 79 40 81 41 32 42
REMARK SMILES IDX 84 43 78 44 77 45 33 47 65 48 45 49 64 50 46 51 49 52 63 53
REMARK SMILES IDX 82 54 47 55 48 56 62 58 83 59 50 60 34 61 35 62 43 63 36 64
REMARK SMILES IDX 42 65 44 66 41 67 37 68 38 69 39 70 40 71 66 72 67 73 75 74
REMARK SMILES IDX 68 75 74 76 76 77 73 78 69 79 70 80 71 81 72 82 51 83 52 84
REMARK SMILES IDX 60 85 53 86 59 87 61 88 58 89 54 90 55 91 56 92 57 93
REMARK H PARENT 81 46 49 57
REMARK Flexibility Score: inf
ROOT
ATOM      1  O   UNL     1      -0.111   1.644   7.545  1.00  0.00    -0.374 OA
ENDROOT
BRANCH   1   2
ATOM      2  C   UNL     1       0.334   0.438   6.936  1.00  0.00     0.202 C 
BRANCH   2   3
ATOM      3  C   UNL     1      -0.903  -0.365   6.755  1.00  0.00     0.261 C 
BRANCH   3   4
ATOM      4  O   UNL     1      -1.709   0.114   5.677  1.00  0.00    -0.460 OA
BRANCH   4   5
ATOM      5  C   UNL     1      -2.341   1.312   5.760  1.00  0.00     0.338 C 
ATOM      6  O   UNL     1      -2.851   1.846   6.719  1.00  0.00    -0.246 OA
BRANCH   5   7
ATOM      7  C   UNL     1      -2.141   1.938   4.439  1.00  0.00     0.060 A 
ATOM      8  C   UNL     1      -1.461   3.179   2.004  1.00  0.00     0.040 A 
ATOM      9  C   UNL     1      -1.032   1.895   2.337  1.00  0.00     0.027 A 
ATOM     10  C   UNL     1      -2.135   3.910   3.005  1.00  0.00    -0.027 A 
ATOM     11  C   UNL     1      -1.429   1.244   3.474  1.00  0.00     0.018 A 
ATOM     12  C   UNL     1      -2.472   3.276   4.224  1.00  0.00     0.021 A 
ATOM     13  C   UNL     1      -2.415   5.381   2.897  1.00  0.00     0.046 C 
BRANCH   8  14
ATOM     14  N   UNL     1      -1.190   3.657   0.723  1.00  0.00    -0.368 N 
ATOM     15  C   UNL     1      -0.060   4.558   0.605  1.00  0.00     0.144 C 
BRANCH  14  16
ATOM     16  C   UNL     1      -1.570   2.821  -0.452  1.00  0.00     0.172 C 
BRANCH  16  17
ATOM     17  C   UNL     1      -0.954   1.417  -0.560  1.00  0.00     0.060 A 
ATOM     18  C   UNL     1       2.427  -0.013  -0.178  1.00  0.00     0.067 C 
ATOM     19  C   UNL     1       0.941   0.064  -0.378  1.00  0.00     0.038 A 
ATOM     20  C   UNL     1       0.164  -1.075  -0.181  1.00  0.00     0.023 A 
ATOM     21  N   UNL     1       0.406   1.298  -0.609  1.00  0.00    -0.256 NA
ATOM     22  C   UNL     1      -1.218  -0.958  -0.228  1.00  0.00     0.004 A 
ATOM     23  C   UNL     1      -1.787   0.300  -0.412  1.00  0.00     0.026 A 
ENDBRANCH  16  17
ENDBRANCH  14  16
ENDBRANCH   8  14
ENDBRANCH   5   7
ENDBRANCH   4   5
ENDBRANCH   3   4
ENDBRANCH   2   3
ENDBRANCH   1   2
BRANCH   1  24
ATOM     24  C   UNL     1       0.911   2.537   7.915  1.00  0.00     0.202 C 
BRANCH  24  25
ATOM     25  C   UNL     1       1.877   1.923   8.936  1.00  0.00     0.261 C 
BRANCH  25  26
ATOM     26  O   UNL     1       1.158   1.576  10.144  1.00  0.00    -0.460 OA
BRANCH  26  27
ATOM     27  C   UNL     1       0.944   0.246  10.367  1.00  0.00     0.338 C 
ATOM     28  O   UNL     1       1.818  -0.602  10.430  1.00  0.00    -0.246 OA
BRANCH  27  29
ATOM     29  C   UNL     1      -0.522  -0.044  10.382  1.00  0.00     0.060 A 
ATOM     30  C   UNL     1      -1.002  -1.369  10.288  1.00  0.00     0.016 A 
ATOM     31  C   UNL     1      -1.397   1.019  10.191  1.00  0.00     0.016 A 
ATOM     32  C   UNL     1      -2.313  -1.621   9.840  1.00  0.00     0.010 A 
ATOM     33  C   UNL     1      -2.638   0.764   9.650  1.00  0.00     0.010 A 
ATOM     34  C   UNL     1      -3.102  -0.548   9.434  1.00  0.00    -0.014 A 
BRANCH  34  35
ATOM     35  C   UNL     1      -4.337  -0.613   8.638  1.00  0.00     0.031 A 
ATOM     36  C   UNL     1      -5.541   0.039   9.184  1.00  0.00     0.074 A 
ATOM     37  C   UNL     1      -4.321  -0.942   7.321  1.00  0.00     0.049 A 
ATOM     38  N   UNL     1      -6.718  -0.104   8.693  1.00  0.00    -0.248 NA
ATOM     39  C   UNL     1      -5.533   0.886  10.371  1.00  0.00     0.031 C 
ATOM     40  C   UNL     1      -5.241  -0.529   6.256  1.00  0.00     0.029 A 
ATOM     41  N   UNL     1      -3.409  -1.739   6.633  1.00  0.00    -0.354 N 
ATOM     42  C   UNL     1      -7.510   0.888   9.217  1.00  0.00     0.074 A 
ATOM     43  C   UNL     1      -6.773   1.376  10.352  1.00  0.00     0.031 C 
ATOM     44  C   UNL     1      -5.016  -1.264   5.151  1.00  0.00     0.029 A 
ATOM     45  C   UNL     1      -4.027  -2.269   5.495  1.00  0.00     0.049 A 
ATOM     46  H   UNL     1      -2.477  -1.904   6.905  1.00  0.00     0.167 HD
ATOM     47  C   UNL     1      -8.620   1.258   8.519  1.00  0.00     0.034 A 
ATOM     48  C   UNL     1      -4.075  -3.614   5.334  1.00  0.00     0.034 A 
ATOM     49  C   UNL     1      -8.773   0.419   7.308  1.00  0.00     0.049 A 
ATOM     50  C   UNL     1      -5.513  -4.027   5.489  1.00  0.00     0.074 A 
ATOM     51  C   UNL     1      -8.629   0.644   5.948  1.00  0.00     0.029 A 
ATOM     52  N   UNL     1      -8.811  -0.969   7.448  1.00  0.00    -0.354 N 
ATOM     53  N   UNL     1      -6.449  -3.214   5.905  1.00  0.00    -0.248 NA
ATOM     54  C   UNL     1      -6.038  -5.328   5.131  1.00  0.00     0.031 C 
ATOM     55  C   UNL     1      -8.560  -0.627   5.291  1.00  0.00     0.029 A 
ATOM     56  C   UNL     1      -8.702  -1.629   6.240  1.00  0.00     0.049 A 
ATOM     57  H   UNL     1      -8.906  -1.427   8.314  1.00  0.00     0.167 HD
ATOM     58  C   UNL     1      -7.674  -3.798   5.837  1.00  0.00     0.074 A 
ATOM     59  C   UNL     1      -7.350  -5.146   5.372  1.00  0.00     0.031 C 
ATOM     60  C   UNL     1      -8.807  -3.097   6.183  1.00  0.00     0.034 A 
BRANCH  47  61
ATOM     61  C   UNL     1      -9.460   2.500   8.785  1.00  0.00     0.023 A 
ATOM     62  C   UNL     1     -10.417   2.880   7.822  1.00  0.00     0.031 A 
ATOM     63  C   UNL     1      -9.390   3.360   9.906  1.00  0.00     0.131 A 
ATOM     64  C   UNL     1     -11.193   4.049   7.962  1.00  0.00     0.055 A 
ATOM     65  C   UNL     1     -10.144   4.535  10.037  1.00  0.00     0.041 A 
ATOM     66  F   UNL     1      -8.632   3.109  10.972  1.00  0.00    -0.206 F 
ATOM     67  C   UNL     1     -11.052   4.889   9.061  1.00  0.00     0.022 A 
BRANCH  64  68
ATOM     68  S   UNL     1     -12.414   4.452   6.688  1.00  0.00     0.124 S 
ATOM     69  O   UNL     1     -11.572   4.683   5.519  1.00  0.00    -0.237 OA
ATOM     70  O   UNL     1     -13.245   3.254   6.664  1.00  0.00    -0.237 OA
ATOM     71  O   UNL     1     -13.074   5.646   7.217  1.00  0.00    -0.744 OA
ENDBRANCH  64  68
ENDBRANCH  47  61
BRANCH  48  72
ATOM     72  C   UNL     1      -2.800  -4.257   5.813  1.00  0.00     0.023 A 
ATOM     73  C   UNL     1      -1.623  -3.953   5.070  1.00  0.00     0.031 A 
ATOM     74  C   UNL     1      -2.628  -4.624   7.158  1.00  0.00     0.131 A 
ATOM     75  C   UNL     1      -0.367  -3.863   5.705  1.00  0.00     0.055 A 
ATOM     76  C   UNL     1      -1.369  -4.556   7.780  1.00  0.00     0.041 A 
ATOM     77  F   UNL     1      -3.691  -4.882   7.934  1.00  0.00    -0.206 F 
ATOM     78  C   UNL     1      -0.243  -4.135   7.069  1.00  0.00     0.022 A 
BRANCH  75  79
ATOM     79  S   UNL     1       1.017  -3.027   4.837  1.00  0.00     0.124 S 
ATOM     80  O   UNL     1       1.647  -4.128   4.119  1.00  0.00    -0.237 OA
ATOM     81  O   UNL     1       0.337  -2.037   4.008  1.00  0.00    -0.237 OA
ATOM     82  O   UNL     1       1.802  -2.451   5.929  1.00  0.00    -0.744 OA
ENDBRANCH  75  79
ENDBRANCH  48  72
BRANCH  60  83
ATOM     83  C   UNL     1     -10.144  -3.735   6.505  1.00  0.00     0.023 A 
ATOM     84  C   UNL     1     -10.437  -5.055   6.174  1.00  0.00     0.031 A 
ATOM     85  C   UNL     1     -11.167  -3.066   7.223  1.00  0.00     0.131 A 
ATOM     86  C   UNL     1     -11.607  -5.694   6.600  1.00  0.00     0.055 A 
ATOM     87  C   UNL     1     -12.355  -3.687   7.625  1.00  0.00     0.041 A 
ATOM     88  F   UNL     1     -11.069  -1.787   7.606  1.00  0.00    -0.206 F 
ATOM     89  C   UNL     1     -12.576  -5.020   7.328  1.00  0.00     0.022 A 
BRANCH  86  90
ATOM     90  S   UNL     1     -11.777  -7.442   6.181  1.00  0.00     0.124 S 
ATOM     91  O   UNL     1     -11.597  -7.432   4.732  1.00  0.00    -0.237 OA
ATOM     92  O   UNL     1     -10.685  -8.042   6.943  1.00  0.00    -0.237 OA
ATOM     93  O   UNL     1     -13.121  -7.776   6.643  1.00  0.00    -0.744 OA
ENDBRANCH  86  90
ENDBRANCH  60  83
ENDBRANCH  34  35
ENDBRANCH  27  29
ENDBRANCH  26  27
ENDBRANCH  25  26
ENDBRANCH  24  25
ENDBRANCH   1  24
TORSDOF 20
