REMARK SMILES O=C(OCCOCCOC(=O)[C@]1(CCc2cccnc2)CCC[NH2+]C1)c1ccc(-c2c3nc(c(-c4cc(S(=O)(=O)[O-])ccc4F)c4ccc([nH]4)c(-c4cc(S(=O)(=O)[O-])ccc4F)c4nc(c(-c5cc(S(=O)(=O)[O-])ccc5F)c5ccc2[nH]5)C=C4)C=C3)cc1
REMARK SMILES IDX 6 1 5 2 4 3 3 4 2 5 1 6 26 7 27 8 88 9 28 10 87 11 29 12
REMARK SMILES IDX 30 13 31 14 81 15 32 16 86 17 80 18 82 19 33 20 85 21 79 22
REMARK SMILES IDX 78 23 34 25 66 26 46 27 65 28 47 29 50 30 64 31 83 32 48 33
REMARK SMILES IDX 49 34 63 36 84 37 51 38 35 39 36 40 44 41 37 42 43 43 45 44
REMARK SMILES IDX 42 45 38 46 39 47 40 48 41 49 67 50 68 51 76 52 69 53 75 54
REMARK SMILES IDX 77 55 74 56 70 57 71 58 72 59 73 60 52 61 53 62 61 63 54 64
REMARK SMILES IDX 60 65 62 66 59 67 55 68 56 69 57 70 58 71 7 72 8 73 9 74
REMARK SMILES IDX 10 75 11 76 12 77 21 78 25 79 22 80 24 81 23 82 13 85 14 86
REMARK SMILES IDX 15 87 16 88 20 89 17 90 19 91 18 92
REMARK H PARENT 82 24 50 35 24 83 24 84
REMARK Flexibility Score: inf
ROOT
ATOM      1  O   UNL     1       4.469   0.424   2.064  1.00  0.00    -0.374 OA
ENDROOT
BRANCH   1   2
ATOM      2  C   UNL     1       5.197   0.388   0.568  1.00  0.00     0.202 C 
BRANCH   2   3
ATOM      3  C   UNL     1       4.321   0.009  -1.424  1.00  0.00     0.261 C 
BRANCH   3   4
ATOM      4  O   UNL     1       3.027  -1.183  -1.706  1.00  0.00    -0.460 OA
BRANCH   4   5
ATOM      5  C   UNL     1       1.835  -1.423  -0.991  1.00  0.00     0.338 C 
ATOM      6  O   UNL     1       0.812  -0.756  -1.089  1.00  0.00    -0.246 OA
BRANCH   5   7
ATOM      7  C   UNL     1       1.946  -2.596  -0.007  1.00  0.00     0.060 A 
ATOM      8  C   UNL     1       2.226  -2.309   1.325  1.00  0.00     0.016 A 
ATOM      9  C   UNL     1       2.190  -3.897  -0.425  1.00  0.00     0.016 A 
ATOM     10  C   UNL     1       3.247  -3.031   1.957  1.00  0.00     0.010 A 
ATOM     11  C   UNL     1       2.969  -4.766   0.382  1.00  0.00     0.010 A 
ATOM     12  C   UNL     1       3.680  -4.280   1.498  1.00  0.00    -0.014 A 
BRANCH  12  13
ATOM     13  C   UNL     1       4.936  -4.957   2.036  1.00  0.00     0.031 A 
ATOM     14  C   UNL     1       5.851  -5.745   1.094  1.00  0.00     0.074 A 
ATOM     15  C   UNL     1       5.353  -4.832   3.323  1.00  0.00     0.049 A 
ATOM     16  N   UNL     1       6.699  -6.707   1.367  1.00  0.00    -0.248 NA
ATOM     17  C   UNL     1       5.799  -5.415  -0.343  1.00  0.00     0.031 C 
ATOM     18  C   UNL     1       4.754  -3.977   4.352  1.00  0.00     0.029 A 
ATOM     19  N   UNL     1       6.395  -5.436   4.005  1.00  0.00    -0.354 N 
ATOM     20  C   UNL     1       7.190  -7.162   0.141  1.00  0.00     0.074 A 
ATOM     21  C   UNL     1       6.565  -6.354  -0.882  1.00  0.00     0.031 C 
ATOM     22  C   UNL     1       5.460  -4.050   5.484  1.00  0.00     0.029 A 
ATOM     23  C   UNL     1       6.403  -5.138   5.355  1.00  0.00     0.049 A 
ATOM     24  H   UNL     1       7.062  -6.018   3.573  1.00  0.00     0.167 HD
ATOM     25  C   UNL     1       8.059  -8.178  -0.100  1.00  0.00     0.034 A 
ATOM     26  C   UNL     1       6.969  -5.749   6.415  1.00  0.00     0.034 A 
ATOM     27  C   UNL     1       8.708  -8.924   0.954  1.00  0.00     0.049 A 
ATOM     28  C   UNL     1       7.791  -6.977   6.154  1.00  0.00     0.074 A 
ATOM     29  C   UNL     1       9.565 -10.006   0.851  1.00  0.00     0.029 A 
ATOM     30  N   UNL     1       8.583  -8.645   2.309  1.00  0.00    -0.354 N 
ATOM     31  N   UNL     1       8.100  -7.528   5.003  1.00  0.00    -0.248 NA
ATOM     32  C   UNL     1       8.323  -7.676   7.327  1.00  0.00     0.031 C 
ATOM     33  C   UNL     1       9.886 -10.434   2.143  1.00  0.00     0.029 A 
ATOM     34  C   UNL     1       9.317  -9.556   3.051  1.00  0.00     0.049 A 
ATOM     35  H   UNL     1       8.051  -7.908   2.687  1.00  0.00     0.167 HD
ATOM     36  C   UNL     1       8.891  -8.626   5.316  1.00  0.00     0.074 A 
ATOM     37  C   UNL     1       9.035  -8.635   6.758  1.00  0.00     0.031 C 
ATOM     38  C   UNL     1       9.443  -9.549   4.488  1.00  0.00     0.034 A 
BRANCH  25  39
ATOM     39  C   UNL     1       8.289  -8.613  -1.533  1.00  0.00     0.023 A 
ATOM     40  C   UNL     1       8.914  -7.794  -2.487  1.00  0.00     0.031 A 
ATOM     41  C   UNL     1       7.870  -9.894  -1.947  1.00  0.00     0.131 A 
ATOM     42  C   UNL     1       9.053  -8.242  -3.813  1.00  0.00     0.055 A 
ATOM     43  C   UNL     1       8.085 -10.365  -3.245  1.00  0.00     0.041 A 
ATOM     44  F   UNL     1       7.241 -10.716  -1.092  1.00  0.00    -0.206 F 
ATOM     45  C   UNL     1       8.671  -9.532  -4.191  1.00  0.00     0.022 A 
BRANCH  42  46
ATOM     46  S   UNL     1       9.613  -7.063  -5.074  1.00  0.00     0.124 S 
ATOM     47  O   UNL     1       8.594  -6.021  -4.975  1.00  0.00    -0.237 OA
ATOM     48  O   UNL     1      10.943  -6.700  -4.600  1.00  0.00    -0.237 OA
ATOM     49  O   UNL     1       9.582  -7.841  -6.311  1.00  0.00    -0.744 OA
ENDBRANCH  42  46
ENDBRANCH  25  39
BRANCH  26  50
ATOM     50  C   UNL     1       6.648  -5.320   7.817  1.00  0.00     0.023 A 
ATOM     51  C   UNL     1       7.663  -4.973   8.719  1.00  0.00     0.031 A 
ATOM     52  C   UNL     1       5.322  -5.319   8.302  1.00  0.00     0.131 A 
ATOM     53  C   UNL     1       7.348  -4.698  10.061  1.00  0.00     0.055 A 
ATOM     54  C   UNL     1       5.005  -4.950   9.610  1.00  0.00     0.041 A 
ATOM     55  F   UNL     1       4.301  -5.671   7.503  1.00  0.00    -0.206 F 
ATOM     56  C   UNL     1       6.025  -4.656  10.505  1.00  0.00     0.022 A 
BRANCH  53  57
ATOM     57  S   UNL     1       8.706  -4.556  11.254  1.00  0.00     0.124 S 
ATOM     58  O   UNL     1       9.412  -5.815  11.045  1.00  0.00    -0.237 OA
ATOM     59  O   UNL     1       9.390  -3.353  10.793  1.00  0.00    -0.237 OA
ATOM     60  O   UNL     1       8.019  -4.431  12.537  1.00  0.00    -0.744 OA
ENDBRANCH  53  57
ENDBRANCH  26  50
BRANCH  38  61
ATOM     61  C   UNL     1      10.305 -10.598   5.137  1.00  0.00     0.023 A 
ATOM     62  C   UNL     1       9.773 -11.519   6.052  1.00  0.00     0.031 A 
ATOM     63  C   UNL     1      11.686 -10.632   4.882  1.00  0.00     0.131 A 
ATOM     64  C   UNL     1      10.633 -12.371   6.756  1.00  0.00     0.055 A 
ATOM     65  C   UNL     1      12.523 -11.550   5.514  1.00  0.00     0.041 A 
ATOM     66  F   UNL     1      12.247  -9.766   4.023  1.00  0.00    -0.206 F 
ATOM     67  C   UNL     1      12.001 -12.411   6.474  1.00  0.00     0.022 A 
BRANCH  64  68
ATOM     68  S   UNL     1       9.961 -13.301   8.158  1.00  0.00     0.124 S 
ATOM     69  O   UNL     1       9.433 -12.233   9.000  1.00  0.00    -0.237 OA
ATOM     70  O   UNL     1       8.968 -14.158   7.518  1.00  0.00    -0.237 OA
ATOM     71  O   UNL     1      11.128 -13.998   8.696  1.00  0.00    -0.744 OA
ENDBRANCH  64  68
ENDBRANCH  38  61
ENDBRANCH  12  13
ENDBRANCH   5   7
ENDBRANCH   4   5
ENDBRANCH   3   4
ENDBRANCH   2   3
ENDBRANCH   1   2
BRANCH   1  72
ATOM     72  C   UNL     1       3.113   0.768   2.447  1.00  0.00     0.202 C 
BRANCH  72  73
ATOM     73  C   UNL     1       2.777   2.160   2.991  1.00  0.00     0.261 C 
BRANCH  73  74
ATOM     74  O   UNL     1       3.171   3.203   2.103  1.00  0.00    -0.463 OA
BRANCH  74  75
ATOM     75  C   UNL     1       4.508   3.401   2.177  1.00  0.00     0.317 C 
ATOM     76  O   UNL     1       5.266   2.717   2.855  1.00  0.00    -0.251 OA
BRANCH  75  77
ATOM     77  C   UNL     1       4.978   4.612   1.394  1.00  0.00     0.117 C 
ATOM     78  C   UNL     1       6.377   4.921   1.993  1.00  0.00     0.030 C 
ATOM     79  C   UNL     1       4.048   5.815   1.688  1.00  0.00     0.279 C 
ATOM     80  C   UNL     1       6.256   5.335   3.482  1.00  0.00     0.063 C 
ATOM     81  N   UNL     1       3.940   6.158   3.100  1.00  0.00    -0.345 N 
ATOM     82  C   UNL     1       5.244   6.459   3.684  1.00  0.00     0.260 C 
ATOM     83  H   UNL     1       3.338   6.976   3.196  1.00  0.00     0.346 HD
ATOM     84  H   UNL     1       3.549   5.356   3.593  1.00  0.00     0.346 HD
BRANCH  77  85
ATOM     85  C   UNL     1       4.932   4.442  -0.158  1.00  0.00     0.029 C 
BRANCH  85  86
ATOM     86  C   UNL     1       5.752   3.376  -0.872  1.00  0.00     0.038 C 
BRANCH  86  87
ATOM     87  C   UNL     1       5.196   1.971  -0.918  1.00  0.00    -0.030 A 
ATOM     88  C   UNL     1       6.424   0.751  -1.260  1.00  0.00     0.007 A 
ATOM     89  C   UNL     1       3.683   1.476  -0.194  1.00  0.00     0.114 A 
ATOM     90  C   UNL     1       6.236  -0.937  -0.892  1.00  0.00     0.020 A 
ATOM     91  N   UNL     1       3.457  -0.256   0.215  1.00  0.00    -0.264 NA
ATOM     92  C   UNL     1       4.773  -1.449  -0.142  1.00  0.00     0.111 A 
ENDBRANCH  86  87
ENDBRANCH  85  86
ENDBRANCH  77  85
ENDBRANCH  75  77
ENDBRANCH  74  75
ENDBRANCH  73  74
ENDBRANCH  72  73
ENDBRANCH   1  72
TORSDOF 20
