REMARK SMILES C[C@H](NC(=O)OCc1ccccc1)C(=O)NCC(=O)N1CCC[C@H]1C(=O)OCCOCCOC(=O)c1ccc(-c2c3nc(c(-c4cc(S(=O)(=O)[O-])ccc4F)c4ccc([nH]4)c(-c4cc(S(=O)(=O)[O-])ccc4F)c4nc(c(-c5cc(S(=O)(=O)[O-])ccc5F)c5ccc2[nH]5)C=C4)C=C3)cc1
REMARK SMILES IDX 28 1 27 2 25 3 26 4 24 5 20 6 21 7 22 8 23 9 18 10 19 11
REMARK SMILES IDX 17 12 16 13 14 14 15 15 2 17 1 18 3 19 4 20 5 22 6 23 7 24
REMARK SMILES IDX 8 25 9 26 13 27 10 28 12 29 11 30 29 31 30 32 31 33 32 34
REMARK SMILES IDX 33 35 34 36 35 37 36 38 37 39 98 40 38 41 97 42 39 43 40 44
REMARK SMILES IDX 41 45 91 46 42 47 96 48 90 49 92 50 43 51 95 52 89 53 88 54
REMARK SMILES IDX 44 56 76 57 56 58 75 59 57 60 60 61 74 62 93 63 58 64 59 65
REMARK SMILES IDX 73 67 94 68 61 69 45 70 46 71 54 72 47 73 53 74 55 75 52 76
REMARK SMILES IDX 48 77 49 78 50 79 51 80 77 81 78 82 86 83 79 84 85 85 87 86
REMARK SMILES IDX 84 87 80 88 81 89 82 90 83 91 62 92 63 93 71 94 64 95 70 96
REMARK SMILES IDX 72 97 69 98 65 99 66 100 67 101 68 102
REMARK H PARENT 16 16 3 21 92 55 60 66
REMARK Flexibility Score: inf
ROOT
ATOM      1  C   UNL     1      -2.125  -6.412  -2.384  1.00  0.00     0.261 C 
ENDROOT
BRANCH   1   2
ATOM      2  O   UNL     1      -1.183  -5.635  -1.623  1.00  0.00    -0.462 OA
BRANCH   2   3
ATOM      3  C   UNL     1      -0.477  -4.704  -2.322  1.00  0.00     0.328 C 
ATOM      4  O   UNL     1      -0.441  -4.669  -3.545  1.00  0.00    -0.250 OA
BRANCH   3   5
ATOM      5  C   UNL     1       0.178  -3.650  -1.389  1.00  0.00     0.195 C 
ATOM      6  N   UNL     1      -0.504  -2.332  -1.283  1.00  0.00    -0.327 N 
ATOM      7  C   UNL     1      -0.723  -1.984   0.113  1.00  0.00     0.120 C 
ATOM      8  C   UNL     1       0.283  -2.825   0.875  1.00  0.00     0.024 C 
ATOM      9  C   UNL     1       0.332  -4.114   0.072  1.00  0.00     0.039 C 
BRANCH   6  10
ATOM     10  C   UNL     1      -0.614  -1.524  -2.387  1.00  0.00     0.242 C 
ATOM     11  O   UNL     1      -0.273  -1.930  -3.503  1.00  0.00    -0.273 OA
BRANCH  10  12
ATOM     12  C   UNL     1      -1.030  -0.044  -2.308  1.00  0.00     0.216 C 
BRANCH  12  13
ATOM     13  N   UNL     1      -1.608   0.597  -1.146  1.00  0.00    -0.345 N 
ATOM     14  C   UNL     1      -1.085   1.541  -0.310  1.00  0.00     0.242 C 
ATOM     15  O   UNL     1      -1.883   2.145   0.413  1.00  0.00    -0.273 OA
ATOM     16  H   UNL     1      -2.522   0.306  -0.924  1.00  0.00     0.164 HD
BRANCH  14  17
ATOM     17  C   UNL     1       0.404   1.956  -0.341  1.00  0.00     0.171 C 
ATOM     18  C   UNL     1       0.716   2.900  -1.501  1.00  0.00     0.042 C 
BRANCH  17  19
ATOM     19  N   UNL     1       1.346   0.841  -0.345  1.00  0.00    -0.310 N 
ATOM     20  C   UNL     1       2.305   0.600   0.592  1.00  0.00     0.408 C 
ATOM     21  H   UNL     1       1.283   0.204  -1.093  1.00  0.00     0.167 HD
ATOM     22  O   UNL     1       3.212  -0.197   0.354  1.00  0.00    -0.225 OA
BRANCH  20  23
ATOM     23  O   UNL     1       2.170   1.323   1.725  1.00  0.00    -0.445 OA
BRANCH  23  24
ATOM     24  C   UNL     1       3.293   1.321   2.621  1.00  0.00     0.270 C 
BRANCH  24  25
ATOM     25  C   UNL     1       3.216   0.269   3.703  1.00  0.00    -0.011 A 
ATOM     26  C   UNL     1       3.482  -1.077   3.410  1.00  0.00     0.007 A 
ATOM     27  C   UNL     1       2.947   0.622   5.034  1.00  0.00     0.007 A 
ATOM     28  C   UNL     1       3.484  -2.043   4.417  1.00  0.00     0.000 A 
ATOM     29  C   UNL     1       2.959  -0.345   6.044  1.00  0.00     0.000 A 
ATOM     30  C   UNL     1       3.228  -1.677   5.735  1.00  0.00     0.000 A 
ENDBRANCH  24  25
ENDBRANCH  23  24
ENDBRANCH  20  23
ENDBRANCH  17  19
ENDBRANCH  14  17
ENDBRANCH  12  13
ENDBRANCH  10  12
ENDBRANCH   6  10
ENDBRANCH   3   5
ENDBRANCH   2   3
ENDBRANCH   1   2
BRANCH   1  31
ATOM     31  C   UNL     1      -3.422  -6.565  -1.588  1.00  0.00     0.202 C 
BRANCH  31  32
ATOM     32  O   UNL     1      -4.184  -5.364  -1.418  1.00  0.00    -0.374 OA
BRANCH  32  33
ATOM     33  C   UNL     1      -3.678  -4.392  -0.505  1.00  0.00     0.202 C 
BRANCH  33  34
ATOM     34  C   UNL     1      -3.932  -4.648   0.985  1.00  0.00     0.261 C 
BRANCH  34  35
ATOM     35  O   UNL     1      -3.309  -5.855   1.453  1.00  0.00    -0.460 OA
BRANCH  35  36
ATOM     36  C   UNL     1      -4.183  -6.864   1.704  1.00  0.00     0.338 C 
ATOM     37  O   UNL     1      -5.400  -6.805   1.644  1.00  0.00    -0.246 OA
BRANCH  36  38
ATOM     38  C   UNL     1      -3.460  -8.137   1.897  1.00  0.00     0.060 A 
ATOM     39  C   UNL     1      -3.943  -9.253   1.202  1.00  0.00     0.016 A 
ATOM     40  C   UNL     1      -2.390  -8.264   2.786  1.00  0.00     0.016 A 
ATOM     41  C   UNL     1      -3.402 -10.513   1.442  1.00  0.00     0.010 A 
ATOM     42  C   UNL     1      -1.851  -9.533   3.031  1.00  0.00     0.010 A 
ATOM     43  C   UNL     1      -2.385 -10.667   2.393  1.00  0.00    -0.014 A 
BRANCH  43  44
ATOM     44  C   UNL     1      -2.036 -12.034   2.851  1.00  0.00     0.031 A 
ATOM     45  C   UNL     1      -2.681 -12.557   4.107  1.00  0.00     0.074 A 
ATOM     46  C   UNL     1      -1.219 -12.820   2.128  1.00  0.00     0.049 A 
ATOM     47  N   UNL     1      -2.550 -13.720   4.690  1.00  0.00    -0.248 NA
ATOM     48  C   UNL     1      -3.598 -11.637   4.796  1.00  0.00     0.031 C 
ATOM     49  C   UNL     1      -0.583 -12.442   0.867  1.00  0.00     0.029 A 
ATOM     50  N   UNL     1      -0.794 -14.106   2.348  1.00  0.00    -0.354 N 
ATOM     51  C   UNL     1      -3.376 -13.677   5.809  1.00  0.00     0.074 A 
ATOM     52  C   UNL     1      -3.958 -12.352   5.849  1.00  0.00     0.031 C 
ATOM     53  C   UNL     1       0.150 -13.477   0.422  1.00  0.00     0.029 A 
ATOM     54  C   UNL     1       0.060 -14.578   1.380  1.00  0.00     0.049 A 
ATOM     55  H   UNL     1      -1.074 -14.640   3.126  1.00  0.00     0.167 HD
ATOM     56  C   UNL     1      -3.638 -14.656   6.711  1.00  0.00     0.034 A 
ATOM     57  C   UNL     1       0.704 -15.759   1.288  1.00  0.00     0.034 A 
ATOM     58  C   UNL     1      -3.029 -15.963   6.671  1.00  0.00     0.049 A 
ATOM     59  C   UNL     1       0.482 -16.798   2.360  1.00  0.00     0.074 A 
ATOM     60  C   UNL     1      -3.202 -17.027   7.540  1.00  0.00     0.029 A 
ATOM     61  N   UNL     1      -2.114 -16.382   5.712  1.00  0.00    -0.354 N 
ATOM     62  N   UNL     1      -0.294 -16.743   3.419  1.00  0.00    -0.248 NA
ATOM     63  C   UNL     1       1.218 -18.061   2.220  1.00  0.00     0.031 C 
ATOM     64  C   UNL     1      -2.347 -18.062   7.144  1.00  0.00     0.029 A 
ATOM     65  C   UNL     1      -1.693 -17.675   5.985  1.00  0.00     0.049 A 
ATOM     66  H   UNL     1      -1.808 -15.839   4.950  1.00  0.00     0.167 HD
ATOM     67  C   UNL     1      -0.165 -17.978   4.049  1.00  0.00     0.074 A 
ATOM     68  C   UNL     1       0.758 -18.757   3.249  1.00  0.00     0.031 C 
ATOM     69  C   UNL     1      -0.762 -18.433   5.181  1.00  0.00     0.034 A 
BRANCH  56  70
ATOM     70  C   UNL     1      -4.582 -14.312   7.838  1.00  0.00     0.023 A 
ATOM     71  C   UNL     1      -5.927 -13.976   7.597  1.00  0.00     0.031 A 
ATOM     72  C   UNL     1      -4.119 -14.255   9.164  1.00  0.00     0.131 A 
ATOM     73  C   UNL     1      -6.734 -13.515   8.648  1.00  0.00     0.055 A 
ATOM     74  C   UNL     1      -4.951 -13.876  10.219  1.00  0.00     0.041 A 
ATOM     75  F   UNL     1      -2.840 -14.540   9.454  1.00  0.00    -0.206 F 
ATOM     76  C   UNL     1      -6.262 -13.485   9.962  1.00  0.00     0.022 A 
BRANCH  73  77
ATOM     77  S   UNL     1      -8.351 -12.795   8.248  1.00  0.00     0.124 S 
ATOM     78  O   UNL     1      -7.976 -11.721   7.331  1.00  0.00    -0.237 OA
ATOM     79  O   UNL     1      -9.060 -13.923   7.657  1.00  0.00    -0.237 OA
ATOM     80  O   UNL     1      -8.857 -12.348   9.544  1.00  0.00    -0.744 OA
ENDBRANCH  73  77
ENDBRANCH  56  70
BRANCH  57  81
ATOM     81  C   UNL     1       1.637 -16.024   0.156  1.00  0.00     0.023 A 
ATOM     82  C   UNL     1       1.372 -17.030  -0.785  1.00  0.00     0.031 A 
ATOM     83  C   UNL     1       2.838 -15.301   0.030  1.00  0.00     0.131 A 
ATOM     84  C   UNL     1       2.311 -17.314  -1.789  1.00  0.00     0.055 A 
ATOM     85  C   UNL     1       3.747 -15.556  -0.998  1.00  0.00     0.041 A 
ATOM     86  F   UNL     1       3.140 -14.328   0.904  1.00  0.00    -0.206 F 
ATOM     87  C   UNL     1       3.491 -16.576  -1.909  1.00  0.00     0.022 A 
BRANCH  84  88
ATOM     88  S   UNL     1       2.001 -18.715  -2.899  1.00  0.00     0.124 S 
ATOM     89  O   UNL     1       1.919 -19.827  -1.959  1.00  0.00    -0.237 OA
ATOM     90  O   UNL     1       0.751 -18.322  -3.540  1.00  0.00    -0.237 OA
ATOM     91  O   UNL     1       3.172 -18.721  -3.773  1.00  0.00    -0.744 OA
ENDBRANCH  84  88
ENDBRANCH  57  81
BRANCH  69  92
ATOM     92  C   UNL     1      -0.469 -19.857   5.585  1.00  0.00     0.023 A 
ATOM     93  C   UNL     1       0.804 -20.255   6.030  1.00  0.00     0.031 A 
ATOM     94  C   UNL     1      -1.480 -20.832   5.511  1.00  0.00     0.131 A 
ATOM     95  C   UNL     1       1.047 -21.604   6.332  1.00  0.00     0.055 A 
ATOM     96  C   UNL     1      -1.247 -22.161   5.866  1.00  0.00     0.041 A 
ATOM     97  F   UNL     1      -2.713 -20.506   5.093  1.00  0.00    -0.206 F 
ATOM     98  C   UNL     1       0.026 -22.556   6.267  1.00  0.00     0.022 A 
BRANCH  95  99
ATOM     99  S   UNL     1       2.742 -22.117   6.728  1.00  0.00     0.124 S 
ATOM    100  O   UNL     1       3.470 -21.713   5.529  1.00  0.00    -0.237 OA
ATOM    101  O   UNL     1       3.026 -21.349   7.936  1.00  0.00    -0.237 OA
ATOM    102  O   UNL     1       2.626 -23.561   6.926  1.00  0.00    -0.744 OA
ENDBRANCH  95  99
ENDBRANCH  69  92
ENDBRANCH  43  44
ENDBRANCH  36  38
ENDBRANCH  35  36
ENDBRANCH  34  35
ENDBRANCH  33  34
ENDBRANCH  32  33
ENDBRANCH  31  32
ENDBRANCH   1  31
TORSDOF 25
