REMARK SMILES Cc1ccc(OCCn2ccnc2)c(/C=C/C(=O)OCCOCCOC(=O)c2ccc(-c3c4nc(c(-c5cc(S(=O)(=O)[O-])ccc5F)c5ccc([nH]5)c(-c5cc(S(=O)(=O)[O-])ccc5F)c5nc(c(-c6cc(S(=O)(=O)[O-])ccc6F)c6ccc3[nH]6)C=C5)C=C4)cc2)n1
REMARK SMILES IDX 21 1 20 2 19 3 17 4 18 5 16 6 15 7 14 8 1 9 2 10 3 11 91 12
REMARK SMILES IDX 4 13 5 14 6 15 7 16 8 17 9 18 10 19 13 20 11 21 12 22 22 23
REMARK SMILES IDX 23 24 24 25 25 26 26 27 27 28 28 29 29 30 90 31 30 32 89 33
REMARK SMILES IDX 31 34 32 35 33 36 83 37 34 38 88 39 82 40 84 41 35 42 87 43
REMARK SMILES IDX 81 44 80 45 36 47 68 48 48 49 67 50 49 51 52 52 66 53 85 54
REMARK SMILES IDX 50 55 51 56 65 58 86 59 53 60 37 61 38 62 46 63 39 64 45 65
REMARK SMILES IDX 47 66 44 67 40 68 41 69 42 70 43 71 69 72 70 73 78 74 71 75
REMARK SMILES IDX 77 76 79 77 76 78 72 79 73 80 74 81 75 82 54 83 55 84 63 85
REMARK SMILES IDX 56 86 62 87 64 88 61 89 57 90 58 91 59 92 60 93
REMARK H PARENT 84 46 52 57
REMARK Flexibility Score: inf
ROOT
ATOM      1  C   UNL     1      -2.966   7.323   0.556  1.00  0.00     0.202 C 
ENDROOT
BRANCH   1   2
ATOM      2  C   UNL     1      -3.126   6.501  -0.725  1.00  0.00     0.261 C 
BRANCH   2   3
ATOM      3  O   UNL     1      -2.681   5.143  -0.569  1.00  0.00    -0.460 OA
BRANCH   3   4
ATOM      4  C   UNL     1      -1.546   4.830  -1.240  1.00  0.00     0.330 C 
ATOM      5  O   UNL     1      -0.930   5.557  -2.006  1.00  0.00    -0.247 OA
BRANCH   4   6
ATOM      6  C   UNL     1      -1.011   3.518  -0.837  1.00  0.00     0.096 C 
ATOM      7  C   UNL     1      -1.718   2.497  -0.327  1.00  0.00     0.040 C 
BRANCH   7   8
ATOM      8  C   UNL     1      -1.081   1.228   0.083  1.00  0.00     0.105 A 
ATOM      9  C   UNL     1       2.416   0.074   0.231  1.00  0.00     0.067 C 
ATOM     10  C   UNL     1       0.929   0.095   0.414  1.00  0.00     0.038 A 
ATOM     11  C   UNL     1       0.267  -1.000   0.944  1.00  0.00     0.027 A 
ATOM     12  N   UNL     1       0.279   1.219   0.037  1.00  0.00    -0.250 NA
ATOM     13  C   UNL     1      -1.125  -0.987   0.983  1.00  0.00     0.050 A 
ATOM     14  C   UNL     1      -1.826   0.106   0.472  1.00  0.00     0.145 A 
BRANCH  14  15
ATOM     15  O   UNL     1      -3.183   0.123   0.282  1.00  0.00    -0.489 OA
BRANCH  15  16
ATOM     16  C   UNL     1      -3.843  -1.130   0.041  1.00  0.00     0.251 C 
BRANCH  16  17
ATOM     17  C   UNL     1      -3.686  -1.661  -1.393  1.00  0.00     0.164 C 
BRANCH  17  18
ATOM     18  N   UNL     1      -2.390  -2.238  -1.693  1.00  0.00    -0.334 N 
ATOM     19  C   UNL     1      -1.345  -1.605  -2.309  1.00  0.00     0.107 A 
ATOM     20  C   UNL     1      -1.991  -3.517  -1.424  1.00  0.00     0.199 A 
ATOM     21  C   UNL     1      -0.315  -2.514  -2.285  1.00  0.00     0.130 A 
ATOM     22  N   UNL     1      -0.730  -3.705  -1.748  1.00  0.00    -0.245 NA
ENDBRANCH  17  18
ENDBRANCH  16  17
ENDBRANCH  15  16
ENDBRANCH  14  15
ENDBRANCH   7   8
ENDBRANCH   4   6
ENDBRANCH   3   4
ENDBRANCH   2   3
ENDBRANCH   1   2
BRANCH   1  23
ATOM     23  O   UNL     1      -1.638   7.535   1.032  1.00  0.00    -0.374 OA
BRANCH  23  24
ATOM     24  C   UNL     1      -0.950   6.452   1.649  1.00  0.00     0.202 C 
BRANCH  24  25
ATOM     25  C   UNL     1      -1.424   5.987   3.018  1.00  0.00     0.261 C 
BRANCH  25  26
ATOM     26  O   UNL     1      -2.769   5.529   3.024  1.00  0.00    -0.460 OA
BRANCH  26  27
ATOM     27  C   UNL     1      -3.622   6.400   3.621  1.00  0.00     0.338 C 
ATOM     28  O   UNL     1      -3.525   7.612   3.654  1.00  0.00    -0.246 OA
BRANCH  27  29
ATOM     29  C   UNL     1      -4.598   5.637   4.404  1.00  0.00     0.060 A 
ATOM     30  C   UNL     1      -5.593   6.362   5.064  1.00  0.00     0.016 A 
ATOM     31  C   UNL     1      -4.364   4.282   4.675  1.00  0.00     0.016 A 
ATOM     32  C   UNL     1      -6.261   5.760   6.111  1.00  0.00     0.010 A 
ATOM     33  C   UNL     1      -5.004   3.696   5.741  1.00  0.00     0.010 A 
ATOM     34  C   UNL     1      -5.910   4.455   6.481  1.00  0.00    -0.014 A 
BRANCH  34  35
ATOM     35  C   UNL     1      -6.709   3.780   7.490  1.00  0.00     0.031 A 
ATOM     36  C   UNL     1      -8.059   3.462   6.954  1.00  0.00     0.074 A 
ATOM     37  C   UNL     1      -6.202   3.370   8.672  1.00  0.00     0.049 A 
ATOM     38  N   UNL     1      -9.191   3.951   7.333  1.00  0.00    -0.248 NA
ATOM     39  C   UNL     1      -8.143   2.710   5.682  1.00  0.00     0.031 C 
ATOM     40  C   UNL     1      -4.809   3.469   9.117  1.00  0.00     0.029 A 
ATOM     41  N   UNL     1      -6.788   2.683   9.694  1.00  0.00    -0.354 N 
ATOM     42  C   UNL     1     -10.143   3.312   6.545  1.00  0.00     0.074 A 
ATOM     43  C   UNL     1      -9.441   2.812   5.402  1.00  0.00     0.031 C 
ATOM     44  C   UNL     1      -4.620   2.669  10.192  1.00  0.00     0.029 A 
ATOM     45  C   UNL     1      -5.891   2.079  10.583  1.00  0.00     0.049 A 
ATOM     46  H   UNL     1      -7.764   2.617   9.799  1.00  0.00     0.167 HD
ATOM     47  C   UNL     1     -11.328   2.930   7.092  1.00  0.00     0.034 A 
ATOM     48  C   UNL     1      -6.162   1.123  11.522  1.00  0.00     0.034 A 
ATOM     49  C   UNL     1     -11.609   3.722   8.273  1.00  0.00     0.049 A 
ATOM     50  C   UNL     1      -7.624   1.182  11.771  1.00  0.00     0.074 A 
ATOM     51  C   UNL     1     -11.713   5.078   8.521  1.00  0.00     0.029 A 
ATOM     52  N   UNL     1     -11.420   3.130   9.502  1.00  0.00    -0.354 N 
ATOM     53  N   UNL     1      -8.218   2.205  12.321  1.00  0.00    -0.248 NA
ATOM     54  C   UNL     1      -8.478   0.334  10.954  1.00  0.00     0.031 C 
ATOM     55  C   UNL     1     -11.117   5.269   9.801  1.00  0.00     0.029 A 
ATOM     56  C   UNL     1     -10.780   4.019  10.325  1.00  0.00     0.049 A 
ATOM     57  H   UNL     1     -11.698   2.218   9.748  1.00  0.00     0.167 HD
ATOM     58  C   UNL     1      -9.375   2.387  11.577  1.00  0.00     0.074 A 
ATOM     59  C   UNL     1      -9.522   1.154  10.804  1.00  0.00     0.031 C 
ATOM     60  C   UNL     1      -9.931   3.627  11.437  1.00  0.00     0.034 A 
BRANCH  47  61
ATOM     61  C   UNL     1     -11.945   1.560   6.859  1.00  0.00     0.023 A 
ATOM     62  C   UNL     1     -13.088   1.257   7.620  1.00  0.00     0.031 A 
ATOM     63  C   UNL     1     -11.340   0.455   6.211  1.00  0.00     0.131 A 
ATOM     64  C   UNL     1     -13.480  -0.074   7.839  1.00  0.00     0.055 A 
ATOM     65  C   UNL     1     -11.773  -0.863   6.382  1.00  0.00     0.041 A 
ATOM     66  F   UNL     1     -10.258   0.555   5.433  1.00  0.00    -0.206 F 
ATOM     67  C   UNL     1     -12.825  -1.139   7.232  1.00  0.00     0.022 A 
BRANCH  64  68
ATOM     68  S   UNL     1     -14.746  -0.388   9.090  1.00  0.00     0.124 S 
ATOM     69  O   UNL     1     -14.134   0.216  10.268  1.00  0.00    -0.237 OA
ATOM     70  O   UNL     1     -15.898   0.310   8.528  1.00  0.00    -0.237 OA
ATOM     71  O   UNL     1     -14.847  -1.845   9.107  1.00  0.00    -0.744 OA
ENDBRANCH  64  68
ENDBRANCH  47  61
BRANCH  48  72
ATOM     72  C   UNL     1      -5.316  -0.043  11.949  1.00  0.00     0.023 A 
ATOM     73  C   UNL     1      -5.595  -0.835  13.093  1.00  0.00     0.031 A 
ATOM     74  C   UNL     1      -4.341  -0.558  11.065  1.00  0.00     0.131 A 
ATOM     75  C   UNL     1      -4.918  -2.067  13.303  1.00  0.00     0.055 A 
ATOM     76  C   UNL     1      -3.679  -1.771  11.277  1.00  0.00     0.041 A 
ATOM     77  F   UNL     1      -4.055   0.056   9.907  1.00  0.00    -0.206 F 
ATOM     78  C   UNL     1      -3.972  -2.537  12.391  1.00  0.00     0.022 A 
BRANCH  75  79
ATOM     79  S   UNL     1      -5.310  -3.142  14.731  1.00  0.00     0.124 S 
ATOM     80  O   UNL     1      -4.800  -2.366  15.855  1.00  0.00    -0.237 OA
ATOM     81  O   UNL     1      -6.759  -3.278  14.637  1.00  0.00    -0.237 OA
ATOM     82  O   UNL     1      -4.565  -4.371  14.450  1.00  0.00    -0.744 OA
ENDBRANCH  75  79
ENDBRANCH  48  72
BRANCH  60  83
ATOM     83  C   UNL     1      -9.534   4.721  12.410  1.00  0.00     0.023 A 
ATOM     84  C   UNL     1      -8.225   5.205  12.636  1.00  0.00     0.031 A 
ATOM     85  C   UNL     1     -10.594   5.379  13.063  1.00  0.00     0.131 A 
ATOM     86  C   UNL     1      -8.025   6.309  13.494  1.00  0.00     0.055 A 
ATOM     87  C   UNL     1     -10.394   6.484  13.886  1.00  0.00     0.041 A 
ATOM     88  F   UNL     1     -11.862   4.975  12.879  1.00  0.00    -0.206 F 
ATOM     89  C   UNL     1      -9.106   6.950  14.108  1.00  0.00     0.022 A 
BRANCH  86  90
ATOM     90  S   UNL     1      -6.348   6.927  13.857  1.00  0.00     0.124 S 
ATOM     91  O   UNL     1      -5.595   5.716  14.161  1.00  0.00    -0.237 OA
ATOM     92  O   UNL     1      -5.988   7.612  12.618  1.00  0.00    -0.237 OA
ATOM     93  O   UNL     1      -6.555   7.817  15.002  1.00  0.00    -0.744 OA
ENDBRANCH  86  90
ENDBRANCH  60  83
ENDBRANCH  34  35
ENDBRANCH  27  29
ENDBRANCH  26  27
ENDBRANCH  25  26
ENDBRANCH  24  25
ENDBRANCH  23  24
ENDBRANCH   1  23
TORSDOF 22
