REMARK SMILES O=C(OCCOCCOC(=O)[C@@H](CO)NS(=O)(=O)c1cc[nH]c1)c1ccc(-c2c3nc(c(-c4cc(S(=O)(=O)[O-])ccc4F)c4ccc([nH]4)c(-c4cc(S(=O)(=O)[O-])ccc4F)c4nc(c(-c5cc(S(=O)(=O)[O-])ccc5F)c5ccc2[nH]5)C=C4)C=C3)cc1
REMARK SMILES IDX 6 1 5 2 4 3 3 4 2 5 1 6 24 7 25 8 86 9 26 10 85 11 27 12
REMARK SMILES IDX 28 13 29 14 79 15 30 16 84 17 78 18 80 19 31 20 83 21 77 22
REMARK SMILES IDX 76 23 32 25 64 26 44 27 63 28 45 29 48 30 62 31 81 32 46 33
REMARK SMILES IDX 47 34 61 36 82 37 49 38 33 39 34 40 42 41 35 42 41 43 43 44
REMARK SMILES IDX 40 45 36 46 37 47 38 48 39 49 65 50 66 51 74 52 67 53 73 54
REMARK SMILES IDX 75 55 72 56 68 57 69 58 70 59 71 60 50 61 51 62 59 63 52 64
REMARK SMILES IDX 58 65 60 66 57 67 53 68 54 69 55 70 56 71 7 72 8 73 9 74
REMARK SMILES IDX 10 75 11 76 12 77 13 78 14 79 15 81 16 83 17 84 18 85 19 86
REMARK SMILES IDX 20 87 23 88 21 89 22 90
REMARK H PARENT 80 24 48 35 14 80 15 82 22 91
REMARK Flexibility Score: inf
ROOT
ATOM      1  O   UNL     1       4.642   0.147   1.565  1.00  0.00    -0.374 OA
ENDROOT
BRANCH   1   2
ATOM      2  C   UNL     1       5.232   0.645   0.366  1.00  0.00     0.202 C 
BRANCH   2   3
ATOM      3  C   UNL     1       4.546   0.321  -0.974  1.00  0.00     0.261 C 
BRANCH   3   4
ATOM      4  O   UNL     1       3.133   0.609  -0.944  1.00  0.00    -0.460 OA
BRANCH   4   5
ATOM      5  C   UNL     1       2.093  -0.249  -0.777  1.00  0.00     0.338 C 
ATOM      6  O   UNL     1       0.958   0.203  -0.657  1.00  0.00    -0.246 OA
BRANCH   5   7
ATOM      7  C   UNL     1       2.295  -1.718  -0.798  1.00  0.00     0.060 A 
ATOM      8  C   UNL     1       3.466  -2.337  -0.371  1.00  0.00     0.016 A 
ATOM      9  C   UNL     1       1.250  -2.511  -1.297  1.00  0.00     0.016 A 
ATOM     10  C   UNL     1       3.725  -3.644  -0.724  1.00  0.00     0.010 A 
ATOM     11  C   UNL     1       1.452  -3.869  -1.529  1.00  0.00     0.010 A 
ATOM     12  C   UNL     1       2.722  -4.410  -1.320  1.00  0.00    -0.014 A 
BRANCH  12  13
ATOM     13  C   UNL     1       3.043  -5.836  -1.532  1.00  0.00     0.031 A 
ATOM     14  C   UNL     1       3.309  -6.539  -0.191  1.00  0.00     0.074 A 
ATOM     15  C   UNL     1       3.172  -6.259  -2.825  1.00  0.00     0.049 A 
ATOM     16  N   UNL     1       4.197  -7.429   0.136  1.00  0.00    -0.248 NA
ATOM     17  C   UNL     1       2.589  -6.029   1.013  1.00  0.00     0.031 C 
ATOM     18  C   UNL     1       2.934  -5.421  -4.024  1.00  0.00     0.029 A 
ATOM     19  N   UNL     1       3.537  -7.456  -3.400  1.00  0.00    -0.354 N 
ATOM     20  C   UNL     1       3.953  -7.770   1.489  1.00  0.00     0.074 A 
ATOM     21  C   UNL     1       3.132  -6.723   2.013  1.00  0.00     0.031 C 
ATOM     22  C   UNL     1       3.202  -6.107  -5.157  1.00  0.00     0.029 A 
ATOM     23  C   UNL     1       3.624  -7.452  -4.818  1.00  0.00     0.049 A 
ATOM     24  H   UNL     1       3.724  -8.260  -2.864  1.00  0.00     0.167 HD
ATOM     25  C   UNL     1       4.251  -8.991   2.031  1.00  0.00     0.034 A 
ATOM     26  C   UNL     1       4.035  -8.451  -5.660  1.00  0.00     0.034 A 
ATOM     27  C   UNL     1       4.870  -9.818   1.044  1.00  0.00     0.049 A 
ATOM     28  C   UNL     1       4.261  -9.615  -4.787  1.00  0.00     0.074 A 
ATOM     29  C   UNL     1       6.094  -9.830   0.433  1.00  0.00     0.029 A 
ATOM     30  N   UNL     1       4.040 -10.690   0.372  1.00  0.00    -0.354 N 
ATOM     31  N   UNL     1       3.322 -10.306  -4.216  1.00  0.00    -0.248 NA
ATOM     32  C   UNL     1       5.639 -10.005  -4.464  1.00  0.00     0.031 C 
ATOM     33  C   UNL     1       5.830 -10.368  -0.847  1.00  0.00     0.029 A 
ATOM     34  C   UNL     1       4.485 -10.758  -0.922  1.00  0.00     0.049 A 
ATOM     35  H   UNL     1       3.271 -11.174   0.751  1.00  0.00     0.167 HD
ATOM     36  C   UNL     1       3.996 -10.994  -3.239  1.00  0.00     0.074 A 
ATOM     37  C   UNL     1       5.385 -11.019  -3.641  1.00  0.00     0.031 C 
ATOM     38  C   UNL     1       3.509 -11.002  -1.971  1.00  0.00     0.034 A 
BRANCH  25  39
ATOM     39  C   UNL     1       3.779  -9.688   3.296  1.00  0.00     0.023 A 
ATOM     40  C   UNL     1       4.335 -10.971   3.540  1.00  0.00     0.031 A 
ATOM     41  C   UNL     1       2.675  -9.348   4.090  1.00  0.00     0.131 A 
ATOM     42  C   UNL     1       3.716 -11.899   4.388  1.00  0.00     0.055 A 
ATOM     43  C   UNL     1       2.102 -10.251   5.000  1.00  0.00     0.041 A 
ATOM     44  F   UNL     1       2.048  -8.171   3.980  1.00  0.00    -0.206 F 
ATOM     45  C   UNL     1       2.593 -11.547   5.121  1.00  0.00     0.022 A 
BRANCH  42  46
ATOM     46  S   UNL     1       4.295 -13.620   4.342  1.00  0.00     0.124 S 
ATOM     47  O   UNL     1       4.295 -13.906   2.911  1.00  0.00    -0.237 OA
ATOM     48  O   UNL     1       5.607 -13.514   4.973  1.00  0.00    -0.237 OA
ATOM     49  O   UNL     1       3.286 -14.335   5.120  1.00  0.00    -0.744 OA
ENDBRANCH  42  46
ENDBRANCH  25  39
BRANCH  26  50
ATOM     50  C   UNL     1       4.347  -8.653  -7.133  1.00  0.00     0.023 A 
ATOM     51  C   UNL     1       4.171  -7.710  -8.159  1.00  0.00     0.031 A 
ATOM     52  C   UNL     1       4.928  -9.890  -7.559  1.00  0.00     0.131 A 
ATOM     53  C   UNL     1       4.617  -7.992  -9.482  1.00  0.00     0.055 A 
ATOM     54  C   UNL     1       5.430 -10.133  -8.837  1.00  0.00     0.041 A 
ATOM     55  F   UNL     1       5.048 -10.944  -6.739  1.00  0.00    -0.206 F 
ATOM     56  C   UNL     1       5.287  -9.172  -9.808  1.00  0.00     0.022 A 
BRANCH  53  57
ATOM     57  S   UNL     1       4.362  -6.815 -10.843  1.00  0.00     0.124 S 
ATOM     58  O   UNL     1       3.128  -7.311 -11.443  1.00  0.00    -0.237 OA
ATOM     59  O   UNL     1       4.271  -5.529 -10.159  1.00  0.00    -0.237 OA
ATOM     60  O   UNL     1       5.565  -6.992 -11.657  1.00  0.00    -0.744 OA
ENDBRANCH  53  57
ENDBRANCH  26  50
BRANCH  38  61
ATOM     61  C   UNL     1       1.994 -10.771  -1.880  1.00  0.00     0.023 A 
ATOM     62  C   UNL     1       1.089 -11.583  -2.593  1.00  0.00     0.031 A 
ATOM     63  C   UNL     1       1.419  -9.684  -1.199  1.00  0.00     0.131 A 
ATOM     64  C   UNL     1      -0.288 -11.273  -2.635  1.00  0.00     0.055 A 
ATOM     65  C   UNL     1       0.056  -9.370  -1.236  1.00  0.00     0.041 A 
ATOM     66  F   UNL     1       2.167  -8.872  -0.461  1.00  0.00    -0.206 F 
ATOM     67  C   UNL     1      -0.808 -10.165  -1.965  1.00  0.00     0.022 A 
BRANCH  64  68
ATOM     68  S   UNL     1      -1.423 -12.351  -3.552  1.00  0.00     0.124 S 
ATOM     69  O   UNL     1      -1.070 -12.081  -4.941  1.00  0.00    -0.237 OA
ATOM     70  O   UNL     1      -1.077 -13.677  -3.049  1.00  0.00    -0.237 OA
ATOM     71  O   UNL     1      -2.747 -11.874  -3.149  1.00  0.00    -0.744 OA
ENDBRANCH  64  68
ENDBRANCH  38  61
ENDBRANCH  12  13
ENDBRANCH   5   7
ENDBRANCH   4   5
ENDBRANCH   3   4
ENDBRANCH   2   3
ENDBRANCH   1   2
BRANCH   1  72
ATOM     72  C   UNL     1       3.426   0.723   2.056  1.00  0.00     0.202 C 
BRANCH  72  73
ATOM     73  C   UNL     1       3.401   2.234   2.298  1.00  0.00     0.261 C 
BRANCH  73  74
ATOM     74  O   UNL     1       3.537   2.943   1.055  1.00  0.00    -0.462 OA
BRANCH  74  75
ATOM     75  C   UNL     1       4.364   4.024   1.056  1.00  0.00     0.326 C 
ATOM     76  O   UNL     1       4.904   4.473   2.063  1.00  0.00    -0.250 OA
BRANCH  75  77
ATOM     77  C   UNL     1       4.652   4.549  -0.357  1.00  0.00     0.205 C 
BRANCH  77  78
ATOM     78  C   UNL     1       3.826   3.883  -1.459  1.00  0.00     0.188 C 
BRANCH  78  79
ATOM     79  O   UNL     1       2.442   4.182  -1.317  1.00  0.00    -0.394 OA
ATOM     80  H   UNL     1       2.124   3.849  -0.463  1.00  0.00     0.210 HD
ENDBRANCH  78  79
ENDBRANCH  77  78
BRANCH  77  81
ATOM     81  N   UNL     1       4.450   6.022  -0.358  1.00  0.00    -0.194 NA
ATOM     82  H   UNL     1       4.746   6.366   0.555  1.00  0.00     0.142 HD
BRANCH  81  83
ATOM     83  S   UNL     1       5.242   6.947  -1.512  1.00  0.00     0.242 S 
ATOM     84  O   UNL     1       4.945   6.396  -2.826  1.00  0.00    -0.207 OA
ATOM     85  O   UNL     1       4.990   8.323  -1.200  1.00  0.00    -0.207 OA
BRANCH  83  86
ATOM     86  C   UNL     1       6.958   6.751  -1.376  1.00  0.00     0.099 A 
ATOM     87  C   UNL     1       7.703   5.586  -1.703  1.00  0.00     0.041 A 
ATOM     88  C   UNL     1       7.868   7.719  -0.996  1.00  0.00     0.104 A 
ATOM     89  C   UNL     1       9.031   5.867  -1.474  1.00  0.00     0.083 A 
ATOM     90  N   UNL     1       9.123   7.171  -1.062  1.00  0.00    -0.366 N 
ATOM     91  H   UNL     1       9.960   7.643  -0.848  1.00  0.00     0.165 HD
ENDBRANCH  83  86
ENDBRANCH  81  83
ENDBRANCH  77  81
ENDBRANCH  75  77
ENDBRANCH  74  75
ENDBRANCH  73  74
ENDBRANCH  72  73
ENDBRANCH   1  72
TORSDOF 22
