REMARK SMILES N#Cc1ccc(C[N@H+]2CCCC[C@H]2C(=O)OCCOCCOC(=O)c2ccc(-c3c4nc(c(-c5cc(S(=O)(=O)[O-])ccc5F)c5ccc([nH]5)c(-c5cc(S(=O)(=O)[O-])ccc5F)c5nc(c(-c6cc(S(=O)(=O)[O-])ccc6F)c6ccc3[nH]6)C=C5)C=C4)cc2)c(F)c1
REMARK SMILES IDX 19 1 18 2 17 3 16 4 14 5 15 6 13 7 8 8 9 9 10 11 12 12 11 13
REMARK SMILES IDX 7 14 6 15 3 16 4 17 90 18 5 19 88 20 89 21 2 22 1 23 20 24
REMARK SMILES IDX 21 25 22 26 23 27 24 28 25 29 26 30 87 31 27 32 86 33 28 34
REMARK SMILES IDX 29 35 30 36 80 37 31 38 85 39 79 40 81 41 32 42 84 43 78 44
REMARK SMILES IDX 77 45 33 47 65 48 45 49 64 50 46 51 49 52 63 53 82 54 47 55
REMARK SMILES IDX 48 56 62 58 83 59 50 60 34 61 35 62 43 63 36 64 42 65 44 66
REMARK SMILES IDX 41 67 37 68 38 69 39 70 40 71 66 72 67 73 75 74 68 75 74 76
REMARK SMILES IDX 76 77 73 78 69 79 70 80 71 81 72 82 51 83 52 84 60 85 53 86
REMARK SMILES IDX 59 87 61 88 58 89 54 90 55 91 56 92 57 93
REMARK H PARENT 8 10 81 46 49 57
REMARK Flexibility Score: inf
ROOT
ATOM      1  O   UNL     1      -0.288  -0.952   2.872  1.00  0.00    -0.374 OA
ENDROOT
BRANCH   1   2
ATOM      2  C   UNL     1      -0.224  -2.254   2.305  1.00  0.00     0.202 C 
BRANCH   2   3
ATOM      3  C   UNL     1       0.901  -2.810   1.385  1.00  0.00     0.261 C 
BRANCH   3   4
ATOM      4  O   UNL     1       2.271  -2.428   1.593  1.00  0.00    -0.459 OA
BRANCH   4   5
ATOM      5  C   UNL     1       2.449  -1.146   1.208  1.00  0.00     0.364 C 
ATOM      6  O   UNL     1       1.482  -0.414   1.067  1.00  0.00    -0.245 OA
BRANCH   5   7
ATOM      7  C   UNL     1       3.883  -0.684   0.933  1.00  0.00     0.295 C 
ATOM      8  N   UNL     1       3.985   0.808   0.841  1.00  0.00    -0.319 N 
ATOM      9  C   UNL     1       3.635   1.477   2.096  1.00  0.00     0.263 C 
ATOM     10  H   UNL     1       4.981   0.976   0.702  1.00  0.00     0.349 HD
ATOM     11  C   UNL     1       4.445   0.958   3.299  1.00  0.00     0.062 C 
ATOM     12  C   UNL     1       4.869  -1.179   2.001  1.00  0.00     0.078 C 
ATOM     13  C   UNL     1       4.614  -0.558   3.369  1.00  0.00     0.013 C 
BRANCH   8  14
ATOM     14  C   UNL     1       3.427   1.443  -0.390  1.00  0.00     0.302 C 
BRANCH  14  15
ATOM     15  C   UNL     1       1.944   1.328  -0.721  1.00  0.00     0.042 A 
ATOM     16  C   UNL     1      -0.797   0.637  -0.775  1.00  0.00     0.055 A 
ATOM     17  C   UNL     1      -0.375   1.804  -0.126  1.00  0.00     0.020 A 
ATOM     18  C   UNL     1       0.124  -0.112  -1.513  1.00  0.00     0.059 A 
ATOM     19  C   UNL     1       0.986   2.154  -0.104  1.00  0.00     0.014 A 
ATOM     20  C   UNL     1       1.476   0.247  -1.493  1.00  0.00     0.133 A 
ATOM     21  F   UNL     1       2.357  -0.586  -2.069  1.00  0.00    -0.206 F 
BRANCH  16  22
ATOM     22  C   UNL     1      -2.137   0.158  -0.600  1.00  0.00     0.099 C 
ATOM     23  N   UNL     1      -3.221  -0.240  -0.452  1.00  0.00    -0.192 NA
ENDBRANCH  16  22
ENDBRANCH  14  15
ENDBRANCH   8  14
ENDBRANCH   5   7
ENDBRANCH   4   5
ENDBRANCH   3   4
ENDBRANCH   2   3
ENDBRANCH   1   2
BRANCH   1  24
ATOM     24  C   UNL     1       0.707  -0.470   3.764  1.00  0.00     0.202 C 
BRANCH  24  25
ATOM     25  C   UNL     1       1.038  -1.187   5.069  1.00  0.00     0.261 C 
BRANCH  25  26
ATOM     26  O   UNL     1       1.225  -2.593   4.907  1.00  0.00    -0.460 OA
BRANCH  26  27
ATOM     27  C   UNL     1       0.176  -3.309   5.382  1.00  0.00     0.338 C 
ATOM     28  O   UNL     1      -0.801  -2.879   5.971  1.00  0.00    -0.246 OA
BRANCH  27  29
ATOM     29  C   UNL     1       0.247  -4.686   4.874  1.00  0.00     0.060 A 
ATOM     30  C   UNL     1      -0.875  -5.159   4.179  1.00  0.00     0.016 A 
ATOM     31  C   UNL     1       1.341  -5.510   5.131  1.00  0.00     0.016 A 
ATOM     32  C   UNL     1      -0.941  -6.484   3.793  1.00  0.00     0.010 A 
ATOM     33  C   UNL     1       1.259  -6.855   4.774  1.00  0.00     0.010 A 
ATOM     34  C   UNL     1       0.096  -7.348   4.152  1.00  0.00    -0.014 A 
BRANCH  34  35
ATOM     35  C   UNL     1      -0.160  -8.799   4.074  1.00  0.00     0.031 A 
ATOM     36  C   UNL     1      -0.554  -9.520   5.331  1.00  0.00     0.074 A 
ATOM     37  C   UNL     1      -0.135  -9.427   2.888  1.00  0.00     0.049 A 
ATOM     38  N   UNL     1      -0.807 -10.788   5.514  1.00  0.00    -0.248 NA
ATOM     39  C   UNL     1      -0.677  -8.696   6.545  1.00  0.00     0.031 C 
ATOM     40  C   UNL     1       0.142  -8.786   1.603  1.00  0.00     0.029 A 
ATOM     41  N   UNL     1      -0.358 -10.739   2.574  1.00  0.00    -0.354 N 
ATOM     42  C   UNL     1      -1.111 -10.918   6.865  1.00  0.00     0.074 A 
ATOM     43  C   UNL     1      -0.964  -9.607   7.460  1.00  0.00     0.031 C 
ATOM     44  C   UNL     1       0.069  -9.713   0.634  1.00  0.00     0.029 A 
ATOM     45  C   UNL     1      -0.205 -11.015   1.238  1.00  0.00     0.049 A 
ATOM     46  H   UNL     1      -0.606 -11.419   3.241  1.00  0.00     0.167 HD
ATOM     47  C   UNL     1      -1.487 -12.032   7.539  1.00  0.00     0.034 A 
ATOM     48  C   UNL     1      -0.251 -12.194   0.590  1.00  0.00     0.034 A 
ATOM     49  C   UNL     1      -1.611 -13.327   6.917  1.00  0.00     0.049 A 
ATOM     50  C   UNL     1      -0.541 -13.443   1.385  1.00  0.00     0.074 A 
ATOM     51  C   UNL     1      -1.974 -14.529   7.495  1.00  0.00     0.029 A 
ATOM     52  N   UNL     1      -1.360 -13.591   5.575  1.00  0.00    -0.354 N 
ATOM     53  N   UNL     1      -0.805 -13.566   2.667  1.00  0.00    -0.248 NA
ATOM     54  C   UNL     1      -0.545 -14.710   0.646  1.00  0.00     0.031 C 
ATOM     55  C   UNL     1      -1.851 -15.532   6.529  1.00  0.00     0.029 A 
ATOM     56  C   UNL     1      -1.516 -14.944   5.319  1.00  0.00     0.049 A 
ATOM     57  H   UNL     1      -1.108 -12.915   4.905  1.00  0.00     0.167 HD
ATOM     58  C   UNL     1      -1.047 -14.921   2.877  1.00  0.00     0.074 A 
ATOM     59  C   UNL     1      -0.908 -15.568   1.587  1.00  0.00     0.031 C 
ATOM     60  C   UNL     1      -1.363 -15.573   4.026  1.00  0.00     0.034 A 
BRANCH  47  61
ATOM     61  C   UNL     1      -1.718 -11.899   9.026  1.00  0.00     0.023 A 
ATOM     62  C   UNL     1      -2.711 -11.055   9.553  1.00  0.00     0.031 A 
ATOM     63  C   UNL     1      -0.899 -12.593   9.934  1.00  0.00     0.131 A 
ATOM     64  C   UNL     1      -2.802 -10.861  10.939  1.00  0.00     0.055 A 
ATOM     65  C   UNL     1      -1.059 -12.470  11.315  1.00  0.00     0.041 A 
ATOM     66  F   UNL     1       0.088 -13.390   9.494  1.00  0.00    -0.206 F 
ATOM     67  C   UNL     1      -2.003 -11.586  11.826  1.00  0.00     0.022 A 
BRANCH  64  68
ATOM     68  S   UNL     1      -3.852  -9.516  11.557  1.00  0.00     0.124 S 
ATOM     69  O   UNL     1      -3.287  -8.361  10.864  1.00  0.00    -0.237 OA
ATOM     70  O   UNL     1      -5.182  -9.932  11.130  1.00  0.00    -0.237 OA
ATOM     71  O   UNL     1      -3.623  -9.539  13.001  1.00  0.00    -0.744 OA
ENDBRANCH  64  68
ENDBRANCH  47  61
BRANCH  48  72
ATOM     72  C   UNL     1       0.015 -12.259  -0.874  1.00  0.00     0.023 A 
ATOM     73  C   UNL     1      -0.960 -12.737  -1.762  1.00  0.00     0.031 A 
ATOM     74  C   UNL     1       1.266 -11.895  -1.403  1.00  0.00     0.131 A 
ATOM     75  C   UNL     1      -0.652 -12.890  -3.121  1.00  0.00     0.055 A 
ATOM     76  C   UNL     1       1.546 -11.984  -2.767  1.00  0.00     0.041 A 
ATOM     77  F   UNL     1       2.239 -11.437  -0.598  1.00  0.00    -0.206 F 
ATOM     78  C   UNL     1       0.588 -12.500  -3.634  1.00  0.00     0.022 A 
BRANCH  75  79
ATOM     79  S   UNL     1      -1.859 -13.715  -4.192  1.00  0.00     0.124 S 
ATOM     80  O   UNL     1      -2.013 -15.002  -3.524  1.00  0.00    -0.237 OA
ATOM     81  O   UNL     1      -3.001 -12.810  -4.114  1.00  0.00    -0.237 OA
ATOM     82  O   UNL     1      -1.188 -13.759  -5.489  1.00  0.00    -0.744 OA
ENDBRANCH  75  79
ENDBRANCH  48  72
BRANCH  60  83
ATOM     83  C   UNL     1      -1.634 -17.056   3.925  1.00  0.00     0.023 A 
ATOM     84  C   UNL     1      -0.637 -17.971   3.545  1.00  0.00     0.031 A 
ATOM     85  C   UNL     1      -2.918 -17.558   4.207  1.00  0.00     0.131 A 
ATOM     86  C   UNL     1      -0.957 -19.328   3.392  1.00  0.00     0.055 A 
ATOM     87  C   UNL     1      -3.209 -18.920   4.131  1.00  0.00     0.041 A 
ATOM     88  F   UNL     1      -3.913 -16.731   4.567  1.00  0.00    -0.206 F 
ATOM     89  C   UNL     1      -2.229 -19.812   3.707  1.00  0.00     0.022 A 
BRANCH  86  90
ATOM     90  S   UNL     1       0.280 -20.435   2.662  1.00  0.00     0.124 S 
ATOM     91  O   UNL     1       0.539 -19.793   1.377  1.00  0.00    -0.237 OA
ATOM     92  O   UNL     1       1.366 -20.375   3.634  1.00  0.00    -0.237 OA
ATOM     93  O   UNL     1      -0.413 -21.720   2.584  1.00  0.00    -0.744 OA
ENDBRANCH  86  90
ENDBRANCH  60  83
ENDBRANCH  34  35
ENDBRANCH  27  29
ENDBRANCH  26  27
ENDBRANCH  25  26
ENDBRANCH  24  25
ENDBRANCH   1  24
TORSDOF 20
