REMARK SMILES Cc1ncsc1CCC(=O)N[C@@H](Cc1cnc[nH]1)C(=O)OCCOCCOC(=O)c1ccc(-c2c3nc(c(-c4cc(S(=O)(=O)[O-])ccc4F)c4ccc([nH]4)c(-c4cc(S(=O)(=O)[O-])ccc4F)c4nc(c(-c5cc(S(=O)(=O)[O-])ccc5F)c5ccc2[nH]5)C=C4)C=C3)cc1
REMARK SMILES IDX 23 1 22 2 21 3 19 4 20 5 12 6 11 7 9 8 10 9 8 11 7 12 6 13
REMARK SMILES IDX 1 14 2 15 3 16 4 17 5 18 13 19 14 20 15 21 18 22 16 23 17 24
REMARK SMILES IDX 24 26 25 27 26 28 27 29 28 30 29 31 30 32 31 33 92 34 32 35
REMARK SMILES IDX 91 36 33 37 34 38 35 39 85 40 36 41 90 42 84 43 86 44 37 45
REMARK SMILES IDX 89 46 83 47 82 48 38 50 70 51 50 52 69 53 51 54 54 55 68 56
REMARK SMILES IDX 87 57 52 58 53 59 67 61 88 62 55 63 39 64 40 65 48 66 41 67
REMARK SMILES IDX 47 68 49 69 46 70 42 71 43 72 44 73 45 74 71 75 72 76 80 77
REMARK SMILES IDX 73 78 79 79 81 80 78 81 74 82 75 83 76 84 77 85 56 86 57 87
REMARK SMILES IDX 65 88 58 89 64 90 66 91 63 92 59 93 60 94 61 95 62 96
REMARK H PARENT 11 10 18 25 86 49 54 60
REMARK Flexibility Score: inf
ROOT
ATOM      1  C   UNL     1       2.015   1.326  -5.475  1.00  0.00     0.202 C 
ENDROOT
BRANCH   1   2
ATOM      2  C   UNL     1       2.216   2.033  -4.131  1.00  0.00     0.261 C 
BRANCH   2   3
ATOM      3  O   UNL     1       2.337   1.101  -3.045  1.00  0.00    -0.462 OA
BRANCH   3   4
ATOM      4  C   UNL     1       1.543   1.359  -1.972  1.00  0.00     0.329 C 
ATOM      5  O   UNL     1       0.864   2.370  -1.821  1.00  0.00    -0.250 OA
BRANCH   4   6
ATOM      6  C   UNL     1       1.613   0.261  -0.906  1.00  0.00     0.198 C 
BRANCH   6   7
ATOM      7  N   UNL     1       2.200  -1.035  -1.280  1.00  0.00    -0.342 N 
ATOM      8  C   UNL     1       1.663  -2.282  -1.155  1.00  0.00     0.221 C 
ATOM      9  O   UNL     1       2.417  -3.255  -1.180  1.00  0.00    -0.275 OA
ATOM     10  H   UNL     1       3.102  -0.997  -1.672  1.00  0.00     0.164 HD
BRANCH   8  11
ATOM     11  C   UNL     1       0.157  -2.473  -1.069  1.00  0.00     0.105 C 
BRANCH  11  12
ATOM     12  C   UNL     1      -0.389  -2.683   0.345  1.00  0.00     0.058 C 
BRANCH  12  13
ATOM     13  C   UNL     1      -0.875  -1.410   0.974  1.00  0.00     0.028 A 
ATOM     14  C   UNL     1      -2.950  -0.809  -0.447  1.00  0.00     0.068 C 
ATOM     15  C   UNL     1      -1.937  -0.587   0.620  1.00  0.00     0.051 A 
ATOM     16  N   UNL     1      -2.002   0.606   1.323  1.00  0.00    -0.250 NA
ATOM     17  C   UNL     1      -1.065   0.638   2.241  1.00  0.00     0.176 A 
ATOM     18  S   UNL     1      -0.107  -0.773   2.375  1.00  0.00    -0.127 S 
ENDBRANCH  12  13
ENDBRANCH  11  12
ENDBRANCH   8  11
ENDBRANCH   6   7
BRANCH   6  19
ATOM     19  C   UNL     1       2.326   0.819   0.339  1.00  0.00     0.092 C 
BRANCH  19  20
ATOM     20  C   UNL     1       3.705   1.321   0.079  1.00  0.00     0.037 A 
ATOM     21  C   UNL     1       4.168   2.591  -0.191  1.00  0.00     0.134 A 
ATOM     22  N   UNL     1       4.833   0.536   0.096  1.00  0.00    -0.348 N 
ATOM     23  N   UNL     1       5.523   2.589  -0.359  1.00  0.00    -0.245 NA
ATOM     24  C   UNL     1       5.899   1.345  -0.178  1.00  0.00     0.196 A 
ATOM     25  H   UNL     1       4.867  -0.432   0.274  1.00  0.00     0.167 HD
ENDBRANCH  19  20
ENDBRANCH   6  19
ENDBRANCH   4   6
ENDBRANCH   3   4
ENDBRANCH   2   3
ENDBRANCH   1   2
BRANCH   1  26
ATOM     26  O   UNL     1       0.983   0.344  -5.530  1.00  0.00    -0.374 OA
BRANCH  26  27
ATOM     27  C   UNL     1       1.178  -0.872  -4.806  1.00  0.00     0.202 C 
BRANCH  27  28
ATOM     28  C   UNL     1       2.401  -1.732  -5.157  1.00  0.00     0.261 C 
BRANCH  28  29
ATOM     29  O   UNL     1       3.658  -1.112  -4.814  1.00  0.00    -0.460 OA
BRANCH  29  30
ATOM     30  C   UNL     1       4.529  -1.001  -5.852  1.00  0.00     0.338 C 
ATOM     31  O   UNL     1       4.358  -1.386  -6.996  1.00  0.00    -0.246 OA
BRANCH  30  32
ATOM     32  C   UNL     1       5.703  -0.197  -5.468  1.00  0.00     0.060 A 
ATOM     33  C   UNL     1       5.892   1.038  -6.102  1.00  0.00     0.016 A 
ATOM     34  C   UNL     1       6.688  -0.721  -4.629  1.00  0.00     0.016 A 
ATOM     35  C   UNL     1       7.087   1.736  -5.928  1.00  0.00     0.010 A 
ATOM     36  C   UNL     1       7.891  -0.022  -4.463  1.00  0.00     0.010 A 
ATOM     37  C   UNL     1       8.110   1.193  -5.139  1.00  0.00    -0.014 A 
BRANCH  37  38
ATOM     38  C   UNL     1       9.457   1.823  -5.148  1.00  0.00     0.031 A 
ATOM     39  C   UNL     1      10.528   1.249  -6.039  1.00  0.00     0.074 A 
ATOM     40  C   UNL     1       9.709   2.920  -4.409  1.00  0.00     0.049 A 
ATOM     41  N   UNL     1      11.780   1.604  -6.169  1.00  0.00    -0.248 NA
ATOM     42  C   UNL     1      10.129   0.125  -6.901  1.00  0.00     0.031 C 
ATOM     43  C   UNL     1       8.738   3.600  -3.553  1.00  0.00     0.029 A 
ATOM     44  N   UNL     1      10.861   3.652  -4.260  1.00  0.00    -0.354 N 
ATOM     45  C   UNL     1      12.319   0.756  -7.131  1.00  0.00     0.074 A 
ATOM     46  C   UNL     1      11.265  -0.157  -7.522  1.00  0.00     0.031 C 
ATOM     47  C   UNL     1       9.339   4.647  -2.961  1.00  0.00     0.029 A 
ATOM     48  C   UNL     1      10.744   4.688  -3.362  1.00  0.00     0.049 A 
ATOM     49  H   UNL     1      11.691   3.455  -4.750  1.00  0.00     0.167 HD
ATOM     50  C   UNL     1      13.572   0.746  -7.650  1.00  0.00     0.034 A 
ATOM     51  C   UNL     1      11.673   5.548  -2.895  1.00  0.00     0.034 A 
ATOM     52  C   UNL     1      14.621   1.647  -7.241  1.00  0.00     0.049 A 
ATOM     53  C   UNL     1      13.091   5.448  -3.413  1.00  0.00     0.074 A 
ATOM     54  C   UNL     1      15.935   1.699  -7.676  1.00  0.00     0.029 A 
ATOM     55  N   UNL     1      14.478   2.656  -6.297  1.00  0.00    -0.354 N 
ATOM     56  N   UNL     1      13.591   4.625  -4.306  1.00  0.00    -0.248 NA
ATOM     57  C   UNL     1      14.068   6.399  -2.863  1.00  0.00     0.031 C 
ATOM     58  C   UNL     1      16.598   2.701  -6.957  1.00  0.00     0.029 A 
ATOM     59  C   UNL     1      15.682   3.320  -6.123  1.00  0.00     0.049 A 
ATOM     60  H   UNL     1      13.643   2.868  -5.821  1.00  0.00     0.167 HD
ATOM     61  C   UNL     1      14.929   4.986  -4.448  1.00  0.00     0.074 A 
ATOM     62  C   UNL     1      15.154   6.108  -3.562  1.00  0.00     0.031 C 
ATOM     63  C   UNL     1      15.888   4.441  -5.239  1.00  0.00     0.034 A 
BRANCH  50  64
ATOM     64  C   UNL     1      13.884  -0.301  -8.691  1.00  0.00     0.023 A 
ATOM     65  C   UNL     1      13.283  -0.277  -9.961  1.00  0.00     0.031 A 
ATOM     66  C   UNL     1      14.789  -1.339  -8.407  1.00  0.00     0.131 A 
ATOM     67  C   UNL     1      13.555  -1.299 -10.883  1.00  0.00     0.055 A 
ATOM     68  C   UNL     1      15.107  -2.316  -9.353  1.00  0.00     0.041 A 
ATOM     69  F   UNL     1      15.376  -1.424  -7.203  1.00  0.00    -0.206 F 
ATOM     70  C   UNL     1      14.481  -2.305 -10.596  1.00  0.00     0.022 A 
BRANCH  67  71
ATOM     71  S   UNL     1      12.604  -1.357 -12.426  1.00  0.00     0.124 S 
ATOM     72  O   UNL     1      11.243  -1.534 -11.925  1.00  0.00    -0.237 OA
ATOM     73  O   UNL     1      12.899  -0.062 -13.029  1.00  0.00    -0.237 OA
ATOM     74  O   UNL     1      13.158  -2.513 -13.128  1.00  0.00    -0.744 OA
ENDBRANCH  67  71
ENDBRANCH  50  64
BRANCH  51  75
ATOM     75  C   UNL     1      11.329   6.549  -1.842  1.00  0.00     0.023 A 
ATOM     76  C   UNL     1      11.472   7.927  -2.072  1.00  0.00     0.031 A 
ATOM     77  C   UNL     1      10.946   6.134  -0.554  1.00  0.00     0.131 A 
ATOM     78  C   UNL     1      11.300   8.835  -1.015  1.00  0.00     0.055 A 
ATOM     79  C   UNL     1      10.711   7.046   0.477  1.00  0.00     0.041 A 
ATOM     80  F   UNL     1      10.806   4.828  -0.273  1.00  0.00    -0.206 F 
ATOM     81  C   UNL     1      10.907   8.405   0.254  1.00  0.00     0.022 A 
BRANCH  78  82
ATOM     82  S   UNL     1      11.729  10.577  -1.289  1.00  0.00     0.124 S 
ATOM     83  O   UNL     1      13.099  10.472  -1.778  1.00  0.00    -0.237 OA
ATOM     84  O   UNL     1      10.728  10.985  -2.268  1.00  0.00    -0.237 OA
ATOM     85  O   UNL     1      11.584  11.175   0.037  1.00  0.00    -0.744 OA
ENDBRANCH  78  82
ENDBRANCH  51  75
BRANCH  63  86
ATOM     86  C   UNL     1      17.247   5.098  -5.222  1.00  0.00     0.023 A 
ATOM     87  C   UNL     1      18.078   5.053  -4.090  1.00  0.00     0.031 A 
ATOM     88  C   UNL     1      17.708   5.791  -6.356  1.00  0.00     0.131 A 
ATOM     89  C   UNL     1      19.305   5.736  -4.096  1.00  0.00     0.055 A 
ATOM     90  C   UNL     1      18.952   6.422  -6.375  1.00  0.00     0.041 A 
ATOM     91  F   UNL     1      16.955   5.864  -7.465  1.00  0.00    -0.206 F 
ATOM     92  C   UNL     1      19.753   6.408  -5.237  1.00  0.00     0.022 A 
BRANCH  89  93
ATOM     93  S   UNL     1      20.273   5.803  -2.564  1.00  0.00     0.124 S 
ATOM     94  O   UNL     1      19.341   6.441  -1.641  1.00  0.00    -0.237 OA
ATOM     95  O   UNL     1      20.556   4.394  -2.311  1.00  0.00    -0.237 OA
ATOM     96  O   UNL     1      21.437   6.610  -2.928  1.00  0.00    -0.744 OA
ENDBRANCH  89  93
ENDBRANCH  63  86
ENDBRANCH  37  38
ENDBRANCH  30  32
ENDBRANCH  29  30
ENDBRANCH  28  29
ENDBRANCH  27  28
ENDBRANCH  26  27
ENDBRANCH   1  26
TORSDOF 23
