REMARK SMILES CS(=O)(=O)c1ccc(C2=NN(c3ccc(C(=O)OCCOCCOC(=O)c4ccc(-c5c6nc(c(-c7cc(S(=O)(=O)[O-])ccc7F)c7ccc([nH]7)c(-c7cc(S(=O)(=O)[O-])ccc7F)c7nc(c(-c8cc(S(=O)(=O)[O-])ccc8F)c8ccc5[nH]8)C=C7)C=C6)cc4)cc3)[C@H](c3ccccc3)C2)cc1
REMARK SMILES IDX 21 1 20 2 19 3 18 4 16 5 17 6 15 7 12 8 13 9 91 10 14 11
REMARK SMILES IDX 90 12 11 13 9 14 10 15 99 16 92 17 8 18 5 19 6 20 101 21
REMARK SMILES IDX 7 22 100 23 2 24 1 25 3 26 4 27 93 28 94 29 98 30 95 31
REMARK SMILES IDX 97 32 96 33 22 34 23 35 24 36 25 37 26 38 27 39 28 40 89 41
REMARK SMILES IDX 29 42 88 43 30 44 31 45 32 46 82 47 33 48 87 49 81 50 83 51
REMARK SMILES IDX 34 52 86 53 80 54 79 55 35 57 67 58 47 59 66 60 48 61 51 62
REMARK SMILES IDX 65 63 84 64 49 65 50 66 64 68 85 69 52 70 36 71 37 72 45 73
REMARK SMILES IDX 38 74 44 75 46 76 43 77 39 78 40 79 41 80 42 81 68 82 69 83
REMARK SMILES IDX 77 84 70 85 76 86 78 87 75 88 71 89 72 90 73 91 74 92 53 93
REMARK SMILES IDX 54 94 62 95 55 96 61 97 63 98 60 99 56 100 57 101 58 102
REMARK SMILES IDX 59 103
REMARK H PARENT 83 56 51 67
REMARK Flexibility Score: inf
ROOT
ATOM      1  O   UNL     1      -1.917 -14.318  -6.382  1.00  0.00    -0.374 OA
ENDROOT
BRANCH   1   2
ATOM      2  C   UNL     1      -1.304 -15.452  -5.766  1.00  0.00     0.202 C 
BRANCH   2   3
ATOM      3  C   UNL     1       0.212 -15.368  -5.566  1.00  0.00     0.261 C 
BRANCH   3   4
ATOM      4  O   UNL     1       0.546 -14.318  -4.645  1.00  0.00    -0.460 OA
BRANCH   4   5
ATOM      5  C   UNL     1       1.174 -13.247  -5.182  1.00  0.00     0.338 C 
ATOM      6  O   UNL     1       1.615 -13.152  -6.319  1.00  0.00    -0.246 OA
BRANCH   5   7
ATOM      7  C   UNL     1       1.186 -12.114  -4.223  1.00  0.00     0.060 A 
ATOM      8  C   UNL     1       1.483  -9.932  -2.485  1.00  0.00     0.060 A 
ATOM      9  C   UNL     1       1.603  -9.752  -3.865  1.00  0.00     0.029 A 
ATOM     10  C   UNL     1       1.086 -11.185  -1.997  1.00  0.00     0.029 A 
ATOM     11  C   UNL     1       1.463 -10.837  -4.730  1.00  0.00     0.018 A 
ATOM     12  C   UNL     1       0.946 -12.278  -2.855  1.00  0.00     0.018 A 
BRANCH   8  13
ATOM     13  N   UNL     1       1.934  -8.959  -1.589  1.00  0.00    -0.257 N 
ATOM     14  C   UNL     1       2.139  -6.914  -1.038  1.00  0.00     0.071 C 
ATOM     15  N   UNL     1       1.272  -7.782  -1.460  1.00  0.00    -0.176 NA
ATOM     16  C   UNL     1       3.568  -7.384  -0.995  1.00  0.00     0.091 C 
ATOM     17  C   UNL     1       3.382  -8.866  -1.339  1.00  0.00     0.144 C 
BRANCH  14  18
ATOM     18  C   UNL     1       1.761  -5.554  -0.606  1.00  0.00    -0.002 A 
ATOM     19  C   UNL     1       1.018  -3.050   0.371  1.00  0.00     0.067 A 
ATOM     20  C   UNL     1       0.157  -4.140   0.532  1.00  0.00     0.021 A 
ATOM     21  C   UNL     1       2.242  -3.200  -0.290  1.00  0.00     0.021 A 
ATOM     22  C   UNL     1       0.529  -5.390   0.037  1.00  0.00     0.011 A 
ATOM     23  C   UNL     1       2.616  -4.460  -0.776  1.00  0.00     0.011 A 
BRANCH  19  24
ATOM     24  S   UNL     1       0.526  -1.478   1.044  1.00  0.00     0.175 S 
ATOM     25  C   UNL     1       1.058  -0.253  -0.118  1.00  0.00     0.163 C 
ATOM     26  O   UNL     1       1.285  -1.297   2.266  1.00  0.00    -0.224 OA
ATOM     27  O   UNL     1      -0.924  -1.447   1.048  1.00  0.00    -0.224 OA
ENDBRANCH  19  24
ENDBRANCH  14  18
BRANCH  17  28
ATOM     28  C   UNL     1       3.811  -9.903  -0.311  1.00  0.00    -0.023 A 
ATOM     29  C   UNL     1       3.861  -9.658   1.068  1.00  0.00     0.006 A 
ATOM     30  C   UNL     1       4.082 -11.214  -0.756  1.00  0.00     0.006 A 
ATOM     31  C   UNL     1       4.164 -10.688   1.966  1.00  0.00     0.000 A 
ATOM     32  C   UNL     1       4.343 -12.249   0.142  1.00  0.00     0.000 A 
ATOM     33  C   UNL     1       4.389 -11.983   1.506  1.00  0.00     0.000 A 
ENDBRANCH  17  28
ENDBRANCH   8  13
ENDBRANCH   5   7
ENDBRANCH   4   5
ENDBRANCH   3   4
ENDBRANCH   2   3
ENDBRANCH   1   2
BRANCH   1  34
ATOM     34  C   UNL     1      -2.190 -13.191  -5.548  1.00  0.00     0.202 C 
BRANCH  34  35
ATOM     35  C   UNL     1      -3.433 -13.275  -4.655  1.00  0.00     0.261 C 
BRANCH  35  36
ATOM     36  O   UNL     1      -3.315 -14.293  -3.646  1.00  0.00    -0.460 OA
BRANCH  36  37
ATOM     37  C   UNL     1      -4.088 -15.386  -3.856  1.00  0.00     0.338 C 
ATOM     38  O   UNL     1      -4.898 -15.548  -4.759  1.00  0.00    -0.246 OA
BRANCH  37  39
ATOM     39  C   UNL     1      -3.697 -16.471  -2.936  1.00  0.00     0.060 A 
ATOM     40  C   UNL     1      -3.442 -17.729  -3.496  1.00  0.00     0.016 A 
ATOM     41  C   UNL     1      -3.643 -16.287  -1.552  1.00  0.00     0.016 A 
ATOM     42  C   UNL     1      -3.181 -18.821  -2.672  1.00  0.00     0.010 A 
ATOM     43  C   UNL     1      -3.387 -17.388  -0.725  1.00  0.00     0.010 A 
ATOM     44  C   UNL     1      -3.188 -18.666  -1.280  1.00  0.00    -0.014 A 
BRANCH  44  45
ATOM     45  C   UNL     1      -3.130 -19.869  -0.412  1.00  0.00     0.031 A 
ATOM     46  C   UNL     1      -4.406 -20.408   0.175  1.00  0.00     0.074 A 
ATOM     47  C   UNL     1      -1.961 -20.496  -0.182  1.00  0.00     0.049 A 
ATOM     48  N   UNL     1      -4.590 -21.428   0.973  1.00  0.00    -0.248 NA
ATOM     49  C   UNL     1      -5.641 -19.695  -0.186  1.00  0.00     0.031 C 
ATOM     50  C   UNL     1      -0.668 -20.093  -0.733  1.00  0.00     0.029 A 
ATOM     51  N   UNL     1      -1.674 -21.603   0.576  1.00  0.00    -0.354 N 
ATOM     52  C   UNL     1      -5.959 -21.482   1.212  1.00  0.00     0.074 A 
ATOM     53  C   UNL     1      -6.551 -20.365   0.506  1.00  0.00     0.031 C 
ATOM     54  C   UNL     1       0.277 -20.939  -0.287  1.00  0.00     0.029 A 
ATOM     55  C   UNL     1      -0.336 -21.919   0.608  1.00  0.00     0.049 A 
ATOM     56  H   UNL     1      -2.362 -22.123   1.052  1.00  0.00     0.167 HD
ATOM     57  C   UNL     1      -6.658 -22.385   1.943  1.00  0.00     0.034 A 
ATOM     58  C   UNL     1       0.320 -22.873   1.299  1.00  0.00     0.034 A 
ATOM     59  C   UNL     1      -6.051 -23.486   2.652  1.00  0.00     0.049 A 
ATOM     60  C   UNL     1      -0.469 -23.813   2.179  1.00  0.00     0.074 A 
ATOM     61  C   UNL     1      -6.666 -24.468   3.409  1.00  0.00     0.029 A 
ATOM     62  N   UNL     1      -4.687 -23.744   2.704  1.00  0.00    -0.354 N 
ATOM     63  N   UNL     1      -1.765 -23.860   2.388  1.00  0.00    -0.248 NA
ATOM     64  C   UNL     1       0.294 -24.832   2.911  1.00  0.00     0.031 C 
ATOM     65  C   UNL     1      -5.672 -25.273   3.978  1.00  0.00     0.029 A 
ATOM     66  C   UNL     1      -4.439 -24.845   3.510  1.00  0.00     0.049 A 
ATOM     67  H   UNL     1      -3.996 -23.221   2.237  1.00  0.00     0.167 HD
ATOM     68  C   UNL     1      -1.972 -24.935   3.250  1.00  0.00     0.074 A 
ATOM     69  C   UNL     1      -0.671 -25.514   3.510  1.00  0.00     0.031 C 
ATOM     70  C   UNL     1      -3.134 -25.404   3.775  1.00  0.00     0.034 A 
BRANCH  57  71
ATOM     71  C   UNL     1      -8.150 -22.181   2.053  1.00  0.00     0.023 A 
ATOM     72  C   UNL     1      -8.995 -22.262   0.932  1.00  0.00     0.031 A 
ATOM     73  C   UNL     1      -8.734 -21.872   3.295  1.00  0.00     0.131 A 
ATOM     74  C   UNL     1     -10.361 -21.968   1.061  1.00  0.00     0.055 A 
ATOM     75  C   UNL     1     -10.107 -21.657   3.431  1.00  0.00     0.041 A 
ATOM     76  F   UNL     1      -7.976 -21.758   4.397  1.00  0.00    -0.206 F 
ATOM     77  C   UNL     1     -10.927 -21.690   2.308  1.00  0.00     0.022 A 
BRANCH  74  78
ATOM     78  S   UNL     1     -11.363 -21.815  -0.444  1.00  0.00     0.124 S 
ATOM     79  O   UNL     1     -10.656 -20.758  -1.163  1.00  0.00    -0.237 OA
ATOM     80  O   UNL     1     -11.273 -23.151  -1.020  1.00  0.00    -0.237 OA
ATOM     81  O   UNL     1     -12.683 -21.439   0.060  1.00  0.00    -0.744 OA
ENDBRANCH  74  78
ENDBRANCH  57  71
BRANCH  58  82
ATOM     82  C   UNL     1       1.807 -22.969   1.229  1.00  0.00     0.023 A 
ATOM     83  C   UNL     1       2.440 -24.107   0.707  1.00  0.00     0.031 A 
ATOM     84  C   UNL     1       2.618 -21.939   1.740  1.00  0.00     0.131 A 
ATOM     85  C   UNL     1       3.840 -24.210   0.749  1.00  0.00     0.055 A 
ATOM     86  C   UNL     1       4.011 -22.023   1.731  1.00  0.00     0.041 A 
ATOM     87  F   UNL     1       2.064 -20.829   2.253  1.00  0.00    -0.206 F 
ATOM     88  C   UNL     1       4.630 -23.170   1.245  1.00  0.00     0.022 A 
BRANCH  85  89
ATOM     89  S   UNL     1       4.614 -25.764   0.223  1.00  0.00     0.124 S 
ATOM     90  O   UNL     1       3.991 -26.726   1.125  1.00  0.00    -0.237 OA
ATOM     91  O   UNL     1       4.211 -25.843  -1.177  1.00  0.00    -0.237 OA
ATOM     92  O   UNL     1       6.038 -25.527   0.448  1.00  0.00    -0.744 OA
ENDBRANCH  85  89
ENDBRANCH  58  82
BRANCH  70  93
ATOM     93  C   UNL     1      -3.046 -26.633   4.649  1.00  0.00     0.023 A 
ATOM     94  C   UNL     1      -2.401 -26.611   5.898  1.00  0.00     0.031 A 
ATOM     95  C   UNL     1      -3.608 -27.848   4.218  1.00  0.00     0.131 A 
ATOM     96  C   UNL     1      -2.284 -27.793   6.646  1.00  0.00     0.055 A 
ATOM     97  C   UNL     1      -3.543 -29.006   4.994  1.00  0.00     0.041 A 
ATOM     98  F   UNL     1      -4.235 -27.929   3.033  1.00  0.00    -0.206 F 
ATOM     99  C   UNL     1      -2.866 -28.986   6.210  1.00  0.00     0.022 A 
BRANCH  96 100
ATOM    100  S   UNL     1      -1.280 -27.774   8.157  1.00  0.00     0.124 S 
ATOM    101  O   UNL     1       0.021 -27.347   7.651  1.00  0.00    -0.237 OA
ATOM    102  O   UNL     1      -1.988 -26.808   8.991  1.00  0.00    -0.237 OA
ATOM    103  O   UNL     1      -1.339 -29.157   8.626  1.00  0.00    -0.744 OA
ENDBRANCH  96 100
ENDBRANCH  70  93
ENDBRANCH  44  45
ENDBRANCH  37  39
ENDBRANCH  36  37
ENDBRANCH  35  36
ENDBRANCH  34  35
ENDBRANCH   1  34
TORSDOF 21
