REMARK SMILES CC[C@](C)(NC(=O)NC[C@H]1COCCO1)C(=O)OCCOCCOC(=O)c1ccc(-c2c3nc(c(-c4cc(S(=O)(=O)[O-])ccc4F)c4ccc([nH]4)c(-c4cc(S(=O)(=O)[O-])ccc4F)c4nc(c(-c5cc(S(=O)(=O)[O-])ccc5F)c5ccc2[nH]5)C=C4)C=C3)cc1
REMARK SMILES IDX 21 1 20 2 19 3 18 4 16 5 17 6 3 7 4 8 2 9 1 10 5 11 6 12
REMARK SMILES IDX 7 14 8 15 9 17 10 18 11 19 15 20 12 21 14 22 13 23 22 24
REMARK SMILES IDX 23 25 24 26 25 27 26 28 27 29 28 30 89 31 29 32 88 33 30 34
REMARK SMILES IDX 31 35 32 36 82 37 33 38 87 39 81 40 83 41 34 42 86 43 80 44
REMARK SMILES IDX 79 45 35 47 67 48 47 49 66 50 48 51 51 52 65 53 84 54 49 55
REMARK SMILES IDX 50 56 64 58 85 59 52 60 36 61 37 62 45 63 38 64 44 65 46 66
REMARK SMILES IDX 43 67 39 68 40 69 41 70 42 71 68 72 69 73 77 74 70 75 76 76
REMARK SMILES IDX 78 77 75 78 71 79 72 80 73 81 74 82 53 83 54 84 62 85 55 86
REMARK SMILES IDX 61 87 63 88 60 89 56 90 57 91 58 92 59 93
REMARK H PARENT 5 13 8 16 83 46 51 57
REMARK Flexibility Score: inf
ROOT
ATOM      1  O   UNL     1       7.266   5.852   3.833  1.00  0.00    -0.374 OA
ENDROOT
BRANCH   1   2
ATOM      2  C   UNL     1       6.190   5.814   2.891  1.00  0.00     0.202 C 
BRANCH   2   3
ATOM      3  C   UNL     1       6.598   5.246   1.532  1.00  0.00     0.261 C 
BRANCH   3   4
ATOM      4  O   UNL     1       6.813   3.837   1.690  1.00  0.00    -0.462 OA
BRANCH   4   5
ATOM      5  C   UNL     1       7.289   3.157   0.619  1.00  0.00     0.331 C 
ATOM      6  O   UNL     1       7.562   3.687  -0.452  1.00  0.00    -0.249 OA
BRANCH   5   7
ATOM      7  C   UNL     1       7.508   1.649   0.960  1.00  0.00     0.136 C 
ATOM      8  C   UNL     1       9.061   1.491   0.956  1.00  0.00     0.047 C 
BRANCH   7   9
ATOM      9  C   UNL     1       6.892   0.682  -0.089  1.00  0.00     0.037 C 
ATOM     10  C   UNL     1       7.131   1.016  -1.554  1.00  0.00     0.007 C 
ENDBRANCH   7   9
BRANCH   7  11
ATOM     11  N   UNL     1       7.026   1.235   2.321  1.00  0.00    -0.322 N 
ATOM     12  C   UNL     1       5.843   0.890   2.856  1.00  0.00     0.315 C 
ATOM     13  H   UNL     1       7.755   1.209   2.983  1.00  0.00     0.166 HD
ATOM     14  O   UNL     1       5.866   0.226   3.895  1.00  0.00    -0.249 OA
ATOM     15  N   UNL     1       4.651   1.202   2.322  1.00  0.00    -0.335 N 
ATOM     16  H   UNL     1       3.941   0.528   2.422  1.00  0.00     0.165 HD
BRANCH  15  17
ATOM     17  C   UNL     1       4.286   2.415   1.614  1.00  0.00     0.152 C 
BRANCH  17  18
ATOM     18  C   UNL     1       2.929   2.404   0.890  1.00  0.00     0.163 C 
ATOM     19  C   UNL     1       2.170   3.716   1.135  1.00  0.00     0.194 C 
ATOM     20  O   UNL     1       3.103   2.218  -0.538  1.00  0.00    -0.372 OA
ATOM     21  O   UNL     1       2.902   4.824   0.588  1.00  0.00    -0.376 OA
ATOM     22  C   UNL     1       3.687   3.357  -1.195  1.00  0.00     0.189 C 
ATOM     23  C   UNL     1       2.992   4.669  -0.834  1.00  0.00     0.188 C 
ENDBRANCH  17  18
ENDBRANCH  15  17
ENDBRANCH   7  11
ENDBRANCH   5   7
ENDBRANCH   4   5
ENDBRANCH   3   4
ENDBRANCH   2   3
ENDBRANCH   1   2
BRANCH   1  24
ATOM     24  C   UNL     1       7.691   4.604   4.382  1.00  0.00     0.202 C 
BRANCH  24  25
ATOM     25  C   UNL     1       6.851   4.053   5.539  1.00  0.00     0.261 C 
BRANCH  25  26
ATOM     26  O   UNL     1       5.573   3.505   5.160  1.00  0.00    -0.460 OA
BRANCH  26  27
ATOM     27  C   UNL     1       4.505   4.261   5.508  1.00  0.00     0.338 C 
ATOM     28  O   UNL     1       4.545   5.427   5.884  1.00  0.00    -0.246 OA
BRANCH  27  29
ATOM     29  C   UNL     1       3.223   3.530   5.361  1.00  0.00     0.060 A 
ATOM     30  C   UNL     1       2.094   4.270   4.985  1.00  0.00     0.016 A 
ATOM     31  C   UNL     1       3.079   2.187   5.728  1.00  0.00     0.016 A 
ATOM     32  C   UNL     1       0.822   3.692   5.025  1.00  0.00     0.010 A 
ATOM     33  C   UNL     1       1.797   1.613   5.781  1.00  0.00     0.010 A 
ATOM     34  C   UNL     1       0.656   2.373   5.466  1.00  0.00    -0.014 A 
BRANCH  34  35
ATOM     35  C   UNL     1      -0.718   1.869   5.751  1.00  0.00     0.031 A 
ATOM     36  C   UNL     1      -1.263   1.973   7.153  1.00  0.00     0.074 A 
ATOM     37  C   UNL     1      -1.503   1.380   4.773  1.00  0.00     0.049 A 
ATOM     38  N   UNL     1      -2.445   1.646   7.614  1.00  0.00    -0.248 NA
ATOM     39  C   UNL     1      -0.350   2.520   8.165  1.00  0.00     0.031 C 
ATOM     40  C   UNL     1      -1.124   1.260   3.368  1.00  0.00     0.029 A 
ATOM     41  N   UNL     1      -2.789   0.897   4.819  1.00  0.00    -0.354 N 
ATOM     42  C   UNL     1      -2.425   1.963   8.969  1.00  0.00     0.074 A 
ATOM     43  C   UNL     1      -1.095   2.461   9.259  1.00  0.00     0.031 C 
ATOM     44  C   UNL     1      -2.155   0.733   2.683  1.00  0.00     0.029 A 
ATOM     45  C   UNL     1      -3.258   0.454   3.604  1.00  0.00     0.049 A 
ATOM     46  H   UNL     1      -3.324   0.870   5.644  1.00  0.00     0.167 HD
ATOM     47  C   UNL     1      -3.422   1.864   9.886  1.00  0.00     0.034 A 
ATOM     48  C   UNL     1      -4.433  -0.122   3.273  1.00  0.00     0.034 A 
ATOM     49  C   UNL     1      -4.736   1.336   9.604  1.00  0.00     0.049 A 
ATOM     50  C   UNL     1      -5.490  -0.330   4.332  1.00  0.00     0.074 A 
ATOM     51  C   UNL     1      -5.815   1.205  10.463  1.00  0.00     0.029 A 
ATOM     52  N   UNL     1      -5.147   0.828   8.379  1.00  0.00    -0.354 N 
ATOM     53  N   UNL     1      -5.467  -0.001   5.603  1.00  0.00    -0.248 NA
ATOM     54  C   UNL     1      -6.738  -0.980   3.905  1.00  0.00     0.031 C 
ATOM     55  C   UNL     1      -6.847   0.550   9.780  1.00  0.00     0.029 A 
ATOM     56  C   UNL     1      -6.445   0.346   8.471  1.00  0.00     0.049 A 
ATOM     57  H   UNL     1      -4.596   0.813   7.563  1.00  0.00     0.167 HD
ATOM     58  C   UNL     1      -6.710  -0.373   6.115  1.00  0.00     0.074 A 
ATOM     59  C   UNL     1      -7.459  -0.944   5.016  1.00  0.00     0.031 C 
ATOM     60  C   UNL     1      -7.190  -0.240   7.379  1.00  0.00     0.034 A 
BRANCH  47  61
ATOM     61  C   UNL     1      -3.097   2.292  11.298  1.00  0.00     0.023 A 
ATOM     62  C   UNL     1      -2.759   3.622  11.606  1.00  0.00     0.031 A 
ATOM     63  C   UNL     1      -3.079   1.349  12.341  1.00  0.00     0.131 A 
ATOM     64  C   UNL     1      -2.336   3.954  12.902  1.00  0.00     0.055 A 
ATOM     65  C   UNL     1      -2.738   1.704  13.648  1.00  0.00     0.041 A 
ATOM     66  F   UNL     1      -3.374   0.061  12.104  1.00  0.00    -0.206 F 
ATOM     67  C   UNL     1      -2.345   3.009  13.931  1.00  0.00     0.022 A 
BRANCH  64  68
ATOM     68  S   UNL     1      -1.615   5.595  13.183  1.00  0.00     0.124 S 
ATOM     69  O   UNL     1      -0.537   5.617  12.197  1.00  0.00    -0.237 OA
ATOM     70  O   UNL     1      -2.741   6.482  12.920  1.00  0.00    -0.237 OA
ATOM     71  O   UNL     1      -1.173   5.540  14.575  1.00  0.00    -0.744 OA
ENDBRANCH  64  68
ENDBRANCH  47  61
BRANCH  48  72
ATOM     72  C   UNL     1      -4.674  -0.585   1.876  1.00  0.00     0.023 A 
ATOM     73  C   UNL     1      -5.675  -0.007   1.079  1.00  0.00     0.031 A 
ATOM     74  C   UNL     1      -3.941  -1.660   1.342  1.00  0.00     0.131 A 
ATOM     75  C   UNL     1      -5.943  -0.534  -0.195  1.00  0.00     0.055 A 
ATOM     76  C   UNL     1      -4.180  -2.149   0.057  1.00  0.00     0.041 A 
ATOM     77  F   UNL     1      -2.975  -2.249   2.065  1.00  0.00    -0.206 F 
ATOM     78  C   UNL     1      -5.195  -1.592  -0.715  1.00  0.00     0.022 A 
BRANCH  75  79
ATOM     79  S   UNL     1      -7.337   0.142  -1.140  1.00  0.00     0.124 S 
ATOM     80  O   UNL     1      -8.463  -0.157  -0.263  1.00  0.00    -0.237 OA
ATOM     81  O   UNL     1      -6.969   1.549  -1.257  1.00  0.00    -0.237 OA
ATOM     82  O   UNL     1      -7.298  -0.615  -2.390  1.00  0.00    -0.744 OA
ENDBRANCH  75  79
ENDBRANCH  48  72
BRANCH  60  83
ATOM     83  C   UNL     1      -8.615  -0.677   7.632  1.00  0.00     0.023 A 
ATOM     84  C   UNL     1      -9.010  -2.025   7.553  1.00  0.00     0.031 A 
ATOM     85  C   UNL     1      -9.598   0.277   7.955  1.00  0.00     0.131 A 
ATOM     86  C   UNL     1     -10.357  -2.374   7.743  1.00  0.00     0.055 A 
ATOM     87  C   UNL     1     -10.925  -0.082   8.199  1.00  0.00     0.041 A 
ATOM     88  F   UNL     1      -9.283   1.580   8.042  1.00  0.00    -0.206 F 
ATOM     89  C   UNL     1     -11.314  -1.413   8.082  1.00  0.00     0.022 A 
BRANCH  86  90
ATOM     90  S   UNL     1     -10.866  -4.093   7.459  1.00  0.00     0.124 S 
ATOM     91  O   UNL     1     -10.459  -4.306   6.074  1.00  0.00    -0.237 OA
ATOM     92  O   UNL     1     -10.100  -4.816   8.468  1.00  0.00    -0.237 OA
ATOM     93  O   UNL     1     -12.311  -4.065   7.682  1.00  0.00    -0.744 OA
ENDBRANCH  86  90
ENDBRANCH  60  83
ENDBRANCH  34  35
ENDBRANCH  27  29
ENDBRANCH  26  27
ENDBRANCH  25  26
ENDBRANCH  24  25
ENDBRANCH   1  24
TORSDOF 21
