REMARK SMILES O=C(OCCOCCOC(=O)c1ccc(-c2c3nc(c(-c4cc(S(=O)(=O)[O-])ccc4F)c4ccc([nH]4)c(-c4cc(S(=O)(=O)[O-])ccc4F)c4nc(c(-c5cc(S(=O)(=O)[O-])ccc5F)c5ccc2[nH]5)C=C4)C=C3)cc1)C1=Cc2cc(Cl)cc(-c3ccc(Cl)cc3)c2O[C@@H]1C(F)(F)F
REMARK SMILES IDX 7 1 6 2 5 3 4 4 3 5 2 6 1 7 75 8 76 9 92 10 77 11 91 12
REMARK SMILES IDX 78 13 90 14 79 15 82 16 80 17 81 18 93 19 94 20 95 21 96 22
REMARK SMILES IDX 83 23 84 24 89 25 85 26 88 27 86 28 87 29 8 30 9 31 10 32
REMARK SMILES IDX 11 33 12 34 13 35 74 36 14 37 73 38 15 39 16 40 17 41 67 42
REMARK SMILES IDX 18 43 72 44 66 45 68 46 19 47 71 48 65 49 64 50 20 52 52 53
REMARK SMILES IDX 32 54 51 55 33 56 36 57 50 58 69 59 34 60 35 61 49 63 70 64
REMARK SMILES IDX 37 65 21 66 22 67 30 68 23 69 29 70 31 71 28 72 24 73 25 74
REMARK SMILES IDX 26 75 27 76 53 77 54 78 62 79 55 80 61 81 63 82 60 83 56 84
REMARK SMILES IDX 57 85 58 86 59 87 38 88 39 89 47 90 40 91 46 92 48 93 45 94
REMARK SMILES IDX 41 95 42 96 43 97 44 98
REMARK H PARENT 68 51 36 62
REMARK Flexibility Score: inf
ROOT
ATOM      1  C   UNL     1       2.689  -0.501  -2.972  1.00  0.00     0.202 C 
ENDROOT
BRANCH   1   2
ATOM      2  O   UNL     1       3.982  -0.105  -2.426  1.00  0.00    -0.374 OA
BRANCH   2   3
ATOM      3  C   UNL     1       4.473   0.451  -0.941  1.00  0.00     0.202 C 
BRANCH   3   4
ATOM      4  C   UNL     1       3.622   0.042   1.020  1.00  0.00     0.261 C 
BRANCH   4   5
ATOM      5  O   UNL     1       2.626   0.980   1.789  1.00  0.00    -0.460 OA
BRANCH   5   6
ATOM      6  C   UNL     1       2.749   2.272   1.462  1.00  0.00     0.338 C 
ATOM      7  O   UNL     1       2.087   3.228   1.777  1.00  0.00    -0.246 OA
BRANCH   6   8
ATOM      8  C   UNL     1       3.646   2.034   0.360  1.00  0.00     0.087 C 
ATOM      9  C   UNL     1       5.016   1.817   0.815  1.00  0.00     0.027 C 
ATOM     10  C   UNL     1       2.557   0.719  -0.545  1.00  0.00     0.316 C 
ATOM     11  C   UNL     1       5.825   0.210   0.798  1.00  0.00     0.019 A 
ATOM     12  O   UNL     1       3.411  -1.041  -0.549  1.00  0.00    -0.475 OA
ATOM     13  C   UNL     1       7.022   0.165   1.461  1.00  0.00     0.032 A 
ATOM     14  C   UNL     1       5.069  -1.260   0.218  1.00  0.00     0.135 A 
ATOM     15  C   UNL     1       7.527  -1.113   1.674  1.00  0.00     0.042 A 
ATOM     16  C   UNL     1       5.732  -2.515   0.413  1.00  0.00     0.026 A 
ATOM     17  Cl  UNL     1       9.030  -1.227   2.531  1.00  0.00    -0.084 Cl
ATOM     18  C   UNL     1       6.910  -2.343   1.226  1.00  0.00     0.033 A 
BRANCH  10  19
ATOM     19  C   UNL     1       2.099   1.771  -1.703  1.00  0.00     0.430 C 
ATOM     20  F   UNL     1       1.092   1.357  -2.499  1.00  0.00    -0.167 F 
ATOM     21  F   UNL     1       1.581   2.879  -1.086  1.00  0.00    -0.167 F 
ATOM     22  F   UNL     1       3.095   2.262  -2.476  1.00  0.00    -0.167 F 
ENDBRANCH  10  19
BRANCH  16  23
ATOM     23  C   UNL     1       5.418  -4.022  -0.093  1.00  0.00    -0.015 A 
ATOM     24  C   UNL     1       3.906  -4.479   0.800  1.00  0.00     0.010 A 
ATOM     25  C   UNL     1       5.899  -5.196  -1.684  1.00  0.00     0.010 A 
ATOM     26  C   UNL     1       2.944  -5.838   0.223  1.00  0.00     0.021 A 
ATOM     27  C   UNL     1       4.801  -6.540  -2.159  1.00  0.00     0.021 A 
ATOM     28  C   UNL     1       3.376  -6.807  -1.195  1.00  0.00     0.041 A 
ATOM     29  Cl  UNL     1       2.341  -8.113  -1.636  1.00  0.00    -0.084 Cl
ENDBRANCH  16  23
ENDBRANCH   6   8
ENDBRANCH   5   6
ENDBRANCH   4   5
ENDBRANCH   3   4
ENDBRANCH   2   3
ENDBRANCH   1   2
BRANCH   1  30
ATOM     30  C   UNL     1       2.604  -1.766  -3.827  1.00  0.00     0.261 C 
BRANCH  30  31
ATOM     31  O   UNL     1       3.271  -2.806  -3.172  1.00  0.00    -0.460 OA
BRANCH  31  32
ATOM     32  C   UNL     1       4.599  -2.625  -3.245  1.00  0.00     0.338 C 
ATOM     33  O   UNL     1       5.257  -1.954  -4.016  1.00  0.00    -0.246 OA
BRANCH  32  34
ATOM     34  C   UNL     1       5.116  -3.355  -2.127  1.00  0.00     0.060 A 
ATOM     35  C   UNL     1       6.851  -3.231  -1.761  1.00  0.00     0.016 A 
ATOM     36  C   UNL     1       4.141  -4.667  -1.334  1.00  0.00     0.016 A 
ATOM     37  C   UNL     1       7.690  -4.380  -0.688  1.00  0.00     0.010 A 
ATOM     38  C   UNL     1       5.154  -5.929  -0.125  1.00  0.00     0.010 A 
ATOM     39  C   UNL     1       6.905  -5.724   0.110  1.00  0.00    -0.014 A 
BRANCH  39  40
ATOM     40  C   UNL     1       7.588  -6.896   0.728  1.00  0.00     0.031 A 
ATOM     41  C   UNL     1       7.920  -8.145  -0.073  1.00  0.00     0.074 A 
ATOM     42  C   UNL     1       7.594  -6.969   2.069  1.00  0.00     0.049 A 
ATOM     43  N   UNL     1       8.350  -9.317   0.336  1.00  0.00    -0.248 NA
ATOM     44  C   UNL     1       7.673  -8.097  -1.519  1.00  0.00     0.031 C 
ATOM     45  C   UNL     1       7.098  -5.925   2.962  1.00  0.00     0.029 A 
ATOM     46  N   UNL     1       7.970  -7.981   2.913  1.00  0.00    -0.354 N 
ATOM     47  C   UNL     1       8.421 -10.128  -0.800  1.00  0.00     0.074 A 
ATOM     48  C   UNL     1       7.883  -9.351  -1.892  1.00  0.00     0.031 C 
ATOM     49  C   UNL     1       7.198  -6.347   4.231  1.00  0.00     0.029 A 
ATOM     50  C   UNL     1       7.758  -7.694   4.241  1.00  0.00     0.049 A 
ATOM     51  H   UNL     1       8.354  -8.831   2.600  1.00  0.00     0.167 HD
ATOM     52  C   UNL     1       8.936 -11.379  -0.938  1.00  0.00     0.034 A 
ATOM     53  C   UNL     1       8.000  -8.429   5.342  1.00  0.00     0.034 A 
ATOM     54  C   UNL     1       9.461 -12.143   0.168  1.00  0.00     0.049 A 
ATOM     55  C   UNL     1       8.641  -9.784   5.181  1.00  0.00     0.074 A 
ATOM     56  C   UNL     1      10.128 -13.356   0.150  1.00  0.00     0.029 A 
ATOM     57  N   UNL     1       9.358 -11.768   1.500  1.00  0.00    -0.354 N 
ATOM     58  N   UNL     1       8.902 -10.452   4.081  1.00  0.00    -0.248 NA
ATOM     59  C   UNL     1       9.066 -10.459   6.412  1.00  0.00     0.031 C 
ATOM     60  C   UNL     1      10.366 -13.745   1.472  1.00  0.00     0.029 A 
ATOM     61  C   UNL     1       9.927 -12.735   2.312  1.00  0.00     0.049 A 
ATOM     62  H   UNL     1       8.941 -10.936   1.821  1.00  0.00     0.167 HD
ATOM     63  C   UNL     1       9.566 -11.607   4.490  1.00  0.00     0.074 A 
ATOM     64  C   UNL     1       9.691 -11.521   5.930  1.00  0.00     0.031 C 
ATOM     65  C   UNL     1      10.032 -12.644   3.748  1.00  0.00     0.034 A 
BRANCH  52  66
ATOM     66  C   UNL     1       9.024 -11.977  -2.331  1.00  0.00     0.023 A 
ATOM     67  C   UNL     1       9.760 -11.338  -3.346  1.00  0.00     0.031 A 
ATOM     68  C   UNL     1       8.435 -13.216  -2.645  1.00  0.00     0.131 A 
ATOM     69  C   UNL     1       9.837 -11.897  -4.631  1.00  0.00     0.055 A 
ATOM     70  C   UNL     1       8.583 -13.810  -3.904  1.00  0.00     0.041 A 
ATOM     71  F   UNL     1       7.711 -13.882  -1.731  1.00  0.00    -0.206 F 
ATOM     72  C   UNL     1       9.278 -13.144  -4.910  1.00  0.00     0.022 A 
BRANCH  69  73
ATOM     73  S   UNL     1      10.584 -10.911  -5.956  1.00  0.00     0.124 S 
ATOM     74  O   UNL     1       9.728  -9.726  -5.960  1.00  0.00    -0.237 OA
ATOM     75  O   UNL     1      11.945 -10.711  -5.473  1.00  0.00    -0.237 OA
ATOM     76  O   UNL     1      10.458 -11.766  -7.134  1.00  0.00    -0.744 OA
ENDBRANCH  69  73
ENDBRANCH  52  66
BRANCH  53  77
ATOM     77  C   UNL     1       7.723  -7.868   6.693  1.00  0.00     0.023 A 
ATOM     78  C   UNL     1       8.779  -7.605   7.578  1.00  0.00     0.031 A 
ATOM     79  C   UNL     1       6.413  -7.621   7.137  1.00  0.00     0.131 A 
ATOM     80  C   UNL     1       8.508  -7.196   8.890  1.00  0.00     0.055 A 
ATOM     81  C   UNL     1       6.151  -7.143   8.423  1.00  0.00     0.041 A 
ATOM     82  F   UNL     1       5.367  -7.830   6.321  1.00  0.00    -0.206 F 
ATOM     83  C   UNL     1       7.202  -6.948   9.316  1.00  0.00     0.022 A 
BRANCH  80  84
ATOM     84  S   UNL     1       9.885  -7.122  10.066  1.00  0.00     0.124 S 
ATOM     85  O   UNL     1      10.439  -8.467   9.957  1.00  0.00    -0.237 OA
ATOM     86  O   UNL     1      10.700  -6.047   9.510  1.00  0.00    -0.237 OA
ATOM     87  O   UNL     1       9.230  -6.816  11.336  1.00  0.00    -0.744 OA
ENDBRANCH  80  84
ENDBRANCH  53  77
BRANCH  65  88
ATOM     88  C   UNL     1      10.752 -13.745   4.488  1.00  0.00     0.023 A 
ATOM     89  C   UNL     1      10.105 -14.513   5.471  1.00  0.00     0.031 A 
ATOM     90  C   UNL     1      12.116 -13.993   4.248  1.00  0.00     0.131 A 
ATOM     91  C   UNL     1      10.843 -15.417   6.248  1.00  0.00     0.055 A 
ATOM     92  C   UNL     1      12.822 -14.962   4.961  1.00  0.00     0.041 A 
ATOM     93  F   UNL     1      12.789 -13.289   3.324  1.00  0.00    -0.206 F 
ATOM     94  C   UNL     1      12.192 -15.664   5.984  1.00  0.00     0.022 A 
BRANCH  91  95
ATOM     95  S   UNL     1      10.051 -16.138   7.711  1.00  0.00     0.124 S 
ATOM     96  O   UNL     1       9.647 -14.946   8.451  1.00  0.00    -0.237 OA
ATOM     97  O   UNL     1       8.968 -16.921   7.125  1.00  0.00    -0.237 OA
ATOM     98  O   UNL     1      11.120 -16.920   8.328  1.00  0.00    -0.744 OA
ENDBRANCH  91  95
ENDBRANCH  65  88
ENDBRANCH  39  40
ENDBRANCH  32  34
ENDBRANCH  31  32
ENDBRANCH  30  31
ENDBRANCH   1  30
TORSDOF 19
