REMARK SMILES O=C(OCCOCCOC(=O)c1cccc(Nc2nc(-c3ccc(F)cc3F)cs2)c1)c1ccc(-c2c3nc(c(-c4cc(S(=O)(=O)[O-])ccc4F)c4ccc([nH]4)c(-c4cc(S(=O)(=O)[O-])ccc4F)c4nc(c(-c5cc(S(=O)(=O)[O-])ccc5F)c5ccc2[nH]5)C=C4)C=C3)cc1
REMARK SMILES IDX 6 1 5 2 4 3 3 4 2 5 1 6 32 7 33 8 94 9 34 10 93 11 35 12
REMARK SMILES IDX 36 13 37 14 87 15 38 16 92 17 86 18 88 19 39 20 91 21 85 22
REMARK SMILES IDX 84 23 40 25 72 26 52 27 71 28 53 29 56 30 70 31 89 32 54 33
REMARK SMILES IDX 55 34 69 36 90 37 57 38 41 39 42 40 50 41 43 42 49 43 51 44
REMARK SMILES IDX 48 45 44 46 45 47 46 48 47 49 73 50 74 51 82 52 75 53 81 54
REMARK SMILES IDX 83 55 80 56 76 57 77 58 78 59 79 60 58 61 59 62 67 63 60 64
REMARK SMILES IDX 66 65 68 66 65 67 61 68 62 69 63 70 64 71 7 72 8 73 9 74
REMARK SMILES IDX 10 75 11 76 12 77 13 78 31 79 14 80 16 81 15 82 17 83 18 85
REMARK SMILES IDX 19 86 30 87 20 88 29 89 21 90 22 91 27 92 23 93 26 94 28 95
REMARK SMILES IDX 24 96 25 97
REMARK H PARENT 88 24 56 35 17 84
REMARK Flexibility Score: inf
ROOT
ATOM      1  O   UNL     1       4.067   0.603  -1.486  1.00  0.00    -0.374 OA
ENDROOT
BRANCH   1   2
ATOM      2  C   UNL     1       4.292  -0.797  -1.316  1.00  0.00     0.202 C 
BRANCH   2   3
ATOM      3  C   UNL     1       3.929  -1.341   0.069  1.00  0.00     0.261 C 
BRANCH   3   4
ATOM      4  O   UNL     1       2.549  -1.074   0.368  1.00  0.00    -0.460 OA
BRANCH   4   5
ATOM      5  C   UNL     1       2.037  -0.076   1.127  1.00  0.00     0.338 C 
ATOM      6  O   UNL     1       0.815  -0.008   1.253  1.00  0.00    -0.246 OA
BRANCH   5   7
ATOM      7  C   UNL     1       2.870   0.945   1.833  1.00  0.00     0.060 A 
ATOM      8  C   UNL     1       4.126   1.383   1.412  1.00  0.00     0.016 A 
ATOM      9  C   UNL     1       2.307   1.560   2.965  1.00  0.00     0.016 A 
ATOM     10  C   UNL     1       4.843   2.331   2.121  1.00  0.00     0.010 A 
ATOM     11  C   UNL     1       3.004   2.550   3.666  1.00  0.00     0.010 A 
ATOM     12  C   UNL     1       4.291   2.913   3.256  1.00  0.00    -0.014 A 
BRANCH  12  13
ATOM     13  C   UNL     1       5.177   3.774   4.058  1.00  0.00     0.031 A 
ATOM     14  C   UNL     1       5.793   3.185   5.290  1.00  0.00     0.074 A 
ATOM     15  C   UNL     1       5.558   4.967   3.567  1.00  0.00     0.049 A 
ATOM     16  N   UNL     1       6.629   3.718   6.136  1.00  0.00    -0.248 NA
ATOM     17  C   UNL     1       5.428   1.792   5.597  1.00  0.00     0.031 C 
ATOM     18  C   UNL     1       5.110   5.530   2.289  1.00  0.00     0.029 A 
ATOM     19  N   UNL     1       6.443   5.893   4.047  1.00  0.00    -0.354 N 
ATOM     20  C   UNL     1       6.870   2.737   7.092  1.00  0.00     0.074 A 
ATOM     21  C   UNL     1       6.082   1.582   6.726  1.00  0.00     0.031 C 
ATOM     22  C   UNL     1       5.755   6.688   2.071  1.00  0.00     0.029 A 
ATOM     23  C   UNL     1       6.599   6.984   3.223  1.00  0.00     0.049 A 
ATOM     24  H   UNL     1       6.922   5.790   4.900  1.00  0.00     0.167 HD
ATOM     25  C   UNL     1       7.674   2.811   8.179  1.00  0.00     0.034 A 
ATOM     26  C   UNL     1       7.325   8.104   3.404  1.00  0.00     0.034 A 
ATOM     27  C   UNL     1       8.429   3.995   8.505  1.00  0.00     0.049 A 
ATOM     28  C   UNL     1       8.126   8.206   4.679  1.00  0.00     0.074 A 
ATOM     29  C   UNL     1       9.208   4.252   9.616  1.00  0.00     0.029 A 
ATOM     30  N   UNL     1       8.489   5.133   7.703  1.00  0.00    -0.354 N 
ATOM     31  N   UNL     1       8.274   7.314   5.635  1.00  0.00    -0.248 NA
ATOM     32  C   UNL     1       8.851   9.459   4.905  1.00  0.00     0.031 C 
ATOM     33  C   UNL     1       9.684   5.566   9.518  1.00  0.00     0.029 A 
ATOM     34  C   UNL     1       9.273   6.102   8.306  1.00  0.00     0.049 A 
ATOM     35  H   UNL     1       8.040   5.234   6.833  1.00  0.00     0.167 HD
ATOM     36  C   UNL     1       9.133   7.890   6.564  1.00  0.00     0.074 A 
ATOM     37  C   UNL     1       9.483   9.197   6.039  1.00  0.00     0.031 C 
ATOM     38  C   UNL     1       9.593   7.395   7.744  1.00  0.00     0.034 A 
BRANCH  25  39
ATOM     39  C   UNL     1       7.656   1.630   9.120  1.00  0.00     0.023 A 
ATOM     40  C   UNL     1       8.096   0.351   8.728  1.00  0.00     0.031 A 
ATOM     41  C   UNL     1       7.073   1.761  10.393  1.00  0.00     0.131 A 
ATOM     42  C   UNL     1       7.859  -0.755   9.560  1.00  0.00     0.055 A 
ATOM     43  C   UNL     1       6.920   0.671  11.251  1.00  0.00     0.041 A 
ATOM     44  F   UNL     1       6.603   2.947  10.810  1.00  0.00    -0.206 F 
ATOM     45  C   UNL     1       7.296  -0.601  10.829  1.00  0.00     0.022 A 
BRANCH  42  46
ATOM     46  S   UNL     1       8.128  -2.422   8.890  1.00  0.00     0.124 S 
ATOM     47  O   UNL     1       7.218  -2.430   7.746  1.00  0.00    -0.237 OA
ATOM     48  O   UNL     1       9.551  -2.411   8.574  1.00  0.00    -0.237 OA
ATOM     49  O   UNL     1       7.740  -3.302   9.991  1.00  0.00    -0.744 OA
ENDBRANCH  42  46
ENDBRANCH  25  39
BRANCH  26  50
ATOM     50  C   UNL     1       7.282   9.221   2.414  1.00  0.00     0.023 A 
ATOM     51  C   UNL     1       8.445   9.691   1.781  1.00  0.00     0.031 A 
ATOM     52  C   UNL     1       6.071   9.880   2.124  1.00  0.00     0.131 A 
ATOM     53  C   UNL     1       8.380  10.808   0.931  1.00  0.00     0.055 A 
ATOM     54  C   UNL     1       6.002  10.951   1.232  1.00  0.00     0.041 A 
ATOM     55  F   UNL     1       4.926   9.486   2.704  1.00  0.00    -0.206 F 
ATOM     56  C   UNL     1       7.164  11.431   0.640  1.00  0.00     0.022 A 
BRANCH  53  57
ATOM     57  S   UNL     1       9.925  11.505   0.283  1.00  0.00     0.124 S 
ATOM     58  O   UNL     1      10.667  11.775   1.509  1.00  0.00    -0.237 OA
ATOM     59  O   UNL     1      10.427  10.413  -0.544  1.00  0.00    -0.237 OA
ATOM     60  O   UNL     1       9.484  12.688  -0.453  1.00  0.00    -0.744 OA
ENDBRANCH  53  57
ENDBRANCH  26  50
BRANCH  38  61
ATOM     61  C   UNL     1      10.567   8.262   8.500  1.00  0.00     0.023 A 
ATOM     62  C   UNL     1      10.181   9.490   9.062  1.00  0.00     0.031 A 
ATOM     63  C   UNL     1      11.905   7.855   8.640  1.00  0.00     0.131 A 
ATOM     64  C   UNL     1      11.141  10.303   9.679  1.00  0.00     0.055 A 
ATOM     65  C   UNL     1      12.840   8.637   9.317  1.00  0.00     0.041 A 
ATOM     66  F   UNL     1      12.324   6.690   8.121  1.00  0.00    -0.206 F 
ATOM     67  C   UNL     1      12.463   9.876   9.827  1.00  0.00     0.022 A 
BRANCH  64  68
ATOM     68  S   UNL     1      10.662  11.977  10.186  1.00  0.00     0.124 S 
ATOM     69  O   UNL     1      10.182  12.548   8.932  1.00  0.00    -0.237 OA
ATOM     70  O   UNL     1       9.644  11.717  11.199  1.00  0.00    -0.237 OA
ATOM     71  O   UNL     1      11.908  12.550  10.692  1.00  0.00    -0.744 OA
ENDBRANCH  64  68
ENDBRANCH  38  61
ENDBRANCH  12  13
ENDBRANCH   5   7
ENDBRANCH   4   5
ENDBRANCH   3   4
ENDBRANCH   2   3
ENDBRANCH   1   2
BRANCH   1  72
ATOM     72  C   UNL     1       2.751   0.981  -1.904  1.00  0.00     0.202 C 
BRANCH  72  73
ATOM     73  C   UNL     1       2.839   1.815  -3.185  1.00  0.00     0.261 C 
BRANCH  73  74
ATOM     74  O   UNL     1       3.439   1.011  -4.212  1.00  0.00    -0.460 OA
BRANCH  74  75
ATOM     75  C   UNL     1       4.796   1.059  -4.245  1.00  0.00     0.338 C 
ATOM     76  O   UNL     1       5.527   1.920  -3.791  1.00  0.00    -0.246 OA
BRANCH  75  77
ATOM     77  C   UNL     1       5.265  -0.242  -4.754  1.00  0.00     0.062 A 
ATOM     78  C   UNL     1       6.295  -0.899  -4.078  1.00  0.00     0.016 A 
ATOM     79  C   UNL     1       4.643  -0.839  -5.852  1.00  0.00     0.041 A 
ATOM     80  C   UNL     1       6.634  -2.196  -4.445  1.00  0.00     0.003 A 
ATOM     81  C   UNL     1       5.052  -2.099  -6.299  1.00  0.00     0.041 A 
ATOM     82  C   UNL     1       6.003  -2.796  -5.539  1.00  0.00     0.026 A 
BRANCH  81  83
ATOM     83  N   UNL     1       4.489  -2.589  -7.492  1.00  0.00    -0.332 N 
ATOM     84  H   UNL     1       3.771  -2.055  -7.902  1.00  0.00     0.169 HD
BRANCH  83  85
ATOM     85  C   UNL     1       4.846  -3.727  -8.123  1.00  0.00     0.187 A 
ATOM     86  N   UNL     1       4.918  -4.925  -7.590  1.00  0.00    -0.220 NA
ATOM     87  S   UNL     1       5.252  -3.659  -9.802  1.00  0.00    -0.105 S 
ATOM     88  C   UNL     1       5.288  -5.850  -8.542  1.00  0.00     0.086 A 
ATOM     89  C   UNL     1       5.604  -5.333  -9.781  1.00  0.00     0.097 A 
BRANCH  88  90
ATOM     90  C   UNL     1       5.288  -7.266  -8.252  1.00  0.00     0.037 A 
ATOM     91  C   UNL     1       6.464  -8.022  -8.335  1.00  0.00     0.016 A 
ATOM     92  C   UNL     1       4.087  -7.899  -7.905  1.00  0.00     0.135 A 
ATOM     93  C   UNL     1       6.423  -9.396  -8.081  1.00  0.00     0.040 A 
ATOM     94  C   UNL     1       4.043  -9.265  -7.653  1.00  0.00     0.079 A 
ATOM     95  F   UNL     1       2.939  -7.206  -7.850  1.00  0.00    -0.206 F 
ATOM     96  C   UNL     1       5.214 -10.002  -7.747  1.00  0.00     0.126 A 
ATOM     97  F   UNL     1       5.180 -11.321  -7.522  1.00  0.00    -0.207 F 
ENDBRANCH  88  90
ENDBRANCH  83  85
ENDBRANCH  81  83
ENDBRANCH  75  77
ENDBRANCH  74  75
ENDBRANCH  73  74
ENDBRANCH  72  73
ENDBRANCH   1  72
TORSDOF 20
