REMARK SMILES Cc1cc([N+](=O)[O-])ccc1NC(=O)[C@@H]1[C@@H](C(=O)OCCOCCOC(=O)c2ccc(-c3c4nc(c(-c5cc(S(=O)(=O)[O-])ccc5F)c5ccc([nH]5)c(-c5cc(S(=O)(=O)[O-])ccc5F)c5nc(c(-c6cc(S(=O)(=O)[O-])ccc6F)c6ccc3[nH]6)C=C5)C=C4)cc2)[C@H]2C=C[C@@H]1C2
REMARK SMILES IDX 21 1 20 2 19 3 18 4 16 5 17 6 15 7 14 8 93 9 90 10 92 11
REMARK SMILES IDX 94 12 91 13 12 14 11 15 13 17 10 18 1 19 2 20 3 21 4 22 9 23
REMARK SMILES IDX 8 24 5 25 6 26 7 27 22 28 23 29 24 30 25 31 26 32 27 33
REMARK SMILES IDX 28 34 89 35 29 36 88 37 30 38 31 39 32 40 82 41 33 42 87 43
REMARK SMILES IDX 81 44 83 45 34 46 86 47 80 48 79 49 35 51 67 52 47 53 66 54
REMARK SMILES IDX 48 55 51 56 65 57 84 58 49 59 50 60 64 62 85 63 52 64 36 65
REMARK SMILES IDX 37 66 45 67 38 68 44 69 46 70 43 71 39 72 40 73 41 74 42 75
REMARK SMILES IDX 68 76 69 77 77 78 70 79 76 80 78 81 75 82 71 83 72 84 73 85
REMARK SMILES IDX 74 86 53 87 54 88 62 89 55 90 61 91 63 92 60 93 56 94 57 95
REMARK SMILES IDX 58 96 59 97
REMARK H PARENT 11 16 83 50 51 61
REMARK Flexibility Score: inf
ROOT
ATOM      1  O   UNL     1      -0.640   7.262  -2.547  1.00  0.00    -0.374 OA
ENDROOT
BRANCH   1   2
ATOM      2  C   UNL     1      -1.204   8.151  -1.579  1.00  0.00     0.202 C 
BRANCH   2   3
ATOM      3  C   UNL     1      -2.418   7.459  -1.006  1.00  0.00     0.261 C 
BRANCH   3   4
ATOM      4  O   UNL     1      -2.073   6.598   0.092  1.00  0.00    -0.463 OA
BRANCH   4   5
ATOM      5  C   UNL     1      -1.776   5.303  -0.207  1.00  0.00     0.310 C 
ATOM      6  O   UNL     1      -1.956   4.762  -1.274  1.00  0.00    -0.252 OA
BRANCH   5   7
ATOM      7  C   UNL     1      -1.022   4.698   0.952  1.00  0.00     0.119 C 
ATOM      8  C   UNL     1      -0.587   3.245   0.634  1.00  0.00     0.100 C 
ATOM      9  C   UNL     1      -0.754   2.544   2.007  1.00  0.00     0.025 C 
ATOM     10  C   UNL     1      -1.757   4.532   2.302  1.00  0.00     0.027 C 
ATOM     11  C   UNL     1      -2.230   2.265   2.131  1.00  0.00    -0.027 C 
ATOM     12  C   UNL     1      -0.682   3.702   3.019  1.00  0.00     0.017 C 
ATOM     13  C   UNL     1      -2.827   3.457   2.282  1.00  0.00    -0.027 C 
BRANCH   8  14
ATOM     14  C   UNL     1       0.801   3.120   0.042  1.00  0.00     0.228 C 
ATOM     15  N   UNL     1       1.234   1.914  -0.454  1.00  0.00    -0.326 N 
ATOM     16  H   UNL     1       2.139   1.924  -0.842  1.00  0.00     0.169 HD
ATOM     17  O   UNL     1       1.609   4.052   0.054  1.00  0.00    -0.274 OA
BRANCH  15  18
ATOM     18  C   UNL     1       0.583   0.667  -0.491  1.00  0.00     0.044 A 
ATOM     19  C   UNL     1       2.788  -0.483   0.141  1.00  0.00     0.047 C 
ATOM     20  C   UNL     1       1.306  -0.482  -0.118  1.00  0.00    -0.021 A 
ATOM     21  C   UNL     1       0.613  -1.694   0.047  1.00  0.00     0.091 A 
ATOM     22  C   UNL     1      -0.770  -1.753  -0.163  1.00  0.00     0.269 A 
ATOM     23  C   UNL     1      -0.770   0.542  -0.849  1.00  0.00     0.033 A 
ATOM     24  C   UNL     1      -1.464  -0.654  -0.655  1.00  0.00     0.088 A 
BRANCH  22  25
ATOM     25  N   UNL     1      -1.496  -2.955   0.241  1.00  0.00     0.062 N 
ATOM     26  O   UNL     1      -0.897  -4.036   0.132  1.00  0.00    -0.258 OA
ATOM     27  O   UNL     1      -2.593  -2.786   0.787  1.00  0.00    -0.258 OA
ENDBRANCH  22  25
ENDBRANCH  15  18
ENDBRANCH   8  14
ENDBRANCH   5   7
ENDBRANCH   4   5
ENDBRANCH   3   4
ENDBRANCH   2   3
ENDBRANCH   1   2
BRANCH   1  28
ATOM     28  C   UNL     1       0.475   7.779  -3.256  1.00  0.00     0.202 C 
BRANCH  28  29
ATOM     29  C   UNL     1       0.140   8.975  -4.161  1.00  0.00     0.261 C 
BRANCH  29  30
ATOM     30  O   UNL     1      -0.820   8.575  -5.155  1.00  0.00    -0.460 OA
BRANCH  30  31
ATOM     31  C   UNL     1      -2.055   9.126  -5.012  1.00  0.00     0.338 C 
ATOM     32  O   UNL     1      -2.290  10.323  -4.985  1.00  0.00    -0.246 OA
BRANCH  31  33
ATOM     33  C   UNL     1      -3.054   8.053  -4.763  1.00  0.00     0.060 A 
ATOM     34  C   UNL     1      -4.316   8.377  -4.233  1.00  0.00     0.016 A 
ATOM     35  C   UNL     1      -2.658   6.718  -4.855  1.00  0.00     0.016 A 
ATOM     36  C   UNL     1      -5.130   7.370  -3.696  1.00  0.00     0.010 A 
ATOM     37  C   UNL     1      -3.436   5.738  -4.274  1.00  0.00     0.010 A 
ATOM     38  C   UNL     1      -4.661   6.056  -3.669  1.00  0.00    -0.014 A 
BRANCH  38  39
ATOM     39  C   UNL     1      -5.272   4.952  -2.925  1.00  0.00     0.031 A 
ATOM     40  C   UNL     1      -5.738   3.743  -3.641  1.00  0.00     0.074 A 
ATOM     41  C   UNL     1      -5.186   4.920  -1.576  1.00  0.00     0.049 A 
ATOM     42  N   UNL     1      -6.420   2.793  -3.101  1.00  0.00    -0.248 NA
ATOM     43  C   UNL     1      -5.514   3.522  -5.065  1.00  0.00     0.031 C 
ATOM     44  C   UNL     1      -5.338   3.766  -0.697  1.00  0.00     0.029 A 
ATOM     45  N   UNL     1      -5.073   5.997  -0.693  1.00  0.00    -0.354 N 
ATOM     46  C   UNL     1      -6.406   1.715  -3.952  1.00  0.00     0.074 A 
ATOM     47  C   UNL     1      -5.962   2.271  -5.205  1.00  0.00     0.031 C 
ATOM     48  C   UNL     1      -5.628   4.196   0.538  1.00  0.00     0.029 A 
ATOM     49  C   UNL     1      -5.747   5.641   0.480  1.00  0.00     0.049 A 
ATOM     50  H   UNL     1      -4.606   6.846  -0.864  1.00  0.00     0.167 HD
ATOM     51  C   UNL     1      -6.635   0.473  -3.427  1.00  0.00     0.034 A 
ATOM     52  C   UNL     1      -6.777   6.386   0.954  1.00  0.00     0.034 A 
ATOM     53  C   UNL     1      -7.140   0.584  -2.038  1.00  0.00     0.049 A 
ATOM     54  C   UNL     1      -8.008   5.523   0.953  1.00  0.00     0.074 A 
ATOM     55  C   UNL     1      -6.635   0.236  -0.795  1.00  0.00     0.029 A 
ATOM     56  N   UNL     1      -8.255   1.398  -1.776  1.00  0.00    -0.354 N 
ATOM     57  N   UNL     1      -8.160   4.504   0.143  1.00  0.00    -0.248 NA
ATOM     58  C   UNL     1      -9.057   5.612   1.959  1.00  0.00     0.031 C 
ATOM     59  C   UNL     1      -7.381   0.942   0.198  1.00  0.00     0.029 A 
ATOM     60  C   UNL     1      -8.373   1.686  -0.428  1.00  0.00     0.049 A 
ATOM     61  H   UNL     1      -8.877   1.723  -2.467  1.00  0.00     0.167 HD
ATOM     62  C   UNL     1      -9.190   3.732   0.589  1.00  0.00     0.074 A 
ATOM     63  C   UNL     1      -9.761   4.497   1.693  1.00  0.00     0.031 C 
ATOM     64  C   UNL     1      -9.478   2.490   0.097  1.00  0.00     0.034 A 
BRANCH  51  65
ATOM     65  C   UNL     1      -6.177  -0.847  -4.066  1.00  0.00     0.023 A 
ATOM     66  C   UNL     1      -6.168  -2.036  -3.297  1.00  0.00     0.031 A 
ATOM     67  C   UNL     1      -5.663  -1.010  -5.375  1.00  0.00     0.131 A 
ATOM     68  C   UNL     1      -5.637  -3.250  -3.802  1.00  0.00     0.055 A 
ATOM     69  C   UNL     1      -5.138  -2.211  -5.874  1.00  0.00     0.041 A 
ATOM     70  F   UNL     1      -5.639  -0.028  -6.275  1.00  0.00    -0.206 F 
ATOM     71  C   UNL     1      -5.115  -3.340  -5.087  1.00  0.00     0.022 A 
BRANCH  68  72
ATOM     72  S   UNL     1      -5.610  -4.738  -2.763  1.00  0.00     0.124 S 
ATOM     73  O   UNL     1      -4.590  -4.388  -1.781  1.00  0.00    -0.237 OA
ATOM     74  O   UNL     1      -6.985  -4.813  -2.283  1.00  0.00    -0.237 OA
ATOM     75  O   UNL     1      -5.229  -5.797  -3.698  1.00  0.00    -0.744 OA
ENDBRANCH  68  72
ENDBRANCH  51  65
BRANCH  52  76
ATOM     76  C   UNL     1      -6.605   7.848   0.707  1.00  0.00     0.023 A 
ATOM     77  C   UNL     1      -5.502   8.476   1.346  1.00  0.00     0.031 A 
ATOM     78  C   UNL     1      -7.169   8.506  -0.394  1.00  0.00     0.131 A 
ATOM     79  C   UNL     1      -4.926   9.644   0.816  1.00  0.00     0.055 A 
ATOM     80  C   UNL     1      -6.608   9.689  -0.904  1.00  0.00     0.041 A 
ATOM     81  F   UNL     1      -8.188   7.957  -1.069  1.00  0.00    -0.206 F 
ATOM     82  C   UNL     1      -5.463  10.242  -0.325  1.00  0.00     0.022 A 
BRANCH  79  83
ATOM     83  S   UNL     1      -3.303  10.223   1.426  1.00  0.00     0.124 S 
ATOM     84  O   UNL     1      -3.673  11.359   2.261  1.00  0.00    -0.237 OA
ATOM     85  O   UNL     1      -2.772   9.062   2.134  1.00  0.00    -0.237 OA
ATOM     86  O   UNL     1      -2.590  10.553   0.191  1.00  0.00    -0.744 OA
ENDBRANCH  79  83
ENDBRANCH  52  76
BRANCH  64  87
ATOM     87  C   UNL     1     -10.855   1.894   0.214  1.00  0.00     0.023 A 
ATOM     88  C   UNL     1     -11.977   2.688   0.498  1.00  0.00     0.031 A 
ATOM     89  C   UNL     1     -11.116   0.542  -0.090  1.00  0.00     0.131 A 
ATOM     90  C   UNL     1     -13.258   2.133   0.594  1.00  0.00     0.055 A 
ATOM     91  C   UNL     1     -12.407   0.009  -0.090  1.00  0.00     0.041 A 
ATOM     92  F   UNL     1     -10.135  -0.309  -0.427  1.00  0.00    -0.206 F 
ATOM     93  C   UNL     1     -13.488   0.800   0.275  1.00  0.00     0.022 A 
BRANCH  90  94
ATOM     94  S   UNL     1     -14.585   3.192   1.217  1.00  0.00     0.124 S 
ATOM     95  O   UNL     1     -14.132   3.463   2.579  1.00  0.00    -0.237 OA
ATOM     96  O   UNL     1     -14.543   4.327   0.300  1.00  0.00    -0.237 OA
ATOM     97  O   UNL     1     -15.773   2.349   1.112  1.00  0.00    -0.744 OA
ENDBRANCH  90  94
ENDBRANCH  64  87
ENDBRANCH  38  39
ENDBRANCH  31  33
ENDBRANCH  30  31
ENDBRANCH  29  30
ENDBRANCH  28  29
ENDBRANCH   1  28
TORSDOF 20
