REMARK SMILES CS(=O)(=O)c1ccc(/C=C(/C(=O)OCCOCCOC(=O)c2ccc(-c3c4nc(c(-c5cc(S(=O)(=O)[O-])ccc5F)c5ccc([nH]5)c(-c5cc(S(=O)(=O)[O-])ccc5F)c5nc(c(-c6cc(S(=O)(=O)[O-])ccc6F)c6ccc3[nH]6)C=C5)C=C4)cc2)c2ccc(O)cc2)cc1
REMARK SMILES IDX 17 1 16 2 15 3 14 4 13 5 11 6 12 7 10 8 9 9 8 10 5 11 6 12
REMARK SMILES IDX 93 13 7 14 92 15 2 16 1 17 3 18 4 19 85 20 86 21 91 22 87 23
REMARK SMILES IDX 90 24 88 25 89 26 18 28 19 29 20 30 21 31 22 32 23 33 84 34
REMARK SMILES IDX 24 35 83 36 25 37 26 38 27 39 77 40 28 41 82 42 76 43 78 44
REMARK SMILES IDX 29 45 81 46 75 47 74 48 30 50 62 51 42 52 61 53 43 54 46 55
REMARK SMILES IDX 60 56 79 57 44 58 45 59 59 61 80 62 47 63 31 64 32 65 40 66
REMARK SMILES IDX 33 67 39 68 41 69 38 70 34 71 35 72 36 73 37 74 63 75 64 76
REMARK SMILES IDX 72 77 65 78 71 79 73 80 70 81 66 82 67 83 68 84 69 85 48 86
REMARK SMILES IDX 49 87 57 88 50 89 56 90 58 91 55 92 51 93 52 94 53 95 54 96
REMARK H PARENT 89 27 78 49 46 60
REMARK Flexibility Score: inf
ROOT
ATOM      1  C   UNL     1       0.327  -9.968   3.998  1.00  0.00     0.202 C 
ENDROOT
BRANCH   1   2
ATOM      2  O   UNL     1       1.285 -11.021   3.968  1.00  0.00    -0.374 OA
BRANCH   2   3
ATOM      3  C   UNL     1       2.572 -10.762   4.527  1.00  0.00     0.202 C 
BRANCH   3   4
ATOM      4  C   UNL     1       3.514  -9.836   3.749  1.00  0.00     0.261 C 
BRANCH   4   5
ATOM      5  O   UNL     1       2.960  -8.517   3.587  1.00  0.00    -0.460 OA
BRANCH   5   6
ATOM      6  C   UNL     1       2.745  -8.146   2.299  1.00  0.00     0.338 C 
ATOM      7  O   UNL     1       3.116  -8.761   1.308  1.00  0.00    -0.246 OA
BRANCH   6   8
ATOM      8  C   UNL     1       1.873  -6.930   2.197  1.00  0.00     0.067 C 
ATOM      9  C   UNL     1       2.007  -5.908   3.076  1.00  0.00     0.024 C 
BRANCH   9  10
ATOM     10  C   UNL     1       1.430  -4.540   2.986  1.00  0.00    -0.025 A 
ATOM     11  C   UNL     1       0.700  -1.875   2.460  1.00  0.00     0.067 A 
ATOM     12  C   UNL     1      -0.137  -2.913   2.062  1.00  0.00     0.021 A 
ATOM     13  C   UNL     1       1.829  -2.140   3.235  1.00  0.00     0.021 A 
ATOM     14  C   UNL     1       0.214  -4.232   2.359  1.00  0.00     0.009 A 
ATOM     15  C   UNL     1       2.190  -3.470   3.490  1.00  0.00     0.009 A 
BRANCH  11  16
ATOM     16  S   UNL     1       0.325  -0.218   1.947  1.00  0.00     0.175 S 
ATOM     17  C   UNL     1       1.019  -0.139   0.313  1.00  0.00     0.163 C 
ATOM     18  O   UNL     1       1.070   0.695   2.792  1.00  0.00    -0.224 OA
ATOM     19  O   UNL     1      -1.117  -0.113   1.823  1.00  0.00    -0.224 OA
ENDBRANCH  11  16
ENDBRANCH   9  10
BRANCH   8  20
ATOM     20  C   UNL     1       0.951  -6.898   1.044  1.00  0.00    -0.011 A 
ATOM     21  C   UNL     1      -0.286  -7.559   1.131  1.00  0.00     0.013 A 
ATOM     22  C   UNL     1       1.259  -6.168  -0.109  1.00  0.00     0.013 A 
ATOM     23  C   UNL     1      -1.218  -7.456   0.100  1.00  0.00     0.047 A 
ATOM     24  C   UNL     1       0.321  -6.057  -1.138  1.00  0.00     0.047 A 
ATOM     25  C   UNL     1      -0.913  -6.692  -1.017  1.00  0.00     0.115 A 
BRANCH  25  26
ATOM     26  O   UNL     1      -1.872  -6.572  -1.979  1.00  0.00    -0.508 OA
ATOM     27  H   UNL     1      -2.695  -7.008  -1.877  1.00  0.00     0.293 HD
ENDBRANCH  25  26
ENDBRANCH   8  20
ENDBRANCH   6   8
ENDBRANCH   5   6
ENDBRANCH   4   5
ENDBRANCH   3   4
ENDBRANCH   2   3
ENDBRANCH   1   2
BRANCH   1  28
ATOM     28  C   UNL     1      -0.369  -9.637   5.324  1.00  0.00     0.261 C 
BRANCH  28  29
ATOM     29  O   UNL     1       0.542  -9.343   6.390  1.00  0.00    -0.460 OA
BRANCH  29  30
ATOM     30  C   UNL     1       0.695 -10.356   7.278  1.00  0.00     0.338 C 
ATOM     31  O   UNL     1       0.100 -11.427   7.280  1.00  0.00    -0.246 OA
BRANCH  30  32
ATOM     32  C   UNL     1       1.840 -10.078   8.159  1.00  0.00     0.060 A 
ATOM     33  C   UNL     1       2.843 -11.053   8.241  1.00  0.00     0.016 A 
ATOM     34  C   UNL     1       1.911  -8.915   8.928  1.00  0.00     0.016 A 
ATOM     35  C   UNL     1       3.901 -10.889   9.129  1.00  0.00     0.010 A 
ATOM     36  C   UNL     1       2.971  -8.758   9.827  1.00  0.00     0.010 A 
ATOM     37  C   UNL     1       3.951  -9.759   9.954  1.00  0.00    -0.014 A 
BRANCH  37  38
ATOM     38  C   UNL     1       4.942  -9.706  11.056  1.00  0.00     0.031 A 
ATOM     39  C   UNL     1       4.491 -10.029  12.453  1.00  0.00     0.074 A 
ATOM     40  C   UNL     1       6.230  -9.409  10.806  1.00  0.00     0.049 A 
ATOM     41  N   UNL     1       5.168 -10.008  13.571  1.00  0.00    -0.248 NA
ATOM     42  C   UNL     1       3.082 -10.421  12.607  1.00  0.00     0.031 C 
ATOM     43  C   UNL     1       6.787  -9.127   9.484  1.00  0.00     0.029 A 
ATOM     44  N   UNL     1       7.300  -9.291  11.655  1.00  0.00    -0.354 N 
ATOM     45  C   UNL     1       4.267 -10.377  14.565  1.00  0.00     0.074 A 
ATOM     46  C   UNL     1       2.987 -10.575  13.919  1.00  0.00     0.031 C 
ATOM     47  C   UNL     1       8.098  -8.860   9.613  1.00  0.00     0.029 A 
ATOM     48  C   UNL     1       8.462  -8.910  11.027  1.00  0.00     0.049 A 
ATOM     49  H   UNL     1       7.242  -9.462  12.623  1.00  0.00     0.167 HD
ATOM     50  C   UNL     1       4.492 -10.544  15.892  1.00  0.00     0.034 A 
ATOM     51  C   UNL     1       9.672  -8.609  11.540  1.00  0.00     0.034 A 
ATOM     52  C   UNL     1       5.776 -10.331  16.517  1.00  0.00     0.049 A 
ATOM     53  C   UNL     1       9.879  -8.715  13.032  1.00  0.00     0.074 A 
ATOM     54  C   UNL     1       6.124 -10.489  17.847  1.00  0.00     0.029 A 
ATOM     55  N   UNL     1       6.920  -9.898  15.857  1.00  0.00    -0.354 N 
ATOM     56  N   UNL     1       9.024  -9.075  13.963  1.00  0.00    -0.248 NA
ATOM     57  C   UNL     1      11.215  -8.382  13.541  1.00  0.00     0.031 C 
ATOM     58  C   UNL     1       7.450 -10.072  18.005  1.00  0.00     0.029 A 
ATOM     59  C   UNL     1       7.962  -9.743  16.760  1.00  0.00     0.049 A 
ATOM     60  H   UNL     1       6.983  -9.726  14.890  1.00  0.00     0.167 HD
ATOM     61  C   UNL     1       9.731  -9.043  15.163  1.00  0.00     0.074 A 
ATOM     62  C   UNL     1      11.083  -8.641  14.834  1.00  0.00     0.031 C 
ATOM     63  C   UNL     1       9.304  -9.327  16.421  1.00  0.00     0.034 A 
BRANCH  50  64
ATOM     64  C   UNL     1       3.310 -10.918  16.755  1.00  0.00     0.023 A 
ATOM     65  C   UNL     1       2.613 -12.127  16.581  1.00  0.00     0.031 A 
ATOM     66  C   UNL     1       2.849 -10.031  17.745  1.00  0.00     0.131 A 
ATOM     67  C   UNL     1       1.452 -12.380  17.328  1.00  0.00     0.055 A 
ATOM     68  C   UNL     1       1.743 -10.328  18.544  1.00  0.00     0.041 A 
ATOM     69  F   UNL     1       3.456  -8.851  17.942  1.00  0.00    -0.206 F 
ATOM     70  C   UNL     1       1.027 -11.501  18.326  1.00  0.00     0.022 A 
BRANCH  67  71
ATOM     71  S   UNL     1       0.415 -13.796  16.866  1.00  0.00     0.124 S 
ATOM     72  O   UNL     1       0.119 -13.500  15.466  1.00  0.00    -0.237 OA
ATOM     73  O   UNL     1       1.303 -14.927  17.107  1.00  0.00    -0.237 OA
ATOM     74  O   UNL     1      -0.728 -13.694  17.771  1.00  0.00    -0.744 OA
ENDBRANCH  67  71
ENDBRANCH  50  64
BRANCH  51  75
ATOM     75  C   UNL     1      10.771  -8.138  10.649  1.00  0.00     0.023 A 
ATOM     76  C   UNL     1      11.959  -8.872  10.505  1.00  0.00     0.031 A 
ATOM     77  C   UNL     1      10.665  -6.916   9.960  1.00  0.00     0.131 A 
ATOM     78  C   UNL     1      13.008  -8.358   9.726  1.00  0.00     0.055 A 
ATOM     79  C   UNL     1      11.689  -6.436   9.143  1.00  0.00     0.041 A 
ATOM     80  F   UNL     1       9.552  -6.172  10.064  1.00  0.00    -0.206 F 
ATOM     81  C   UNL     1      12.875  -7.153   9.032  1.00  0.00     0.022 A 
BRANCH  78  82
ATOM     82  S   UNL     1      14.587  -9.251   9.697  1.00  0.00     0.124 S 
ATOM     83  O   UNL     1      14.948  -9.259  11.110  1.00  0.00    -0.237 OA
ATOM     84  O   UNL     1      14.198 -10.536   9.126  1.00  0.00    -0.237 OA
ATOM     85  O   UNL     1      15.431  -8.421   8.841  1.00  0.00    -0.744 OA
ENDBRANCH  78  82
ENDBRANCH  51  75
BRANCH  63  86
ATOM     86  C   UNL     1      10.329  -9.257  17.529  1.00  0.00     0.023 A 
ATOM     87  C   UNL     1      10.934  -8.046  17.909  1.00  0.00     0.031 A 
ATOM     88  C   UNL     1      10.712 -10.428  18.210  1.00  0.00     0.131 A 
ATOM     89  C   UNL     1      11.928  -8.042  18.899  1.00  0.00     0.055 A 
ATOM     90  C   UNL     1      11.652 -10.406  19.241  1.00  0.00     0.041 A 
ATOM     91  F   UNL     1      10.172 -11.614  17.888  1.00  0.00    -0.206 F 
ATOM     92  C   UNL     1      12.277  -9.210  19.581  1.00  0.00     0.022 A 
BRANCH  89  93
ATOM     93  S   UNL     1      12.836  -6.503  19.216  1.00  0.00     0.124 S 
ATOM     94  O   UNL     1      13.394  -6.205  17.901  1.00  0.00    -0.237 OA
ATOM     95  O   UNL     1      11.781  -5.608  19.679  1.00  0.00    -0.237 OA
ATOM     96  O   UNL     1      13.815  -6.885  20.233  1.00  0.00    -0.744 OA
ENDBRANCH  89  93
ENDBRANCH  63  86
ENDBRANCH  37  38
ENDBRANCH  30  32
ENDBRANCH  29  30
ENDBRANCH  28  29
ENDBRANCH   1  28
TORSDOF 21
