REMARK SMILES Cc1c(Cl)cccc1NC(=O)NCc1cn([C@@H]2C[NH2+][C@H](C(=O)OCCOCCOC(=O)c3ccc(-c4c5nc(c(-c6cc(S(=O)(=O)[O-])ccc6F)c6ccc([nH]6)c(-c6cc(S(=O)(=O)[O-])ccc6F)c6nc(c(-c7cc(S(=O)(=O)[O-])ccc7F)c7ccc4[nH]7)C=C6)C=C5)cc3)C2)nn1
REMARK SMILES IDX 25 1 24 2 23 3 21 4 22 5 20 6 17 7 18 8 95 9 19 10 16 13
REMARK SMILES IDX 14 14 15 15 97 16 96 17 13 18 12 19 9 20 10 21 11 23 8 25
REMARK SMILES IDX 1 26 2 27 3 28 4 29 5 30 7 31 6 32 26 33 27 34 28 35 29 36
REMARK SMILES IDX 30 37 31 38 32 39 33 40 94 41 34 42 93 43 35 44 36 45 37 46
REMARK SMILES IDX 87 47 38 48 92 49 86 50 88 51 39 52 91 53 85 54 84 55 40 57
REMARK SMILES IDX 72 58 52 59 71 60 53 61 56 62 70 63 89 64 54 65 55 66 69 68
REMARK SMILES IDX 90 69 57 70 41 71 42 72 50 73 43 74 49 75 51 76 48 77 44 78
REMARK SMILES IDX 45 79 46 80 47 81 73 82 74 83 82 84 75 85 81 86 83 87 80 88
REMARK SMILES IDX 76 89 77 90 78 91 79 92 58 93 59 94 67 95 60 96 66 97 68 98
REMARK SMILES IDX 65 99 61 100 62 101 63 102 64 103
REMARK H PARENT 19 11 19 12 9 22 12 24 88 56 56 67
REMARK Flexibility Score: inf
ROOT
ATOM      1  C   UNL     1      -3.766  -8.825  -0.485  1.00  0.00     0.202 C 
ENDROOT
BRANCH   1   2
ATOM      2  C   UNL     1      -3.643  -7.302  -0.474  1.00  0.00     0.261 C 
BRANCH   2   3
ATOM      3  O   UNL     1      -3.626  -6.779   0.862  1.00  0.00    -0.459 OA
BRANCH   3   4
ATOM      4  C   UNL     1      -4.653  -5.945   1.185  1.00  0.00     0.365 C 
ATOM      5  O   UNL     1      -5.478  -5.519   0.383  1.00  0.00    -0.245 OA
BRANCH   4   6
ATOM      6  C   UNL     1      -4.756  -5.724   2.708  1.00  0.00     0.295 C 
ATOM      7  C   UNL     1      -4.663  -3.446   3.569  1.00  0.00     0.170 C 
ATOM      8  C   UNL     1      -3.268  -4.033   3.351  1.00  0.00     0.289 C 
ATOM      9  C   UNL     1      -5.625  -4.514   3.046  1.00  0.00     0.110 C 
ATOM     10  N   UNL     1      -3.442  -5.487   3.344  1.00  0.00    -0.333 N 
ATOM     11  H   UNL     1      -3.436  -5.852   4.297  1.00  0.00     0.347 HD
ATOM     12  H   UNL     1      -2.687  -5.957   2.843  1.00  0.00     0.347 HD
BRANCH   7  13
ATOM     13  N   UNL     1      -4.831  -2.178   2.898  1.00  0.00    -0.243 N 
ATOM     14  C   UNL     1      -4.894  -0.595   1.433  1.00  0.00     0.102 A 
ATOM     15  C   UNL     1      -4.659  -1.941   1.574  1.00  0.00     0.137 A 
ATOM     16  N   UNL     1      -5.267  -0.078   2.645  1.00  0.00    -0.134 NA
ATOM     17  N   UNL     1      -5.229  -1.066   3.541  1.00  0.00    -0.067 NA
BRANCH  14  18
ATOM     18  C   UNL     1      -4.801   0.132   0.155  1.00  0.00     0.178 C 
BRANCH  18  19
ATOM     19  N   UNL     1      -4.530   1.535   0.251  1.00  0.00    -0.332 N 
ATOM     20  N   UNL     1      -2.278   2.050  -0.441  1.00  0.00    -0.308 N 
ATOM     21  C   UNL     1      -3.556   2.346  -0.152  1.00  0.00     0.319 C 
ATOM     22  H   UNL     1      -1.794   2.857  -0.731  1.00  0.00     0.171 HD
ATOM     23  O   UNL     1      -3.842   3.553  -0.182  1.00  0.00    -0.248 OA
ATOM     24  H   UNL     1      -5.239   2.018   0.734  1.00  0.00     0.165 HD
BRANCH  20  25
ATOM     25  C   UNL     1      -1.422   0.930  -0.451  1.00  0.00     0.047 A 
ATOM     26  C   UNL     1       0.581   2.410   0.194  1.00  0.00     0.048 C 
ATOM     27  C   UNL     1      -0.076   1.069  -0.030  1.00  0.00    -0.009 A 
ATOM     28  C   UNL     1       0.712  -0.099   0.117  1.00  0.00     0.046 A 
ATOM     29  Cl  UNL     1       2.364  -0.031   0.634  1.00  0.00    -0.084 Cl
ATOM     30  C   UNL     1       0.199  -1.361  -0.173  1.00  0.00     0.021 A 
ATOM     31  C   UNL     1      -1.816  -0.311  -0.948  1.00  0.00     0.026 A 
ATOM     32  C   UNL     1      -1.055  -1.464  -0.750  1.00  0.00     0.004 A 
ENDBRANCH  20  25
ENDBRANCH  18  19
ENDBRANCH  14  18
ENDBRANCH   7  13
ENDBRANCH   4   6
ENDBRANCH   3   4
ENDBRANCH   2   3
ENDBRANCH   1   2
BRANCH   1  33
ATOM     33  O   UNL     1      -4.923  -9.423   0.100  1.00  0.00    -0.374 OA
BRANCH  33  34
ATOM     34  C   UNL     1      -5.189  -9.286   1.493  1.00  0.00     0.202 C 
BRANCH  34  35
ATOM     35  C   UNL     1      -4.272  -9.954   2.510  1.00  0.00     0.261 C 
BRANCH  35  36
ATOM     36  O   UNL     1      -2.924  -9.552   2.351  1.00  0.00    -0.460 OA
BRANCH  36  37
ATOM     37  C   UNL     1      -2.181 -10.431   1.650  1.00  0.00     0.338 C 
ATOM     38  O   UNL     1      -2.596 -11.377   0.977  1.00  0.00    -0.246 OA
BRANCH  37  39
ATOM     39  C   UNL     1      -0.767 -10.171   1.906  1.00  0.00     0.060 A 
ATOM     40  C   UNL     1       0.091 -11.192   1.496  1.00  0.00     0.016 A 
ATOM     41  C   UNL     1      -0.429  -9.251   2.909  1.00  0.00     0.016 A 
ATOM     42  C   UNL     1       1.122 -11.517   2.336  1.00  0.00     0.010 A 
ATOM     43  C   UNL     1       0.585  -9.595   3.762  1.00  0.00     0.010 A 
ATOM     44  C   UNL     1       1.267 -10.784   3.518  1.00  0.00    -0.014 A 
BRANCH  44  45
ATOM     45  C   UNL     1       2.255 -11.231   4.466  1.00  0.00     0.031 A 
ATOM     46  C   UNL     1       3.615 -10.888   4.016  1.00  0.00     0.074 A 
ATOM     47  C   UNL     1       1.928 -11.804   5.637  1.00  0.00     0.049 A 
ATOM     48  N   UNL     1       4.503 -11.699   3.551  1.00  0.00    -0.248 NA
ATOM     49  C   UNL     1       3.928  -9.465   3.800  1.00  0.00     0.031 C 
ATOM     50  C   UNL     1       0.605 -11.972   6.241  1.00  0.00     0.029 A 
ATOM     51  N   UNL     1       2.758 -12.276   6.599  1.00  0.00    -0.354 N 
ATOM     52  C   UNL     1       5.588 -10.900   3.224  1.00  0.00     0.074 A 
ATOM     53  C   UNL     1       5.082  -9.559   3.141  1.00  0.00     0.031 C 
ATOM     54  C   UNL     1       0.755 -12.272   7.554  1.00  0.00     0.029 A 
ATOM     55  C   UNL     1       2.172 -12.422   7.850  1.00  0.00     0.049 A 
ATOM     56  H   UNL     1       3.702 -12.498   6.425  1.00  0.00     0.167 HD
ATOM     57  C   UNL     1       6.856 -11.373   3.336  1.00  0.00     0.034 A 
ATOM     58  C   UNL     1       2.831 -12.551   9.035  1.00  0.00     0.034 A 
ATOM     59  C   UNL     1       6.855 -12.817   3.434  1.00  0.00     0.049 A 
ATOM     60  C   UNL     1       4.206 -13.027   8.703  1.00  0.00     0.074 A 
ATOM     61  C   UNL     1       6.408 -13.832   2.610  1.00  0.00     0.029 A 
ATOM     62  N   UNL     1       6.985 -13.380   4.687  1.00  0.00    -0.354 N 
ATOM     63  N   UNL     1       4.438 -14.204   8.182  1.00  0.00    -0.248 NA
ATOM     64  C   UNL     1       5.236 -12.029   8.433  1.00  0.00     0.031 C 
ATOM     65  C   UNL     1       5.829 -14.792   3.489  1.00  0.00     0.029 A 
ATOM     66  C   UNL     1       6.034 -14.366   4.804  1.00  0.00     0.049 A 
ATOM     67  H   UNL     1       7.641 -13.122   5.374  1.00  0.00     0.167 HD
ATOM     68  C   UNL     1       5.375 -13.982   7.180  1.00  0.00     0.074 A 
ATOM     69  C   UNL     1       5.899 -12.641   7.444  1.00  0.00     0.031 C 
ATOM     70  C   UNL     1       5.416 -14.764   6.058  1.00  0.00     0.034 A 
BRANCH  57  71
ATOM     71  C   UNL     1       8.040 -10.534   3.754  1.00  0.00     0.023 A 
ATOM     72  C   UNL     1       9.273 -11.200   3.852  1.00  0.00     0.031 A 
ATOM     73  C   UNL     1       7.992  -9.241   4.328  1.00  0.00     0.131 A 
ATOM     74  C   UNL     1      10.330 -10.651   4.594  1.00  0.00     0.055 A 
ATOM     75  C   UNL     1       9.072  -8.669   5.004  1.00  0.00     0.041 A 
ATOM     76  F   UNL     1       6.887  -8.489   4.358  1.00  0.00    -0.206 F 
ATOM     77  C   UNL     1      10.238  -9.390   5.174  1.00  0.00     0.022 A 
BRANCH  74  78
ATOM     78  S   UNL     1      11.754 -11.707   4.947  1.00  0.00     0.124 S 
ATOM     79  O   UNL     1      11.111 -12.880   5.529  1.00  0.00    -0.237 OA
ATOM     80  O   UNL     1      12.332 -11.880   3.619  1.00  0.00    -0.237 OA
ATOM     81  O   UNL     1      12.546 -10.904   5.875  1.00  0.00    -0.744 OA
ENDBRANCH  74  78
ENDBRANCH  57  71
BRANCH  58  82
ATOM     82  C   UNL     1       2.441 -11.940  10.344  1.00  0.00     0.023 A 
ATOM     83  C   UNL     1       2.964 -12.355  11.589  1.00  0.00     0.031 A 
ATOM     84  C   UNL     1       1.672 -10.750  10.357  1.00  0.00     0.131 A 
ATOM     85  C   UNL     1       2.700 -11.603  12.765  1.00  0.00     0.055 A 
ATOM     86  C   UNL     1       1.411 -10.019  11.517  1.00  0.00     0.041 A 
ATOM     87  F   UNL     1       1.213 -10.203   9.221  1.00  0.00    -0.206 F 
ATOM     88  C   UNL     1       1.931 -10.439  12.728  1.00  0.00     0.022 A 
BRANCH  85  89
ATOM     89  S   UNL     1       3.428 -12.082  14.370  1.00  0.00     0.124 S 
ATOM     90  O   UNL     1       2.722 -13.320  14.675  1.00  0.00    -0.237 OA
ATOM     91  O   UNL     1       4.846 -12.203  14.049  1.00  0.00    -0.237 OA
ATOM     92  O   UNL     1       3.096 -10.956  15.245  1.00  0.00    -0.744 OA
ENDBRANCH  85  89
ENDBRANCH  58  82
BRANCH  70  93
ATOM     93  C   UNL     1       4.589 -16.037   6.030  1.00  0.00     0.023 A 
ATOM     94  C   UNL     1       3.185 -16.095   6.197  1.00  0.00     0.031 A 
ATOM     95  C   UNL     1       5.249 -17.224   5.668  1.00  0.00     0.131 A 
ATOM     96  C   UNL     1       2.501 -17.313   6.007  1.00  0.00     0.055 A 
ATOM     97  C   UNL     1       4.566 -18.420   5.455  1.00  0.00     0.041 A 
ATOM     98  F   UNL     1       6.577 -17.230   5.466  1.00  0.00    -0.206 F 
ATOM     99  C   UNL     1       3.188 -18.471   5.629  1.00  0.00     0.022 A 
BRANCH  96 100
ATOM    100  S   UNL     1       0.699 -17.419   6.261  1.00  0.00     0.124 S 
ATOM    101  O   UNL     1       0.499 -16.770   7.552  1.00  0.00    -0.237 OA
ATOM    102  O   UNL     1       0.172 -16.708   5.100  1.00  0.00    -0.237 OA
ATOM    103  O   UNL     1       0.439 -18.860   6.258  1.00  0.00    -0.744 OA
ENDBRANCH  96 100
ENDBRANCH  70  93
ENDBRANCH  44  45
ENDBRANCH  37  39
ENDBRANCH  36  37
ENDBRANCH  35  36
ENDBRANCH  34  35
ENDBRANCH  33  34
ENDBRANCH   1  33
TORSDOF 21
