REMARK SMILES C=CCN(CC(=O)OCCOCCOC(=O)c1ccc(-c2c3nc(c(-c4cc(S(=O)(=O)[O-])ccc4F)c4ccc([nH]4)c(-c4cc(S(=O)(=O)[O-])ccc4F)c4nc(c(-c5cc(S(=O)(=O)[O-])ccc5F)c5ccc2[nH]5)C=C4)C=C3)cc1)C(=O)N1CCC(CC)(CC)C1
REMARK SMILES IDX 10 1 9 2 8 3 6 4 7 5 5 6 4 7 3 8 2 9 1 10 80 11 81 12 82 13
REMARK SMILES IDX 83 14 90 15 84 16 85 17 86 18 87 19 88 20 89 21 11 22 12 23
REMARK SMILES IDX 13 24 14 25 15 26 16 27 17 28 18 29 79 30 19 31 78 32 20 33
REMARK SMILES IDX 21 34 22 35 72 36 23 37 77 38 71 39 73 40 24 41 76 42 70 43
REMARK SMILES IDX 69 44 25 46 57 47 37 48 56 49 38 50 41 51 55 52 74 53 39 54
REMARK SMILES IDX 40 55 54 57 75 58 42 59 26 60 27 61 35 62 28 63 34 64 36 65
REMARK SMILES IDX 33 66 29 67 30 68 31 69 32 70 58 71 59 72 67 73 60 74 66 75
REMARK SMILES IDX 68 76 65 77 61 78 62 79 63 80 64 81 43 82 44 83 52 84 45 85
REMARK SMILES IDX 51 86 53 87 50 88 46 89 47 90 48 91 49 92
REMARK H PARENT 73 45 41 56
REMARK Flexibility Score: inf
ROOT
ATOM      1  C   UNL     1      -6.571   2.161   0.524  1.00  0.00     0.202 C 
ENDROOT
BRANCH   1   2
ATOM      2  C   UNL     1      -5.878   2.235  -0.844  1.00  0.00     0.261 C 
BRANCH   2   3
ATOM      3  O   UNL     1      -4.428   2.254  -0.742  1.00  0.00    -0.462 OA
BRANCH   3   4
ATOM      4  C   UNL     1      -3.775   2.919  -1.733  1.00  0.00     0.325 C 
ATOM      5  O   UNL     1      -4.345   3.440  -2.690  1.00  0.00    -0.250 OA
BRANCH   4   6
ATOM      6  C   UNL     1      -2.232   2.902  -1.641  1.00  0.00     0.244 C 
BRANCH   6   7
ATOM      7  N   UNL     1      -1.510   2.544  -0.410  1.00  0.00    -0.310 N 
BRANCH   7   8
ATOM      8  C   UNL     1      -1.241   1.108  -0.251  1.00  0.00     0.149 C 
BRANCH   8   9
ATOM      9  C   UNL     1       0.159   0.780  -0.708  1.00  0.00    -0.013 C 
ATOM     10  C   UNL     1       0.985  -0.036  -0.036  1.00  0.00     0.006 C 
ENDBRANCH   8   9
ENDBRANCH   7   8
BRANCH   7  11
ATOM     11  C   UNL     1      -0.904   3.394   0.510  1.00  0.00     0.320 C 
ATOM     12  O   UNL     1      -0.062   2.953   1.302  1.00  0.00    -0.248 OA
BRANCH  11  13
ATOM     13  N   UNL     1      -1.234   4.735   0.590  1.00  0.00    -0.324 N 
ATOM     14  C   UNL     1      -2.438   5.394   0.168  1.00  0.00     0.122 C 
ATOM     15  C   UNL     1      -0.538   5.574   1.579  1.00  0.00     0.128 C 
ATOM     16  C   UNL     1      -2.304   6.851   0.518  1.00  0.00     0.030 C 
ATOM     17  C   UNL     1      -1.311   6.921   1.691  1.00  0.00    -0.011 C 
BRANCH  17  18
ATOM     18  C   UNL     1      -0.371   8.136   1.439  1.00  0.00     0.005 C 
ATOM     19  C   UNL     1      -1.111   9.471   1.297  1.00  0.00     0.004 C 
ENDBRANCH  17  18
BRANCH  17  20
ATOM     20  C   UNL     1      -1.971   7.146   3.088  1.00  0.00     0.005 C 
ATOM     21  C   UNL     1      -2.825   6.056   3.703  1.00  0.00     0.004 C 
ENDBRANCH  17  20
ENDBRANCH  11  13
ENDBRANCH   7  11
ENDBRANCH   6   7
ENDBRANCH   4   6
ENDBRANCH   3   4
ENDBRANCH   2   3
ENDBRANCH   1   2
BRANCH   1  22
ATOM     22  O   UNL     1      -6.555   3.343   1.319  1.00  0.00    -0.374 OA
BRANCH  22  23
ATOM     23  C   UNL     1      -5.313   4.002   1.489  1.00  0.00     0.202 C 
BRANCH  23  24
ATOM     24  C   UNL     1      -4.120   3.190   2.035  1.00  0.00     0.261 C 
BRANCH  24  25
ATOM     25  O   UNL     1      -4.457   1.991   2.677  1.00  0.00    -0.460 OA
BRANCH  25  26
ATOM     26  C   UNL     1      -5.088   2.159   3.857  1.00  0.00     0.338 C 
ATOM     27  O   UNL     1      -5.275   3.172   4.484  1.00  0.00    -0.246 OA
BRANCH  26  28
ATOM     28  C   UNL     1      -5.696   0.845   4.035  1.00  0.00     0.060 A 
ATOM     29  C   UNL     1      -7.087   0.774   3.984  1.00  0.00     0.016 A 
ATOM     30  C   UNL     1      -4.880  -0.293   4.037  1.00  0.00     0.016 A 
ATOM     31  C   UNL     1      -7.682  -0.473   4.002  1.00  0.00     0.010 A 
ATOM     32  C   UNL     1      -5.476  -1.539   4.033  1.00  0.00     0.010 A 
ATOM     33  C   UNL     1      -6.876  -1.619   4.068  1.00  0.00    -0.014 A 
BRANCH  33  34
ATOM     34  C   UNL     1      -7.507  -2.893   4.429  1.00  0.00     0.031 A 
ATOM     35  C   UNL     1      -7.434  -3.300   5.869  1.00  0.00     0.074 A 
ATOM     36  C   UNL     1      -8.162  -3.603   3.499  1.00  0.00     0.049 A 
ATOM     37  N   UNL     1      -7.926  -4.354   6.457  1.00  0.00    -0.248 NA
ATOM     38  C   UNL     1      -6.694  -2.396   6.768  1.00  0.00     0.031 C 
ATOM     39  C   UNL     1      -8.288  -3.233   2.089  1.00  0.00     0.029 A 
ATOM     40  N   UNL     1      -8.852  -4.775   3.607  1.00  0.00    -0.354 N 
ATOM     41  C   UNL     1      -7.556  -4.239   7.792  1.00  0.00     0.074 A 
ATOM     42  C   UNL     1      -6.746  -3.050   7.914  1.00  0.00     0.031 C 
ATOM     43  C   UNL     1      -9.029  -4.162   1.463  1.00  0.00     0.029 A 
ATOM     44  C   UNL     1      -9.393  -5.203   2.420  1.00  0.00     0.049 A 
ATOM     45  H   UNL     1      -8.953  -5.267   4.454  1.00  0.00     0.167 HD
ATOM     46  C   UNL     1      -7.887  -5.051   8.822  1.00  0.00     0.034 A 
ATOM     47  C   UNL     1     -10.091  -6.321   2.154  1.00  0.00     0.034 A 
ATOM     48  C   UNL     1      -8.681  -6.239   8.641  1.00  0.00     0.049 A 
ATOM     49  C   UNL     1     -10.391  -7.250   3.305  1.00  0.00     0.074 A 
ATOM     50  C   UNL     1      -9.084  -7.163   9.585  1.00  0.00     0.029 A 
ATOM     51  N   UNL     1      -9.184  -6.671   7.416  1.00  0.00    -0.354 N 
ATOM     52  N   UNL     1     -10.047  -7.137   4.570  1.00  0.00    -0.248 NA
ATOM     53  C   UNL     1     -11.185  -8.442   2.999  1.00  0.00     0.031 C 
ATOM     54  C   UNL     1      -9.761  -8.191   8.921  1.00  0.00     0.029 A 
ATOM     55  C   UNL     1      -9.868  -7.863   7.576  1.00  0.00     0.049 A 
ATOM     56  H   UNL     1      -9.070  -6.196   6.561  1.00  0.00     0.167 HD
ATOM     57  C   UNL     1     -10.617  -8.227   5.219  1.00  0.00     0.074 A 
ATOM     58  C   UNL     1     -11.335  -8.975   4.203  1.00  0.00     0.031 C 
ATOM     59  C   UNL     1     -10.563  -8.582   6.531  1.00  0.00     0.034 A 
BRANCH  46  60
ATOM     60  C   UNL     1      -7.328  -4.704  10.180  1.00  0.00     0.023 A 
ATOM     61  C   UNL     1      -7.627  -3.486  10.821  1.00  0.00     0.031 A 
ATOM     62  C   UNL     1      -6.415  -5.568  10.810  1.00  0.00     0.131 A 
ATOM     63  C   UNL     1      -6.955  -3.131  12.001  1.00  0.00     0.055 A 
ATOM     64  C   UNL     1      -5.820  -5.248  12.032  1.00  0.00     0.041 A 
ATOM     65  F   UNL     1      -6.061  -6.727  10.233  1.00  0.00    -0.206 F 
ATOM     66  C   UNL     1      -6.074  -4.015  12.626  1.00  0.00     0.022 A 
BRANCH  63  67
ATOM     67  S   UNL     1      -7.116  -1.429  12.614  1.00  0.00     0.124 S 
ATOM     68  O   UNL     1      -6.628  -0.658  11.473  1.00  0.00    -0.237 OA
ATOM     69  O   UNL     1      -8.544  -1.327  12.891  1.00  0.00    -0.237 OA
ATOM     70  O   UNL     1      -6.249  -1.405  13.790  1.00  0.00    -0.744 OA
ENDBRANCH  63  67
ENDBRANCH  46  60
BRANCH  47  71
ATOM     71  C   UNL     1     -10.534  -6.620   0.764  1.00  0.00     0.023 A 
ATOM     72  C   UNL     1     -11.895  -6.704   0.432  1.00  0.00     0.031 A 
ATOM     73  C   UNL     1      -9.593  -6.847  -0.258  1.00  0.00     0.131 A 
ATOM     74  C   UNL     1     -12.277  -7.046  -0.875  1.00  0.00     0.055 A 
ATOM     75  C   UNL     1      -9.977  -7.134  -1.568  1.00  0.00     0.041 A 
ATOM     76  F   UNL     1      -8.277  -6.774   0.002  1.00  0.00    -0.206 F 
ATOM     77  C   UNL     1     -11.328  -7.248  -1.880  1.00  0.00     0.022 A 
BRANCH  74  78
ATOM     78  S   UNL     1     -14.037  -7.304  -1.227  1.00  0.00     0.124 S 
ATOM     79  O   UNL     1     -14.382  -8.349  -0.270  1.00  0.00    -0.237 OA
ATOM     80  O   UNL     1     -14.594  -5.981  -0.964  1.00  0.00    -0.237 OA
ATOM     81  O   UNL     1     -14.046  -7.713  -2.630  1.00  0.00    -0.744 OA
ENDBRANCH  74  78
ENDBRANCH  47  71
BRANCH  59  82
ATOM     82  C   UNL     1     -11.353  -9.802   6.935  1.00  0.00     0.023 A 
ATOM     83  C   UNL     1     -11.029 -11.085   6.465  1.00  0.00     0.031 A 
ATOM     84  C   UNL     1     -12.455  -9.669   7.800  1.00  0.00     0.131 A 
ATOM     85  C   UNL     1     -11.842 -12.175   6.803  1.00  0.00     0.055 A 
ATOM     86  C   UNL     1     -13.213 -10.770   8.196  1.00  0.00     0.041 A 
ATOM     87  F   UNL     1     -12.809  -8.465   8.277  1.00  0.00    -0.206 F 
ATOM     88  C   UNL     1     -12.919 -12.030   7.683  1.00  0.00     0.022 A 
BRANCH  85  89
ATOM     89  S   UNL     1     -11.549 -13.762   5.978  1.00  0.00     0.124 S 
ATOM     90  O   UNL     1     -11.663 -13.396   4.570  1.00  0.00    -0.237 OA
ATOM     91  O   UNL     1     -10.210 -14.111   6.440  1.00  0.00    -0.237 OA
ATOM     92  O   UNL     1     -12.622 -14.615   6.486  1.00  0.00    -0.744 OA
ENDBRANCH  85  89
ENDBRANCH  59  82
ENDBRANCH  33  34
ENDBRANCH  26  28
ENDBRANCH  25  26
ENDBRANCH  24  25
ENDBRANCH  23  24
ENDBRANCH  22  23
ENDBRANCH   1  22
TORSDOF 24
