REMARK SMILES O=C(OCCOCCOC(=O)[C@@H]1C=C[C@H](NC(=O)[C@@H]2Cc3ccccc3O2)C1)c1ccc(-c2c3nc(c(-c4cc(S(=O)(=O)[O-])ccc4F)c4ccc([nH]4)c(-c4cc(S(=O)(=O)[O-])ccc4F)c4nc(c(-c5cc(S(=O)(=O)[O-])ccc5F)c5ccc2[nH]5)C=C4)C=C3)cc1
REMARK SMILES IDX 5 1 4 2 3 3 2 4 1 5 29 6 30 7 91 8 31 9 90 10 32 11 33 12
REMARK SMILES IDX 34 13 84 14 35 15 89 16 83 17 85 18 36 19 88 20 82 21 81 22
REMARK SMILES IDX 37 24 69 25 49 26 68 27 50 28 53 29 67 30 86 31 51 32 52 33
REMARK SMILES IDX 66 35 87 36 54 37 38 38 39 39 47 40 40 41 46 42 48 43 45 44
REMARK SMILES IDX 41 45 42 46 43 47 44 48 70 49 71 50 79 51 72 52 78 53 80 54
REMARK SMILES IDX 77 55 73 56 74 57 75 58 76 59 55 60 56 61 64 62 57 63 63 64
REMARK SMILES IDX 65 65 62 66 58 67 59 68 60 69 61 70 6 71 7 72 8 73 9 74
REMARK SMILES IDX 10 75 11 76 12 77 13 78 28 79 14 80 15 81 16 82 17 83 18 85
REMARK SMILES IDX 19 86 20 87 27 88 21 89 26 90 22 91 25 92 23 93 24 94
REMARK H PARENT 85 23 53 34 16 84
REMARK Flexibility Score: inf
ROOT
ATOM      1  C   UNL     1       4.815  -5.832  -1.086  1.00  0.00     0.202 C 
ENDROOT
BRANCH   1   2
ATOM      2  C   UNL     1       5.591  -5.301  -2.288  1.00  0.00     0.261 C 
BRANCH   2   3
ATOM      3  O   UNL     1       6.077  -6.387  -3.080  1.00  0.00    -0.460 OA
BRANCH   3   4
ATOM      4  C   UNL     1       7.281  -6.981  -2.889  1.00  0.00     0.338 C 
ATOM      5  O   UNL     1       7.535  -8.045  -3.446  1.00  0.00    -0.246 OA
BRANCH   4   6
ATOM      6  C   UNL     1       8.348  -6.310  -2.104  1.00  0.00     0.060 A 
ATOM      7  C   UNL     1       8.184  -5.852  -0.793  1.00  0.00     0.016 A 
ATOM      8  C   UNL     1       9.609  -6.217  -2.698  1.00  0.00     0.016 A 
ATOM      9  C   UNL     1       9.212  -5.268  -0.091  1.00  0.00     0.010 A 
ATOM     10  C   UNL     1      10.674  -5.685  -1.976  1.00  0.00     0.010 A 
ATOM     11  C   UNL     1      10.468  -5.220  -0.669  1.00  0.00    -0.014 A 
BRANCH  11  12
ATOM     12  C   UNL     1      11.541  -4.591   0.101  1.00  0.00     0.031 A 
ATOM     13  C   UNL     1      12.014  -3.257  -0.350  1.00  0.00     0.074 A 
ATOM     14  C   UNL     1      12.004  -5.203   1.202  1.00  0.00     0.049 A 
ATOM     15  N   UNL     1      13.093  -2.611  -0.025  1.00  0.00    -0.248 NA
ATOM     16  C   UNL     1      11.151  -2.569  -1.323  1.00  0.00     0.031 C 
ATOM     17  C   UNL     1      11.453  -6.434   1.780  1.00  0.00     0.029 A 
ATOM     18  N   UNL     1      13.042  -4.882   2.029  1.00  0.00    -0.354 N 
ATOM     19  C   UNL     1      13.081  -1.464  -0.807  1.00  0.00     0.074 A 
ATOM     20  C   UNL     1      11.884  -1.509  -1.618  1.00  0.00     0.031 C 
ATOM     21  C   UNL     1      12.173  -6.772   2.859  1.00  0.00     0.029 A 
ATOM     22  C   UNL     1      13.293  -5.848   2.974  1.00  0.00     0.049 A 
ATOM     23  H   UNL     1      13.557  -4.046   1.955  1.00  0.00     0.167 HD
ATOM     24  C   UNL     1      14.021  -0.491  -0.842  1.00  0.00     0.034 A 
ATOM     25  C   UNL     1      14.364  -6.005   3.771  1.00  0.00     0.034 A 
ATOM     26  C   UNL     1      15.195  -0.548  -0.008  1.00  0.00     0.049 A 
ATOM     27  C   UNL     1      15.456  -4.976   3.647  1.00  0.00     0.074 A 
ATOM     28  C   UNL     1      16.271   0.315   0.044  1.00  0.00     0.029 A 
ATOM     29  N   UNL     1      15.445  -1.557   0.925  1.00  0.00    -0.354 N 
ATOM     30  N   UNL     1      15.515  -3.935   2.843  1.00  0.00    -0.248 NA
ATOM     31  C   UNL     1      16.624  -5.136   4.516  1.00  0.00     0.031 C 
ATOM     32  C   UNL     1      17.201  -0.213   0.947  1.00  0.00     0.029 A 
ATOM     33  C   UNL     1      16.667  -1.353   1.536  1.00  0.00     0.049 A 
ATOM     34  H   UNL     1      14.836  -2.306   1.119  1.00  0.00     0.167 HD
ATOM     35  C   UNL     1      16.714  -3.296   3.128  1.00  0.00     0.074 A 
ATOM     36  C   UNL     1      17.347  -4.076   4.179  1.00  0.00     0.031 C 
ATOM     37  C   UNL     1      17.243  -2.167   2.587  1.00  0.00     0.034 A 
BRANCH  24  38
ATOM     38  C   UNL     1      13.848   0.579  -1.893  1.00  0.00     0.023 A 
ATOM     39  C   UNL     1      12.704   1.396  -1.943  1.00  0.00     0.031 A 
ATOM     40  C   UNL     1      14.765   0.672  -2.955  1.00  0.00     0.131 A 
ATOM     41  C   UNL     1      12.440   2.161  -3.091  1.00  0.00     0.055 A 
ATOM     42  C   UNL     1      14.550   1.521  -4.043  1.00  0.00     0.041 A 
ATOM     43  F   UNL     1      15.859  -0.104  -2.986  1.00  0.00    -0.206 F 
ATOM     44  C   UNL     1      13.368   2.250  -4.130  1.00  0.00     0.022 A 
BRANCH  41  45
ATOM     45  S   UNL     1      10.769   2.838  -3.309  1.00  0.00     0.124 S 
ATOM     46  O   UNL     1       9.950   1.629  -3.249  1.00  0.00    -0.237 OA
ATOM     47  O   UNL     1      10.645   3.747  -2.175  1.00  0.00    -0.237 OA
ATOM     48  O   UNL     1      10.825   3.478  -4.621  1.00  0.00    -0.744 OA
ENDBRANCH  41  45
ENDBRANCH  24  38
BRANCH  25  49
ATOM     49  C   UNL     1      14.476  -7.207   4.645  1.00  0.00     0.023 A 
ATOM     50  C   UNL     1      14.492  -7.098   6.042  1.00  0.00     0.031 A 
ATOM     51  C   UNL     1      14.535  -8.499   4.086  1.00  0.00     0.131 A 
ATOM     52  C   UNL     1      14.580  -8.257   6.833  1.00  0.00     0.055 A 
ATOM     53  C   UNL     1      14.571  -9.650   4.875  1.00  0.00     0.041 A 
ATOM     54  F   UNL     1      14.521  -8.665   2.753  1.00  0.00    -0.206 F 
ATOM     55  C   UNL     1      14.601  -9.531   6.260  1.00  0.00     0.022 A 
BRANCH  52  56
ATOM     56  S   UNL     1      14.723  -8.075   8.632  1.00  0.00     0.124 S 
ATOM     57  O   UNL     1      15.936  -7.275   8.754  1.00  0.00    -0.237 OA
ATOM     58  O   UNL     1      13.473  -7.403   8.970  1.00  0.00    -0.237 OA
ATOM     59  O   UNL     1      14.835  -9.453   9.106  1.00  0.00    -0.744 OA
ENDBRANCH  52  56
ENDBRANCH  25  49
BRANCH  37  60
ATOM     60  C   UNL     1      18.531  -1.672   3.185  1.00  0.00     0.023 A 
ATOM     61  C   UNL     1      19.750  -2.337   2.984  1.00  0.00     0.031 A 
ATOM     62  C   UNL     1      18.532  -0.470   3.915  1.00  0.00     0.131 A 
ATOM     63  C   UNL     1      20.924  -1.804   3.532  1.00  0.00     0.055 A 
ATOM     64  C   UNL     1      19.711   0.086   4.404  1.00  0.00     0.041 A 
ATOM     65  F   UNL     1      17.387   0.197   4.134  1.00  0.00    -0.206 F 
ATOM     66  C   UNL     1      20.916  -0.585   4.219  1.00  0.00     0.022 A 
BRANCH  63  67
ATOM     67  S   UNL     1      22.461  -2.752   3.386  1.00  0.00     0.124 S 
ATOM     68  O   UNL     1      22.128  -3.979   4.101  1.00  0.00    -0.237 OA
ATOM     69  O   UNL     1      22.616  -2.878   1.940  1.00  0.00    -0.237 OA
ATOM     70  O   UNL     1      23.451  -1.901   4.043  1.00  0.00    -0.744 OA
ENDBRANCH  63  67
ENDBRANCH  37  60
ENDBRANCH  11  12
ENDBRANCH   4   6
ENDBRANCH   3   4
ENDBRANCH   2   3
ENDBRANCH   1   2
BRANCH   1  71
ATOM     71  O   UNL     1       5.495  -6.811  -0.308  1.00  0.00    -0.374 OA
BRANCH  71  72
ATOM     72  C   UNL     1       5.245  -8.177  -0.622  1.00  0.00     0.202 C 
BRANCH  72  73
ATOM     73  C   UNL     1       4.312  -8.757   0.435  1.00  0.00     0.261 C 
BRANCH  73  74
ATOM     74  O   UNL     1       3.140  -7.920   0.499  1.00  0.00    -0.463 OA
BRANCH  74  75
ATOM     75  C   UNL     1       3.189  -6.969   1.484  1.00  0.00     0.312 C 
ATOM     76  O   UNL     1       3.904  -7.043   2.468  1.00  0.00    -0.252 OA
BRANCH  75  77
ATOM     77  C   UNL     1       2.177  -5.854   1.199  1.00  0.00     0.124 C 
ATOM     78  C   UNL     1       2.694  -4.440   1.211  1.00  0.00    -0.014 C 
ATOM     79  C   UNL     1       1.180  -5.800   2.354  1.00  0.00     0.048 C 
ATOM     80  C   UNL     1       2.432  -3.805   2.360  1.00  0.00    -0.006 C 
ATOM     81  C   UNL     1       1.676  -4.673   3.278  1.00  0.00     0.106 C 
BRANCH  81  82
ATOM     82  N   UNL     1       2.396  -5.123   4.455  1.00  0.00    -0.347 N 
ATOM     83  C   UNL     1       3.660  -5.381   4.871  1.00  0.00     0.261 C 
ATOM     84  H   UNL     1       1.762  -5.298   5.188  1.00  0.00     0.164 HD
ATOM     85  O   UNL     1       3.704  -5.953   5.976  1.00  0.00    -0.271 OA
BRANCH  83  86
ATOM     86  C   UNL     1       4.997  -5.003   4.180  1.00  0.00     0.266 C 
ATOM     87  C   UNL     1       5.869  -4.245   5.211  1.00  0.00     0.095 C 
ATOM     88  O   UNL     1       5.019  -4.285   2.946  1.00  0.00    -0.480 OA
ATOM     89  C   UNL     1       6.569  -3.292   4.323  1.00  0.00    -0.002 A 
ATOM     90  C   UNL     1       6.023  -3.367   3.057  1.00  0.00     0.123 A 
ATOM     91  C   UNL     1       7.576  -2.389   4.609  1.00  0.00     0.008 A 
ATOM     92  C   UNL     1       6.447  -2.552   2.027  1.00  0.00     0.047 A 
ATOM     93  C   UNL     1       8.024  -1.553   3.581  1.00  0.00     0.001 A 
ATOM     94  C   UNL     1       7.462  -1.632   2.297  1.00  0.00     0.004 A 
ENDBRANCH  83  86
ENDBRANCH  81  82
ENDBRANCH  75  77
ENDBRANCH  74  75
ENDBRANCH  73  74
ENDBRANCH  72  73
ENDBRANCH  71  72
ENDBRANCH   1  71
TORSDOF 19
