REMARK SMILES Cn1c(=O)c2c(-c3ccc(Cl)cc3)n(CC(=O)OCCOCCOC(=O)c3ccc(-c4c5nc(c(-c6cc(S(=O)(=O)[O-])ccc6F)c6ccc([nH]6)c(-c6cc(S(=O)(=O)[O-])ccc6F)c6nc(c(-c7cc(S(=O)(=O)[O-])ccc7F)c7ccc4[nH]7)C=C6)C=C5)cc3)cc2n(C)c1=O
REMARK SMILES IDX 22 1 21 2 20 3 19 4 18 5 16 6 17 7 15 8 14 9 1 10 2 11 3 12
REMARK SMILES IDX 94 13 4 14 5 15 92 16 95 17 6 18 91 19 93 20 90 21 7 22 8 23
REMARK SMILES IDX 13 24 9 25 12 26 10 27 11 28 23 29 24 30 25 31 26 32 27 33
REMARK SMILES IDX 28 34 89 35 29 36 88 37 30 38 31 39 32 40 82 41 33 42 87 43
REMARK SMILES IDX 81 44 83 45 34 46 86 47 80 48 79 49 35 51 67 52 47 53 66 54
REMARK SMILES IDX 48 55 51 56 65 57 84 58 49 59 50 60 64 62 85 63 52 64 36 65
REMARK SMILES IDX 37 66 45 67 38 68 44 69 46 70 43 71 39 72 40 73 41 74 42 75
REMARK SMILES IDX 68 76 69 77 77 78 70 79 76 80 78 81 75 82 71 83 72 84 73 85
REMARK SMILES IDX 74 86 53 87 54 88 62 89 55 90 61 91 63 92 60 93 56 94 57 95
REMARK SMILES IDX 58 96 59 97
REMARK H PARENT 83 50 51 61
REMARK Flexibility Score: inf
ROOT
ATOM      1  C   UNL     1       0.013  -7.081   5.244  1.00  0.00     0.202 C 
ENDROOT
BRANCH   1   2
ATOM      2  O   UNL     1       1.037  -7.874   5.835  1.00  0.00    -0.374 OA
BRANCH   2   3
ATOM      3  C   UNL     1       2.400  -7.566   5.558  1.00  0.00     0.202 C 
BRANCH   3   4
ATOM      4  C   UNL     1       2.906  -7.816   4.135  1.00  0.00     0.261 C 
BRANCH   4   5
ATOM      5  O   UNL     1       2.150  -7.107   3.133  1.00  0.00    -0.462 OA
BRANCH   5   6
ATOM      6  C   UNL     1       1.481  -7.892   2.251  1.00  0.00     0.326 C 
ATOM      7  O   UNL     1       1.550  -9.120   2.229  1.00  0.00    -0.250 OA
BRANCH   6   8
ATOM      8  C   UNL     1       0.524  -7.175   1.338  1.00  0.00     0.244 C 
BRANCH   8   9
ATOM      9  N   UNL     1       0.557  -5.715   1.284  1.00  0.00    -0.333 N 
ATOM     10  C   UNL     1       1.069   0.050   0.015  1.00  0.00     0.158 C 
ATOM     11  N   UNL     1       0.683  -1.229   0.586  1.00  0.00    -0.263 N 
ATOM     12  C   UNL     1       1.287  -2.361   0.021  1.00  0.00     0.265 A 
ATOM     13  C   UNL     1      -0.271  -1.218   1.618  1.00  0.00     0.330 A 
ATOM     14  O   UNL     1       2.083  -2.312  -0.914  1.00  0.00    -0.268 OA
ATOM     15  C   UNL     1       0.880  -3.605   0.638  1.00  0.00     0.090 A 
ATOM     16  N   UNL     1      -0.623  -2.453   2.180  1.00  0.00    -0.295 N 
ATOM     17  O   UNL     1      -0.784  -0.169   2.011  1.00  0.00    -0.248 OA
ATOM     18  C   UNL     1       1.241  -4.923   0.366  1.00  0.00     0.064 A 
ATOM     19  C   UNL     1      -0.062  -3.614   1.675  1.00  0.00     0.076 A 
ATOM     20  C   UNL     1      -1.528  -2.464   3.321  1.00  0.00     0.155 C 
ATOM     21  C   UNL     1      -0.293  -4.919   2.025  1.00  0.00     0.114 A 
BRANCH  18  22
ATOM     22  C   UNL     1       2.140  -5.453  -0.660  1.00  0.00    -0.001 A 
ATOM     23  C   UNL     1       1.651  -6.306  -1.660  1.00  0.00     0.012 A 
ATOM     24  C   UNL     1       3.497  -5.111  -0.664  1.00  0.00     0.012 A 
ATOM     25  C   UNL     1       2.514  -6.865  -2.604  1.00  0.00     0.021 A 
ATOM     26  C   UNL     1       4.358  -5.645  -1.628  1.00  0.00     0.021 A 
ATOM     27  C   UNL     1       3.866  -6.533  -2.582  1.00  0.00     0.041 A 
ATOM     28  Cl  UNL     1       4.930  -7.225  -3.743  1.00  0.00    -0.084 Cl
ENDBRANCH  18  22
ENDBRANCH   8   9
ENDBRANCH   6   8
ENDBRANCH   5   6
ENDBRANCH   4   5
ENDBRANCH   3   4
ENDBRANCH   2   3
ENDBRANCH   1   2
BRANCH   1  29
ATOM     29  C   UNL     1      -0.074  -5.606   5.617  1.00  0.00     0.261 C 
BRANCH  29  30
ATOM     30  O   UNL     1       1.043  -4.850   5.161  1.00  0.00    -0.460 OA
BRANCH  30  31
ATOM     31  C   UNL     1       1.843  -4.402   6.155  1.00  0.00     0.338 C 
ATOM     32  O   UNL     1       1.905  -4.852   7.294  1.00  0.00    -0.246 OA
BRANCH  31  33
ATOM     33  C   UNL     1       2.534  -3.184   5.725  1.00  0.00     0.060 A 
ATOM     34  C   UNL     1       3.232  -2.492   6.713  1.00  0.00     0.016 A 
ATOM     35  C   UNL     1       2.286  -2.616   4.466  1.00  0.00     0.016 A 
ATOM     36  C   UNL     1       3.492  -1.156   6.513  1.00  0.00     0.010 A 
ATOM     37  C   UNL     1       2.542  -1.275   4.269  1.00  0.00     0.010 A 
ATOM     38  C   UNL     1       3.069  -0.543   5.325  1.00  0.00    -0.014 A 
BRANCH  38  39
ATOM     39  C   UNL     1       3.334   0.873   5.181  1.00  0.00     0.031 A 
ATOM     40  C   UNL     1       4.781   1.166   5.124  1.00  0.00     0.074 A 
ATOM     41  C   UNL     1       2.388   1.826   5.095  1.00  0.00     0.049 A 
ATOM     42  N   UNL     1       5.498   1.650   6.080  1.00  0.00    -0.248 NA
ATOM     43  C   UNL     1       5.559   0.664   3.983  1.00  0.00     0.031 C 
ATOM     44  C   UNL     1       0.941   1.685   4.945  1.00  0.00     0.029 A 
ATOM     45  N   UNL     1       2.565   3.174   5.062  1.00  0.00    -0.354 N 
ATOM     46  C   UNL     1       6.786   1.740   5.578  1.00  0.00     0.074 A 
ATOM     47  C   UNL     1       6.802   0.945   4.378  1.00  0.00     0.031 C 
ATOM     48  C   UNL     1       0.411   2.886   4.608  1.00  0.00     0.029 A 
ATOM     49  C   UNL     1       1.456   3.898   4.643  1.00  0.00     0.049 A 
ATOM     50  H   UNL     1       3.414   3.603   5.317  1.00  0.00     0.167 HD
ATOM     51  C   UNL     1       7.655   2.661   6.072  1.00  0.00     0.034 A 
ATOM     52  C   UNL     1       1.436   5.216   4.295  1.00  0.00     0.034 A 
ATOM     53  C   UNL     1       7.206   3.172   7.348  1.00  0.00     0.049 A 
ATOM     54  C   UNL     1       2.571   5.849   5.025  1.00  0.00     0.074 A 
ATOM     55  C   UNL     1       6.921   2.595   8.572  1.00  0.00     0.029 A 
ATOM     56  N   UNL     1       6.595   4.407   7.372  1.00  0.00    -0.354 N 
ATOM     57  N   UNL     1       2.614   5.932   6.330  1.00  0.00    -0.248 NA
ATOM     58  C   UNL     1       3.867   5.899   4.360  1.00  0.00     0.031 C 
ATOM     59  C   UNL     1       5.754   3.272   9.032  1.00  0.00     0.029 A 
ATOM     60  C   UNL     1       5.445   4.275   8.112  1.00  0.00     0.049 A 
ATOM     61  H   UNL     1       6.921   5.230   6.941  1.00  0.00     0.167 HD
ATOM     62  C   UNL     1       3.919   5.604   6.668  1.00  0.00     0.074 A 
ATOM     63  C   UNL     1       4.664   5.666   5.409  1.00  0.00     0.031 C 
ATOM     64  C   UNL     1       4.229   5.028   7.868  1.00  0.00     0.034 A 
BRANCH  51  65
ATOM     65  C   UNL     1       8.685   3.382   5.243  1.00  0.00     0.023 A 
ATOM     66  C   UNL     1       9.528   4.282   5.917  1.00  0.00     0.031 A 
ATOM     67  C   UNL     1       8.675   3.475   3.833  1.00  0.00     0.131 A 
ATOM     68  C   UNL     1      10.215   5.284   5.214  1.00  0.00     0.055 A 
ATOM     69  C   UNL     1       9.411   4.433   3.134  1.00  0.00     0.041 A 
ATOM     70  F   UNL     1       7.884   2.721   3.060  1.00  0.00    -0.206 F 
ATOM     71  C   UNL     1      10.159   5.368   3.825  1.00  0.00     0.022 A 
BRANCH  68  72
ATOM     72  S   UNL     1      11.046   6.577   6.168  1.00  0.00     0.124 S 
ATOM     73  O   UNL     1       9.942   7.116   6.955  1.00  0.00    -0.237 OA
ATOM     74  O   UNL     1      12.047   5.811   6.903  1.00  0.00    -0.237 OA
ATOM     75  O   UNL     1      11.576   7.468   5.139  1.00  0.00    -0.744 OA
ENDBRANCH  68  72
ENDBRANCH  51  65
BRANCH  52  76
ATOM     76  C   UNL     1       0.755   5.824   3.106  1.00  0.00     0.023 A 
ATOM     77  C   UNL     1       0.681   7.222   2.888  1.00  0.00     0.031 A 
ATOM     78  C   UNL     1       0.363   5.008   2.018  1.00  0.00     0.131 A 
ATOM     79  C   UNL     1       0.233   7.735   1.642  1.00  0.00     0.055 A 
ATOM     80  C   UNL     1      -0.084   5.520   0.797  1.00  0.00     0.041 A 
ATOM     81  F   UNL     1       0.486   3.674   2.062  1.00  0.00    -0.206 F 
ATOM     82  C   UNL     1      -0.141   6.887   0.599  1.00  0.00     0.022 A 
BRANCH  79  83
ATOM     83  S   UNL     1       0.232   9.530   1.304  1.00  0.00     0.124 S 
ATOM     84  O   UNL     1      -0.942   9.982   2.041  1.00  0.00    -0.237 OA
ATOM     85  O   UNL     1       1.527   9.954   1.824  1.00  0.00    -0.237 OA
ATOM     86  O   UNL     1       0.108   9.602  -0.153  1.00  0.00    -0.744 OA
ENDBRANCH  79  83
ENDBRANCH  52  76
BRANCH  64  87
ATOM     87  C   UNL     1       3.183   4.978   8.963  1.00  0.00     0.023 A 
ATOM     88  C   UNL     1       1.956   4.281   8.882  1.00  0.00     0.031 A 
ATOM     89  C   UNL     1       3.552   5.511  10.211  1.00  0.00     0.131 A 
ATOM     90  C   UNL     1       1.154   4.137  10.035  1.00  0.00     0.055 A 
ATOM     91  C   UNL     1       2.768   5.348  11.350  1.00  0.00     0.041 A 
ATOM     92  F   UNL     1       4.723   6.154  10.355  1.00  0.00    -0.206 F 
ATOM     93  C   UNL     1       1.564   4.660  11.267  1.00  0.00     0.022 A 
BRANCH  90  94
ATOM     94  S   UNL     1      -0.429   3.232   9.965  1.00  0.00     0.124 S 
ATOM     95  O   UNL     1      -1.183   3.957   8.949  1.00  0.00    -0.237 OA
ATOM     96  O   UNL     1      -0.012   1.878   9.611  1.00  0.00    -0.237 OA
ATOM     97  O   UNL     1      -0.961   3.364  11.323  1.00  0.00    -0.744 OA
ENDBRANCH  90  94
ENDBRANCH  64  87
ENDBRANCH  38  39
ENDBRANCH  31  33
ENDBRANCH  30  31
ENDBRANCH  29  30
ENDBRANCH   1  29
TORSDOF 19
