REMARK SMILES C[C@]12C(=O)N(c3ccc(C(=O)OCCOCCOC(=O)c4ccc(-c5c6nc(c(-c7cc(S(=O)(=O)[O-])ccc7F)c7ccc([nH]7)c(-c7cc(S(=O)(=O)[O-])ccc7F)c7nc(c(-c8cc(S(=O)(=O)[O-])ccc8F)c8ccc5[nH]8)C=C7)C=C6)cc4)cc3)C(=O)[C@H]1[C@H]1c3ccccc3[C@@H]2c2ccccc21
REMARK SMILES IDX 16 1 15 2 14 3 13 4 12 5 10 6 11 7 9 8 6 9 7 10 85 11 8 12
REMARK SMILES IDX 84 13 5 14 1 15 2 16 3 17 88 18 96 19 4 20 86 21 89 22 95 23
REMARK SMILES IDX 97 24 87 25 90 26 102 27 94 28 98 29 91 30 101 31 93 32
REMARK SMILES IDX 99 33 92 34 100 35 17 36 18 37 19 38 20 39 21 40 22 41 83 42
REMARK SMILES IDX 23 43 82 44 24 45 25 46 26 47 76 48 27 49 81 50 75 51 77 52
REMARK SMILES IDX 28 53 80 54 74 55 73 56 29 58 61 59 41 60 60 61 42 62 45 63
REMARK SMILES IDX 59 64 78 65 43 66 44 67 58 69 79 70 46 71 30 72 31 73 39 74
REMARK SMILES IDX 32 75 38 76 40 77 37 78 33 79 34 80 35 81 36 82 62 83 63 84
REMARK SMILES IDX 71 85 64 86 70 87 72 88 69 89 65 90 66 91 67 92 68 93 47 94
REMARK SMILES IDX 48 95 56 96 49 97 55 98 57 99 54 100 50 101 51 102 52 103
REMARK SMILES IDX 53 104
REMARK H PARENT 77 57 45 68
REMARK Flexibility Score: inf
ROOT
ATOM      1  C   UNL     1       2.324   9.350  -3.362  1.00  0.00     0.202 C 
ENDROOT
BRANCH   1   2
ATOM      2  O   UNL     1       1.913  10.716  -3.381  1.00  0.00    -0.374 OA
BRANCH   2   3
ATOM      3  C   UNL     1       2.183  11.497  -2.211  1.00  0.00     0.202 C 
BRANCH   3   4
ATOM      4  C   UNL     1       1.279  11.214  -1.008  1.00  0.00     0.261 C 
BRANCH   4   5
ATOM      5  O   UNL     1       1.603   9.937  -0.426  1.00  0.00    -0.460 OA
BRANCH   5   6
ATOM      6  C   UNL     1       0.537   9.144  -0.177  1.00  0.00     0.338 C 
ATOM      7  O   UNL     1      -0.645   9.442  -0.230  1.00  0.00    -0.246 OA
BRANCH   6   8
ATOM      8  C   UNL     1       0.987   7.746  -0.074  1.00  0.00     0.060 A 
ATOM      9  C   UNL     1       1.451   4.977   0.148  1.00  0.00     0.052 A 
ATOM     10  C   UNL     1       0.831   5.526  -0.991  1.00  0.00     0.028 A 
ATOM     11  C   UNL     1       1.927   5.864   1.127  1.00  0.00     0.028 A 
ATOM     12  C   UNL     1       0.569   6.888  -1.088  1.00  0.00     0.018 A 
ATOM     13  C   UNL     1       1.711   7.251   1.010  1.00  0.00     0.018 A 
BRANCH   9  14
ATOM     14  N   UNL     1       1.354   3.576   0.367  1.00  0.00    -0.250 N 
ATOM     15  C   UNL     1       0.938   0.278  -0.138  1.00  0.00     0.024 C 
ATOM     16  C   UNL     1       0.208   1.591   0.206  1.00  0.00     0.071 C 
ATOM     17  C   UNL     1       0.886   2.693  -0.548  1.00  0.00     0.241 C 
ATOM     18  C   UNL     1       0.373   1.890   1.767  1.00  0.00     0.107 C 
ATOM     19  C   UNL     1      -1.282   1.625  -0.291  1.00  0.00     0.066 C 
ATOM     20  O   UNL     1       0.987   2.713  -1.768  1.00  0.00    -0.273 OA
ATOM     21  C   UNL     1       1.543   2.902   1.543  1.00  0.00     0.238 C 
ATOM     22  C   UNL     1      -1.133   1.757   2.313  1.00  0.00     0.063 C 
ATOM     23  C   UNL     1      -1.915   2.902   0.277  1.00  0.00    -0.036 A 
ATOM     24  C   UNL     1      -1.960   0.456   0.390  1.00  0.00    -0.036 A 
ATOM     25  O   UNL     1       2.469   3.039   2.335  1.00  0.00    -0.274 OA
ATOM     26  C   UNL     1      -1.874   2.959   1.692  1.00  0.00    -0.036 A 
ATOM     27  C   UNL     1      -1.837   0.497   1.798  1.00  0.00    -0.036 A 
ATOM     28  C   UNL     1      -2.393   3.980  -0.453  1.00  0.00     0.005 A 
ATOM     29  C   UNL     1      -2.682  -0.542  -0.250  1.00  0.00     0.005 A 
ATOM     30  C   UNL     1      -2.296   4.090   2.379  1.00  0.00     0.004 A 
ATOM     31  C   UNL     1      -2.457  -0.474   2.570  1.00  0.00     0.004 A 
ATOM     32  C   UNL     1      -2.809   5.122   0.238  1.00  0.00     0.000 A 
ATOM     33  C   UNL     1      -3.299  -1.516   0.531  1.00  0.00     0.000 A 
ATOM     34  C   UNL     1      -2.762   5.176   1.639  1.00  0.00     0.000 A 
ATOM     35  C   UNL     1      -3.187  -1.482   1.929  1.00  0.00     0.000 A 
ENDBRANCH   9  14
ENDBRANCH   6   8
ENDBRANCH   5   6
ENDBRANCH   4   5
ENDBRANCH   3   4
ENDBRANCH   2   3
ENDBRANCH   1   2
BRANCH   1  36
ATOM     36  C   UNL     1       3.805   9.078  -3.649  1.00  0.00     0.261 C 
BRANCH  36  37
ATOM     37  O   UNL     1       4.659   9.609  -2.624  1.00  0.00    -0.460 OA
BRANCH  37  38
ATOM     38  C   UNL     1       5.383  10.699  -2.986  1.00  0.00     0.338 C 
ATOM     39  O   UNL     1       5.425  11.211  -4.093  1.00  0.00    -0.246 OA
BRANCH  38  40
ATOM     40  C   UNL     1       5.998  11.312  -1.787  1.00  0.00     0.060 A 
ATOM     41  C   UNL     1       6.541  10.542  -0.755  1.00  0.00     0.016 A 
ATOM     42  C   UNL     1       6.035  12.711  -1.716  1.00  0.00     0.016 A 
ATOM     43  C   UNL     1       7.144  11.178   0.334  1.00  0.00     0.010 A 
ATOM     44  C   UNL     1       6.641  13.344  -0.629  1.00  0.00     0.010 A 
ATOM     45  C   UNL     1       7.212  12.582   0.398  1.00  0.00    -0.014 A 
BRANCH  45  46
ATOM     46  C   UNL     1       8.001  13.236   1.472  1.00  0.00     0.031 A 
ATOM     47  C   UNL     1       7.340  13.901   2.641  1.00  0.00     0.074 A 
ATOM     48  C   UNL     1       9.344  13.224   1.373  1.00  0.00     0.049 A 
ATOM     49  N   UNL     1       7.889  14.371   3.731  1.00  0.00    -0.248 NA
ATOM     50  C   UNL     1       5.881  14.070   2.579  1.00  0.00     0.031 C 
ATOM     51  C   UNL     1      10.088  12.663   0.245  1.00  0.00     0.029 A 
ATOM     52  N   UNL     1      10.318  13.678   2.226  1.00  0.00    -0.354 N 
ATOM     53  C   UNL     1       6.844  14.862   4.503  1.00  0.00     0.074 A 
ATOM     54  C   UNL     1       5.634  14.690   3.727  1.00  0.00     0.031 C 
ATOM     55  C   UNL     1      11.402  12.772   0.492  1.00  0.00     0.029 A 
ATOM     56  C   UNL     1      11.596  13.420   1.788  1.00  0.00     0.049 A 
ATOM     57  H   UNL     1      10.121  14.143   3.071  1.00  0.00     0.167 HD
ATOM     58  C   UNL     1       6.894  15.383   5.754  1.00  0.00     0.034 A 
ATOM     59  C   UNL     1      12.789  13.650   2.372  1.00  0.00     0.034 A 
ATOM     60  C   UNL     1       8.115  15.573   6.498  1.00  0.00     0.049 A 
ATOM     61  C   UNL     1      12.819  14.227   3.765  1.00  0.00     0.074 A 
ATOM     62  C   UNL     1       8.267  16.066   7.782  1.00  0.00     0.029 A 
ATOM     63  N   UNL     1       9.391  15.289   6.029  1.00  0.00    -0.354 N 
ATOM     64  N   UNL     1      11.814  14.565   4.539  1.00  0.00    -0.248 NA
ATOM     65  C   UNL     1      14.139  14.426   4.379  1.00  0.00     0.031 C 
ATOM     66  C   UNL     1       9.632  16.135   8.068  1.00  0.00     0.029 A 
ATOM     67  C   UNL     1      10.333  15.616   6.992  1.00  0.00     0.049 A 
ATOM     68  H   UNL     1       9.596  14.911   5.144  1.00  0.00     0.167 HD
ATOM     69  C   UNL     1      12.378  14.980   5.742  1.00  0.00     0.074 A 
ATOM     70  C   UNL     1      13.811  14.832   5.600  1.00  0.00     0.031 C 
ATOM     71  C   UNL     1      11.761  15.440   6.860  1.00  0.00     0.034 A 
BRANCH  58  72
ATOM     72  C   UNL     1       5.598  15.752   6.434  1.00  0.00     0.023 A 
ATOM     73  C   UNL     1       5.346  17.081   6.821  1.00  0.00     0.031 A 
ATOM     74  C   UNL     1       4.681  14.760   6.827  1.00  0.00     0.131 A 
ATOM     75  C   UNL     1       4.224  17.376   7.607  1.00  0.00     0.055 A 
ATOM     76  C   UNL     1       3.545  15.065   7.578  1.00  0.00     0.041 A 
ATOM     77  F   UNL     1       4.878  13.476   6.486  1.00  0.00    -0.206 F 
ATOM     78  C   UNL     1       3.320  16.376   7.982  1.00  0.00     0.022 A 
BRANCH  75  79
ATOM     79  S   UNL     1       3.925  19.054   8.229  1.00  0.00     0.124 S 
ATOM     80  O   UNL     1       2.614  19.355   7.658  1.00  0.00    -0.237 OA
ATOM     81  O   UNL     1       3.943  18.852   9.675  1.00  0.00    -0.237 OA
ATOM     82  O   UNL     1       5.032  19.832   7.686  1.00  0.00    -0.744 OA
ENDBRANCH  75  79
ENDBRANCH  58  72
BRANCH  59  83
ATOM     83  C   UNL     1      14.033  13.216   1.673  1.00  0.00     0.023 A 
ATOM     84  C   UNL     1      14.404  13.774   0.436  1.00  0.00     0.031 A 
ATOM     85  C   UNL     1      14.804  12.156   2.179  1.00  0.00     0.131 A 
ATOM     86  C   UNL     1      15.480  13.230  -0.278  1.00  0.00     0.055 A 
ATOM     87  C   UNL     1      15.916  11.661   1.495  1.00  0.00     0.041 A 
ATOM     88  F   UNL     1      14.477  11.578   3.345  1.00  0.00    -0.206 F 
ATOM     89  C   UNL     1      16.249  12.189   0.252  1.00  0.00     0.022 A 
BRANCH  86  90
ATOM     90  S   UNL     1      15.838  13.766  -1.974  1.00  0.00     0.124 S 
ATOM     91  O   UNL     1      17.190  14.302  -1.844  1.00  0.00    -0.237 OA
ATOM     92  O   UNL     1      15.725  12.512  -2.714  1.00  0.00    -0.237 OA
ATOM     93  O   UNL     1      14.794  14.747  -2.252  1.00  0.00    -0.744 OA
ENDBRANCH  86  90
ENDBRANCH  59  83
BRANCH  71  94
ATOM     94  C   UNL     1      12.607  15.809   8.057  1.00  0.00     0.023 A 
ATOM     95  C   UNL     1      12.435  15.122   9.275  1.00  0.00     0.031 A 
ATOM     96  C   UNL     1      13.463  16.923   8.039  1.00  0.00     0.131 A 
ATOM     97  C   UNL     1      13.081  15.577  10.431  1.00  0.00     0.055 A 
ATOM     98  C   UNL     1      14.142  17.345   9.184  1.00  0.00     0.041 A 
ATOM     99  F   UNL     1      13.651  17.622   6.908  1.00  0.00    -0.206 F 
ATOM    100  C   UNL     1      13.941  16.680  10.390  1.00  0.00     0.022 A 
BRANCH  97 101
ATOM    101  S   UNL     1      12.760  14.816  12.047  1.00  0.00     0.124 S 
ATOM    102  O   UNL     1      14.076  14.289  12.399  1.00  0.00    -0.237 OA
ATOM    103  O   UNL     1      12.313  15.957  12.842  1.00  0.00    -0.237 OA
ATOM    104  O   UNL     1      11.741  13.810  11.767  1.00  0.00    -0.744 OA
ENDBRANCH  97 101
ENDBRANCH  71  94
ENDBRANCH  45  46
ENDBRANCH  38  40
ENDBRANCH  37  38
ENDBRANCH  36  37
ENDBRANCH   1  36
TORSDOF 18
