REMARK SMILES O=C(Cc1c(C(=O)c2cc3c(cn2)CCCC3)[nH]c2cc(Cl)ccc12)OCCOCCOC(=O)c1ccc(-c2c3nc(c(-c4cc(S(=O)(=O)[O-])ccc4F)c4ccc([nH]4)c(-c4cc(S(=O)(=O)[O-])ccc4F)c4nc(c(-c5cc(S(=O)(=O)[O-])ccc5F)c5ccc2[nH]5)C=C4)C=C3)cc1
REMARK SMILES IDX 29 1 28 2 27 3 26 4 2 5 1 6 3 7 4 8 5 9 25 10 18 11 19 12
REMARK SMILES IDX 24 13 20 15 23 16 21 17 22 18 6 19 7 20 8 21 9 22 13 23
REMARK SMILES IDX 10 24 12 25 11 26 17 27 14 28 16 29 15 30 30 31 31 32 32 33
REMARK SMILES IDX 33 34 34 35 35 36 36 37 97 38 37 39 96 40 38 41 39 42 40 43
REMARK SMILES IDX 90 44 41 45 95 46 89 47 91 48 42 49 94 50 88 51 87 52 43 54
REMARK SMILES IDX 75 55 55 56 74 57 56 58 59 59 73 60 92 61 57 62 58 63 72 65
REMARK SMILES IDX 93 66 60 67 44 68 45 69 53 70 46 71 52 72 54 73 51 74 47 75
REMARK SMILES IDX 48 76 49 77 50 78 76 79 77 80 85 81 78 82 84 83 86 84 83 85
REMARK SMILES IDX 79 86 80 87 81 88 82 89 61 90 62 91 70 92 63 93 69 94 71 95
REMARK SMILES IDX 68 96 64 97 65 98 66 99 67 100
REMARK H PARENT 18 14 91 53 59 64
REMARK Flexibility Score: inf
ROOT
ATOM      1  O   UNL     1       4.026  -1.409  -1.073  1.00  0.00    -0.374 OA
ENDROOT
BRANCH   1   2
ATOM      2  C   UNL     1       4.131  -1.808   0.294  1.00  0.00     0.202 C 
BRANCH   2   3
ATOM      3  C   UNL     1       3.561  -0.861   1.340  1.00  0.00     0.261 C 
BRANCH   3   4
ATOM      4  O   UNL     1       2.247  -0.410   1.019  1.00  0.00    -0.463 OA
BRANCH   4   5
ATOM      5  C   UNL     1       2.085   0.866   0.581  1.00  0.00     0.310 C 
ATOM      6  O   UNL     1       1.078   1.492   0.904  1.00  0.00    -0.252 OA
BRANCH   5   7
ATOM      7  C   UNL     1       3.126   1.423  -0.385  1.00  0.00     0.161 C 
BRANCH   7   8
ATOM      8  C   UNL     1       3.916   2.541   0.208  1.00  0.00     0.000 A 
ATOM      9  C   UNL     1       3.613   3.890   0.103  1.00  0.00     0.093 A 
ATOM     10  C   UNL     1       5.165   2.454   0.906  1.00  0.00     0.004 A 
ATOM     11  N   UNL     1       4.382   4.525   1.057  1.00  0.00    -0.351 N 
ATOM     12  C   UNL     1       5.360   3.682   1.531  1.00  0.00     0.048 A 
ATOM     13  C   UNL     1       6.133   1.444   1.103  1.00  0.00     0.012 A 
ATOM     14  H   UNL     1       4.248   5.453   1.358  1.00  0.00     0.167 HD
ATOM     15  C   UNL     1       6.396   3.906   2.448  1.00  0.00     0.047 A 
ATOM     16  C   UNL     1       7.180   1.646   2.008  1.00  0.00     0.021 A 
ATOM     17  C   UNL     1       7.287   2.854   2.687  1.00  0.00     0.043 A 
ATOM     18  Cl  UNL     1       8.561   3.071   3.825  1.00  0.00    -0.084 Cl
BRANCH   9  19
ATOM     19  C   UNL     1       2.669   4.513  -0.814  1.00  0.00     0.227 C 
ATOM     20  O   UNL     1       2.001   3.907  -1.650  1.00  0.00    -0.285 OA
BRANCH  19  21
ATOM     21  C   UNL     1       2.615   5.983  -0.855  1.00  0.00     0.113 A 
ATOM     22  C   UNL     1       3.735   6.684  -1.284  1.00  0.00     0.036 A 
ATOM     23  N   UNL     1       1.455   6.548  -0.454  1.00  0.00    -0.252 NA
ATOM     24  C   UNL     1       3.671   8.074  -1.289  1.00  0.00    -0.041 A 
ATOM     25  C   UNL     1       1.410   7.889  -0.488  1.00  0.00     0.115 A 
ATOM     26  C   UNL     1       2.482   8.692  -0.870  1.00  0.00    -0.026 A 
ATOM     27  C   UNL     1       4.890   8.870  -1.675  1.00  0.00     0.036 C 
ATOM     28  C   UNL     1       2.318  10.184  -0.883  1.00  0.00     0.037 C 
ATOM     29  C   UNL     1       4.577  10.338  -1.958  1.00  0.00     0.005 C 
ATOM     30  C   UNL     1       3.661  10.911  -0.882  1.00  0.00     0.005 C 
ENDBRANCH  19  21
ENDBRANCH   9  19
ENDBRANCH   7   8
ENDBRANCH   5   7
ENDBRANCH   4   5
ENDBRANCH   3   4
ENDBRANCH   2   3
ENDBRANCH   1   2
BRANCH   1  31
ATOM     31  C   UNL     1       2.820  -1.822  -1.728  1.00  0.00     0.202 C 
BRANCH  31  32
ATOM     32  C   UNL     1       2.922  -3.208  -2.380  1.00  0.00     0.261 C 
BRANCH  32  33
ATOM     33  O   UNL     1       3.316  -4.196  -1.416  1.00  0.00    -0.460 OA
BRANCH  33  34
ATOM     34  C   UNL     1       4.656  -4.429  -1.348  1.00  0.00     0.338 C 
ATOM     35  O   UNL     1       5.487  -4.120  -2.186  1.00  0.00    -0.246 OA
BRANCH  34  36
ATOM     36  C   UNL     1       4.999  -4.883   0.027  1.00  0.00     0.060 A 
ATOM     37  C   UNL     1       4.073  -5.540   0.845  1.00  0.00     0.016 A 
ATOM     38  C   UNL     1       6.253  -4.523   0.545  1.00  0.00     0.016 A 
ATOM     39  C   UNL     1       4.424  -5.880   2.154  1.00  0.00     0.010 A 
ATOM     40  C   UNL     1       6.609  -4.873   1.851  1.00  0.00     0.010 A 
ATOM     41  C   UNL     1       5.712  -5.595   2.648  1.00  0.00    -0.014 A 
BRANCH  41  42
ATOM     42  C   UNL     1       6.203  -6.345   3.832  1.00  0.00     0.031 A 
ATOM     43  C   UNL     1       6.379  -5.742   5.188  1.00  0.00     0.074 A 
ATOM     44  C   UNL     1       6.504  -7.641   3.623  1.00  0.00     0.049 A 
ATOM     45  N   UNL     1       6.642  -6.348   6.317  1.00  0.00    -0.248 NA
ATOM     46  C   UNL     1       6.269  -4.282   5.298  1.00  0.00     0.031 C 
ATOM     47  C   UNL     1       6.450  -8.299   2.315  1.00  0.00     0.029 A 
ATOM     48  N   UNL     1       6.890  -8.636   4.482  1.00  0.00    -0.354 N 
ATOM     49  C   UNL     1       6.697  -5.354   7.286  1.00  0.00     0.074 A 
ATOM     50  C   UNL     1       6.502  -4.095   6.594  1.00  0.00     0.031 C 
ATOM     51  C   UNL     1       6.740  -9.596   2.464  1.00  0.00     0.029 A 
ATOM     52  C   UNL     1       7.032  -9.858   3.869  1.00  0.00     0.049 A 
ATOM     53  H   UNL     1       7.051  -8.489   5.442  1.00  0.00     0.167 HD
ATOM     54  C   UNL     1       6.872  -5.495   8.624  1.00  0.00     0.034 A 
ATOM     55  C   UNL     1       7.343 -11.067   4.377  1.00  0.00     0.034 A 
ATOM     56  C   UNL     1       7.100  -6.765   9.277  1.00  0.00     0.049 A 
ATOM     57  C   UNL     1       7.510 -11.200   5.864  1.00  0.00     0.074 A 
ATOM     58  C   UNL     1       7.237  -7.020  10.632  1.00  0.00     0.029 A 
ATOM     59  N   UNL     1       7.240  -7.989   8.633  1.00  0.00    -0.354 N 
ATOM     60  N   UNL     1       7.417 -10.272   6.788  1.00  0.00    -0.248 NA
ATOM     61  C   UNL     1       7.798 -12.541   6.384  1.00  0.00     0.031 C 
ATOM     62  C   UNL     1       7.528  -8.376  10.800  1.00  0.00     0.029 A 
ATOM     63  C   UNL     1       7.495  -8.992   9.559  1.00  0.00     0.049 A 
ATOM     64  H   UNL     1       7.169  -8.126   7.661  1.00  0.00     0.167 HD
ATOM     65  C   UNL     1       7.631 -10.918   8.001  1.00  0.00     0.074 A 
ATOM     66  C   UNL     1       7.806 -12.323   7.692  1.00  0.00     0.031 C 
ATOM     67  C   UNL     1       7.690 -10.391   9.251  1.00  0.00     0.034 A 
BRANCH  54  68
ATOM     68  C   UNL     1       6.785  -4.265   9.501  1.00  0.00     0.023 A 
ATOM     69  C   UNL     1       7.870  -3.882  10.314  1.00  0.00     0.031 A 
ATOM     70  C   UNL     1       5.572  -3.566   9.648  1.00  0.00     0.131 A 
ATOM     71  C   UNL     1       7.708  -2.859  11.259  1.00  0.00     0.055 A 
ATOM     72  C   UNL     1       5.429  -2.519  10.560  1.00  0.00     0.041 A 
ATOM     73  F   UNL     1       4.501  -3.897   8.907  1.00  0.00    -0.206 F 
ATOM     74  C   UNL     1       6.497  -2.171  11.380  1.00  0.00     0.022 A 
BRANCH  71  75
ATOM     75  S   UNL     1       9.034  -2.428  12.421  1.00  0.00     0.124 S 
ATOM     76  O   UNL     1       9.257  -1.018  12.111  1.00  0.00    -0.237 OA
ATOM     77  O   UNL     1       8.405  -2.690  13.713  1.00  0.00    -0.237 OA
ATOM     78  O   UNL     1      10.125  -3.324  12.056  1.00  0.00    -0.744 OA
ENDBRANCH  71  75
ENDBRANCH  54  68
BRANCH  55  79
ATOM     79  C   UNL     1       7.410 -12.232   3.449  1.00  0.00     0.023 A 
ATOM     80  C   UNL     1       8.339 -12.252   2.392  1.00  0.00     0.031 A 
ATOM     81  C   UNL     1       6.453 -13.258   3.509  1.00  0.00     0.131 A 
ATOM     82  C   UNL     1       8.236 -13.229   1.394  1.00  0.00     0.055 A 
ATOM     83  C   UNL     1       6.407 -14.276   2.557  1.00  0.00     0.041 A 
ATOM     84  F   UNL     1       5.532 -13.267   4.485  1.00  0.00    -0.206 F 
ATOM     85  C   UNL     1       7.288 -14.252   1.480  1.00  0.00     0.022 A 
BRANCH  82  86
ATOM     86  S   UNL     1       9.218 -13.105  -0.128  1.00  0.00     0.124 S 
ATOM     87  O   UNL     1       9.979 -14.350  -0.100  1.00  0.00    -0.237 OA
ATOM     88  O   UNL     1       8.175 -13.024  -1.148  1.00  0.00    -0.237 OA
ATOM     89  O   UNL     1       9.995 -11.885   0.061  1.00  0.00    -0.744 OA
ENDBRANCH  82  86
ENDBRANCH  55  79
BRANCH  67  90
ATOM     90  C   UNL     1       7.995 -11.327  10.400  1.00  0.00     0.023 A 
ATOM     91  C   UNL     1       7.074 -11.488  11.454  1.00  0.00     0.031 A 
ATOM     92  C   UNL     1       9.241 -11.970  10.508  1.00  0.00     0.131 A 
ATOM     93  C   UNL     1       7.425 -12.249  12.578  1.00  0.00     0.055 A 
ATOM     94  C   UNL     1       9.565 -12.771  11.604  1.00  0.00     0.041 A 
ATOM     95  F   UNL     1      10.162 -11.840   9.539  1.00  0.00    -0.206 F 
ATOM     96  C   UNL     1       8.659 -12.902  12.652  1.00  0.00     0.022 A 
BRANCH  93  97
ATOM     97  S   UNL     1       6.331 -12.350  14.022  1.00  0.00     0.124 S 
ATOM     98  O   UNL     1       6.019 -13.777  14.064  1.00  0.00    -0.237 OA
ATOM     99  O   UNL     1       7.196 -11.870  15.097  1.00  0.00    -0.237 OA
ATOM    100  O   UNL     1       5.213 -11.478  13.679  1.00  0.00    -0.744 OA
ENDBRANCH  93  97
ENDBRANCH  67  90
ENDBRANCH  41  42
ENDBRANCH  34  36
ENDBRANCH  33  34
ENDBRANCH  32  33
ENDBRANCH  31  32
ENDBRANCH   1  31
TORSDOF 20
