REMARK SMILES O=C(C[N@@H+](Cc1cccc(Br)c1)C1CC1)OCCOCCOC(=O)c1ccc(-c2c3nc(c(-c4cc(S(=O)(=O)[O-])ccc4F)c4ccc([nH]4)c(-c4cc(S(=O)(=O)[O-])ccc4F)c4nc(c(-c5cc(S(=O)(=O)[O-])ccc5F)c5ccc2[nH]5)C=C4)C=C3)cc1
REMARK SMILES IDX 19 1 18 2 17 3 16 4 2 5 1 6 3 7 4 8 5 10 6 11 7 12 12 13
REMARK SMILES IDX 8 14 10 15 9 16 11 17 13 18 14 19 15 20 20 21 21 22 22 23
REMARK SMILES IDX 23 24 24 25 25 26 26 27 87 28 27 29 86 30 28 31 29 32 30 33
REMARK SMILES IDX 80 34 31 35 85 36 79 37 81 38 32 39 84 40 78 41 77 42 33 44
REMARK SMILES IDX 65 45 45 46 64 47 46 48 49 49 63 50 82 51 47 52 48 53 62 55
REMARK SMILES IDX 83 56 50 57 34 58 35 59 43 60 36 61 42 62 44 63 41 64 37 65
REMARK SMILES IDX 38 66 39 67 40 68 66 69 67 70 75 71 68 72 74 73 76 74 73 75
REMARK SMILES IDX 69 76 70 77 71 78 72 79 51 80 52 81 60 82 53 83 59 84 61 85
REMARK SMILES IDX 58 86 54 87 55 88 56 89 57 90
REMARK H PARENT 4 9 81 43 49 54
REMARK Flexibility Score: inf
ROOT
ATOM      1  O   UNL     1       4.232  -1.797   0.358  1.00  0.00    -0.374 OA
ENDROOT
BRANCH   1   2
ATOM      2  C   UNL     1       4.733  -0.597   0.952  1.00  0.00     0.202 C 
BRANCH   2   3
ATOM      3  C   UNL     1       4.369   0.703   0.243  1.00  0.00     0.261 C 
BRANCH   3   4
ATOM      4  O   UNL     1       2.953   0.963   0.282  1.00  0.00    -0.459 OA
BRANCH   4   5
ATOM      5  C   UNL     1       2.081   0.560  -0.672  1.00  0.00     0.361 C 
ATOM      6  O   UNL     1       0.873   0.751  -0.521  1.00  0.00    -0.245 OA
BRANCH   5   7
ATOM      7  C   UNL     1       2.605  -0.190  -1.884  1.00  0.00     0.387 C 
BRANCH   7   8
ATOM      8  N   UNL     1       3.524   0.627  -2.693  1.00  0.00    -0.319 N 
ATOM      9  H   UNL     1       4.229   1.042  -2.083  1.00  0.00     0.349 HD
BRANCH   8  10
ATOM     10  C   UNL     1       4.336  -0.198  -3.600  1.00  0.00     0.299 C 
BRANCH  10  11
ATOM     11  C   UNL     1       3.548  -1.130  -4.491  1.00  0.00     0.007 A 
ATOM     12  C   UNL     1       3.634  -2.521  -4.322  1.00  0.00     0.009 A 
ATOM     13  C   UNL     1       2.670  -0.613  -5.452  1.00  0.00     0.025 A 
ATOM     14  C   UNL     1       2.826  -3.374  -5.076  1.00  0.00     0.002 A 
ATOM     15  C   UNL     1       1.848  -1.467  -6.180  1.00  0.00     0.018 A 
ATOM     16  C   UNL     1       1.920  -2.845  -5.996  1.00  0.00     0.016 A 
ATOM     17  Br  UNL     1       0.597  -0.737  -7.393  1.00  0.00    -0.051 Br
ENDBRANCH  10  11
ENDBRANCH   8  10
BRANCH   8  18
ATOM     18  C   UNL     1       2.871   1.814  -3.251  1.00  0.00     0.185 C 
ATOM     19  C   UNL     1       3.183   3.130  -2.583  1.00  0.00     0.071 C 
ATOM     20  C   UNL     1       3.624   2.878  -3.992  1.00  0.00     0.071 C 
ENDBRANCH   8  18
ENDBRANCH   7   8
ENDBRANCH   5   7
ENDBRANCH   4   5
ENDBRANCH   3   4
ENDBRANCH   2   3
ENDBRANCH   1   2
BRANCH   1  21
ATOM     21  C   UNL     1       2.951  -2.241   0.823  1.00  0.00     0.202 C 
BRANCH  21  22
ATOM     22  C   UNL     1       2.943  -3.073   2.108  1.00  0.00     0.261 C 
BRANCH  22  23
ATOM     23  O   UNL     1       3.328  -2.284   3.240  1.00  0.00    -0.460 OA
BRANCH  23  24
ATOM     24  C   UNL     1       4.641  -2.376   3.554  1.00  0.00     0.338 C 
ATOM     25  O   UNL     1       5.461  -3.133   3.054  1.00  0.00    -0.246 OA
BRANCH  24  26
ATOM     26  C   UNL     1       5.013  -1.256   4.438  1.00  0.00     0.060 A 
ATOM     27  C   UNL     1       6.256  -0.650   4.212  1.00  0.00     0.016 A 
ATOM     28  C   UNL     1       4.185  -0.822   5.478  1.00  0.00     0.016 A 
ATOM     29  C   UNL     1       6.729   0.310   5.094  1.00  0.00     0.010 A 
ATOM     30  C   UNL     1       4.661   0.144   6.365  1.00  0.00     0.010 A 
ATOM     31  C   UNL     1       5.962   0.653   6.214  1.00  0.00    -0.014 A 
BRANCH  31  32
ATOM     32  C   UNL     1       6.636   1.326   7.346  1.00  0.00     0.031 A 
ATOM     33  C   UNL     1       7.080   0.474   8.506  1.00  0.00     0.074 A 
ATOM     34  C   UNL     1       6.913   2.639   7.300  1.00  0.00     0.049 A 
ATOM     35  N   UNL     1       7.702   0.818   9.602  1.00  0.00    -0.248 NA
ATOM     36  C   UNL     1       6.775  -0.964   8.415  1.00  0.00     0.031 C 
ATOM     37  C   UNL     1       6.576   3.533   6.193  1.00  0.00     0.029 A 
ATOM     38  N   UNL     1       7.554   3.443   8.203  1.00  0.00    -0.354 N 
ATOM     39  C   UNL     1       7.847  -0.355  10.337  1.00  0.00     0.074 A 
ATOM     40  C   UNL     1       7.210  -1.410   9.582  1.00  0.00     0.031 C 
ATOM     41  C   UNL     1       7.022   4.767   6.482  1.00  0.00     0.029 A 
ATOM     42  C   UNL     1       7.639   4.756   7.806  1.00  0.00     0.049 A 
ATOM     43  H   UNL     1       7.918   3.113   9.056  1.00  0.00     0.167 HD
ATOM     44  C   UNL     1       8.466  -0.534  11.529  1.00  0.00     0.034 A 
ATOM     45  C   UNL     1       8.146   5.823   8.453  1.00  0.00     0.034 A 
ATOM     46  C   UNL     1       9.092   0.540  12.260  1.00  0.00     0.049 A 
ATOM     47  C   UNL     1       8.764   5.613   9.815  1.00  0.00     0.074 A 
ATOM     48  C   UNL     1       9.765   0.484  13.467  1.00  0.00     0.029 A 
ATOM     49  N   UNL     1       9.111   1.870  11.855  1.00  0.00    -0.354 N 
ATOM     50  N   UNL     1       8.905   4.500  10.500  1.00  0.00    -0.248 NA
ATOM     51  C   UNL     1       9.306   6.802  10.482  1.00  0.00     0.031 C 
ATOM     52  C   UNL     1      10.113   1.789  13.833  1.00  0.00     0.029 A 
ATOM     53  C   UNL     1       9.750   2.649  12.807  1.00  0.00     0.049 A 
ATOM     54  H   UNL     1       8.727   2.209  11.014  1.00  0.00     0.167 HD
ATOM     55  C   UNL     1       9.591   4.851  11.660  1.00  0.00     0.074 A 
ATOM     56  C   UNL     1       9.845   6.275  11.570  1.00  0.00     0.031 C 
ATOM     57  C   UNL     1       9.985   4.071  12.701  1.00  0.00     0.034 A 
BRANCH  44  58
ATOM     58  C   UNL     1       8.429  -1.919  12.134  1.00  0.00     0.023 A 
ATOM     59  C   UNL     1       9.018  -3.030  11.503  1.00  0.00     0.031 A 
ATOM     60  C   UNL     1       7.753  -2.138  13.348  1.00  0.00     0.131 A 
ATOM     61  C   UNL     1       8.852  -4.314  12.046  1.00  0.00     0.055 A 
ATOM     62  C   UNL     1       7.668  -3.405  13.928  1.00  0.00     0.041 A 
ATOM     63  F   UNL     1       7.144  -1.125  13.984  1.00  0.00    -0.206 F 
ATOM     64  C   UNL     1       8.206  -4.505  13.269  1.00  0.00     0.022 A 
BRANCH  61  65
ATOM     65  S   UNL     1       9.351  -5.749  11.053  1.00  0.00     0.124 S 
ATOM     66  O   UNL     1       8.554  -5.563   9.843  1.00  0.00    -0.237 OA
ATOM     67  O   UNL     1      10.788  -5.548  10.909  1.00  0.00    -0.237 OA
ATOM     68  O   UNL     1       8.960  -6.890  11.878  1.00  0.00    -0.744 OA
ENDBRANCH  61  65
ENDBRANCH  44  58
BRANCH  45  69
ATOM     69  C   UNL     1       8.083   7.181   7.840  1.00  0.00     0.023 A 
ATOM     70  C   UNL     1       9.252   7.895   7.538  1.00  0.00     0.031 A 
ATOM     71  C   UNL     1       6.847   7.808   7.596  1.00  0.00     0.131 A 
ATOM     72  C   UNL     1       9.165   9.211   7.058  1.00  0.00     0.055 A 
ATOM     73  C   UNL     1       6.765   9.094   7.061  1.00  0.00     0.041 A 
ATOM     74  F   UNL     1       5.697   7.171   7.867  1.00  0.00    -0.206 F 
ATOM     75  C   UNL     1       7.929   9.810   6.803  1.00  0.00     0.022 A 
BRANCH  72  76
ATOM     76  S   UNL     1      10.694  10.166   6.864  1.00  0.00     0.124 S 
ATOM     77  O   UNL     1      11.245  10.120   8.214  1.00  0.00    -0.237 OA
ATOM     78  O   UNL     1      11.407   9.393   5.853  1.00  0.00    -0.237 OA
ATOM     79  O   UNL     1      10.223  11.478   6.425  1.00  0.00    -0.744 OA
ENDBRANCH  72  76
ENDBRANCH  45  69
BRANCH  57  80
ATOM     80  C   UNL     1      10.786   4.741  13.794  1.00  0.00     0.023 A 
ATOM     81  C   UNL     1      10.246   5.761  14.595  1.00  0.00     0.031 A 
ATOM     82  C   UNL     1      12.125   4.369  14.014  1.00  0.00     0.131 A 
ATOM     83  C   UNL     1      11.062   6.428  15.521  1.00  0.00     0.055 A 
ATOM     84  C   UNL     1      12.908   4.980  14.993  1.00  0.00     0.041 A 
ATOM     85  F   UNL     1      12.697   3.402  13.277  1.00  0.00    -0.206 F 
ATOM     86  C   UNL     1      12.383   6.030  15.740  1.00  0.00     0.022 A 
BRANCH  83  87
ATOM     87  S   UNL     1      10.414   7.912  16.338  1.00  0.00     0.124 S 
ATOM     88  O   UNL     1      10.040   8.745  15.200  1.00  0.00    -0.237 OA
ATOM     89  O   UNL     1       9.309   7.377  17.127  1.00  0.00    -0.237 OA
ATOM     90  O   UNL     1      11.552   8.399  17.116  1.00  0.00    -0.744 OA
ENDBRANCH  83  87
ENDBRANCH  57  80
ENDBRANCH  31  32
ENDBRANCH  24  26
ENDBRANCH  23  24
ENDBRANCH  22  23
ENDBRANCH  21  22
ENDBRANCH   1  21
TORSDOF 21
