REMARK SMILES O=C(NCc1ccc(C(=O)OCCOCCOC(=O)c2ccc(-c3c4nc(c(-c5cc(S(=O)(=O)[O-])ccc5F)c5ccc([nH]5)c(-c5cc(S(=O)(=O)[O-])ccc5F)c5nc(c(-c6cc(S(=O)(=O)[O-])ccc6F)c6ccc3[nH]6)C=C5)C=C4)cc2)cc1)Nc1ccccc1Br
REMARK SMILES IDX 14 1 13 2 12 3 11 4 9 5 10 6 8 7 5 8 6 9 84 10 7 11 83 12
REMARK SMILES IDX 4 13 3 14 1 15 2 16 85 17 86 20 87 21 91 22 88 23 90 24
REMARK SMILES IDX 92 25 89 26 15 27 16 28 17 29 18 30 19 31 20 32 21 33 82 34
REMARK SMILES IDX 22 35 81 36 23 37 24 38 25 39 75 40 26 41 80 42 74 43 76 44
REMARK SMILES IDX 27 45 79 46 73 47 72 48 28 50 60 51 40 52 59 53 41 54 44 55
REMARK SMILES IDX 58 56 77 57 42 58 43 59 57 61 78 62 45 63 29 64 30 65 38 66
REMARK SMILES IDX 31 67 37 68 39 69 36 70 32 71 33 72 34 73 35 74 61 75 62 76
REMARK SMILES IDX 70 77 63 78 69 79 71 80 68 81 64 82 65 83 66 84 67 85 46 86
REMARK SMILES IDX 47 87 55 88 48 89 54 90 56 91 53 92 49 93 50 94 51 95 52 96
REMARK H PARENT 3 18 85 19 76 49 44 60
REMARK Flexibility Score: inf
ROOT
ATOM      1  O   UNL     1       4.938  -8.078   3.034  1.00  0.00    -0.374 OA
ENDROOT
BRANCH   1   2
ATOM      2  C   UNL     1       6.010  -7.825   3.944  1.00  0.00     0.202 C 
BRANCH   2   3
ATOM      3  C   UNL     1       7.245  -7.146   3.346  1.00  0.00     0.261 C 
BRANCH   3   4
ATOM      4  O   UNL     1       6.921  -5.843   2.831  1.00  0.00    -0.460 OA
BRANCH   4   5
ATOM      5  C   UNL     1       6.947  -5.738   1.483  1.00  0.00     0.338 C 
ATOM      6  O   UNL     1       7.358  -6.572   0.688  1.00  0.00    -0.246 OA
BRANCH   5   7
ATOM      7  C   UNL     1       6.269  -4.496   1.043  1.00  0.00     0.060 A 
ATOM      8  C   UNL     1       5.072  -2.176   0.011  1.00  0.00    -0.029 A 
ATOM      9  C   UNL     1       5.034  -3.373  -0.716  1.00  0.00     0.006 A 
ATOM     10  C   UNL     1       5.646  -2.173   1.293  1.00  0.00     0.006 A 
ATOM     11  C   UNL     1       5.635  -4.522  -0.205  1.00  0.00     0.016 A 
ATOM     12  C   UNL     1       6.245  -3.327   1.810  1.00  0.00     0.016 A 
BRANCH   8  13
ATOM     13  C   UNL     1       4.559  -0.901  -0.603  1.00  0.00     0.153 C 
BRANCH  13  14
ATOM     14  N   UNL     1       3.117  -0.824  -0.607  1.00  0.00    -0.334 N 
ATOM     15  O   UNL     1       1.081   0.013  -0.310  1.00  0.00    -0.248 OA
ATOM     16  C   UNL     1       2.287   0.143  -0.128  1.00  0.00     0.319 C 
ATOM     17  N   UNL     1       2.893   1.212   0.467  1.00  0.00    -0.307 N 
ATOM     18  H   UNL     1       2.662  -1.592  -1.022  1.00  0.00     0.165 HD
ATOM     19  H   UNL     1       3.861   1.308   0.317  1.00  0.00     0.171 HD
BRANCH  17  20
ATOM     20  C   UNL     1       2.278   2.196   1.275  1.00  0.00     0.057 A 
ATOM     21  C   UNL     1       2.851   3.477   1.193  1.00  0.00     0.027 A 
ATOM     22  C   UNL     1       1.208   1.998   2.165  1.00  0.00     0.041 A 
ATOM     23  C   UNL     1       2.329   4.553   1.913  1.00  0.00     0.002 A 
ATOM     24  C   UNL     1       0.680   3.087   2.876  1.00  0.00     0.018 A 
ATOM     25  Br  UNL     1       0.537   0.293   2.681  1.00  0.00    -0.049 Br
ATOM     26  C   UNL     1       1.230   4.361   2.742  1.00  0.00     0.001 A 
ENDBRANCH  17  20
ENDBRANCH  13  14
ENDBRANCH   8  13
ENDBRANCH   5   7
ENDBRANCH   4   5
ENDBRANCH   3   4
ENDBRANCH   2   3
ENDBRANCH   1   2
BRANCH   1  27
ATOM     27  C   UNL     1       4.043  -6.994   2.776  1.00  0.00     0.202 C 
BRANCH  27  28
ATOM     28  C   UNL     1       2.972  -6.724   3.840  1.00  0.00     0.261 C 
BRANCH  28  29
ATOM     29  O   UNL     1       3.542  -6.221   5.062  1.00  0.00    -0.460 OA
BRANCH  29  30
ATOM     30  C   UNL     1       3.519  -7.094   6.097  1.00  0.00     0.338 C 
ATOM     31  O   UNL     1       3.002  -8.203   6.107  1.00  0.00    -0.246 OA
BRANCH  30  32
ATOM     32  C   UNL     1       4.384  -6.612   7.192  1.00  0.00     0.060 A 
ATOM     33  C   UNL     1       5.294  -7.525   7.739  1.00  0.00     0.016 A 
ATOM     34  C   UNL     1       4.271  -5.323   7.720  1.00  0.00     0.016 A 
ATOM     35  C   UNL     1       6.049  -7.176   8.855  1.00  0.00     0.010 A 
ATOM     36  C   UNL     1       5.028  -4.976   8.846  1.00  0.00     0.010 A 
ATOM     37  C   UNL     1       5.890  -5.915   9.442  1.00  0.00    -0.014 A 
BRANCH  37  38
ATOM     38  C   UNL     1       6.502  -5.654  10.770  1.00  0.00     0.031 A 
ATOM     39  C   UNL     1       5.642  -5.766  12.000  1.00  0.00     0.074 A 
ATOM     40  C   UNL     1       7.814  -5.376  10.883  1.00  0.00     0.049 A 
ATOM     41  N   UNL     1       5.958  -5.588  13.257  1.00  0.00    -0.248 NA
ATOM     42  C   UNL     1       4.233  -6.126  11.779  1.00  0.00     0.031 C 
ATOM     43  C   UNL     1       8.755  -5.283   9.768  1.00  0.00     0.029 A 
ATOM     44  N   UNL     1       8.581  -5.122  11.993  1.00  0.00    -0.354 N 
ATOM     45  C   UNL     1       4.790  -5.814  13.978  1.00  0.00     0.074 A 
ATOM     46  C   UNL     1       3.750  -6.097  13.012  1.00  0.00     0.031 C 
ATOM     47  C   UNL     1       9.974  -4.988  10.251  1.00  0.00     0.029 A 
ATOM     48  C   UNL     1       9.895  -4.840  11.704  1.00  0.00     0.049 A 
ATOM     49  H   UNL     1       8.223  -5.141  12.910  1.00  0.00     0.167 HD
ATOM     50  C   UNL     1       4.604  -5.798  15.322  1.00  0.00     0.034 A 
ATOM     51  C   UNL     1      10.911  -4.485  12.516  1.00  0.00     0.034 A 
ATOM     52  C   UNL     1       5.649  -5.503  16.272  1.00  0.00     0.049 A 
ATOM     53  C   UNL     1      10.663  -4.396  14.003  1.00  0.00     0.074 A 
ATOM     54  C   UNL     1       5.575  -5.471  17.654  1.00  0.00     0.029 A 
ATOM     55  N   UNL     1       6.958  -5.175  15.939  1.00  0.00    -0.354 N 
ATOM     56  N   UNL     1       9.556  -4.623  14.673  1.00  0.00    -0.248 NA
ATOM     57  C   UNL     1      11.806  -4.014  14.843  1.00  0.00     0.031 C 
ATOM     58  C   UNL     1       6.816  -5.056  18.151  1.00  0.00     0.029 A 
ATOM     59  C   UNL     1       7.690  -4.906  17.086  1.00  0.00     0.049 A 
ATOM     60  H   UNL     1       7.314  -5.138  15.022  1.00  0.00     0.167 HD
ATOM     61  C   UNL     1       9.881  -4.442  16.016  1.00  0.00     0.074 A 
ATOM     62  C   UNL     1      11.289  -4.102  16.059  1.00  0.00     0.031 C 
ATOM     63  C   UNL     1       9.091  -4.554  17.115  1.00  0.00     0.034 A 
BRANCH  50  64
ATOM     64  C   UNL     1       3.206  -6.056  15.829  1.00  0.00     0.023 A 
ATOM     65  C   UNL     1       2.560  -7.290  15.633  1.00  0.00     0.031 A 
ATOM     66  C   UNL     1       2.493  -5.039  16.489  1.00  0.00     0.131 A 
ATOM     67  C   UNL     1       1.222  -7.451  16.025  1.00  0.00     0.055 A 
ATOM     68  C   UNL     1       1.188  -5.232  16.948  1.00  0.00     0.041 A 
ATOM     69  F   UNL     1       3.047  -3.833  16.686  1.00  0.00    -0.206 F 
ATOM     70  C   UNL     1       0.540  -6.439  16.703  1.00  0.00     0.022 A 
BRANCH  67  71
ATOM     71  S   UNL     1       0.340  -8.949  15.506  1.00  0.00     0.124 S 
ATOM     72  O   UNL     1       0.466  -8.877  14.052  1.00  0.00    -0.237 OA
ATOM     73  O   UNL     1       1.100 -10.006  16.162  1.00  0.00    -0.237 OA
ATOM     74  O   UNL     1      -1.014  -8.744  16.017  1.00  0.00    -0.744 OA
ENDBRANCH  67  71
ENDBRANCH  50  64
BRANCH  51  75
ATOM     75  C   UNL     1      12.249  -4.149  11.948  1.00  0.00     0.023 A 
ATOM     76  C   UNL     1      13.385  -4.914  12.256  1.00  0.00     0.031 A 
ATOM     77  C   UNL     1      12.417  -3.018  11.130  1.00  0.00     0.131 A 
ATOM     78  C   UNL     1      14.646  -4.512  11.786  1.00  0.00     0.055 A 
ATOM     79  C   UNL     1      13.665  -2.652  10.622  1.00  0.00     0.041 A 
ATOM     80  F   UNL     1      11.364  -2.251  10.805  1.00  0.00    -0.206 F 
ATOM     81  C   UNL     1      14.791  -3.395  10.961  1.00  0.00     0.022 A 
BRANCH  78  82
ATOM     82  S   UNL     1      16.112  -5.428  12.338  1.00  0.00     0.124 S 
ATOM     83  O   UNL     1      16.026  -5.281  13.786  1.00  0.00    -0.237 OA
ATOM     84  O   UNL     1      15.851  -6.763  11.811  1.00  0.00    -0.237 OA
ATOM     85  O   UNL     1      17.217  -4.714  11.702  1.00  0.00    -0.744 OA
ENDBRANCH  78  82
ENDBRANCH  51  75
BRANCH  63  86
ATOM     86  C   UNL     1       9.749  -4.350  18.459  1.00  0.00     0.023 A 
ATOM     87  C   UNL     1      10.262  -3.101  18.853  1.00  0.00     0.031 A 
ATOM     88  C   UNL     1       9.879  -5.428  19.352  1.00  0.00     0.131 A 
ATOM     89  C   UNL     1      10.932  -2.976  20.080  1.00  0.00     0.055 A 
ATOM     90  C   UNL     1      10.492  -5.283  20.598  1.00  0.00     0.041 A 
ATOM     91  F   UNL     1       9.410  -6.644  19.029  1.00  0.00    -0.206 F 
ATOM     92  C   UNL     1      11.036  -4.055  20.962  1.00  0.00     0.022 A 
BRANCH  89  93
ATOM     93  S   UNL     1      11.757  -1.407  20.466  1.00  0.00     0.124 S 
ATOM     94  O   UNL     1      12.670  -1.257  19.338  1.00  0.00    -0.237 OA
ATOM     95  O   UNL     1      10.639  -0.470  20.510  1.00  0.00    -0.237 OA
ATOM     96  O   UNL     1      12.399  -1.665  21.754  1.00  0.00    -0.744 OA
ENDBRANCH  89  93
ENDBRANCH  63  86
ENDBRANCH  37  38
ENDBRANCH  30  32
ENDBRANCH  29  30
ENDBRANCH  28  29
ENDBRANCH  27  28
ENDBRANCH   1  27
TORSDOF 20
