REMARK SMILES CC(C)(C)c1cc(NC(=O)[C@H]2[C@@H](C(=O)OCCOCCOC(=O)c3ccc(-c4c5nc(c(-c6cc(S(=O)(=O)[O-])ccc6F)c6ccc([nH]6)c(-c6cc(S(=O)(=O)[O-])ccc6F)c6nc(c(-c7cc(S(=O)(=O)[O-])ccc7F)c7ccc4[nH]7)C=C6)C=C5)cc3)[C@H]3C=C[C@@H]2C3)no1
REMARK SMILES IDX 18 1 17 2 16 3 15 4 13 5 14 6 12 7 11 8 90 9 87 10 89 11
REMARK SMILES IDX 91 12 88 13 9 14 8 15 10 17 7 18 5 19 6 20 93 21 92 22 2 23
REMARK SMILES IDX 1 24 3 25 4 26 19 27 20 28 21 29 22 30 23 31 24 32 25 33
REMARK SMILES IDX 86 34 26 35 85 36 27 37 28 38 29 39 79 40 30 41 84 42 78 43
REMARK SMILES IDX 80 44 31 45 83 46 77 47 76 48 32 50 64 51 44 52 63 53 45 54
REMARK SMILES IDX 48 55 62 56 81 57 46 58 47 59 61 61 82 62 49 63 33 64 34 65
REMARK SMILES IDX 42 66 35 67 41 68 43 69 40 70 36 71 37 72 38 73 39 74 65 75
REMARK SMILES IDX 66 76 74 77 67 78 73 79 75 80 72 81 68 82 69 83 70 84 71 85
REMARK SMILES IDX 50 86 51 87 59 88 52 89 58 90 60 91 57 92 53 93 54 94 55 95
REMARK SMILES IDX 56 96
REMARK H PARENT 8 16 80 49 48 60
REMARK Flexibility Score: inf
ROOT
ATOM      1  O   UNL     1       5.127   1.797  -9.916  1.00  0.00    -0.374 OA
ENDROOT
BRANCH   1   2
ATOM      2  C   UNL     1       6.398   1.316  -9.532  1.00  0.00     0.202 C 
BRANCH   2   3
ATOM      3  C   UNL     1       6.628   0.925  -8.070  1.00  0.00     0.261 C 
BRANCH   3   4
ATOM      4  O   UNL     1       5.597   0.154  -7.429  1.00  0.00    -0.463 OA
BRANCH   4   5
ATOM      5  C   UNL     1       4.647   0.894  -6.786  1.00  0.00     0.310 C 
ATOM      6  O   UNL     1       4.506   2.098  -6.945  1.00  0.00    -0.252 OA
BRANCH   5   7
ATOM      7  C   UNL     1       3.920   0.057  -5.742  1.00  0.00     0.119 C 
ATOM      8  C   UNL     1       2.453  -0.489  -5.925  1.00  0.00     0.100 C 
ATOM      9  C   UNL     1       1.708   0.175  -4.742  1.00  0.00     0.025 C 
ATOM     10  C   UNL     1       3.803   0.880  -4.419  1.00  0.00     0.027 C 
ATOM     11  C   UNL     1       1.700   1.678  -4.884  1.00  0.00    -0.027 C 
ATOM     12  C   UNL     1       2.776   0.057  -3.645  1.00  0.00     0.017 C 
ATOM     13  C   UNL     1       2.947   2.105  -4.655  1.00  0.00    -0.027 C 
BRANCH   8  14
ATOM     14  C   UNL     1       1.796  -0.538  -7.306  1.00  0.00     0.230 C 
ATOM     15  N   UNL     1       0.950   0.437  -7.737  1.00  0.00    -0.308 N 
ATOM     16  H   UNL     1       1.255   1.083  -8.415  1.00  0.00     0.171 HD
ATOM     17  O   UNL     1       2.060  -1.462  -8.079  1.00  0.00    -0.274 OA
BRANCH  15  18
ATOM     18  C   UNL     1      -0.335   0.528  -7.230  1.00  0.00     0.176 A 
ATOM     19  C   UNL     1      -2.385   1.223  -6.809  1.00  0.00     0.144 A 
ATOM     20  C   UNL     1      -1.323   1.444  -7.659  1.00  0.00     0.096 A 
ATOM     21  O   UNL     1      -2.088   0.162  -6.014  1.00  0.00    -0.359 OA
ATOM     22  N   UNL     1      -0.820  -0.279  -6.286  1.00  0.00    -0.062 NA
BRANCH  19  23
ATOM     23  C   UNL     1      -3.709   1.892  -6.568  1.00  0.00     0.023 C 
ATOM     24  C   UNL     1      -4.405   1.306  -5.322  1.00  0.00     0.019 C 
ATOM     25  C   UNL     1      -4.625   1.694  -7.785  1.00  0.00     0.019 C 
ATOM     26  C   UNL     1      -3.484   3.396  -6.329  1.00  0.00     0.019 C 
ENDBRANCH  19  23
ENDBRANCH  15  18
ENDBRANCH   8  14
ENDBRANCH   5   7
ENDBRANCH   4   5
ENDBRANCH   3   4
ENDBRANCH   2   3
ENDBRANCH   1   2
BRANCH   1  27
ATOM     27  C   UNL     1       3.990   0.949  -9.930  1.00  0.00     0.202 C 
BRANCH  27  28
ATOM     28  C   UNL     1       4.065  -0.582  -9.901  1.00  0.00     0.261 C 
BRANCH  28  29
ATOM     29  O   UNL     1       5.272  -1.207 -10.273  1.00  0.00    -0.460 OA
BRANCH  29  30
ATOM     30  C   UNL     1       5.521  -1.279 -11.589  1.00  0.00     0.338 C 
ATOM     31  O   UNL     1       4.896  -0.795 -12.505  1.00  0.00    -0.246 OA
BRANCH  30  32
ATOM     32  C   UNL     1       6.805  -1.983 -11.644  1.00  0.00     0.060 A 
ATOM     33  C   UNL     1       7.915  -1.298 -12.134  1.00  0.00     0.016 A 
ATOM     34  C   UNL     1       6.901  -3.289 -11.145  1.00  0.00     0.016 A 
ATOM     35  C   UNL     1       9.127  -1.965 -12.215  1.00  0.00     0.010 A 
ATOM     36  C   UNL     1       8.118  -3.953 -11.220  1.00  0.00     0.010 A 
ATOM     37  C   UNL     1       9.212  -3.307 -11.816  1.00  0.00    -0.014 A 
BRANCH  37  38
ATOM     38  C   UNL     1      10.381  -4.091 -12.255  1.00  0.00     0.031 A 
ATOM     39  C   UNL     1      10.225  -4.936 -13.489  1.00  0.00     0.074 A 
ATOM     40  C   UNL     1      11.553  -3.971 -11.612  1.00  0.00     0.049 A 
ATOM     41  N   UNL     1      11.113  -5.660 -14.114  1.00  0.00    -0.248 NA
ATOM     42  C   UNL     1       8.884  -4.970 -14.103  1.00  0.00     0.031 C 
ATOM     43  C   UNL     1      11.783  -3.146 -10.424  1.00  0.00     0.029 A 
ATOM     44  N   UNL     1      12.773  -4.530 -11.874  1.00  0.00    -0.354 N 
ATOM     45  C   UNL     1      10.439  -6.239 -15.185  1.00  0.00     0.074 A 
ATOM     46  C   UNL     1       9.062  -5.814 -15.108  1.00  0.00     0.031 C 
ATOM     47  C   UNL     1      13.075  -3.248 -10.067  1.00  0.00     0.029 A 
ATOM     48  C   UNL     1      13.751  -4.166 -10.979  1.00  0.00     0.049 A 
ATOM     49  H   UNL     1      12.936  -5.136 -12.633  1.00  0.00     0.167 HD
ATOM     50  C   UNL     1      10.939  -7.045 -16.151  1.00  0.00     0.034 A 
ATOM     51  C   UNL     1      15.041  -4.548 -10.911  1.00  0.00     0.034 A 
ATOM     52  C   UNL     1      12.322  -7.442 -16.199  1.00  0.00     0.049 A 
ATOM     53  C   UNL     1      15.562  -5.471 -11.989  1.00  0.00     0.074 A 
ATOM     54  C   UNL     1      12.957  -8.242 -17.130  1.00  0.00     0.029 A 
ATOM     55  N   UNL     1      13.284  -7.069 -15.268  1.00  0.00    -0.354 N 
ATOM     56  N   UNL     1      14.922  -5.989 -13.015  1.00  0.00    -0.248 NA
ATOM     57  C   UNL     1      16.980  -5.837 -11.917  1.00  0.00     0.031 C 
ATOM     58  C   UNL     1      14.284  -8.411 -16.722  1.00  0.00     0.029 A 
ATOM     59  C   UNL     1      14.502  -7.643 -15.588  1.00  0.00     0.049 A 
ATOM     60  H   UNL     1      13.123  -6.482 -14.494  1.00  0.00     0.167 HD
ATOM     61  C   UNL     1      15.876  -6.705 -13.734  1.00  0.00     0.074 A 
ATOM     62  C   UNL     1      17.132  -6.530 -13.034  1.00  0.00     0.031 C 
ATOM     63  C   UNL     1      15.737  -7.438 -14.869  1.00  0.00     0.034 A 
BRANCH  50  64
ATOM     64  C   UNL     1       9.981  -7.589 -17.181  1.00  0.00     0.023 A 
ATOM     65  C   UNL     1       9.328  -6.762 -18.113  1.00  0.00     0.031 A 
ATOM     66  C   UNL     1       9.716  -8.970 -17.226  1.00  0.00     0.131 A 
ATOM     67  C   UNL     1       8.414  -7.319 -19.022  1.00  0.00     0.055 A 
ATOM     68  C   UNL     1       8.859  -9.525 -18.177  1.00  0.00     0.041 A 
ATOM     69  F   UNL     1      10.285  -9.803 -16.340  1.00  0.00    -0.206 F 
ATOM     70  C   UNL     1       8.196  -8.698 -19.077  1.00  0.00     0.022 A 
BRANCH  67  71
ATOM     71  S   UNL     1       7.436  -6.208 -20.072  1.00  0.00     0.124 S 
ATOM     72  O   UNL     1       6.679  -5.452 -19.077  1.00  0.00    -0.237 OA
ATOM     73  O   UNL     1       8.464  -5.466 -20.792  1.00  0.00    -0.237 OA
ATOM     74  O   UNL     1       6.640  -7.122 -20.889  1.00  0.00    -0.744 OA
ENDBRANCH  67  71
ENDBRANCH  50  64
BRANCH  51  75
ATOM     75  C   UNL     1      15.921  -4.090  -9.796  1.00  0.00     0.023 A 
ATOM     76  C   UNL     1      17.098  -3.368 -10.044  1.00  0.00     0.031 A 
ATOM     77  C   UNL     1      15.639  -4.445  -8.464  1.00  0.00     0.131 A 
ATOM     78  C   UNL     1      17.987  -3.092  -8.992  1.00  0.00     0.055 A 
ATOM     79  C   UNL     1      16.491  -4.108  -7.411  1.00  0.00     0.041 A 
ATOM     80  F   UNL     1      14.525  -5.133  -8.164  1.00  0.00    -0.206 F 
ATOM     81  C   UNL     1      17.686  -3.447  -7.676  1.00  0.00     0.022 A 
BRANCH  78  82
ATOM     82  S   UNL     1      19.611  -2.388  -9.392  1.00  0.00     0.124 S 
ATOM     83  O   UNL     1      20.103  -3.327 -10.393  1.00  0.00    -0.237 OA
ATOM     84  O   UNL     1      19.250  -1.060  -9.878  1.00  0.00    -0.237 OA
ATOM     85  O   UNL     1      20.315  -2.412  -8.112  1.00  0.00    -0.744 OA
ENDBRANCH  78  82
ENDBRANCH  51  75
BRANCH  63  86
ATOM     86  C   UNL     1      16.994  -8.037 -15.450  1.00  0.00     0.023 A 
ATOM     87  C   UNL     1      17.734  -9.016 -14.766  1.00  0.00     0.031 A 
ATOM     88  C   UNL     1      17.472  -7.593 -16.696  1.00  0.00     0.131 A 
ATOM     89  C   UNL     1      18.956  -9.457 -15.292  1.00  0.00     0.055 A 
ATOM     90  C   UNL     1      18.649  -8.095 -17.251  1.00  0.00     0.041 A 
ATOM     91  F   UNL     1      16.803  -6.660 -17.393  1.00  0.00    -0.206 F 
ATOM     92  C   UNL     1      19.409  -9.017 -16.539  1.00  0.00     0.022 A 
BRANCH  89  93
ATOM     93  S   UNL     1      20.011 -10.511 -14.260  1.00  0.00     0.124 S 
ATOM     94  O   UNL     1      20.151  -9.707 -13.050  1.00  0.00    -0.237 OA
ATOM     95  O   UNL     1      19.209 -11.722 -14.130  1.00  0.00    -0.237 OA
ATOM     96  O   UNL     1      21.230 -10.656 -15.054  1.00  0.00    -0.744 OA
ENDBRANCH  89  93
ENDBRANCH  63  86
ENDBRANCH  37  38
ENDBRANCH  30  32
ENDBRANCH  29  30
ENDBRANCH  28  29
ENDBRANCH  27  28
ENDBRANCH   1  27
TORSDOF 20
