REMARK SMILES CN1C(=O)C[C@@H](C(=O)OCCOCCOC(=O)c2ccc(-c3c4nc(c(-c5cc(S(=O)(=O)[O-])ccc5F)c5ccc([nH]5)c(-c5cc(S(=O)(=O)[O-])ccc5F)c5nc(c(-c6cc(S(=O)(=O)[O-])ccc6F)c6ccc3[nH]6)C=C5)C=C4)cc2)C12CCN(C(=O)c1ccccc1-n1cccn1)CC2
REMARK SMILES IDX 13 1 12 2 11 3 10 4 9 5 7 6 8 7 6 8 1 9 2 10 3 11 81 12 4 13
REMARK SMILES IDX 5 14 82 15 99 16 83 17 98 18 84 19 85 20 86 21 87 22 88 23
REMARK SMILES IDX 92 24 89 25 91 26 90 27 93 28 94 29 97 30 95 31 96 32 14 33
REMARK SMILES IDX 15 34 16 35 17 36 18 37 19 38 80 39 20 40 79 41 21 42 22 43
REMARK SMILES IDX 23 44 73 45 24 46 78 47 72 48 74 49 25 50 77 51 71 52 70 53
REMARK SMILES IDX 26 55 58 56 38 57 57 58 39 59 42 60 56 61 75 62 40 63 41 64
REMARK SMILES IDX 55 66 76 67 43 68 27 69 28 70 36 71 29 72 35 73 37 74 34 75
REMARK SMILES IDX 30 76 31 77 32 78 33 79 59 80 60 81 68 82 61 83 67 84 69 85
REMARK SMILES IDX 66 86 62 87 63 88 64 89 65 90 44 91 45 92 53 93 46 94 52 95
REMARK SMILES IDX 54 96 51 97 47 98 48 99 49 100 50 101
REMARK H PARENT 74 54 42 65
REMARK Flexibility Score: inf
ROOT
ATOM      1  C   UNL     1      -3.348  -2.764  -4.236  1.00  0.00     0.202 C 
ENDROOT
BRANCH   1   2
ATOM      2  O   UNL     1      -4.448  -1.883  -4.022  1.00  0.00    -0.374 OA
BRANCH   2   3
ATOM      3  C   UNL     1      -4.164  -0.601  -3.462  1.00  0.00     0.202 C 
BRANCH   3   4
ATOM      4  C   UNL     1      -3.875  -0.555  -1.955  1.00  0.00     0.261 C 
BRANCH   4   5
ATOM      5  O   UNL     1      -2.648  -1.197  -1.542  1.00  0.00    -0.463 OA
BRANCH   5   6
ATOM      6  C   UNL     1      -2.788  -2.359  -0.865  1.00  0.00     0.311 C 
ATOM      7  O   UNL     1      -3.851  -2.963  -0.740  1.00  0.00    -0.252 OA
BRANCH   6   8
ATOM      8  C   UNL     1      -1.536  -2.862  -0.164  1.00  0.00     0.134 C 
ATOM      9  C   UNL     1       1.119  -0.243   0.042  1.00  0.00     0.147 C 
ATOM     10  N   UNL     1       0.085  -1.237   0.265  1.00  0.00    -0.339 N 
ATOM     11  C   UNL     1      -0.750  -1.214   1.371  1.00  0.00     0.223 C 
ATOM     12  C   UNL     1      -0.107  -2.427  -0.571  1.00  0.00     0.060 C 
ATOM     13  O   UNL     1      -0.738  -0.406   2.285  1.00  0.00    -0.275 OA
ATOM     14  C   UNL     1      -1.657  -2.412   1.300  1.00  0.00     0.118 C 
ATOM     15  C   UNL     1       0.137  -2.164  -2.065  1.00  0.00     0.051 C 
ATOM     16  C   UNL     1       0.923  -3.519  -0.127  1.00  0.00     0.051 C 
ATOM     17  C   UNL     1       0.044  -3.438  -2.892  1.00  0.00     0.122 C 
ATOM     18  C   UNL     1       0.921  -4.770  -1.011  1.00  0.00     0.122 C 
ATOM     19  N   UNL     1       1.003  -4.438  -2.428  1.00  0.00    -0.338 N 
ATOM     20  C   UNL     1       1.818  -5.214  -3.257  1.00  0.00     0.256 C 
ATOM     21  O   UNL     1       2.452  -6.191  -2.868  1.00  0.00    -0.269 OA
BRANCH  20  22
ATOM     22  C   UNL     1       1.922  -4.865  -4.694  1.00  0.00     0.065 A 
ATOM     23  C   UNL     1       1.370  -5.796  -5.590  1.00  0.00     0.016 A 
ATOM     24  C   UNL     1       2.411  -3.637  -5.168  1.00  0.00     0.077 A 
ATOM     25  C   UNL     1       1.252  -5.482  -6.944  1.00  0.00     0.001 A 
ATOM     26  C   UNL     1       2.236  -3.313  -6.525  1.00  0.00     0.029 A 
ATOM     27  C   UNL     1       1.665  -4.235  -7.406  1.00  0.00     0.002 A 
BRANCH  24  28
ATOM     28  N   UNL     1       3.059  -2.695  -4.328  1.00  0.00    -0.240 N 
ATOM     29  C   UNL     1       3.788  -2.920  -3.179  1.00  0.00     0.115 A 
ATOM     30  N   UNL     1       3.004  -1.368  -4.616  1.00  0.00    -0.177 NA
ATOM     31  C   UNL     1       4.156  -1.692  -2.684  1.00  0.00     0.042 A 
ATOM     32  C   UNL     1       3.643  -0.773  -3.609  1.00  0.00     0.135 A 
ENDBRANCH  24  28
ENDBRANCH  20  22
ENDBRANCH   6   8
ENDBRANCH   5   6
ENDBRANCH   4   5
ENDBRANCH   3   4
ENDBRANCH   2   3
ENDBRANCH   1   2
BRANCH   1  33
ATOM     33  C   UNL     1      -2.362  -2.340  -5.328  1.00  0.00     0.261 C 
BRANCH  33  34
ATOM     34  O   UNL     1      -1.661  -1.146  -4.940  1.00  0.00    -0.460 OA
BRANCH  34  35
ATOM     35  C   UNL     1      -1.216  -0.422  -5.992  1.00  0.00     0.338 C 
ATOM     36  O   UNL     1      -1.102  -0.813  -7.147  1.00  0.00    -0.246 OA
BRANCH  35  37
ATOM     37  C   UNL     1      -1.082   0.989  -5.596  1.00  0.00     0.060 A 
ATOM     38  C   UNL     1      -2.147   1.854  -5.878  1.00  0.00     0.016 A 
ATOM     39  C   UNL     1       0.116   1.483  -5.077  1.00  0.00     0.016 A 
ATOM     40  C   UNL     1      -1.992   3.230  -5.699  1.00  0.00     0.010 A 
ATOM     41  C   UNL     1       0.264   2.865  -4.892  1.00  0.00     0.010 A 
ATOM     42  C   UNL     1      -0.772   3.752  -5.245  1.00  0.00    -0.014 A 
BRANCH  42  43
ATOM     43  C   UNL     1      -0.538   5.222  -5.313  1.00  0.00     0.031 A 
ATOM     44  C   UNL     1       0.251   5.784  -6.469  1.00  0.00     0.074 A 
ATOM     45  C   UNL     1      -1.071   6.054  -4.399  1.00  0.00     0.049 A 
ATOM     46  N   UNL     1       0.545   7.028  -6.751  1.00  0.00    -0.248 NA
ATOM     47  C   UNL     1       0.777   4.809  -7.436  1.00  0.00     0.031 C 
ATOM     48  C   UNL     1      -1.882   5.641  -3.255  1.00  0.00     0.029 A 
ATOM     49  N   UNL     1      -1.015   7.423  -4.292  1.00  0.00    -0.354 N 
ATOM     50  C   UNL     1       1.285   6.987  -7.929  1.00  0.00     0.074 A 
ATOM     51  C   UNL     1       1.433   5.590  -8.281  1.00  0.00     0.031 C 
ATOM     52  C   UNL     1      -2.250   6.734  -2.563  1.00  0.00     0.029 A 
ATOM     53  C   UNL     1      -1.680   7.922  -3.195  1.00  0.00     0.049 A 
ATOM     54  H   UNL     1      -0.543   7.994  -4.940  1.00  0.00     0.167 HD
ATOM     55  C   UNL     1       1.783   8.016  -8.660  1.00  0.00     0.034 A 
ATOM     56  C   UNL     1      -1.804   9.189  -2.746  1.00  0.00     0.034 A 
ATOM     57  C   UNL     1       1.643   9.405  -8.296  1.00  0.00     0.049 A 
ATOM     58  C   UNL     1      -1.174  10.314  -3.534  1.00  0.00     0.074 A 
ATOM     59  C   UNL     1       2.103  10.525  -8.968  1.00  0.00     0.029 A 
ATOM     60  N   UNL     1       1.006   9.866  -7.151  1.00  0.00    -0.354 N 
ATOM     61  N   UNL     1      -0.493  10.258  -4.656  1.00  0.00    -0.248 NA
ATOM     62  C   UNL     1      -1.339  11.673  -3.000  1.00  0.00     0.031 C 
ATOM     63  C   UNL     1       1.802  11.655  -8.199  1.00  0.00     0.029 A 
ATOM     64  C   UNL     1       1.090  11.249  -7.082  1.00  0.00     0.049 A 
ATOM     65  H   UNL     1       0.560   9.295  -6.485  1.00  0.00     0.167 HD
ATOM     66  C   UNL     1      -0.177  11.578  -4.974  1.00  0.00     0.074 A 
ATOM     67  C   UNL     1      -0.753  12.405  -3.935  1.00  0.00     0.031 C 
ATOM     68  C   UNL     1       0.520  12.063  -6.034  1.00  0.00     0.034 A 
BRANCH  55  69
ATOM     69  C   UNL     1       2.567   7.666  -9.903  1.00  0.00     0.023 A 
ATOM     70  C   UNL     1       1.962   7.037 -11.006  1.00  0.00     0.031 A 
ATOM     71  C   UNL     1       3.944   7.939  -9.974  1.00  0.00     0.131 A 
ATOM     72  C   UNL     1       2.745   6.640 -12.101  1.00  0.00     0.055 A 
ATOM     73  C   UNL     1       4.703   7.609 -11.099  1.00  0.00     0.041 A 
ATOM     74  F   UNL     1       4.580   8.519  -8.944  1.00  0.00    -0.206 F 
ATOM     75  C   UNL     1       4.107   6.942 -12.165  1.00  0.00     0.022 A 
BRANCH  72  76
ATOM     76  S   UNL     1       1.986   5.604 -13.382  1.00  0.00     0.124 S 
ATOM     77  O   UNL     1       1.554   4.444 -12.607  1.00  0.00    -0.237 OA
ATOM     78  O   UNL     1       0.924   6.462 -13.894  1.00  0.00    -0.237 OA
ATOM     79  O   UNL     1       3.084   5.348 -14.312  1.00  0.00    -0.744 OA
ENDBRANCH  72  76
ENDBRANCH  55  69
BRANCH  56  80
ATOM     80  C   UNL     1      -2.524   9.474  -1.470  1.00  0.00     0.023 A 
ATOM     81  C   UNL     1      -3.693  10.252  -1.447  1.00  0.00     0.031 A 
ATOM     82  C   UNL     1      -2.012   9.019  -0.241  1.00  0.00     0.131 A 
ATOM     83  C   UNL     1      -4.286  10.588  -0.219  1.00  0.00     0.055 A 
ATOM     84  C   UNL     1      -2.634   9.313   0.973  1.00  0.00     0.041 A 
ATOM     85  F   UNL     1      -0.895   8.275  -0.205  1.00  0.00    -0.206 F 
ATOM     86  C   UNL     1      -3.772  10.114   0.989  1.00  0.00     0.022 A 
BRANCH  83  87
ATOM     87  S   UNL     1      -5.696  11.732  -0.217  1.00  0.00     0.124 S 
ATOM     88  O   UNL     1      -5.131  12.902  -0.879  1.00  0.00    -0.237 OA
ATOM     89  O   UNL     1      -6.692  10.983  -0.976  1.00  0.00    -0.237 OA
ATOM     90  O   UNL     1      -5.994  11.901   1.203  1.00  0.00    -0.744 OA
ENDBRANCH  83  87
ENDBRANCH  56  80
BRANCH  68  91
ATOM     91  C   UNL     1       0.658  13.562  -6.139  1.00  0.00     0.023 A 
ATOM     92  C   UNL     1       1.424  14.302  -5.221  1.00  0.00     0.031 A 
ATOM     93  C   UNL     1       0.006  14.261  -7.170  1.00  0.00     0.131 A 
ATOM     94  C   UNL     1       1.476  15.701  -5.320  1.00  0.00     0.055 A 
ATOM     95  C   UNL     1       0.106  15.647  -7.297  1.00  0.00     0.041 A 
ATOM     96  F   UNL     1      -0.739  13.605  -8.075  1.00  0.00    -0.206 F 
ATOM     97  C   UNL     1       0.834  16.377  -6.362  1.00  0.00     0.022 A 
BRANCH  94  98
ATOM     98  S   UNL     1       2.326  16.638  -4.020  1.00  0.00     0.124 S 
ATOM     99  O   UNL     1       1.589  16.238  -2.826  1.00  0.00    -0.237 OA
ATOM    100  O   UNL     1       3.694  16.142  -4.122  1.00  0.00    -0.237 OA
ATOM    101  O   UNL     1       2.142  18.031  -4.424  1.00  0.00    -0.744 OA
ENDBRANCH  94  98
ENDBRANCH  68  91
ENDBRANCH  42  43
ENDBRANCH  35  37
ENDBRANCH  34  35
ENDBRANCH  33  34
ENDBRANCH   1  33
TORSDOF 19
