REMARK SMILES CC1(C)[C@@](C)(C(=O)Nc2ccc(Cl)cc2Cl)CC[C@]1(C)C(=O)OCCOCCOC(=O)c1ccc(-c2c3nc(c(-c4cc(S(=O)(=O)[O-])ccc4F)c4ccc([nH]4)c(-c4cc(S(=O)(=O)[O-])ccc4F)c4nc(c(-c5cc(S(=O)(=O)[O-])ccc5F)c5ccc2[nH]5)C=C4)C=C3)cc1
REMARK SMILES IDX 27 1 26 2 25 3 24 4 23 5 21 6 22 7 19 8 1 9 2 10 3 11 4 12
REMARK SMILES IDX 5 13 17 14 18 15 20 16 6 17 7 18 8 19 9 21 10 22 15 23 11 24
REMARK SMILES IDX 14 25 16 26 12 27 13 28 28 29 29 30 30 31 31 32 32 33 33 34
REMARK SMILES IDX 94 35 34 36 93 37 35 38 36 39 37 40 87 41 38 42 92 43 86 44
REMARK SMILES IDX 88 45 39 46 91 47 85 48 84 49 40 51 72 52 52 53 71 54 53 55
REMARK SMILES IDX 56 56 70 57 89 58 54 59 55 60 69 62 90 63 57 64 41 65 42 66
REMARK SMILES IDX 50 67 43 68 49 69 51 70 48 71 44 72 45 73 46 74 47 75 73 76
REMARK SMILES IDX 74 77 82 78 75 79 81 80 83 81 80 82 76 83 77 84 78 85 79 86
REMARK SMILES IDX 58 87 59 88 67 89 60 90 66 91 68 92 65 93 61 94 62 95 63 96
REMARK SMILES IDX 64 97
REMARK H PARENT 8 20 88 50 56 61
REMARK Flexibility Score: inf
ROOT
ATOM      1  C   UNL     1      -2.691  -2.119   3.061  1.00  0.00     0.202 C 
ENDROOT
BRANCH   1   2
ATOM      2  O   UNL     1      -2.652  -1.618   4.394  1.00  0.00    -0.374 OA
BRANCH   2   3
ATOM      3  C   UNL     1      -1.992  -0.369   4.594  1.00  0.00     0.202 C 
BRANCH   3   4
ATOM      4  C   UNL     1      -0.461  -0.391   4.679  1.00  0.00     0.261 C 
BRANCH   4   5
ATOM      5  O   UNL     1       0.169  -0.631   3.402  1.00  0.00    -0.463 OA
BRANCH   5   6
ATOM      6  C   UNL     1       0.776  -1.833   3.243  1.00  0.00     0.312 C 
ATOM      7  O   UNL     1       0.820  -2.695   4.116  1.00  0.00    -0.252 OA
BRANCH   6   8
ATOM      8  C   UNL     1       1.478  -2.003   1.874  1.00  0.00     0.071 C 
ATOM      9  C   UNL     1       1.536   0.206   0.632  1.00  0.00     0.013 C 
ATOM     10  C   UNL     1       0.905  -1.214   0.604  1.00  0.00    -0.005 C 
ATOM     11  C   UNL     1      -0.620  -1.006   0.623  1.00  0.00     0.013 C 
ATOM     12  C   UNL     1       1.209  -2.170  -0.659  1.00  0.00     0.053 C 
ATOM     13  C   UNL     1       0.139  -2.373  -1.782  1.00  0.00     0.022 C 
ATOM     14  C   UNL     1       1.198  -3.595  -0.001  1.00  0.00     0.018 C 
ATOM     15  C   UNL     1       1.358  -3.486   1.498  1.00  0.00     0.020 C 
ATOM     16  C   UNL     1       2.968  -1.706   2.179  1.00  0.00     0.024 C 
BRANCH  12  17
ATOM     17  C   UNL     1       2.569  -1.929  -1.363  1.00  0.00     0.230 C 
ATOM     18  O   UNL     1       3.559  -2.598  -1.037  1.00  0.00    -0.274 OA
ATOM     19  N   UNL     1       2.770  -1.068  -2.406  1.00  0.00    -0.324 N 
ATOM     20  H   UNL     1       3.642  -1.225  -2.836  1.00  0.00     0.170 HD
BRANCH  19  21
ATOM     21  C   UNL     1       2.070  -0.012  -3.037  1.00  0.00     0.060 A 
ATOM     22  C   UNL     1       0.966   0.627  -2.487  1.00  0.00     0.029 A 
ATOM     23  C   UNL     1       2.524   0.473  -4.278  1.00  0.00     0.066 A 
ATOM     24  C   UNL     1       0.338   1.715  -3.095  1.00  0.00     0.023 A 
ATOM     25  C   UNL     1       1.885   1.543  -4.922  1.00  0.00     0.043 A 
ATOM     26  Cl  UNL     1       3.860  -0.272  -5.088  1.00  0.00    -0.082 Cl
ATOM     27  C   UNL     1       0.799   2.167  -4.317  1.00  0.00     0.042 A 
ATOM     28  Cl  UNL     1       0.008   3.483  -5.084  1.00  0.00    -0.084 Cl
ENDBRANCH  19  21
ENDBRANCH  12  17
ENDBRANCH   6   8
ENDBRANCH   5   6
ENDBRANCH   4   5
ENDBRANCH   3   4
ENDBRANCH   2   3
ENDBRANCH   1   2
BRANCH   1  29
ATOM     29  C   UNL     1      -3.683  -1.440   2.096  1.00  0.00     0.261 C 
BRANCH  29  30
ATOM     30  O   UNL     1      -3.368  -0.054   1.845  1.00  0.00    -0.460 OA
BRANCH  30  31
ATOM     31  C   UNL     1      -4.276   0.833   2.318  1.00  0.00     0.338 C 
ATOM     32  O   UNL     1      -5.369   0.563   2.802  1.00  0.00    -0.246 OA
BRANCH  31  33
ATOM     33  C   UNL     1      -3.706   2.196   2.382  1.00  0.00     0.060 A 
ATOM     34  C   UNL     1      -3.759   2.839   3.625  1.00  0.00     0.016 A 
ATOM     35  C   UNL     1      -3.223   2.878   1.262  1.00  0.00     0.016 A 
ATOM     36  C   UNL     1      -3.405   4.181   3.741  1.00  0.00     0.010 A 
ATOM     37  C   UNL     1      -2.866   4.233   1.381  1.00  0.00     0.010 A 
ATOM     38  C   UNL     1      -3.002   4.907   2.612  1.00  0.00    -0.014 A 
BRANCH  38  39
ATOM     39  C   UNL     1      -2.901   6.391   2.718  1.00  0.00     0.031 A 
ATOM     40  C   UNL     1      -4.015   7.245   2.165  1.00  0.00     0.074 A 
ATOM     41  C   UNL     1      -1.890   6.975   3.391  1.00  0.00     0.049 A 
ATOM     42  N   UNL     1      -4.159   8.546   2.192  1.00  0.00    -0.248 NA
ATOM     43  C   UNL     1      -5.115   6.534   1.497  1.00  0.00     0.031 C 
ATOM     44  C   UNL     1      -0.783   6.265   4.029  1.00  0.00     0.029 A 
ATOM     45  N   UNL     1      -1.640   8.299   3.664  1.00  0.00    -0.354 N 
ATOM     46  C   UNL     1      -5.364   8.811   1.547  1.00  0.00     0.074 A 
ATOM     47  C   UNL     1      -5.885   7.536   1.099  1.00  0.00     0.031 C 
ATOM     48  C   UNL     1       0.023   7.160   4.625  1.00  0.00     0.029 A 
ATOM     49  C   UNL     1      -0.484   8.510   4.380  1.00  0.00     0.049 A 
ATOM     50  H   UNL     1      -2.234   9.029   3.373  1.00  0.00     0.167 HD
ATOM     51  C   UNL     1      -5.988  10.001   1.356  1.00  0.00     0.034 A 
ATOM     52  C   UNL     1       0.110   9.656   4.775  1.00  0.00     0.034 A 
ATOM     53  C   UNL     1      -5.462  11.269   1.802  1.00  0.00     0.049 A 
ATOM     54  C   UNL     1      -0.551  10.979   4.460  1.00  0.00     0.074 A 
ATOM     55  C   UNL     1      -6.024  12.528   1.670  1.00  0.00     0.029 A 
ATOM     56  N   UNL     1      -4.247  11.448   2.451  1.00  0.00    -0.354 N 
ATOM     57  N   UNL     1      -1.692  11.210   3.853  1.00  0.00    -0.248 NA
ATOM     58  C   UNL     1       0.154  12.193   4.893  1.00  0.00     0.031 C 
ATOM     59  C   UNL     1      -5.115  13.471   2.158  1.00  0.00     0.029 A 
ATOM     60  C   UNL     1      -4.025  12.798   2.685  1.00  0.00     0.049 A 
ATOM     61  H   UNL     1      -3.633  10.723   2.709  1.00  0.00     0.167 HD
ATOM     62  C   UNL     1      -1.855  12.595   3.864  1.00  0.00     0.074 A 
ATOM     63  C   UNL     1      -0.704  13.143   4.550  1.00  0.00     0.031 C 
ATOM     64  C   UNL     1      -2.869  13.344   3.359  1.00  0.00     0.034 A 
BRANCH  51  65
ATOM     65  C   UNL     1      -7.287   9.991   0.583  1.00  0.00     0.023 A 
ATOM     66  C   UNL     1      -8.434   9.334   1.061  1.00  0.00     0.031 A 
ATOM     67  C   UNL     1      -7.372  10.639  -0.663  1.00  0.00     0.131 A 
ATOM     68  C   UNL     1      -9.591   9.279   0.268  1.00  0.00     0.055 A 
ATOM     69  C   UNL     1      -8.553  10.653  -1.408  1.00  0.00     0.041 A 
ATOM     70  F   UNL     1      -6.304  11.264  -1.183  1.00  0.00    -0.206 F 
ATOM     71  C   UNL     1      -9.667   9.958  -0.950  1.00  0.00     0.022 A 
BRANCH  68  72
ATOM     72  S   UNL     1     -10.943   8.184   0.781  1.00  0.00     0.124 S 
ATOM     73  O   UNL     1     -10.264   6.893   0.857  1.00  0.00    -0.237 OA
ATOM     74  O   UNL     1     -11.355   8.766   2.053  1.00  0.00    -0.237 OA
ATOM     75  O   UNL     1     -11.913   8.306  -0.305  1.00  0.00    -0.744 OA
ENDBRANCH  68  72
ENDBRANCH  51  65
BRANCH  52  76
ATOM     76  C   UNL     1       1.430   9.622   5.473  1.00  0.00     0.023 A 
ATOM     77  C   UNL     1       1.587  10.132   6.772  1.00  0.00     0.031 A 
ATOM     78  C   UNL     1       2.576   9.138   4.815  1.00  0.00     0.131 A 
ATOM     79  C   UNL     1       2.865  10.193   7.350  1.00  0.00     0.055 A 
ATOM     80  C   UNL     1       3.834   9.144   5.418  1.00  0.00     0.041 A 
ATOM     81  F   UNL     1       2.486   8.647   3.568  1.00  0.00    -0.206 F 
ATOM     82  C   UNL     1       3.987   9.688   6.689  1.00  0.00     0.022 A 
BRANCH  79  83
ATOM     83  S   UNL     1       3.061  11.037   8.944  1.00  0.00     0.124 S 
ATOM     84  O   UNL     1       2.558  12.371   8.636  1.00  0.00    -0.237 OA
ATOM     85  O   UNL     1       2.228  10.222   9.822  1.00  0.00    -0.237 OA
ATOM     86  O   UNL     1       4.498  10.954   9.199  1.00  0.00    -0.744 OA
ENDBRANCH  79  83
ENDBRANCH  52  76
BRANCH  64  87
ATOM     87  C   UNL     1      -2.804  14.840   3.573  1.00  0.00     0.023 A 
ATOM     88  C   UNL     1      -1.800  15.634   2.990  1.00  0.00     0.031 A 
ATOM     89  C   UNL     1      -3.761  15.481   4.381  1.00  0.00     0.131 A 
ATOM     90  C   UNL     1      -1.742  17.009   3.269  1.00  0.00     0.055 A 
ATOM     91  C   UNL     1      -3.739  16.859   4.600  1.00  0.00     0.041 A 
ATOM     92  F   UNL     1      -4.742  14.776   4.968  1.00  0.00    -0.206 F 
ATOM     93  C   UNL     1      -2.717  17.629   4.054  1.00  0.00     0.022 A 
BRANCH  90  94
ATOM     94  S   UNL     1      -0.317  17.962   2.674  1.00  0.00     0.124 S 
ATOM     95  O   UNL     1       0.800  17.248   3.283  1.00  0.00    -0.237 OA
ATOM     96  O   UNL     1      -0.441  17.836   1.226  1.00  0.00    -0.237 OA
ATOM     97  O   UNL     1      -0.557  19.304   3.202  1.00  0.00    -0.744 OA
ENDBRANCH  90  94
ENDBRANCH  64  87
ENDBRANCH  38  39
ENDBRANCH  31  33
ENDBRANCH  30  31
ENDBRANCH  29  30
ENDBRANCH   1  29
TORSDOF 19
