REMARK SMILES C[C@@]1(C(=O)N[C@@H](CO)C(=O)OCCOCCOC(=O)c2ccc(-c3c4nc(c(-c5cc(S(=O)(=O)[O-])ccc5F)c5ccc([nH]5)c(-c5cc(S(=O)(=O)[O-])ccc5F)c5nc(c(-c6cc(S(=O)(=O)[O-])ccc6F)c6ccc3[nH]6)C=C5)C=C4)cc2)CCCO1
REMARK SMILES IDX 15 1 14 2 13 3 12 4 11 5 9 6 10 7 6 8 5 9 3 10 4 11 2 13
REMARK SMILES IDX 1 14 83 15 86 16 84 17 85 18 7 19 8 20 16 22 17 23 18 24
REMARK SMILES IDX 19 25 20 26 21 27 82 28 22 29 81 30 23 31 24 32 25 33 75 34
REMARK SMILES IDX 26 35 80 36 74 37 76 38 27 39 79 40 73 41 72 42 28 44 60 45
REMARK SMILES IDX 40 46 59 47 41 48 44 49 58 50 77 51 42 52 43 53 57 55 78 56
REMARK SMILES IDX 45 57 29 58 30 59 38 60 31 61 37 62 39 63 36 64 32 65 33 66
REMARK SMILES IDX 34 67 35 68 61 69 62 70 70 71 63 72 69 73 71 74 68 75 64 76
REMARK SMILES IDX 65 77 66 78 67 79 46 80 47 81 55 82 48 83 54 84 56 85 53 86
REMARK SMILES IDX 49 87 50 88 51 89 52 90
REMARK H PARENT 5 12 8 21 76 43 44 54
REMARK Flexibility Score: inf
ROOT
ATOM      1  C   UNL     1       2.638  -4.650  -2.303  1.00  0.00     0.202 C 
ENDROOT
BRANCH   1   2
ATOM      2  O   UNL     1       2.794  -6.040  -2.576  1.00  0.00    -0.374 OA
BRANCH   2   3
ATOM      3  C   UNL     1       1.959  -6.615  -3.581  1.00  0.00     0.202 C 
BRANCH   3   4
ATOM      4  C   UNL     1       0.471  -6.747  -3.243  1.00  0.00     0.261 C 
BRANCH   4   5
ATOM      5  O   UNL     1      -0.128  -5.465  -2.994  1.00  0.00    -0.462 OA
BRANCH   5   6
ATOM      6  C   UNL     1      -0.960  -5.406  -1.918  1.00  0.00     0.331 C 
ATOM      7  O   UNL     1      -1.314  -6.371  -1.248  1.00  0.00    -0.250 OA
BRANCH   6   8
ATOM      8  C   UNL     1      -1.434  -3.980  -1.617  1.00  0.00     0.218 C 
BRANCH   8   9
ATOM      9  N   UNL     1      -0.655  -2.915  -2.265  1.00  0.00    -0.338 N 
ATOM     10  C   UNL     1       0.024  -1.849  -1.752  1.00  0.00     0.252 C 
ATOM     11  O   UNL     1       0.587  -1.116  -2.574  1.00  0.00    -0.272 OA
ATOM     12  H   UNL     1      -0.615  -2.985  -3.246  1.00  0.00     0.164 HD
BRANCH  10  13
ATOM     13  C   UNL     1       0.189  -1.594  -0.215  1.00  0.00     0.143 C 
ATOM     14  C   UNL     1       0.431  -0.091   0.002  1.00  0.00     0.053 C 
ATOM     15  C   UNL     1       1.395  -2.368   0.339  1.00  0.00     0.048 C 
ATOM     16  O   UNL     1      -0.940  -1.960   0.591  1.00  0.00    -0.365 OA
ATOM     17  C   UNL     1       0.778  -3.470   1.161  1.00  0.00     0.032 C 
ATOM     18  C   UNL     1      -0.490  -2.815   1.654  1.00  0.00     0.162 C 
ENDBRANCH  10  13
ENDBRANCH   8   9
BRANCH   8  19
ATOM     19  C   UNL     1      -2.919  -3.882  -1.973  1.00  0.00     0.193 C 
BRANCH  19  20
ATOM     20  O   UNL     1      -3.126  -3.949  -3.382  1.00  0.00    -0.394 OA
ATOM     21  H   UNL     1      -2.672  -3.206  -3.811  1.00  0.00     0.210 HD
ENDBRANCH  19  20
ENDBRANCH   8  19
ENDBRANCH   6   8
ENDBRANCH   5   6
ENDBRANCH   4   5
ENDBRANCH   3   4
ENDBRANCH   2   3
ENDBRANCH   1   2
BRANCH   1  22
ATOM     22  C   UNL     1       3.132  -3.644  -3.352  1.00  0.00     0.261 C 
BRANCH  22  23
ATOM     23  O   UNL     1       2.475  -3.775  -4.622  1.00  0.00    -0.460 OA
BRANCH  23  24
ATOM     24  C   UNL     1       3.279  -4.205  -5.625  1.00  0.00     0.338 C 
ATOM     25  O   UNL     1       4.478  -4.446  -5.558  1.00  0.00    -0.246 OA
BRANCH  24  26
ATOM     26  C   UNL     1       2.471  -4.547  -6.807  1.00  0.00     0.060 A 
ATOM     27  C   UNL     1       2.553  -5.859  -7.291  1.00  0.00     0.016 A 
ATOM     28  C   UNL     1       1.708  -3.587  -7.474  1.00  0.00     0.016 A 
ATOM     29  C   UNL     1       1.898  -6.210  -8.468  1.00  0.00     0.010 A 
ATOM     30  C   UNL     1       1.062  -3.938  -8.664  1.00  0.00     0.010 A 
ATOM     31  C   UNL     1       1.178  -5.242  -9.181  1.00  0.00    -0.014 A 
BRANCH  31  32
ATOM     32  C   UNL     1       0.677  -5.561 -10.540  1.00  0.00     0.031 A 
ATOM     33  C   UNL     1       1.477  -5.109 -11.731  1.00  0.00     0.074 A 
ATOM     34  C   UNL     1      -0.458  -6.263 -10.706  1.00  0.00     0.049 A 
ATOM     35  N   UNL     1       1.208  -5.224 -13.005  1.00  0.00    -0.248 NA
ATOM     36  C   UNL     1       2.752  -4.434 -11.441  1.00  0.00     0.031 C 
ATOM     37  C   UNL     1      -1.285  -6.795  -9.623  1.00  0.00     0.029 A 
ATOM     38  N   UNL     1      -1.115  -6.643 -11.848  1.00  0.00    -0.354 N 
ATOM     39  C   UNL     1       2.273  -4.630 -13.672  1.00  0.00     0.074 A 
ATOM     40  C   UNL     1       3.177  -4.129 -12.658  1.00  0.00     0.031 C 
ATOM     41  C   UNL     1      -2.350  -7.419 -10.155  1.00  0.00     0.029 A 
ATOM     42  C   UNL     1      -2.303  -7.295 -11.610  1.00  0.00     0.049 A 
ATOM     43  H   UNL     1      -0.770  -6.465 -12.753  1.00  0.00     0.167 HD
ATOM     44  C   UNL     1       2.478  -4.518 -15.007  1.00  0.00     0.034 A 
ATOM     45  C   UNL     1      -3.256  -7.712 -12.468  1.00  0.00     0.034 A 
ATOM     46  C   UNL     1       1.559  -5.015 -16.002  1.00  0.00     0.049 A 
ATOM     47  C   UNL     1      -3.047  -7.498 -13.949  1.00  0.00     0.074 A 
ATOM     48  C   UNL     1       1.673  -4.972 -17.380  1.00  0.00     0.029 A 
ATOM     49  N   UNL     1       0.346  -5.633 -15.724  1.00  0.00    -0.354 N 
ATOM     50  N   UNL     1      -2.031  -6.943 -14.569  1.00  0.00    -0.248 NA
ATOM     51  C   UNL     1      -4.110  -7.973 -14.845  1.00  0.00     0.031 C 
ATOM     52  C   UNL     1       0.500  -5.495 -17.934  1.00  0.00     0.029 A 
ATOM     53  C   UNL     1      -0.313  -5.941 -16.904  1.00  0.00     0.049 A 
ATOM     54  H   UNL     1       0.004  -5.824 -14.821  1.00  0.00     0.167 HD
ATOM     55  C   UNL     1      -2.320  -7.032 -15.929  1.00  0.00     0.074 A 
ATOM     56  C   UNL     1      -3.599  -7.705 -16.037  1.00  0.00     0.031 C 
ATOM     57  C   UNL     1      -1.593  -6.605 -16.994  1.00  0.00     0.034 A 
BRANCH  44  58
ATOM     58  C   UNL     1       3.714  -3.778 -15.461  1.00  0.00     0.023 A 
ATOM     59  C   UNL     1       5.008  -4.260 -15.198  1.00  0.00     0.031 A 
ATOM     60  C   UNL     1       3.593  -2.557 -16.149  1.00  0.00     0.131 A 
ATOM     61  C   UNL     1       6.127  -3.494 -15.562  1.00  0.00     0.055 A 
ATOM     62  C   UNL     1       4.710  -1.837 -16.575  1.00  0.00     0.041 A 
ATOM     63  F   UNL     1       2.383  -2.036 -16.407  1.00  0.00    -0.206 F 
ATOM     64  C   UNL     1       5.987  -2.298 -16.270  1.00  0.00     0.022 A 
BRANCH  61  65
ATOM     65  S   UNL     1       7.764  -4.015 -14.979  1.00  0.00     0.124 S 
ATOM     66  O   UNL     1       7.576  -4.013 -13.530  1.00  0.00    -0.237 OA
ATOM     67  O   UNL     1       7.918  -5.325 -15.601  1.00  0.00    -0.237 OA
ATOM     68  O   UNL     1       8.656  -2.975 -15.486  1.00  0.00    -0.744 OA
ENDBRANCH  61  65
ENDBRANCH  44  58
BRANCH  45  69
ATOM     69  C   UNL     1      -4.517  -8.324 -11.958  1.00  0.00     0.023 A 
ATOM     70  C   UNL     1      -4.867  -9.646 -12.274  1.00  0.00     0.031 A 
ATOM     71  C   UNL     1      -5.423  -7.569 -11.191  1.00  0.00     0.131 A 
ATOM     72  C   UNL     1      -6.109 -10.158 -11.865  1.00  0.00     0.055 A 
ATOM     73  C   UNL     1      -6.632  -8.100 -10.740  1.00  0.00     0.041 A 
ATOM     74  F   UNL     1      -5.141  -6.298 -10.863  1.00  0.00    -0.206 F 
ATOM     75  C   UNL     1      -6.988  -9.399 -11.089  1.00  0.00     0.022 A 
BRANCH  72  76
ATOM     76  S   UNL     1      -6.603 -11.805 -12.443  1.00  0.00     0.124 S 
ATOM     77  O   UNL     1      -6.537 -11.644 -13.891  1.00  0.00    -0.237 OA
ATOM     78  O   UNL     1      -5.580 -12.655 -11.844  1.00  0.00    -0.237 OA
ATOM     79  O   UNL     1      -7.947 -11.970 -11.893  1.00  0.00    -0.744 OA
ENDBRANCH  72  76
ENDBRANCH  45  69
BRANCH  57  80
ATOM     80  C   UNL     1      -2.145  -6.899 -18.368  1.00  0.00     0.023 A 
ATOM     81  C   UNL     1      -3.317  -6.288 -18.845  1.00  0.00     0.031 A 
ATOM     82  C   UNL     1      -1.481  -7.808 -19.212  1.00  0.00     0.131 A 
ATOM     83  C   UNL     1      -3.817  -6.630 -20.111  1.00  0.00     0.055 A 
ATOM     84  C   UNL     1      -1.951  -8.100 -20.493  1.00  0.00     0.041 A 
ATOM     85  F   UNL     1      -0.359  -8.423 -18.807  1.00  0.00    -0.206 F 
ATOM     86  C   UNL     1      -3.132  -7.519 -20.944  1.00  0.00     0.022 A 
BRANCH  83  87
ATOM     87  S   UNL     1      -5.424  -5.962 -20.624  1.00  0.00     0.124 S 
ATOM     88  O   UNL     1      -6.309  -6.463 -19.578  1.00  0.00    -0.237 OA
ATOM     89  O   UNL     1      -5.180  -4.523 -20.619  1.00  0.00    -0.237 OA
ATOM     90  O   UNL     1      -5.633  -6.549 -21.947  1.00  0.00    -0.744 OA
ENDBRANCH  83  87
ENDBRANCH  57  80
ENDBRANCH  31  32
ENDBRANCH  24  26
ENDBRANCH  23  24
ENDBRANCH  22  23
ENDBRANCH   1  22
TORSDOF 21
