REMARK SMILES CCCCCCNC(=O)Nc1cccc(-c2ccc([C@@H](C)C(=O)OCCOCCOC(=O)c3ccc(-c4c5nc(c(-c6cc(S(=O)(=O)[O-])ccc6F)c6ccc([nH]6)c(-c6cc(S(=O)(=O)[O-])ccc6F)c6nc(c(-c7cc(S(=O)(=O)[O-])ccc7F)c7ccc4[nH]7)C=C6)C=C5)cc3)cc2F)c1
REMARK SMILES IDX 25 1 24 2 22 3 23 4 20 5 21 6 19 7 16 8 17 9 97 10 18 11
REMARK SMILES IDX 96 12 98 13 15 14 11 15 12 16 99 17 13 18 14 19 10 20 7 21
REMARK SMILES IDX 8 22 9 24 6 26 5 27 4 28 3 29 2 30 1 31 26 32 27 33 28 34
REMARK SMILES IDX 29 35 30 36 31 37 32 38 33 39 34 40 95 41 35 42 94 43 36 44
REMARK SMILES IDX 37 45 38 46 88 47 39 48 93 49 87 50 89 51 40 52 92 53 86 54
REMARK SMILES IDX 85 55 41 57 73 58 53 59 72 60 54 61 57 62 71 63 90 64 55 65
REMARK SMILES IDX 56 66 70 68 91 69 58 70 42 71 43 72 51 73 44 74 50 75 52 76
REMARK SMILES IDX 49 77 45 78 46 79 47 80 48 81 74 82 75 83 83 84 76 85 82 86
REMARK SMILES IDX 84 87 81 88 77 89 78 90 79 91 80 92 59 93 60 94 68 95 61 96
REMARK SMILES IDX 67 97 69 98 66 99 62 100 63 101 64 102 65 103
REMARK H PARENT 7 23 10 25 89 56 57 67
REMARK Flexibility Score: inf
ROOT
ATOM      1  C   UNL     1       1.700  -5.727  -0.652  1.00  0.00     0.261 C 
ENDROOT
BRANCH   1   2
ATOM      2  O   UNL     1       0.351  -5.484  -0.224  1.00  0.00    -0.463 OA
BRANCH   2   3
ATOM      3  C   UNL     1      -0.378  -6.606   0.014  1.00  0.00     0.313 C 
ATOM      4  O   UNL     1       0.048  -7.751  -0.127  1.00  0.00    -0.252 OA
BRANCH   3   5
ATOM      5  C   UNL     1      -1.818  -6.349   0.424  1.00  0.00     0.126 C 
ATOM      6  C   UNL     1      -2.716  -6.586  -0.791  1.00  0.00     0.025 C 
BRANCH   5   7
ATOM      7  C   UNL     1      -2.174  -5.049   1.140  1.00  0.00    -0.031 A 
ATOM      8  C   UNL     1      -3.257  -2.727   2.427  1.00  0.00     0.018 A 
ATOM      9  C   UNL     1      -2.707  -2.665   1.133  1.00  0.00     0.012 A 
ATOM     10  C   UNL     1      -3.183  -3.962   3.081  1.00  0.00     0.131 A 
ATOM     11  C   UNL     1      -2.174  -3.803   0.499  1.00  0.00     0.005 A 
ATOM     12  C   UNL     1      -2.654  -5.100   2.459  1.00  0.00     0.044 A 
ATOM     13  F   UNL     1      -3.685  -4.105   4.318  1.00  0.00    -0.206 F 
BRANCH   8  14
ATOM     14  C   UNL     1      -3.950  -1.566   3.027  1.00  0.00    -0.013 A 
ATOM     15  C   UNL     1      -4.312   0.014   4.866  1.00  0.00     0.043 A 
ATOM     16  C   UNL     1      -5.357   0.612   4.161  1.00  0.00     0.026 A 
ATOM     17  C   UNL     1      -3.646  -1.095   4.318  1.00  0.00     0.035 A 
ATOM     18  C   UNL     1      -5.663   0.174   2.875  1.00  0.00     0.003 A 
ATOM     19  C   UNL     1      -4.962  -0.897   2.313  1.00  0.00     0.009 A 
BRANCH  15  20
ATOM     20  N   UNL     1      -3.953   0.582   6.102  1.00  0.00    -0.308 N 
ATOM     21  N   UNL     1      -1.617   0.879   5.946  1.00  0.00    -0.338 N 
ATOM     22  C   UNL     1      -2.734   0.703   6.696  1.00  0.00     0.319 C 
ATOM     23  H   UNL     1      -0.757   0.810   6.420  1.00  0.00     0.165 HD
ATOM     24  O   UNL     1      -2.653   0.787   7.922  1.00  0.00    -0.249 OA
ATOM     25  H   UNL     1      -4.703   0.952   6.620  1.00  0.00     0.171 HD
BRANCH  21  26
ATOM     26  C   UNL     1      -1.547   1.158   4.530  1.00  0.00     0.117 C 
BRANCH  26  27
ATOM     27  C   UNL     1      -0.475   2.156   4.116  1.00  0.00     0.021 C 
BRANCH  27  28
ATOM     28  C   UNL     1       0.903   1.558   3.834  1.00  0.00     0.002 C 
BRANCH  28  29
ATOM     29  C   UNL     1       0.928   0.288   2.975  1.00  0.00    -0.000 C 
BRANCH  29  30
ATOM     30  C   UNL     1      -0.026   0.257   1.777  1.00  0.00    -0.003 C 
ATOM     31  C   UNL     1       0.250   1.340   0.758  1.00  0.00     0.004 C 
ENDBRANCH  29  30
ENDBRANCH  28  29
ENDBRANCH  27  28
ENDBRANCH  26  27
ENDBRANCH  21  26
ENDBRANCH  15  20
ENDBRANCH   8  14
ENDBRANCH   5   7
ENDBRANCH   3   5
ENDBRANCH   2   3
ENDBRANCH   1   2
BRANCH   1  32
ATOM     32  C   UNL     1       2.774  -5.630   0.445  1.00  0.00     0.202 C 
BRANCH  32  33
ATOM     33  O   UNL     1       2.464  -6.039   1.769  1.00  0.00    -0.374 OA
BRANCH  33  34
ATOM     34  C   UNL     1       1.444  -5.356   2.490  1.00  0.00     0.202 C 
BRANCH  34  35
ATOM     35  C   UNL     1       1.479  -3.829   2.614  1.00  0.00     0.261 C 
BRANCH  35  36
ATOM     36  O   UNL     1       1.509  -3.130   1.357  1.00  0.00    -0.460 OA
BRANCH  36  37
ATOM     37  C   UNL     1       2.648  -2.429   1.130  1.00  0.00     0.338 C 
ATOM     38  O   UNL     1       3.637  -2.425   1.857  1.00  0.00    -0.246 OA
BRANCH  37  39
ATOM     39  C   UNL     1       2.599  -1.647  -0.129  1.00  0.00     0.060 A 
ATOM     40  C   UNL     1       3.774  -0.988  -0.518  1.00  0.00     0.016 A 
ATOM     41  C   UNL     1       1.421  -1.442  -0.853  1.00  0.00     0.016 A 
ATOM     42  C   UNL     1       3.749  -0.036  -1.536  1.00  0.00     0.010 A 
ATOM     43  C   UNL     1       1.387  -0.451  -1.838  1.00  0.00     0.010 A 
ATOM     44  C   UNL     1       2.539   0.295  -2.149  1.00  0.00    -0.014 A 
BRANCH  44  45
ATOM     45  C   UNL     1       2.465   1.452  -3.076  1.00  0.00     0.031 A 
ATOM     46  C   UNL     1       2.612   2.866  -2.571  1.00  0.00     0.074 A 
ATOM     47  C   UNL     1       2.186   1.224  -4.370  1.00  0.00     0.049 A 
ATOM     48  N   UNL     1       2.565   3.996  -3.233  1.00  0.00    -0.248 NA
ATOM     49  C   UNL     1       2.808   3.038  -1.126  1.00  0.00     0.031 C 
ATOM     50  C   UNL     1       1.993  -0.099  -4.966  1.00  0.00     0.029 A 
ATOM     51  N   UNL     1       1.975   2.096  -5.402  1.00  0.00    -0.354 N 
ATOM     52  C   UNL     1       2.734   5.006  -2.288  1.00  0.00     0.074 A 
ATOM     53  C   UNL     1       2.807   4.356  -0.997  1.00  0.00     0.031 C 
ATOM     54  C   UNL     1       1.614   0.052  -6.243  1.00  0.00     0.029 A 
ATOM     55  C   UNL     1       1.570   1.477  -6.557  1.00  0.00     0.049 A 
ATOM     56  H   UNL     1       2.102   3.069  -5.324  1.00  0.00     0.167 HD
ATOM     57  C   UNL     1       2.852   6.345  -2.487  1.00  0.00     0.034 A 
ATOM     58  C   UNL     1       1.204   1.997  -7.742  1.00  0.00     0.034 A 
ATOM     59  C   UNL     1       2.781   6.958  -3.794  1.00  0.00     0.049 A 
ATOM     60  C   UNL     1       1.351   3.472  -7.960  1.00  0.00     0.074 A 
ATOM     61  C   UNL     1       3.026   8.274  -4.150  1.00  0.00     0.029 A 
ATOM     62  N   UNL     1       2.411   6.299  -4.961  1.00  0.00    -0.354 N 
ATOM     63  N   UNL     1       1.658   4.407  -7.091  1.00  0.00    -0.248 NA
ATOM     64  C   UNL     1       1.169   3.952  -9.333  1.00  0.00     0.031 C 
ATOM     65  C   UNL     1       2.729   8.425  -5.510  1.00  0.00     0.029 A 
ATOM     66  C   UNL     1       2.377   7.187  -6.026  1.00  0.00     0.049 A 
ATOM     67  H   UNL     1       2.202   5.338  -5.023  1.00  0.00     0.167 HD
ATOM     68  C   UNL     1       1.742   5.587  -7.820  1.00  0.00     0.074 A 
ATOM     69  C   UNL     1       1.456   5.239  -9.200  1.00  0.00     0.031 C 
ATOM     70  C   UNL     1       2.049   6.839  -7.390  1.00  0.00     0.034 A 
BRANCH  57  71
ATOM     71  C   UNL     1       3.066   7.233  -1.275  1.00  0.00     0.023 A 
ATOM     72  C   UNL     1       4.170   7.071  -0.417  1.00  0.00     0.031 A 
ATOM     73  C   UNL     1       2.158   8.264  -0.972  1.00  0.00     0.131 A 
ATOM     74  C   UNL     1       4.295   7.864   0.736  1.00  0.00     0.055 A 
ATOM     75  C   UNL     1       2.333   9.108   0.130  1.00  0.00     0.041 A 
ATOM     76  F   UNL     1       1.074   8.469  -1.737  1.00  0.00    -0.206 F 
ATOM     77  C   UNL     1       3.398   8.900   1.001  1.00  0.00     0.022 A 
BRANCH  74  78
ATOM     78  S   UNL     1       5.559   7.423   1.960  1.00  0.00     0.124 S 
ATOM     79  O   UNL     1       5.239   6.022   2.227  1.00  0.00    -0.237 OA
ATOM     80  O   UNL     1       6.799   7.667   1.232  1.00  0.00    -0.237 OA
ATOM     81  O   UNL     1       5.295   8.336   3.070  1.00  0.00    -0.744 OA
ENDBRANCH  74  78
ENDBRANCH  57  71
BRANCH  58  82
ATOM     82  C   UNL     1       0.723   1.078  -8.802  1.00  0.00     0.023 A 
ATOM     83  C   UNL     1       1.549   0.716  -9.873  1.00  0.00     0.031 A 
ATOM     84  C   UNL     1      -0.541   0.470  -8.693  1.00  0.00     0.131 A 
ATOM     85  C   UNL     1       1.099  -0.229 -10.806  1.00  0.00     0.055 A 
ATOM     86  C   UNL     1      -0.974  -0.487  -9.610  1.00  0.00     0.041 A 
ATOM     87  F   UNL     1      -1.348   0.764  -7.662  1.00  0.00    -0.206 F 
ATOM     88  C   UNL     1      -0.152  -0.840 -10.677  1.00  0.00     0.022 A 
BRANCH  85  89
ATOM     89  S   UNL     1       2.183  -0.654 -12.194  1.00  0.00     0.124 S 
ATOM     90  O   UNL     1       2.357   0.639 -12.845  1.00  0.00    -0.237 OA
ATOM     91  O   UNL     1       3.353  -1.191 -11.508  1.00  0.00    -0.237 OA
ATOM     92  O   UNL     1       1.402  -1.634 -12.946  1.00  0.00    -0.744 OA
ENDBRANCH  85  89
ENDBRANCH  58  82
BRANCH  70  93
ATOM     93  C   UNL     1       2.106   7.918  -8.443  1.00  0.00     0.023 A 
ATOM     94  C   UNL     1       0.956   8.325  -9.141  1.00  0.00     0.031 A 
ATOM     95  C   UNL     1       3.332   8.519  -8.780  1.00  0.00     0.131 A 
ATOM     96  C   UNL     1       1.066   9.249 -10.189  1.00  0.00     0.055 A 
ATOM     97  C   UNL     1       3.424   9.488  -9.779  1.00  0.00     0.041 A 
ATOM     98  F   UNL     1       4.463   8.166  -8.148  1.00  0.00    -0.206 F 
ATOM     99  C   UNL     1       2.290   9.846 -10.502  1.00  0.00     0.022 A 
BRANCH  96 100
ATOM    100  S   UNL     1      -0.394   9.574 -11.215  1.00  0.00     0.124 S 
ATOM    101  O   UNL     1      -0.709   8.242 -11.720  1.00  0.00    -0.237 OA
ATOM    102  O   UNL     1      -1.336  10.131 -10.250  1.00  0.00    -0.237 OA
ATOM    103  O   UNL     1       0.096  10.517 -12.219  1.00  0.00    -0.744 OA
ENDBRANCH  96 100
ENDBRANCH  70  93
ENDBRANCH  44  45
ENDBRANCH  37  39
ENDBRANCH  36  37
ENDBRANCH  35  36
ENDBRANCH  34  35
ENDBRANCH  33  34
ENDBRANCH  32  33
ENDBRANCH   1  32
TORSDOF 25
