REMARK SMILES CC1(C)S[C@H](c2ccc(-c3ccccc3)o2)[NH2+][C@H]1C(=O)OCCOCCOC(=O)c1ccc(-c2c3nc(c(-c4cc(S(=O)(=O)[O-])ccc4F)c4ccc([nH]4)c(-c4cc(S(=O)(=O)[O-])ccc4F)c4nc(c(-c5cc(S(=O)(=O)[O-])ccc5F)c5ccc2[nH]5)C=C4)C=C3)cc1
REMARK SMILES IDX 25 1 24 2 23 3 22 4 21 5 19 6 20 7 18 8 1 9 2 10 3 11 4 12
REMARK SMILES IDX 5 13 17 14 6 17 7 18 16 19 8 20 9 21 10 22 11 23 15 24 12 25
REMARK SMILES IDX 14 26 13 27 26 28 27 29 28 30 29 31 30 32 31 33 92 34 32 35
REMARK SMILES IDX 91 36 33 37 34 38 35 39 85 40 36 41 90 42 84 43 86 44 37 45
REMARK SMILES IDX 89 46 83 47 82 48 38 50 70 51 50 52 69 53 51 54 54 55 68 56
REMARK SMILES IDX 87 57 52 58 53 59 67 61 88 62 55 63 39 64 40 65 48 66 41 67
REMARK SMILES IDX 47 68 49 69 46 70 42 71 43 72 44 73 45 74 71 75 72 76 80 77
REMARK SMILES IDX 73 78 79 79 81 80 78 81 74 82 75 83 76 84 77 85 56 86 57 87
REMARK SMILES IDX 65 88 58 89 64 90 66 91 63 92 59 93 60 94 61 95 62 96
REMARK H PARENT 17 15 17 16 86 49 54 60
REMARK Flexibility Score: inf
ROOT
ATOM      1  C   UNL     1       2.872   3.262  -0.851  1.00  0.00     0.202 C 
ENDROOT
BRANCH   1   2
ATOM      2  O   UNL     1       2.568   4.597  -0.464  1.00  0.00    -0.374 OA
BRANCH   2   3
ATOM      3  C   UNL     1       1.913   4.760   0.797  1.00  0.00     0.202 C 
BRANCH   3   4
ATOM      4  C   UNL     1       0.392   4.556   0.808  1.00  0.00     0.261 C 
BRANCH   4   5
ATOM      5  O   UNL     1       0.021   3.164   0.715  1.00  0.00    -0.459 OA
BRANCH   5   6
ATOM      6  C   UNL     1      -0.338   2.723  -0.522  1.00  0.00     0.366 C 
ATOM      7  O   UNL     1      -0.382   3.431  -1.523  1.00  0.00    -0.245 OA
BRANCH   6   8
ATOM      8  C   UNL     1      -0.682   1.227  -0.547  1.00  0.00     0.310 C 
ATOM      9  C   UNL     1       1.042   0.535   1.320  1.00  0.00     0.030 C 
ATOM     10  C   UNL     1       0.371   0.217  -0.022  1.00  0.00     0.079 C 
ATOM     11  C   UNL     1       1.405  -0.152  -1.091  1.00  0.00     0.030 C 
ATOM     12  S   UNL     1      -0.645  -1.289   0.286  1.00  0.00    -0.078 SA
ATOM     13  C   UNL     1      -2.235  -0.438   0.047  1.00  0.00     0.311 C 
ATOM     14  N   UNL     1      -1.967   0.997   0.166  1.00  0.00    -0.316 N 
ATOM     15  H   UNL     1      -1.881   1.262   1.147  1.00  0.00     0.348 HD
ATOM     16  H   UNL     1      -2.723   1.555  -0.231  1.00  0.00     0.348 HD
BRANCH  13  17
ATOM     17  C   UNL     1      -2.858  -0.867  -1.253  1.00  0.00     0.172 A 
ATOM     18  C   UNL     1      -3.330  -2.098  -1.674  1.00  0.00     0.054 A 
ATOM     19  O   UNL     1      -3.042   0.055  -2.255  1.00  0.00    -0.454 OA
ATOM     20  C   UNL     1      -3.845  -1.916  -2.975  1.00  0.00     0.051 A 
ATOM     21  C   UNL     1      -3.655  -0.588  -3.289  1.00  0.00     0.134 A 
BRANCH  21  22
ATOM     22  C   UNL     1      -4.019   0.206  -4.450  1.00  0.00     0.017 A 
ATOM     23  C   UNL     1      -3.053   0.863  -5.221  1.00  0.00     0.012 A 
ATOM     24  C   UNL     1      -5.360   0.253  -4.858  1.00  0.00     0.012 A 
ATOM     25  C   UNL     1      -3.421   1.529  -6.395  1.00  0.00     0.001 A 
ATOM     26  C   UNL     1      -5.728   0.929  -6.023  1.00  0.00     0.001 A 
ATOM     27  C   UNL     1      -4.756   1.558  -6.797  1.00  0.00     0.000 A 
ENDBRANCH  21  22
ENDBRANCH  13  17
ENDBRANCH   6   8
ENDBRANCH   5   6
ENDBRANCH   4   5
ENDBRANCH   3   4
ENDBRANCH   2   3
ENDBRANCH   1   2
BRANCH   1  28
ATOM     28  C   UNL     1       4.180   2.666  -0.316  1.00  0.00     0.261 C 
BRANCH  28  29
ATOM     29  O   UNL     1       4.160   2.540   1.116  1.00  0.00    -0.460 OA
BRANCH  29  30
ATOM     30  C   UNL     1       4.825   3.526   1.765  1.00  0.00     0.338 C 
ATOM     31  O   UNL     1       5.502   4.406   1.252  1.00  0.00    -0.246 OA
BRANCH  30  32
ATOM     32  C   UNL     1       4.468   3.527   3.197  1.00  0.00     0.060 A 
ATOM     33  C   UNL     1       4.208   4.773   3.781  1.00  0.00     0.016 A 
ATOM     34  C   UNL     1       4.428   2.362   3.969  1.00  0.00     0.016 A 
ATOM     35  C   UNL     1       3.990   4.871   5.151  1.00  0.00     0.010 A 
ATOM     36  C   UNL     1       4.206   2.462   5.348  1.00  0.00     0.010 A 
ATOM     37  C   UNL     1       4.035   3.722   5.951  1.00  0.00    -0.014 A 
BRANCH  37  38
ATOM     38  C   UNL     1       4.081   3.880   7.427  1.00  0.00     0.031 A 
ATOM     39  C   UNL     1       5.407   3.742   8.129  1.00  0.00     0.074 A 
ATOM     40  C   UNL     1       2.978   4.217   8.118  1.00  0.00     0.049 A 
ATOM     41  N   UNL     1       5.691   3.858   9.401  1.00  0.00    -0.248 NA
ATOM     42  C   UNL     1       6.567   3.428   7.280  1.00  0.00     0.031 C 
ATOM     43  C   UNL     1       1.652   4.427   7.537  1.00  0.00     0.029 A 
ATOM     44  N   UNL     1       2.798   4.452   9.458  1.00  0.00    -0.354 N 
ATOM     45  C   UNL     1       7.059   3.630   9.506  1.00  0.00     0.074 A 
ATOM     46  C   UNL     1       7.537   3.320   8.175  1.00  0.00     0.031 C 
ATOM     47  C   UNL     1       0.796   4.764   8.517  1.00  0.00     0.029 A 
ATOM     48  C   UNL     1       1.501   4.756   9.797  1.00  0.00     0.049 A 
ATOM     49  H   UNL     1       3.530   4.407  10.115  1.00  0.00     0.167 HD
ATOM     50  C   UNL     1       7.847   3.687  10.608  1.00  0.00     0.034 A 
ATOM     51  C   UNL     1       0.944   4.982  11.004  1.00  0.00     0.034 A 
ATOM     52  C   UNL     1       7.352   3.990  11.929  1.00  0.00     0.049 A 
ATOM     53  C   UNL     1       1.825   4.954  12.230  1.00  0.00     0.074 A 
ATOM     54  C   UNL     1       8.060   4.087  13.114  1.00  0.00     0.029 A 
ATOM     55  N   UNL     1       6.020   4.234  12.244  1.00  0.00    -0.354 N 
ATOM     56  N   UNL     1       3.120   4.746  12.315  1.00  0.00    -0.248 NA
ATOM     57  C   UNL     1       1.172   5.205  13.521  1.00  0.00     0.031 C 
ATOM     58  C   UNL     1       7.149   4.304  14.154  1.00  0.00     0.029 A 
ATOM     59  C   UNL     1       5.882   4.440  13.609  1.00  0.00     0.049 A 
ATOM     60  H   UNL     1       5.282   4.256  11.594  1.00  0.00     0.167 HD
ATOM     61  C   UNL     1       3.438   4.876  13.666  1.00  0.00     0.074 A 
ATOM     62  C   UNL     1       2.204   5.198  14.351  1.00  0.00     0.031 C 
ATOM     63  C   UNL     1       4.642   4.747  14.283  1.00  0.00     0.034 A 
BRANCH  50  64
ATOM     64  C   UNL     1       9.313   3.361  10.435  1.00  0.00     0.023 A 
ATOM     65  C   UNL     1      10.159   4.142   9.628  1.00  0.00     0.031 A 
ATOM     66  C   UNL     1       9.866   2.232  11.066  1.00  0.00     0.131 A 
ATOM     67  C   UNL     1      11.489   3.745   9.417  1.00  0.00     0.055 A 
ATOM     68  C   UNL     1      11.212   1.890  10.920  1.00  0.00     0.041 A 
ATOM     69  F   UNL     1       9.103   1.432  11.827  1.00  0.00    -0.206 F 
ATOM     70  C   UNL     1      12.029   2.640  10.079  1.00  0.00     0.022 A 
BRANCH  67  71
ATOM     71  S   UNL     1      12.460   4.602   8.147  1.00  0.00     0.124 S 
ATOM     72  O   UNL     1      11.637   4.396   6.957  1.00  0.00    -0.237 OA
ATOM     73  O   UNL     1      12.514   5.966   8.659  1.00  0.00    -0.237 OA
ATOM     74  O   UNL     1      13.733   3.884   8.146  1.00  0.00    -0.744 OA
ENDBRANCH  67  71
ENDBRANCH  50  64
BRANCH  51  75
ATOM     75  C   UNL     1      -0.525   5.218  11.128  1.00  0.00     0.023 A 
ATOM     76  C   UNL     1      -1.031   6.422  11.641  1.00  0.00     0.031 A 
ATOM     77  C   UNL     1      -1.446   4.210  10.786  1.00  0.00     0.131 A 
ATOM     78  C   UNL     1      -2.412   6.571  11.845  1.00  0.00     0.055 A 
ATOM     79  C   UNL     1      -2.823   4.386  10.934  1.00  0.00     0.041 A 
ATOM     80  F   UNL     1      -1.018   3.036  10.294  1.00  0.00    -0.206 F 
ATOM     81  C   UNL     1      -3.312   5.567  11.480  1.00  0.00     0.022 A 
BRANCH  78  82
ATOM     82  S   UNL     1      -3.011   8.061  12.688  1.00  0.00     0.124 S 
ATOM     83  O   UNL     1      -2.287   7.997  13.953  1.00  0.00    -0.237 OA
ATOM     84  O   UNL     1      -2.602   9.115  11.766  1.00  0.00    -0.237 OA
ATOM     85  O   UNL     1      -4.453   7.843  12.781  1.00  0.00    -0.744 OA
ENDBRANCH  78  82
ENDBRANCH  51  75
BRANCH  63  86
ATOM     86  C   UNL     1       4.683   5.005  15.773  1.00  0.00     0.023 A 
ATOM     87  C   UNL     1       3.997   4.187  16.688  1.00  0.00     0.031 A 
ATOM     88  C   UNL     1       5.405   6.100  16.281  1.00  0.00     0.131 A 
ATOM     89  C   UNL     1       3.990   4.516  18.052  1.00  0.00     0.055 A 
ATOM     90  C   UNL     1       5.455   6.379  17.648  1.00  0.00     0.041 A 
ATOM     91  F   UNL     1       6.076   6.919  15.456  1.00  0.00    -0.206 F 
ATOM     92  C   UNL     1       4.731   5.595  18.540  1.00  0.00     0.022 A 
BRANCH  89  93
ATOM     93  S   UNL     1       2.904   3.584  19.166  1.00  0.00     0.124 S 
ATOM     94  O   UNL     1       1.597   3.777  18.547  1.00  0.00    -0.237 OA
ATOM     95  O   UNL     1       3.455   2.235  19.084  1.00  0.00    -0.237 OA
ATOM     96  O   UNL     1       3.083   4.248  20.456  1.00  0.00    -0.744 OA
ENDBRANCH  89  93
ENDBRANCH  63  86
ENDBRANCH  37  38
ENDBRANCH  30  32
ENDBRANCH  29  30
ENDBRANCH  28  29
ENDBRANCH   1  28
TORSDOF 19
