REMARK SMILES O=C(OCCOCCOC(=O)c1cc(-c2ccn(C(F)F)c(=O)c2)ccc1O)c1ccc(-c2c3nc(c(-c4cc(S(=O)(=O)[O-])ccc4F)c4ccc([nH]4)c(-c4cc(S(=O)(=O)[O-])ccc4F)c4nc(c(-c5cc(S(=O)(=O)[O-])ccc5F)c5ccc2[nH]5)C=C4)C=C3)cc1
REMARK SMILES IDX 5 1 4 2 3 3 2 4 1 5 29 6 30 7 91 8 31 9 90 10 32 11 33 12
REMARK SMILES IDX 34 13 84 14 35 15 89 16 83 17 85 18 36 19 88 20 82 21 81 22
REMARK SMILES IDX 37 24 69 25 49 26 68 27 50 28 53 29 67 30 86 31 51 32 52 33
REMARK SMILES IDX 66 35 87 36 54 37 38 38 39 39 47 40 40 41 46 42 48 43 45 44
REMARK SMILES IDX 41 45 42 46 43 47 44 48 70 49 71 50 79 51 72 52 78 53 80 54
REMARK SMILES IDX 77 55 73 56 74 57 75 58 76 59 55 60 56 61 64 62 57 63 63 64
REMARK SMILES IDX 65 65 62 66 58 67 59 68 60 69 61 70 6 71 7 72 8 73 9 74
REMARK SMILES IDX 10 75 11 76 12 77 13 78 27 79 14 80 26 81 25 82 28 83 15 85
REMARK SMILES IDX 16 86 24 87 17 88 22 89 18 90 23 91 19 92 20 93 21 94
REMARK H PARENT 85 23 53 34 28 84
REMARK Flexibility Score: inf
ROOT
ATOM      1  C   UNL     1       4.478  -1.254  -0.925  1.00  0.00     0.202 C 
ENDROOT
BRANCH   1   2
ATOM      2  C   UNL     1       4.271  -1.344   0.589  1.00  0.00     0.261 C 
BRANCH   2   3
ATOM      3  O   UNL     1       2.907  -1.080   0.941  1.00  0.00    -0.460 OA
BRANCH   3   4
ATOM      4  C   UNL     1       2.306   0.096   1.233  1.00  0.00     0.338 C 
ATOM      5  O   UNL     1       1.099   0.058   1.480  1.00  0.00    -0.246 OA
BRANCH   4   6
ATOM      6  C   UNL     1       2.973   1.446   1.248  1.00  0.00     0.060 A 
ATOM      7  C   UNL     1       2.179   2.519   1.700  1.00  0.00     0.016 A 
ATOM      8  C   UNL     1       4.263   1.753   0.804  1.00  0.00     0.016 A 
ATOM      9  C   UNL     1       2.644   3.837   1.674  1.00  0.00     0.010 A 
ATOM     10  C   UNL     1       4.735   3.064   0.770  1.00  0.00     0.010 A 
ATOM     11  C   UNL     1       3.926   4.112   1.197  1.00  0.00    -0.014 A 
BRANCH  11  12
ATOM     12  C   UNL     1       4.507   5.464   1.258  1.00  0.00     0.031 A 
ATOM     13  C   UNL     1       4.618   6.310   0.030  1.00  0.00     0.074 A 
ATOM     14  C   UNL     1       5.042   5.843   2.432  1.00  0.00     0.049 A 
ATOM     15  N   UNL     1       5.068   7.530  -0.082  1.00  0.00    -0.248 NA
ATOM     16  C   UNL     1       4.187   5.708  -1.242  1.00  0.00     0.031 C 
ATOM     17  C   UNL     1       5.065   5.011   3.638  1.00  0.00     0.029 A 
ATOM     18  N   UNL     1       5.690   6.989   2.801  1.00  0.00    -0.354 N 
ATOM     19  C   UNL     1       4.952   7.857  -1.428  1.00  0.00     0.074 A 
ATOM     20  C   UNL     1       4.445   6.684  -2.105  1.00  0.00     0.031 C 
ATOM     21  C   UNL     1       5.697   5.675   4.614  1.00  0.00     0.029 A 
ATOM     22  C   UNL     1       6.127   6.973   4.104  1.00  0.00     0.049 A 
ATOM     23  H   UNL     1       5.830   7.751   2.194  1.00  0.00     0.167 HD
ATOM     24  C   UNL     1       5.230   9.043  -2.020  1.00  0.00     0.034 A 
ATOM     25  C   UNL     1       6.786   7.911   4.811  1.00  0.00     0.034 A 
ATOM     26  C   UNL     1       5.762  10.171  -1.296  1.00  0.00     0.049 A 
ATOM     27  C   UNL     1       7.044   9.235   4.144  1.00  0.00     0.074 A 
ATOM     28  C   UNL     1       6.013  11.449  -1.761  1.00  0.00     0.029 A 
ATOM     29  N   UNL     1       6.137  10.153   0.043  1.00  0.00    -0.354 N 
ATOM     30  N   UNL     1       6.783   9.594   2.907  1.00  0.00    -0.248 NA
ATOM     31  C   UNL     1       7.644  10.294   4.962  1.00  0.00     0.031 C 
ATOM     32  C   UNL     1       6.599  12.180  -0.727  1.00  0.00     0.029 A 
ATOM     33  C   UNL     1       6.642  11.389   0.411  1.00  0.00     0.049 A 
ATOM     34  H   UNL     1       6.055   9.376   0.642  1.00  0.00     0.167 HD
ATOM     35  C   UNL     1       7.163  10.926   2.804  1.00  0.00     0.074 A 
ATOM     36  C   UNL     1       7.648  11.315   4.114  1.00  0.00     0.031 C 
ATOM     37  C   UNL     1       7.118  11.751   1.727  1.00  0.00     0.034 A 
BRANCH  24  38
ATOM     38  C   UNL     1       4.931   9.224  -3.491  1.00  0.00     0.023 A 
ATOM     39  C   UNL     1       5.954   9.587  -4.389  1.00  0.00     0.031 A 
ATOM     40  C   UNL     1       3.609   9.204  -3.971  1.00  0.00     0.131 A 
ATOM     41  C   UNL     1       5.632   9.959  -5.703  1.00  0.00     0.055 A 
ATOM     42  C   UNL     1       3.298   9.533  -5.292  1.00  0.00     0.041 A 
ATOM     43  F   UNL     1       2.592   8.875  -3.157  1.00  0.00    -0.206 F 
ATOM     44  C   UNL     1       4.311   9.928  -6.160  1.00  0.00     0.022 A 
BRANCH  41  45
ATOM     45  S   UNL     1       6.901  10.568  -6.849  1.00  0.00     0.124 S 
ATOM     46  O   UNL     1       6.737   9.666  -7.988  1.00  0.00    -0.237 OA
ATOM     47  O   UNL     1       6.468  11.944  -7.078  1.00  0.00    -0.237 OA
ATOM     48  O   UNL     1       8.148  10.411  -6.109  1.00  0.00    -0.744 OA
ENDBRANCH  41  45
ENDBRANCH  24  38
BRANCH  25  49
ATOM     49  C   UNL     1       7.100   7.637   6.243  1.00  0.00     0.023 A 
ATOM     50  C   UNL     1       7.954   6.578   6.608  1.00  0.00     0.031 A 
ATOM     51  C   UNL     1       6.412   8.313   7.264  1.00  0.00     0.131 A 
ATOM     52  C   UNL     1       8.040   6.184   7.950  1.00  0.00     0.055 A 
ATOM     53  C   UNL     1       6.554   7.960   8.607  1.00  0.00     0.041 A 
ATOM     54  F   UNL     1       5.565   9.309   6.963  1.00  0.00    -0.206 F 
ATOM     55  C   UNL     1       7.355   6.877   8.953  1.00  0.00     0.022 A 
BRANCH  52  56
ATOM     56  S   UNL     1       8.908   4.659   8.420  1.00  0.00     0.124 S 
ATOM     57  O   UNL     1       9.989   5.170   9.256  1.00  0.00    -0.237 OA
ATOM     58  O   UNL     1       7.861   3.921   9.123  1.00  0.00    -0.237 OA
ATOM     59  O   UNL     1       9.315   4.087   7.141  1.00  0.00    -0.744 OA
ENDBRANCH  52  56
ENDBRANCH  25  49
BRANCH  37  60
ATOM     60  C   UNL     1       7.614  13.165   1.895  1.00  0.00     0.023 A 
ATOM     61  C   UNL     1       6.730  14.245   1.706  1.00  0.00     0.031 A 
ATOM     62  C   UNL     1       8.979  13.442   2.079  1.00  0.00     0.131 A 
ATOM     63  C   UNL     1       7.231  15.551   1.660  1.00  0.00     0.055 A 
ATOM     64  C   UNL     1       9.465  14.749   2.084  1.00  0.00     0.041 A 
ATOM     65  F   UNL     1       9.860  12.443   2.251  1.00  0.00    -0.206 F 
ATOM     66  C   UNL     1       8.592  15.809   1.857  1.00  0.00     0.022 A 
BRANCH  63  67
ATOM     67  S   UNL     1       6.155  16.951   1.245  1.00  0.00     0.124 S 
ATOM     68  O   UNL     1       6.258  17.776   2.446  1.00  0.00    -0.237 OA
ATOM     69  O   UNL     1       6.805  17.496   0.056  1.00  0.00    -0.237 OA
ATOM     70  O   UNL     1       4.849  16.339   1.022  1.00  0.00    -0.744 OA
ENDBRANCH  63  67
ENDBRANCH  37  60
ENDBRANCH  11  12
ENDBRANCH   4   6
ENDBRANCH   3   4
ENDBRANCH   2   3
ENDBRANCH   1   2
BRANCH   1  71
ATOM     71  O   UNL     1       4.141   0.018  -1.473  1.00  0.00    -0.374 OA
BRANCH  71  72
ATOM     72  C   UNL     1       2.853   0.100  -2.091  1.00  0.00     0.202 C 
BRANCH  72  73
ATOM     73  C   UNL     1       2.997   0.150  -3.611  1.00  0.00     0.261 C 
BRANCH  73  74
ATOM     74  O   UNL     1       3.511  -1.110  -4.066  1.00  0.00    -0.460 OA
BRANCH  74  75
ATOM     75  C   UNL     1       4.846  -1.169  -4.297  1.00  0.00     0.342 C 
ATOM     76  O   UNL     1       5.646  -0.248  -4.313  1.00  0.00    -0.246 OA
BRANCH  75  77
ATOM     77  C   UNL     1       5.242  -2.590  -4.255  1.00  0.00     0.102 A 
ATOM     78  C   UNL     1       6.274  -2.943  -3.371  1.00  0.00     0.028 A 
ATOM     79  C   UNL     1       4.552  -3.578  -4.963  1.00  0.00     0.130 A 
ATOM     80  C   UNL     1       6.553  -4.290  -3.129  1.00  0.00    -0.017 A 
ATOM     81  C   UNL     1       4.861  -4.921  -4.760  1.00  0.00     0.048 A 
ATOM     82  C   UNL     1       5.846  -5.274  -3.835  1.00  0.00     0.012 A 
BRANCH  79  83
ATOM     83  O   UNL     1       3.583  -3.237  -5.861  1.00  0.00    -0.507 OA
ATOM     84  H   UNL     1       3.371  -2.335  -6.002  1.00  0.00     0.293 HD
ENDBRANCH  79  83
BRANCH  80  85
ATOM     85  C   UNL     1       7.545  -4.703  -2.123  1.00  0.00    -0.011 A 
ATOM     86  C   UNL     1       8.917  -5.015  -2.461  1.00  0.00     0.027 A 
ATOM     87  C   UNL     1       7.122  -4.880  -0.859  1.00  0.00     0.080 A 
ATOM     88  C   UNL     1       9.738  -5.540  -1.543  1.00  0.00     0.095 A 
ATOM     89  C   UNL     1       8.027  -5.456   0.176  1.00  0.00     0.255 A 
ATOM     90  N   UNL     1       9.306  -5.776  -0.251  1.00  0.00    -0.258 N 
ATOM     91  O   UNL     1       7.580  -5.644   1.303  1.00  0.00    -0.269 OA
BRANCH  90  92
ATOM     92  C   UNL     1      10.172  -6.421   0.703  1.00  0.00     0.451 C 
ATOM     93  F   UNL     1      10.320  -5.682   1.827  1.00  0.00    -0.185 F 
ATOM     94  F   UNL     1       9.673  -7.632   1.058  1.00  0.00    -0.185 F 
ENDBRANCH  90  92
ENDBRANCH  80  85
ENDBRANCH  75  77
ENDBRANCH  74  75
ENDBRANCH  73  74
ENDBRANCH  72  73
ENDBRANCH  71  72
ENDBRANCH   1  71
TORSDOF 20
