REMARK SMILES Cc1cscc1-c1ncc(C(=O)OCCOCCOC(=O)c2ccc(-c3c4nc(c(-c5cc(S(=O)(=O)[O-])ccc5F)c5ccc([nH]5)c(-c5cc(S(=O)(=O)[O-])ccc5F)c5nc(c(-c6cc(S(=O)(=O)[O-])ccc6F)c6ccc3[nH]6)C=C5)C=C4)cc2)c(=O)[nH]1
REMARK SMILES IDX 17 1 16 2 15 3 14 4 13 5 11 6 12 7 10 8 7 9 8 10 87 11 9 12
REMARK SMILES IDX 85 13 86 15 6 16 1 17 2 18 3 19 4 20 5 21 18 22 19 23 20 24
REMARK SMILES IDX 21 25 22 26 23 27 84 28 24 29 83 30 25 31 26 32 27 33 77 34
REMARK SMILES IDX 28 35 82 36 76 37 78 38 29 39 81 40 75 41 74 42 30 44 62 45
REMARK SMILES IDX 42 46 61 47 43 48 46 49 60 50 79 51 44 52 45 53 59 55 80 56
REMARK SMILES IDX 47 57 31 58 32 59 40 60 33 61 39 62 41 63 38 64 34 65 35 66
REMARK SMILES IDX 36 67 37 68 63 69 64 70 72 71 65 72 71 73 73 74 70 75 66 76
REMARK SMILES IDX 67 77 68 78 69 79 48 80 49 81 57 82 50 83 56 84 58 85 55 86
REMARK SMILES IDX 51 87 52 88 53 89 54 90
REMARK H PARENT 87 14 78 43 46 54
REMARK Flexibility Score: inf
ROOT
ATOM      1  C   UNL     1       5.647   5.955   0.095  1.00  0.00     0.202 C 
ENDROOT
BRANCH   1   2
ATOM      2  O   UNL     1       5.752   7.285  -0.412  1.00  0.00    -0.374 OA
BRANCH   2   3
ATOM      3  C   UNL     1       4.983   8.292   0.251  1.00  0.00     0.202 C 
BRANCH   3   4
ATOM      4  C   UNL     1       3.518   8.389  -0.183  1.00  0.00     0.261 C 
BRANCH   4   5
ATOM      5  O   UNL     1       2.808   7.184   0.151  1.00  0.00    -0.459 OA
BRANCH   5   6
ATOM      6  C   UNL     1       2.395   6.435  -0.896  1.00  0.00     0.345 C 
ATOM      7  O   UNL     1       2.468   6.748  -2.077  1.00  0.00    -0.246 OA
BRANCH   6   8
ATOM      8  C   UNL     1       1.964   5.099  -0.460  1.00  0.00     0.143 A 
ATOM      9  C   UNL     1       1.136   2.535  -0.035  1.00  0.00     0.141 A 
ATOM     10  N   UNL     1       1.878   2.762  -1.068  1.00  0.00    -0.237 NA
ATOM     11  N   UNL     1       0.823   3.485   0.897  1.00  0.00    -0.306 N 
ATOM     12  C   UNL     1       2.264   4.065  -1.262  1.00  0.00     0.135 A 
ATOM     13  C   UNL     1       1.228   4.788   0.778  1.00  0.00     0.265 A 
ATOM     14  H   UNL     1       0.288   3.223   1.681  1.00  0.00     0.171 HD
ATOM     15  O   UNL     1       0.951   5.615   1.636  1.00  0.00    -0.269 OA
BRANCH   9  16
ATOM     16  C   UNL     1       0.538   1.221   0.129  1.00  0.00     0.031 A 
ATOM     17  C   UNL     1       2.679  -0.255  -0.066  1.00  0.00     0.046 C 
ATOM     18  C   UNL     1       1.203  -0.061   0.071  1.00  0.00    -0.029 A 
ATOM     19  C   UNL     1       0.295  -1.100   0.163  1.00  0.00     0.069 A 
ATOM     20  S   UNL     1      -1.316  -0.566   0.337  1.00  0.00    -0.151 S 
ATOM     21  C   UNL     1      -0.830   1.067   0.286  1.00  0.00     0.077 A 
ENDBRANCH   9  16
ENDBRANCH   6   8
ENDBRANCH   5   6
ENDBRANCH   4   5
ENDBRANCH   3   4
ENDBRANCH   2   3
ENDBRANCH   1   2
BRANCH   1  22
ATOM     22  C   UNL     1       6.475   5.628   1.343  1.00  0.00     0.261 C 
BRANCH  22  23
ATOM     23  O   UNL     1       6.024   6.358   2.498  1.00  0.00    -0.460 OA
BRANCH  23  24
ATOM     24  C   UNL     1       6.857   7.353   2.886  1.00  0.00     0.338 C 
ATOM     25  O   UNL     1       7.955   7.611   2.409  1.00  0.00    -0.246 OA
BRANCH  24  26
ATOM     26  C   UNL     1       6.196   8.236   3.868  1.00  0.00     0.060 A 
ATOM     27  C   UNL     1       6.328   9.615   3.669  1.00  0.00     0.016 A 
ATOM     28  C   UNL     1       5.528   7.745   4.993  1.00  0.00     0.016 A 
ATOM     29  C   UNL     1       5.861  10.508   4.630  1.00  0.00     0.010 A 
ATOM     30  C   UNL     1       5.060   8.645   5.960  1.00  0.00     0.010 A 
ATOM     31  C   UNL     1       5.267  10.028   5.804  1.00  0.00    -0.014 A 
BRANCH  31  32
ATOM     32  C   UNL     1       5.029  10.978   6.920  1.00  0.00     0.031 A 
ATOM     33  C   UNL     1       6.025  11.040   8.049  1.00  0.00     0.074 A 
ATOM     34  C   UNL     1       3.991  11.833   6.887  1.00  0.00     0.049 A 
ATOM     35  N   UNL     1       6.058  11.834   9.088  1.00  0.00    -0.248 NA
ATOM     36  C   UNL     1       7.133  10.074   7.994  1.00  0.00     0.031 C 
ATOM     37  C   UNL     1       2.984  11.894   5.828  1.00  0.00     0.029 A 
ATOM     38  N   UNL     1       3.620  12.824   7.761  1.00  0.00    -0.354 N 
ATOM     39  C   UNL     1       7.192  11.470   9.808  1.00  0.00     0.074 A 
ATOM     40  C   UNL     1       7.787  10.349   9.112  1.00  0.00     0.031 C 
ATOM     41  C   UNL     1       2.113  12.877   6.112  1.00  0.00     0.029 A 
ATOM     42  C   UNL     1       2.483  13.498   7.383  1.00  0.00     0.049 A 
ATOM     43  H   UNL     1       4.121  13.032   8.583  1.00  0.00     0.167 HD
ATOM     44  C   UNL     1       7.699  12.029  10.935  1.00  0.00     0.034 A 
ATOM     45  C   UNL     1       1.814  14.496   7.995  1.00  0.00     0.034 A 
ATOM     46  C   UNL     1       7.085  13.136  11.628  1.00  0.00     0.049 A 
ATOM     47  C   UNL     1       2.355  15.053   9.290  1.00  0.00     0.074 A 
ATOM     48  C   UNL     1       7.512  13.781  12.776  1.00  0.00     0.029 A 
ATOM     49  N   UNL     1       5.904  13.759  11.242  1.00  0.00    -0.354 N 
ATOM     50  N   UNL     1       3.434  14.708   9.954  1.00  0.00    -0.248 NA
ATOM     51  C   UNL     1       1.594  16.147   9.907  1.00  0.00     0.031 C 
ATOM     52  C   UNL     1       6.557  14.743  13.122  1.00  0.00     0.029 A 
ATOM     53  C   UNL     1       5.574  14.759  12.146  1.00  0.00     0.049 A 
ATOM     54  H   UNL     1       5.378  13.526  10.444  1.00  0.00     0.167 HD
ATOM     55  C   UNL     1       3.500  15.569  11.047  1.00  0.00     0.074 A 
ATOM     56  C   UNL     1       2.358  16.454  10.945  1.00  0.00     0.031 C 
ATOM     57  C   UNL     1       4.426  15.630  12.039  1.00  0.00     0.034 A 
BRANCH  44  58
ATOM     58  C   UNL     1       8.952  11.409  11.509  1.00  0.00     0.023 A 
ATOM     59  C   UNL     1      10.169  11.409  10.804  1.00  0.00     0.031 A 
ATOM     60  C   UNL     1       8.920  10.773  12.763  1.00  0.00     0.131 A 
ATOM     61  C   UNL     1      11.279  10.723  11.321  1.00  0.00     0.055 A 
ATOM     62  C   UNL     1      10.050  10.162  13.309  1.00  0.00     0.041 A 
ATOM     63  F   UNL     1       7.782  10.718  13.473  1.00  0.00    -0.206 F 
ATOM     64  C   UNL     1      11.235  10.120  12.580  1.00  0.00     0.022 A 
BRANCH  61  65
ATOM     65  S   UNL     1      12.733  10.497  10.259  1.00  0.00     0.124 S 
ATOM     66  O   UNL     1      12.155   9.802   9.111  1.00  0.00    -0.237 OA
ATOM     67  O   UNL     1      13.168  11.869  10.024  1.00  0.00    -0.237 OA
ATOM     68  O   UNL     1      13.633   9.688  11.078  1.00  0.00    -0.744 OA
ENDBRANCH  61  65
ENDBRANCH  44  58
BRANCH  45  69
ATOM     69  C   UNL     1       0.549  15.025   7.410  1.00  0.00     0.023 A 
ATOM     70  C   UNL     1       0.449  16.353   6.966  1.00  0.00     0.031 A 
ATOM     71  C   UNL     1      -0.599  14.216   7.333  1.00  0.00     0.131 A 
ATOM     72  C   UNL     1      -0.783  16.846   6.507  1.00  0.00     0.055 A 
ATOM     73  C   UNL     1      -1.808  14.695   6.827  1.00  0.00     0.041 A 
ATOM     74  F   UNL     1      -0.558  12.938   7.745  1.00  0.00    -0.206 F 
ATOM     75  C   UNL     1      -1.908  16.022   6.422  1.00  0.00     0.022 A 
BRANCH  72  76
ATOM     76  S   UNL     1      -0.917  18.607   6.094  1.00  0.00     0.124 S 
ATOM     77  O   UNL     1      -0.546  19.237   7.356  1.00  0.00    -0.237 OA
ATOM     78  O   UNL     1       0.045  18.736   5.004  1.00  0.00    -0.237 OA
ATOM     79  O   UNL     1      -2.317  18.761   5.707  1.00  0.00    -0.744 OA
ENDBRANCH  72  76
ENDBRANCH  45  69
BRANCH  57  80
ATOM     80  C   UNL     1       4.266  16.730  13.063  1.00  0.00     0.023 A 
ATOM     81  C   UNL     1       3.183  16.762  13.958  1.00  0.00     0.031 A 
ATOM     82  C   UNL     1       5.208  17.772  13.128  1.00  0.00     0.131 A 
ATOM     83  C   UNL     1       3.035  17.846  14.838  1.00  0.00     0.055 A 
ATOM     84  C   UNL     1       5.090  18.815  14.048  1.00  0.00     0.041 A 
ATOM     85  F   UNL     1       6.263  17.794  12.297  1.00  0.00    -0.206 F 
ATOM     86  C   UNL     1       3.990  18.864  14.899  1.00  0.00     0.022 A 
BRANCH  83  87
ATOM     87  S   UNL     1       1.522  17.962  15.833  1.00  0.00     0.124 S 
ATOM     88  O   UNL     1       0.482  17.941  14.810  1.00  0.00    -0.237 OA
ATOM     89  O   UNL     1       1.612  16.774  16.676  1.00  0.00    -0.237 OA
ATOM     90  O   UNL     1       1.672  19.234  16.538  1.00  0.00    -0.744 OA
ENDBRANCH  83  87
ENDBRANCH  57  80
ENDBRANCH  31  32
ENDBRANCH  24  26
ENDBRANCH  23  24
ENDBRANCH  22  23
ENDBRANCH   1  22
TORSDOF 18
