REMARK SMILES CC(C)(C)OC(=O)N1CCC[C@H]1C(=O)N[C@@H](Cc1ccccc1)C(=O)OCCOCCOC(=O)c1ccc(-c2c3nc(c(-c4cc(S(=O)(=O)[O-])ccc4F)c4ccc([nH]4)c(-c4cc(S(=O)(=O)[O-])ccc4F)c4nc(c(-c5cc(S(=O)(=O)[O-])ccc5F)c5ccc2[nH]5)C=C4)C=C3)cc1
REMARK SMILES IDX 28 1 27 2 26 3 24 4 25 5 16 6 15 7 13 8 14 9 12 11 8 12 9 13
REMARK SMILES IDX 10 14 11 15 6 16 7 17 5 18 2 19 1 20 3 21 4 22 17 23 18 24
REMARK SMILES IDX 19 25 23 26 20 27 22 28 21 29 29 30 30 31 31 32 32 33 33 34
REMARK SMILES IDX 34 35 35 36 36 37 97 38 37 39 96 40 38 41 39 42 40 43 90 44
REMARK SMILES IDX 41 45 95 46 89 47 91 48 42 49 94 50 88 51 87 52 43 54 75 55
REMARK SMILES IDX 55 56 74 57 56 58 59 59 73 60 92 61 57 62 58 63 72 65 93 66
REMARK SMILES IDX 60 67 44 68 45 69 53 70 46 71 52 72 54 73 51 74 47 75 48 76
REMARK SMILES IDX 49 77 50 78 76 79 77 80 85 81 78 82 84 83 86 84 83 85 79 86
REMARK SMILES IDX 80 87 81 88 82 89 61 90 62 91 70 92 63 93 69 94 71 95 68 96
REMARK SMILES IDX 64 97 65 98 66 99 67 100
REMARK H PARENT 15 10 91 53 59 64
REMARK Flexibility Score: inf
ROOT
ATOM      1  C   UNL     1       2.141   2.587  -5.426  1.00  0.00     0.202 C 
ENDROOT
BRANCH   1   2
ATOM      2  C   UNL     1       0.611   2.684  -5.440  1.00  0.00     0.261 C 
BRANCH   2   3
ATOM      3  O   UNL     1       0.079   3.722  -4.599  1.00  0.00    -0.462 OA
BRANCH   3   4
ATOM      4  C   UNL     1      -0.902   3.332  -3.736  1.00  0.00     0.329 C 
ATOM      5  O   UNL     1      -1.349   2.190  -3.669  1.00  0.00    -0.250 OA
BRANCH   4   6
ATOM      6  C   UNL     1      -1.517   4.498  -2.949  1.00  0.00     0.196 C 
BRANCH   6   7
ATOM      7  N   UNL     1      -0.750   5.747  -2.964  1.00  0.00    -0.341 N 
ATOM      8  C   UNL     1       0.004   6.355  -2.002  1.00  0.00     0.243 C 
ATOM      9  O   UNL     1       0.564   7.404  -2.341  1.00  0.00    -0.273 OA
ATOM     10  H   UNL     1      -0.785   6.234  -3.819  1.00  0.00     0.164 HD
BRANCH   8  11
ATOM     11  C   UNL     1       0.120   5.815  -0.536  1.00  0.00     0.178 C 
ATOM     12  N   UNL     1       0.859   4.551  -0.455  1.00  0.00    -0.296 N 
ATOM     13  C   UNL     1       2.224   4.782  -0.030  1.00  0.00     0.124 C 
ATOM     14  C   UNL     1       2.055   5.901   0.978  1.00  0.00     0.024 C 
ATOM     15  C   UNL     1       0.955   6.769   0.358  1.00  0.00     0.037 C 
BRANCH  12  16
ATOM     16  C   UNL     1       0.234   3.339  -0.267  1.00  0.00     0.410 C 
ATOM     17  O   UNL     1      -0.944   3.246   0.046  1.00  0.00    -0.224 OA
BRANCH  16  18
ATOM     18  O   UNL     1       1.063   2.307  -0.542  1.00  0.00    -0.444 OA
BRANCH  18  19
ATOM     19  C   UNL     1       0.626   0.924  -0.704  1.00  0.00     0.106 C 
ATOM     20  C   UNL     1       1.266   0.116   0.426  1.00  0.00     0.056 C 
ATOM     21  C   UNL     1       1.217   0.466  -2.044  1.00  0.00     0.056 C 
ATOM     22  C   UNL     1      -0.887   0.669  -0.711  1.00  0.00     0.056 C 
ENDBRANCH  18  19
ENDBRANCH  16  18
ENDBRANCH  12  16
ENDBRANCH   8  11
ENDBRANCH   6   7
BRANCH   6  23
ATOM     23  C   UNL     1      -2.982   4.684  -3.406  1.00  0.00     0.072 C 
BRANCH  23  24
ATOM     24  C   UNL     1      -3.202   5.072  -4.854  1.00  0.00    -0.045 A 
ATOM     25  C   UNL     1      -3.756   6.319  -5.170  1.00  0.00     0.004 A 
ATOM     26  C   UNL     1      -2.915   4.186  -5.905  1.00  0.00     0.004 A 
ATOM     27  C   UNL     1      -3.979   6.680  -6.502  1.00  0.00     0.000 A 
ATOM     28  C   UNL     1      -3.104   4.561  -7.235  1.00  0.00     0.000 A 
ATOM     29  C   UNL     1      -3.636   5.810  -7.534  1.00  0.00     0.000 A 
ENDBRANCH  23  24
ENDBRANCH   6  23
ENDBRANCH   4   6
ENDBRANCH   3   4
ENDBRANCH   2   3
ENDBRANCH   1   2
BRANCH   1  30
ATOM     30  O   UNL     1       2.808   2.609  -4.173  1.00  0.00    -0.374 OA
BRANCH  30  31
ATOM     31  C   UNL     1       2.669   3.772  -3.365  1.00  0.00     0.202 C 
BRANCH  31  32
ATOM     32  C   UNL     1       3.182   5.122  -3.892  1.00  0.00     0.261 C 
BRANCH  32  33
ATOM     33  O   UNL     1       2.634   5.515  -5.160  1.00  0.00    -0.460 OA
BRANCH  33  34
ATOM     34  C   UNL     1       3.547   5.574  -6.162  1.00  0.00     0.338 C 
ATOM     35  O   UNL     1       4.740   5.330  -6.085  1.00  0.00    -0.246 OA
BRANCH  34  36
ATOM     36  C   UNL     1       2.881   5.815  -7.453  1.00  0.00     0.060 A 
ATOM     37  C   UNL     1       3.012   4.835  -8.445  1.00  0.00     0.016 A 
ATOM     38  C   UNL     1       2.265   7.036  -7.733  1.00  0.00     0.016 A 
ATOM     39  C   UNL     1       2.571   5.092  -9.740  1.00  0.00     0.010 A 
ATOM     40  C   UNL     1       1.834   7.296  -9.039  1.00  0.00     0.010 A 
ATOM     41  C   UNL     1       2.020   6.341 -10.055  1.00  0.00    -0.014 A 
BRANCH  41  42
ATOM     42  C   UNL     1       1.796   6.693 -11.479  1.00  0.00     0.031 A 
ATOM     43  C   UNL     1       2.827   7.527 -12.193  1.00  0.00     0.074 A 
ATOM     44  C   UNL     1       0.715   6.234 -12.135  1.00  0.00     0.049 A 
ATOM     45  N   UNL     1       2.828   7.971 -13.422  1.00  0.00    -0.248 NA
ATOM     46  C   UNL     1       4.015   7.910 -11.413  1.00  0.00     0.031 C 
ATOM     47  C   UNL     1      -0.319   5.376 -11.557  1.00  0.00     0.029 A 
ATOM     48  N   UNL     1       0.308   6.426 -13.431  1.00  0.00    -0.354 N 
ATOM     49  C   UNL     1       4.010   8.692 -13.564  1.00  0.00     0.074 A 
ATOM     50  C   UNL     1       4.686   8.648 -12.285  1.00  0.00     0.031 C 
ATOM     51  C   UNL     1      -1.249   5.125 -12.495  1.00  0.00     0.029 A 
ATOM     52  C   UNL     1      -0.899   5.834 -13.724  1.00  0.00     0.049 A 
ATOM     53  H   UNL     1       0.830   6.939 -14.089  1.00  0.00     0.167 HD
ATOM     54  C   UNL     1       4.487   9.327 -14.663  1.00  0.00     0.034 A 
ATOM     55  C   UNL     1      -1.645   5.884 -14.846  1.00  0.00     0.034 A 
ATOM     56  C   UNL     1       3.798   9.365 -15.930  1.00  0.00     0.049 A 
ATOM     57  C   UNL     1      -1.125   6.661 -16.034  1.00  0.00     0.074 A 
ATOM     58  C   UNL     1       4.197   9.967 -17.110  1.00  0.00     0.029 A 
ATOM     59  N   UNL     1       2.560   8.786 -16.179  1.00  0.00    -0.354 N 
ATOM     60  N   UNL     1      -0.001   7.330 -16.157  1.00  0.00    -0.248 NA
ATOM     61  C   UNL     1      -1.969   6.679 -17.236  1.00  0.00     0.031 C 
ATOM     62  C   UNL     1       3.172   9.813 -18.050  1.00  0.00     0.029 A 
ATOM     63  C   UNL     1       2.167   9.045 -17.483  1.00  0.00     0.049 A 
ATOM     64  H   UNL     1       2.038   8.267 -15.525  1.00  0.00     0.167 HD
ATOM     65  C   UNL     1       0.010   7.817 -17.462  1.00  0.00     0.074 A 
ATOM     66  C   UNL     1      -1.210   7.352 -18.088  1.00  0.00     0.031 C 
ATOM     67  C   UNL     1       0.944   8.576 -18.091  1.00  0.00     0.034 A 
BRANCH  54  68
ATOM     68  C   UNL     1       5.788  10.080 -14.525  1.00  0.00     0.023 A 
ATOM     69  C   UNL     1       7.008   9.423 -14.284  1.00  0.00     0.031 A 
ATOM     70  C   UNL     1       5.805  11.482 -14.635  1.00  0.00     0.131 A 
ATOM     71  C   UNL     1       8.183  10.172 -14.109  1.00  0.00     0.055 A 
ATOM     72  C   UNL     1       6.988  12.216 -14.529  1.00  0.00     0.041 A 
ATOM     73  F   UNL     1       4.668  12.164 -14.842  1.00  0.00    -0.206 F 
ATOM     74  C   UNL     1       8.185  11.562 -14.254  1.00  0.00     0.022 A 
BRANCH  71  75
ATOM     75  S   UNL     1       9.691   9.316 -13.577  1.00  0.00     0.124 S 
ATOM     76  O   UNL     1       9.273   8.747 -12.299  1.00  0.00    -0.237 OA
ATOM     77  O   UNL     1       9.912   8.363 -14.659  1.00  0.00    -0.237 OA
ATOM     78  O   UNL     1      10.679  10.389 -13.481  1.00  0.00    -0.744 OA
ENDBRANCH  71  75
ENDBRANCH  54  68
BRANCH  55  79
ATOM     79  C   UNL     1      -2.983   5.226 -14.898  1.00  0.00     0.023 A 
ATOM     80  C   UNL     1      -3.257   4.201 -15.817  1.00  0.00     0.031 A 
ATOM     81  C   UNL     1      -4.035   5.670 -14.075  1.00  0.00     0.131 A 
ATOM     82  C   UNL     1      -4.562   3.694 -15.932  1.00  0.00     0.055 A 
ATOM     83  C   UNL     1      -5.316   5.121 -14.151  1.00  0.00     0.041 A 
ATOM     84  F   UNL     1      -3.830   6.648 -13.178  1.00  0.00    -0.206 F 
ATOM     85  C   UNL     1      -5.589   4.138 -15.097  1.00  0.00     0.022 A 
BRANCH  82  86
ATOM     86  S   UNL     1      -4.922   2.521 -17.267  1.00  0.00     0.124 S 
ATOM     87  O   UNL     1      -4.499   3.271 -18.444  1.00  0.00    -0.237 OA
ATOM     88  O   UNL     1      -4.090   1.380 -16.899  1.00  0.00    -0.237 OA
ATOM     89  O   UNL     1      -6.363   2.303 -17.149  1.00  0.00    -0.744 OA
ENDBRANCH  82  86
ENDBRANCH  55  79
BRANCH  67  90
ATOM     90  C   UNL     1       0.703   8.899 -19.546  1.00  0.00     0.023 A 
ATOM     91  C   UNL     1      -0.358   9.725 -19.958  1.00  0.00     0.031 A 
ATOM     92  C   UNL     1       1.544   8.361 -20.536  1.00  0.00     0.131 A 
ATOM     93  C   UNL     1      -0.586   9.940 -21.326  1.00  0.00     0.055 A 
ATOM     94  C   UNL     1       1.351   8.629 -21.892  1.00  0.00     0.041 A 
ATOM     95  F   UNL     1       2.573   7.565 -20.201  1.00  0.00    -0.206 F 
ATOM     96  C   UNL     1       0.272   9.411 -22.294  1.00  0.00     0.022 A 
BRANCH  93  97
ATOM     97  S   UNL     1      -2.077  10.841 -21.831  1.00  0.00     0.124 S 
ATOM     98  O   UNL     1      -3.136  10.033 -21.235  1.00  0.00    -0.237 OA
ATOM     99  O   UNL     1      -1.865  12.155 -21.232  1.00  0.00    -0.237 OA
ATOM    100  O   UNL     1      -2.019  10.809 -23.291  1.00  0.00    -0.744 OA
ENDBRANCH  93  97
ENDBRANCH  67  90
ENDBRANCH  41  42
ENDBRANCH  34  36
ENDBRANCH  33  34
ENDBRANCH  32  33
ENDBRANCH  31  32
ENDBRANCH  30  31
ENDBRANCH   1  30
TORSDOF 24
