REMARK SMILES Cc1ccccc1NC(=S)NN1C(=O)CS[C@H]1c1ccccc1C(=O)OCCOCCOC(=O)c1ccc(-c2c3nc(c(-c4cc(S(=O)(=O)[O-])ccc4F)c4ccc([nH]4)c(-c4cc(S(=O)(=O)[O-])ccc4F)c4nc(c(-c5cc(S(=O)(=O)[O-])ccc5F)c5ccc2[nH]5)C=C4)C=C3)cc1
REMARK SMILES IDX 28 1 27 2 26 3 24 4 25 5 23 6 18 7 19 8 20 9 22 10 21 11
REMARK SMILES IDX 17 12 12 13 13 14 14 15 15 16 16 17 11 18 9 20 10 21 8 22
REMARK SMILES IDX 7 24 1 25 2 26 3 27 4 28 6 29 5 30 29 31 30 32 31 33 32 34
REMARK SMILES IDX 33 35 34 36 35 37 36 38 97 39 37 40 96 41 38 42 39 43 40 44
REMARK SMILES IDX 90 45 41 46 95 47 89 48 91 49 42 50 94 51 88 52 87 53 43 55
REMARK SMILES IDX 75 56 55 57 74 58 56 59 59 60 73 61 92 62 57 63 58 64 72 66
REMARK SMILES IDX 93 67 60 68 44 69 45 70 53 71 46 72 52 73 54 74 51 75 47 76
REMARK SMILES IDX 48 77 49 78 50 79 76 80 77 81 85 82 78 83 84 84 86 85 83 86
REMARK SMILES IDX 79 87 80 88 81 89 82 90 61 91 62 92 70 93 63 94 69 95 71 96
REMARK SMILES IDX 68 97 64 98 65 99 66 100 67 101
REMARK H PARENT 11 19 8 23 91 54 59 65
REMARK Flexibility Score: inf
ROOT
ATOM      1  C   UNL     1      -1.938   1.830  -2.340  1.00  0.00     0.202 C 
ENDROOT
BRANCH   1   2
ATOM      2  C   UNL     1      -1.858   1.711  -0.506  1.00  0.00     0.261 C 
BRANCH   2   3
ATOM      3  O   UNL     1      -2.136   2.979   0.688  1.00  0.00    -0.460 OA
BRANCH   3   4
ATOM      4  C   UNL     1      -2.881   4.149   1.108  1.00  0.00     0.338 C 
ATOM      5  O   UNL     1      -2.536   4.696   2.162  1.00  0.00    -0.246 OA
BRANCH   4   6
ATOM      6  C   UNL     1      -4.079   5.042   0.494  1.00  0.00     0.066 A 
ATOM      7  C   UNL     1      -5.109   4.705  -0.430  1.00  0.00     0.001 A 
ATOM      8  C   UNL     1      -6.319   5.437  -0.475  1.00  0.00     0.008 A 
ATOM      9  C   UNL     1      -6.407   6.684   0.111  1.00  0.00     0.000 A 
ATOM     10  C   UNL     1      -4.164   6.375   0.965  1.00  0.00     0.016 A 
ATOM     11  C   UNL     1      -5.282   7.199   0.732  1.00  0.00     0.001 A 
BRANCH   7  12
ATOM     12  C   UNL     1      -4.843   3.748  -1.569  1.00  0.00     0.197 C 
ATOM     13  N   UNL     1      -3.739   2.981  -1.153  1.00  0.00    -0.236 N 
ATOM     14  C   UNL     1      -4.388   2.088  -0.085  1.00  0.00     0.252 C 
ATOM     15  O   UNL     1      -4.129   1.888   1.100  1.00  0.00    -0.272 OA
ATOM     16  C   UNL     1      -5.683   1.502  -0.606  1.00  0.00     0.174 C 
ATOM     17  S   UNL     1      -6.191   2.594  -1.928  1.00  0.00    -0.120 SA
BRANCH  13  18
ATOM     18  N   UNL     1      -2.233   3.922  -1.325  1.00  0.00    -0.270 N 
ATOM     19  H   UNL     1      -2.445   4.747  -1.818  1.00  0.00     0.191 HD
BRANCH  18  20
ATOM     20  C   UNL     1      -0.762   3.937  -1.005  1.00  0.00     0.189 C 
ATOM     21  S   UNL     1      -0.461   5.571  -0.593  1.00  0.00    -0.039 S 
BRANCH  20  22
ATOM     22  N   UNL     1       0.342   2.905  -0.895  1.00  0.00    -0.331 N 
ATOM     23  H   UNL     1       0.959   3.244  -0.207  1.00  0.00     0.169 HD
BRANCH  22  24
ATOM     24  C   UNL     1       0.983   1.465  -1.409  1.00  0.00     0.043 A 
ATOM     25  C   UNL     1       2.977   0.805   0.332  1.00  0.00     0.046 C 
ATOM     26  C   UNL     1       1.923   0.577  -0.728  1.00  0.00    -0.028 A 
ATOM     27  C   UNL     1       2.150  -0.793  -1.182  1.00  0.00     0.005 A 
ATOM     28  C   UNL     1       1.552  -1.338  -2.287  1.00  0.00     0.000 A 
ATOM     29  C   UNL     1       0.718   0.901  -2.671  1.00  0.00     0.026 A 
ATOM     30  C   UNL     1       0.879  -0.454  -3.072  1.00  0.00     0.002 A 
ENDBRANCH  22  24
ENDBRANCH  20  22
ENDBRANCH  18  20
ENDBRANCH  13  18
ENDBRANCH   7  12
ENDBRANCH   4   6
ENDBRANCH   3   4
ENDBRANCH   2   3
ENDBRANCH   1   2
BRANCH   1  31
ATOM     31  O   UNL     1      -1.012   2.662  -3.146  1.00  0.00    -0.374 OA
BRANCH  31  32
ATOM     32  C   UNL     1      -1.196   3.878  -3.871  1.00  0.00     0.202 C 
BRANCH  32  33
ATOM     33  C   UNL     1       0.108   4.244  -4.658  1.00  0.00     0.261 C 
BRANCH  33  34
ATOM     34  O   UNL     1       1.140   4.746  -3.755  1.00  0.00    -0.460 OA
BRANCH  34  35
ATOM     35  C   UNL     1       2.308   4.056  -3.590  1.00  0.00     0.338 C 
ATOM     36  O   UNL     1       2.719   3.155  -4.298  1.00  0.00    -0.246 OA
BRANCH  35  37
ATOM     37  C   UNL     1       2.927   4.456  -2.276  1.00  0.00     0.060 A 
ATOM     38  C   UNL     1       3.617   3.519  -1.506  1.00  0.00     0.016 A 
ATOM     39  C   UNL     1       2.617   5.661  -1.664  1.00  0.00     0.016 A 
ATOM     40  C   UNL     1       3.633   3.639  -0.095  1.00  0.00     0.010 A 
ATOM     41  C   UNL     1       2.586   5.719  -0.258  1.00  0.00     0.010 A 
ATOM     42  C   UNL     1       2.857   4.588   0.526  1.00  0.00    -0.014 A 
BRANCH  42  43
ATOM     43  C   UNL     1       2.248   4.449   1.891  1.00  0.00     0.031 A 
ATOM     44  C   UNL     1       2.708   5.442   2.933  1.00  0.00     0.074 A 
ATOM     45  C   UNL     1       1.169   3.686   2.308  1.00  0.00     0.049 A 
ATOM     46  N   UNL     1       2.375   5.431   4.191  1.00  0.00    -0.248 NA
ATOM     47  C   UNL     1       3.642   6.530   2.633  1.00  0.00     0.031 C 
ATOM     48  C   UNL     1       0.214   4.324   3.211  1.00  0.00     0.029 A 
ATOM     49  N   UNL     1       0.491   2.454   2.024  1.00  0.00    -0.354 N 
ATOM     50  C   UNL     1       2.543   6.723   4.624  1.00  0.00     0.074 A 
ATOM     51  C   UNL     1       3.569   7.245   3.760  1.00  0.00     0.031 C 
ATOM     52  C   UNL     1      -0.725   3.474   3.593  1.00  0.00     0.029 A 
ATOM     53  C   UNL     1      -0.503   2.171   3.023  1.00  0.00     0.049 A 
ATOM     54  H   UNL     1       0.681   1.880   1.247  1.00  0.00     0.167 HD
ATOM     55  C   UNL     1       1.636   7.301   5.467  1.00  0.00     0.034 A 
ATOM     56  C   UNL     1      -1.234   1.087   3.467  1.00  0.00     0.034 A 
ATOM     57  C   UNL     1       0.644   6.363   6.035  1.00  0.00     0.049 A 
ATOM     58  C   UNL     1      -1.284   1.149   5.008  1.00  0.00     0.074 A 
ATOM     59  C   UNL     1      -0.741   6.375   6.102  1.00  0.00     0.029 A 
ATOM     60  N   UNL     1       1.030   5.119   6.546  1.00  0.00    -0.354 N 
ATOM     61  N   UNL     1      -1.238   2.263   5.687  1.00  0.00    -0.248 NA
ATOM     62  C   UNL     1      -1.185   0.001   5.915  1.00  0.00     0.031 C 
ATOM     63  C   UNL     1      -1.175   5.144   6.661  1.00  0.00     0.029 A 
ATOM     64  C   UNL     1      -0.066   4.367   6.949  1.00  0.00     0.049 A 
ATOM     65  H   UNL     1       1.964   4.814   6.613  1.00  0.00     0.167 HD
ATOM     66  C   UNL     1      -0.625   2.027   6.886  1.00  0.00     0.074 A 
ATOM     67  C   UNL     1      -0.803   0.597   7.063  1.00  0.00     0.031 C 
ATOM     68  C   UNL     1       0.080   3.020   7.522  1.00  0.00     0.034 A 
BRANCH  55  69
ATOM     69  C   UNL     1       1.501   8.815   5.667  1.00  0.00     0.023 A 
ATOM     70  C   UNL     1       0.686   9.299   6.717  1.00  0.00     0.031 A 
ATOM     71  C   UNL     1       2.051   9.823   4.839  1.00  0.00     0.131 A 
ATOM     72  C   UNL     1       0.482  10.680   6.921  1.00  0.00     0.055 A 
ATOM     73  C   UNL     1       1.922  11.195   5.099  1.00  0.00     0.041 A 
ATOM     74  F   UNL     1       2.680   9.553   3.689  1.00  0.00    -0.206 F 
ATOM     75  C   UNL     1       1.134  11.632   6.145  1.00  0.00     0.022 A 
BRANCH  72  76
ATOM     76  S   UNL     1      -0.693  11.237   8.187  1.00  0.00     0.124 S 
ATOM     77  O   UNL     1      -1.972  10.826   7.617  1.00  0.00    -0.237 OA
ATOM     78  O   UNL     1      -0.247  10.517   9.374  1.00  0.00    -0.237 OA
ATOM     79  O   UNL     1      -0.479  12.684   8.232  1.00  0.00    -0.744 OA
ENDBRANCH  72  76
ENDBRANCH  55  69
BRANCH  56  80
ATOM     80  C   UNL     1      -1.246  -0.182   2.678  1.00  0.00     0.023 A 
ATOM     81  C   UNL     1      -2.277  -0.569   1.760  1.00  0.00     0.031 A 
ATOM     82  C   UNL     1      -0.009  -0.802   2.569  1.00  0.00     0.131 A 
ATOM     83  C   UNL     1      -1.940  -1.323   0.606  1.00  0.00     0.055 A 
ATOM     84  C   UNL     1       0.325  -1.499   1.424  1.00  0.00     0.041 A 
ATOM     85  F   UNL     1       0.935  -0.616   3.503  1.00  0.00    -0.206 F 
ATOM     86  C   UNL     1      -0.614  -1.694   0.415  1.00  0.00     0.022 A 
BRANCH  83  87
ATOM     87  S   UNL     1      -3.109  -1.759  -0.775  1.00  0.00     0.124 S 
ATOM     88  O   UNL     1      -4.187  -2.460  -0.081  1.00  0.00    -0.237 OA
ATOM     89  O   UNL     1      -3.497  -0.491  -1.378  1.00  0.00    -0.237 OA
ATOM     90  O   UNL     1      -2.298  -2.589  -1.661  1.00  0.00    -0.744 OA
ENDBRANCH  83  87
ENDBRANCH  56  80
BRANCH  68  91
ATOM     91  C   UNL     1       0.912   2.810   8.771  1.00  0.00     0.023 A 
ATOM     92  C   UNL     1       1.349   1.548   9.197  1.00  0.00     0.031 A 
ATOM     93  C   UNL     1       1.280   3.896   9.601  1.00  0.00     0.131 A 
ATOM     94  C   UNL     1       1.957   1.373  10.451  1.00  0.00     0.055 A 
ATOM     95  C   UNL     1       1.974   3.732  10.805  1.00  0.00     0.041 A 
ATOM     96  F   UNL     1       0.966   5.162   9.288  1.00  0.00    -0.206 F 
ATOM     97  C   UNL     1       2.284   2.459  11.258  1.00  0.00     0.022 A 
BRANCH  94  98
ATOM     98  S   UNL     1       2.163  -0.321  11.062  1.00  0.00     0.124 S 
ATOM     99  O   UNL     1       0.795  -0.831  11.004  1.00  0.00    -0.237 OA
ATOM    100  O   UNL     1       3.094  -0.893  10.095  1.00  0.00    -0.237 OA
ATOM    101  O   UNL     1       2.698  -0.141  12.410  1.00  0.00    -0.744 OA
ENDBRANCH  94  98
ENDBRANCH  68  91
ENDBRANCH  42  43
ENDBRANCH  35  37
ENDBRANCH  34  35
ENDBRANCH  33  34
ENDBRANCH  32  33
ENDBRANCH  31  32
ENDBRANCH   1  31
TORSDOF 22
