REMARK SMILES O=C(COCC(=O)OCCOCCOC(=O)c1ccc(-c2c3nc(c(-c4cc(S(=O)(=O)[O-])ccc4F)c4ccc([nH]4)c(-c4cc(S(=O)(=O)[O-])ccc4F)c4nc(c(-c5cc(S(=O)(=O)[O-])ccc5F)c5ccc2[nH]5)C=C4)C=C3)cc1)/[NH+]=C1\S[C@@H]2CS(=O)(=O)C[C@H]2N1c1ccc(Cl)cc1
REMARK SMILES IDX 10 1 9 2 8 3 6 4 7 5 5 6 4 7 3 8 2 9 1 10 80 11 81 12 82 14
REMARK SMILES IDX 90 15 83 16 89 17 84 18 88 19 85 20 86 21 87 22 91 23 92 24
REMARK SMILES IDX 97 25 93 26 96 27 94 28 95 29 11 30 12 31 13 32 14 33 15 34
REMARK SMILES IDX 16 35 17 36 18 37 79 38 19 39 78 40 20 41 21 42 22 43 72 44
REMARK SMILES IDX 23 45 77 46 71 47 73 48 24 49 76 50 70 51 69 52 25 54 57 55
REMARK SMILES IDX 37 56 56 57 38 58 41 59 55 60 74 61 39 62 40 63 54 65 75 66
REMARK SMILES IDX 42 67 26 68 27 69 35 70 28 71 34 72 36 73 33 74 29 75 30 76
REMARK SMILES IDX 31 77 32 78 58 79 59 80 67 81 60 82 66 83 68 84 65 85 61 86
REMARK SMILES IDX 62 87 63 88 64 89 43 90 44 91 52 92 45 93 51 94 53 95 50 96
REMARK SMILES IDX 46 97 47 98 48 99 49 100
REMARK H PARENT 80 13 73 53 41 64
REMARK Flexibility Score: inf
ROOT
ATOM      1  C   UNL     1       0.464   0.568  -5.197  1.00  0.00     0.202 C 
ENDROOT
BRANCH   1   2
ATOM      2  C   UNL     1       1.252   1.869  -5.026  1.00  0.00     0.261 C 
BRANCH   2   3
ATOM      3  O   UNL     1       2.218   1.800  -3.956  1.00  0.00    -0.462 OA
BRANCH   3   4
ATOM      4  C   UNL     1       2.125   2.766  -3.003  1.00  0.00     0.332 C 
ATOM      5  O   UNL     1       1.276   3.650  -2.975  1.00  0.00    -0.250 OA
BRANCH   4   6
ATOM      6  C   UNL     1       3.230   2.662  -1.934  1.00  0.00     0.283 C 
BRANCH   6   7
ATOM      7  O   UNL     1       4.055   1.520  -1.777  1.00  0.00    -0.358 OA
BRANCH   7   8
ATOM      8  C   UNL     1       3.336   0.345  -1.453  1.00  0.00     0.288 C 
BRANCH   8   9
ATOM      9  C   UNL     1       2.719   0.162  -0.034  1.00  0.00     0.333 C 
ATOM     10  O   UNL     1       1.645  -0.421   0.100  1.00  0.00    -0.244 OA
ATOM     11  N   UNL     1       3.375   0.723   1.037  1.00  0.00    -0.202 N 
ATOM     12  C   UNL     1       4.576   0.357   1.328  1.00  0.00     0.319 C 
ATOM     13  H   UNL     1       2.925   1.407   1.584  1.00  0.00     0.316 HD
ATOM     14  S   UNL     1       5.515  -0.864   0.407  1.00  0.00    -0.029 SA
ATOM     15  N   UNL     1       5.417   0.899   2.310  1.00  0.00    -0.217 N 
ATOM     16  C   UNL     1       6.950   0.182   0.657  1.00  0.00     0.120 C 
ATOM     17  C   UNL     1       6.812   0.427   2.169  1.00  0.00     0.212 C 
ATOM     18  C   UNL     1       8.334  -0.314   0.359  1.00  0.00     0.156 C 
ATOM     19  C   UNL     1       7.971   1.339   2.475  1.00  0.00     0.188 C 
ATOM     20  S   UNL     1       9.319   0.575   1.565  1.00  0.00     0.155 S 
ATOM     21  O   UNL     1      10.064   1.619   0.906  1.00  0.00    -0.229 OA
ATOM     22  O   UNL     1       9.946  -0.401   2.437  1.00  0.00    -0.229 OA
BRANCH  15  23
ATOM     23  C   UNL     1       4.971   1.387   3.549  1.00  0.00     0.128 A 
ATOM     24  C   UNL     1       5.572   2.502   4.154  1.00  0.00     0.053 A 
ATOM     25  C   UNL     1       3.906   0.781   4.239  1.00  0.00     0.053 A 
ATOM     26  C   UNL     1       5.167   2.966   5.412  1.00  0.00     0.025 A 
ATOM     27  C   UNL     1       3.496   1.238   5.500  1.00  0.00     0.025 A 
ATOM     28  C   UNL     1       4.136   2.325   6.085  1.00  0.00     0.041 A 
ATOM     29  Cl  UNL     1       3.649   2.884   7.637  1.00  0.00    -0.084 Cl
ENDBRANCH  15  23
ENDBRANCH   8   9
ENDBRANCH   7   8
ENDBRANCH   6   7
ENDBRANCH   4   6
ENDBRANCH   3   4
ENDBRANCH   2   3
ENDBRANCH   1   2
BRANCH   1  30
ATOM     30  O   UNL     1      -0.475   0.223  -4.181  1.00  0.00    -0.374 OA
BRANCH  30  31
ATOM     31  C   UNL     1       0.042  -0.264  -2.946  1.00  0.00     0.202 C 
BRANCH  31  32
ATOM     32  C   UNL     1       0.653  -1.681  -2.946  1.00  0.00     0.261 C 
BRANCH  32  33
ATOM     33  O   UNL     1       1.726  -1.859  -3.895  1.00  0.00    -0.460 OA
BRANCH  33  34
ATOM     34  C   UNL     1       1.436  -2.723  -4.906  1.00  0.00     0.338 C 
ATOM     35  O   UNL     1       0.435  -3.412  -5.012  1.00  0.00    -0.246 OA
BRANCH  34  36
ATOM     36  C   UNL     1       2.408  -2.596  -6.012  1.00  0.00     0.060 A 
ATOM     37  C   UNL     1       1.910  -2.166  -7.249  1.00  0.00     0.016 A 
ATOM     38  C   UNL     1       3.736  -3.006  -5.892  1.00  0.00     0.016 A 
ATOM     39  C   UNL     1       2.725  -2.183  -8.380  1.00  0.00     0.010 A 
ATOM     40  C   UNL     1       4.552  -3.030  -7.034  1.00  0.00     0.010 A 
ATOM     41  C   UNL     1       4.042  -2.652  -8.292  1.00  0.00    -0.014 A 
BRANCH  41  42
ATOM     42  C   UNL     1       4.820  -2.876  -9.541  1.00  0.00     0.031 A 
ATOM     43  C   UNL     1       4.978  -4.278 -10.070  1.00  0.00     0.074 A 
ATOM     44  C   UNL     1       5.326  -1.838 -10.235  1.00  0.00     0.049 A 
ATOM     45  N   UNL     1       5.634  -4.702 -11.120  1.00  0.00    -0.248 NA
ATOM     46  C   UNL     1       4.302  -5.342  -9.312  1.00  0.00     0.031 C 
ATOM     47  C   UNL     1       5.183  -0.431  -9.867  1.00  0.00     0.029 A 
ATOM     48  N   UNL     1       6.060  -1.808 -11.396  1.00  0.00    -0.354 N 
ATOM     49  C   UNL     1       5.457  -6.083 -11.147  1.00  0.00     0.074 A 
ATOM     50  C   UNL     1       4.663  -6.424  -9.985  1.00  0.00     0.031 C 
ATOM     51  C   UNL     1       5.810   0.326 -10.783  1.00  0.00     0.029 A 
ATOM     52  C   UNL     1       6.443  -0.542 -11.775  1.00  0.00     0.049 A 
ATOM     53  H   UNL     1       6.290  -2.616 -11.909  1.00  0.00     0.167 HD
ATOM     54  C   UNL     1       5.907  -6.980 -12.061  1.00  0.00     0.034 A 
ATOM     55  C   UNL     1       7.236  -0.130 -12.786  1.00  0.00     0.034 A 
ATOM     56  C   UNL     1       6.703  -6.625 -13.212  1.00  0.00     0.049 A 
ATOM     57  C   UNL     1       7.819  -1.159 -13.728  1.00  0.00     0.074 A 
ATOM     58  C   UNL     1       7.200  -7.455 -14.204  1.00  0.00     0.029 A 
ATOM     59  N   UNL     1       7.132  -5.341 -13.522  1.00  0.00    -0.354 N 
ATOM     60  N   UNL     1       7.649  -2.461 -13.738  1.00  0.00    -0.248 NA
ATOM     61  C   UNL     1       8.697  -0.661 -14.795  1.00  0.00     0.031 C 
ATOM     62  C   UNL     1       7.998  -6.689 -15.059  1.00  0.00     0.029 A 
ATOM     63  C   UNL     1       7.923  -5.364 -14.662  1.00  0.00     0.049 A 
ATOM     64  H   UNL     1       6.908  -4.532 -13.007  1.00  0.00     0.167 HD
ATOM     65  C   UNL     1       8.372  -2.931 -14.834  1.00  0.00     0.074 A 
ATOM     66  C   UNL     1       8.967  -1.772 -15.465  1.00  0.00     0.031 C 
ATOM     67  C   UNL     1       8.523  -4.204 -15.280  1.00  0.00     0.034 A 
BRANCH  54  68
ATOM     68  C   UNL     1       5.598  -8.439 -11.818  1.00  0.00     0.023 A 
ATOM     69  C   UNL     1       4.281  -8.931 -11.812  1.00  0.00     0.031 A 
ATOM     70  C   UNL     1       6.641  -9.352 -11.575  1.00  0.00     0.131 A 
ATOM     71  C   UNL     1       4.038 -10.277 -11.501  1.00  0.00     0.055 A 
ATOM     72  C   UNL     1       6.397 -10.708 -11.349  1.00  0.00     0.041 A 
ATOM     73  F   UNL     1       7.917  -8.939 -11.544  1.00  0.00    -0.206 F 
ATOM     74  C   UNL     1       5.088 -11.175 -11.296  1.00  0.00     0.022 A 
BRANCH  71  75
ATOM     75  S   UNL     1       2.326 -10.808 -11.221  1.00  0.00     0.124 S 
ATOM     76  O   UNL     1       1.913  -9.912 -10.143  1.00  0.00    -0.237 OA
ATOM     77  O   UNL     1       1.707 -10.573 -12.520  1.00  0.00    -0.237 OA
ATOM     78  O   UNL     1       2.460 -12.212 -10.838  1.00  0.00    -0.744 OA
ENDBRANCH  71  75
ENDBRANCH  54  68
BRANCH  55  79
ATOM     79  C   UNL     1       7.577   1.315 -12.941  1.00  0.00     0.023 A 
ATOM     80  C   UNL     1       7.228   2.027 -14.100  1.00  0.00     0.031 A 
ATOM     81  C   UNL     1       8.316   1.990 -11.953  1.00  0.00     0.131 A 
ATOM     82  C   UNL     1       7.659   3.354 -14.262  1.00  0.00     0.055 A 
ATOM     83  C   UNL     1       8.689   3.328 -12.092  1.00  0.00     0.041 A 
ATOM     84  F   UNL     1       8.685   1.357 -10.828  1.00  0.00    -0.206 F 
ATOM     85  C   UNL     1       8.372   4.014 -13.259  1.00  0.00     0.022 A 
BRANCH  82  86
ATOM     86  S   UNL     1       7.361   4.176 -15.852  1.00  0.00     0.124 S 
ATOM     87  O   UNL     1       8.040   3.279 -16.780  1.00  0.00    -0.237 OA
ATOM     88  O   UNL     1       5.903   4.186 -15.918  1.00  0.00    -0.237 OA
ATOM     89  O   UNL     1       7.984   5.486 -15.678  1.00  0.00    -0.744 OA
ENDBRANCH  82  86
ENDBRANCH  55  79
BRANCH  67  90
ATOM     90  C   UNL     1       9.328  -4.406 -16.544  1.00  0.00     0.023 A 
ATOM     91  C   UNL     1      10.705  -4.130 -16.603  1.00  0.00     0.031 A 
ATOM     92  C   UNL     1       8.702  -4.883 -17.711  1.00  0.00     0.131 A 
ATOM     93  C   UNL     1      11.399  -4.282 -17.814  1.00  0.00     0.055 A 
ATOM     94  C   UNL     1       9.411  -5.096 -18.894  1.00  0.00     0.041 A 
ATOM     95  F   UNL     1       7.388  -5.159 -17.718  1.00  0.00    -0.206 F 
ATOM     96  C   UNL     1      10.765  -4.783 -18.953  1.00  0.00     0.022 A 
BRANCH  93  97
ATOM     97  S   UNL     1      13.123  -3.725 -17.907  1.00  0.00     0.124 S 
ATOM     98  O   UNL     1      13.006  -2.315 -17.549  1.00  0.00    -0.237 OA
ATOM     99  O   UNL     1      13.781  -4.580 -16.924  1.00  0.00    -0.237 OA
ATOM    100  O   UNL     1      13.493  -3.983 -19.297  1.00  0.00    -0.744 OA
ENDBRANCH  93  97
ENDBRANCH  67  90
ENDBRANCH  41  42
ENDBRANCH  34  36
ENDBRANCH  33  34
ENDBRANCH  32  33
ENDBRANCH  31  32
ENDBRANCH  30  31
ENDBRANCH   1  30
TORSDOF 21
