REMARK SMILES C[C@@H](C(=O)OCCOCCOC(=O)c1ccc(-c2c3nc(c(-c4cc(S(=O)(=O)[O-])ccc4F)c4ccc([nH]4)c(-c4cc(S(=O)(=O)[O-])ccc4F)c4nc(c(-c5cc(S(=O)(=O)[O-])ccc5F)c5ccc2[nH]5)C=C4)C=C3)cc1)c1ccc(-c2cccc(OC(=O)NCCCc3ccccc3)c2)c(F)c1
REMARK SMILES IDX 6 1 5 2 3 3 4 4 2 5 1 6 77 7 78 8 102 9 79 10 100 11 80 12
REMARK SMILES IDX 101 13 81 14 82 15 99 16 83 17 85 18 84 19 86 20 87 21 88 22
REMARK SMILES IDX 89 23 90 25 91 26 92 27 93 28 94 29 98 30 95 31 97 32 96 33
REMARK SMILES IDX 7 34 8 35 9 36 10 37 11 38 12 39 13 40 14 41 15 42 76 43
REMARK SMILES IDX 16 44 75 45 17 46 18 47 19 48 69 49 20 50 74 51 68 52 70 53
REMARK SMILES IDX 21 54 73 55 67 56 66 57 22 59 54 60 34 61 53 62 35 63 38 64
REMARK SMILES IDX 52 65 71 66 36 67 37 68 51 70 72 71 39 72 23 73 24 74 32 75
REMARK SMILES IDX 25 76 31 77 33 78 30 79 26 80 27 81 28 82 29 83 55 84 56 85
REMARK SMILES IDX 64 86 57 87 63 88 65 89 62 90 58 91 59 92 60 93 61 94 40 95
REMARK SMILES IDX 41 96 49 97 42 98 48 99 50 100 47 101 43 102 44 103 45 104
REMARK SMILES IDX 46 105
REMARK H PARENT 89 24 70 58 38 69
REMARK Flexibility Score: inf
ROOT
ATOM      1  C   UNL     1       2.293  -1.060  -3.962  1.00  0.00     0.261 C 
ENDROOT
BRANCH   1   2
ATOM      2  O   UNL     1       1.990  -0.374  -2.730  1.00  0.00    -0.463 OA
BRANCH   2   3
ATOM      3  C   UNL     1       0.930   0.477  -2.769  1.00  0.00     0.313 C 
ATOM      4  O   UNL     1       0.337   0.794  -3.795  1.00  0.00    -0.252 OA
BRANCH   3   5
ATOM      5  C   UNL     1       0.528   0.998  -1.380  1.00  0.00     0.126 C 
ATOM      6  C   UNL     1       1.253   0.357  -0.191  1.00  0.00     0.025 C 
BRANCH   5   7
ATOM      7  C   UNL     1      -0.988   0.920  -1.230  1.00  0.00    -0.031 A 
ATOM      8  C   UNL     1      -1.776   2.066  -1.406  1.00  0.00     0.005 A 
ATOM      9  C   UNL     1      -1.641  -0.301  -1.030  1.00  0.00     0.044 A 
ATOM     10  C   UNL     1      -3.175   1.984  -1.394  1.00  0.00     0.012 A 
ATOM     11  C   UNL     1      -3.028  -0.381  -1.058  1.00  0.00     0.131 A 
ATOM     12  C   UNL     1      -3.829   0.755  -1.225  1.00  0.00     0.018 A 
ATOM     13  F   UNL     1      -3.582  -1.597  -0.920  1.00  0.00    -0.206 F 
BRANCH  12  14
ATOM     14  C   UNL     1      -5.294   0.667  -1.140  1.00  0.00    -0.012 A 
ATOM     15  C   UNL     1      -6.146   1.294  -2.061  1.00  0.00     0.009 A 
ATOM     16  C   UNL     1      -5.874  -0.054  -0.083  1.00  0.00     0.056 A 
ATOM     17  C   UNL     1      -7.536   1.212  -1.920  1.00  0.00     0.004 A 
ATOM     18  C   UNL     1      -7.252  -0.131   0.061  1.00  0.00     0.133 A 
ATOM     19  C   UNL     1      -8.090   0.501  -0.855  1.00  0.00     0.047 A 
BRANCH  18  20
ATOM     20  O   UNL     1      -7.893  -0.845   1.100  1.00  0.00    -0.410 OA
BRANCH  20  21
ATOM     21  C   UNL     1      -7.262  -1.453   2.182  1.00  0.00     0.412 C 
ATOM     22  O   UNL     1      -6.061  -1.444   2.441  1.00  0.00    -0.224 OA
ATOM     23  N   UNL     1      -8.129  -2.090   3.019  1.00  0.00    -0.321 N 
ATOM     24  H   UNL     1      -7.741  -2.635   3.742  1.00  0.00     0.167 HD
BRANCH  23  25
ATOM     25  C   UNL     1      -9.566  -2.033   2.933  1.00  0.00     0.120 C 
BRANCH  25  26
ATOM     26  C   UNL     1     -10.274  -3.279   3.460  1.00  0.00     0.026 C 
BRANCH  26  27
ATOM     27  C   UNL     1      -9.730  -3.944   4.730  1.00  0.00     0.037 C 
BRANCH  27  28
ATOM     28  C   UNL     1      -9.877  -3.275   6.078  1.00  0.00    -0.048 A 
ATOM     29  C   UNL     1     -10.080  -1.905   6.271  1.00  0.00     0.004 A 
ATOM     30  C   UNL     1      -9.730  -4.082   7.220  1.00  0.00     0.004 A 
ATOM     31  C   UNL     1     -10.123  -1.357   7.557  1.00  0.00     0.000 A 
ATOM     32  C   UNL     1      -9.785  -3.540   8.506  1.00  0.00     0.000 A 
ATOM     33  C   UNL     1      -9.975  -2.173   8.674  1.00  0.00     0.000 A 
ENDBRANCH  27  28
ENDBRANCH  26  27
ENDBRANCH  25  26
ENDBRANCH  23  25
ENDBRANCH  20  21
ENDBRANCH  18  20
ENDBRANCH  12  14
ENDBRANCH   5   7
ENDBRANCH   3   5
ENDBRANCH   2   3
ENDBRANCH   1   2
BRANCH   1  34
ATOM     34  C   UNL     1       2.325  -2.579  -3.761  1.00  0.00     0.202 C 
BRANCH  34  35
ATOM     35  O   UNL     1       1.089  -3.230  -3.461  1.00  0.00    -0.374 OA
BRANCH  35  36
ATOM     36  C   UNL     1       0.519  -2.986  -2.181  1.00  0.00     0.202 C 
BRANCH  36  37
ATOM     37  C   UNL     1       1.103  -3.725  -0.969  1.00  0.00     0.261 C 
BRANCH  37  38
ATOM     38  O   UNL     1       2.506  -3.487  -0.791  1.00  0.00    -0.460 OA
BRANCH  38  39
ATOM     39  C   UNL     1       3.289  -4.525  -1.181  1.00  0.00     0.338 C 
ATOM     40  O   UNL     1       2.915  -5.620  -1.568  1.00  0.00    -0.246 OA
BRANCH  39  41
ATOM     41  C   UNL     1       4.693  -4.088  -1.275  1.00  0.00     0.060 A 
ATOM     42  C   UNL     1       5.340  -4.285  -2.502  1.00  0.00     0.016 A 
ATOM     43  C   UNL     1       5.383  -3.561  -0.182  1.00  0.00     0.016 A 
ATOM     44  C   UNL     1       6.695  -4.004  -2.628  1.00  0.00     0.010 A 
ATOM     45  C   UNL     1       6.750  -3.289  -0.308  1.00  0.00     0.010 A 
ATOM     46  C   UNL     1       7.418  -3.546  -1.520  1.00  0.00    -0.014 A 
BRANCH  46  47
ATOM     47  C   UNL     1       8.899  -3.496  -1.597  1.00  0.00     0.031 A 
ATOM     48  C   UNL     1       9.694  -4.606  -0.966  1.00  0.00     0.074 A 
ATOM     49  C   UNL     1       9.518  -2.508  -2.266  1.00  0.00     0.049 A 
ATOM     50  N   UNL     1      10.990  -4.760  -0.888  1.00  0.00    -0.248 NA
ATOM     51  C   UNL     1       8.920  -5.688  -0.337  1.00  0.00     0.031 C 
ATOM     52  C   UNL     1       8.845  -1.416  -2.969  1.00  0.00     0.029 A 
ATOM     53  N   UNL     1      10.853  -2.265  -2.467  1.00  0.00    -0.354 N 
ATOM     54  C   UNL     1      11.189  -5.948  -0.192  1.00  0.00     0.074 A 
ATOM     55  C   UNL     1       9.879  -6.454   0.159  1.00  0.00     0.031 C 
ATOM     56  C   UNL     1       9.773  -0.618  -3.525  1.00  0.00     0.029 A 
ATOM     57  C   UNL     1      11.104  -1.115  -3.178  1.00  0.00     0.049 A 
ATOM     58  H   UNL     1      11.565  -2.858  -2.134  1.00  0.00     0.167 HD
ATOM     59  C   UNL     1      12.358  -6.562   0.116  1.00  0.00     0.034 A 
ATOM     60  C   UNL     1      12.273  -0.519  -3.489  1.00  0.00     0.034 A 
ATOM     61  C   UNL     1      13.654  -6.036  -0.241  1.00  0.00     0.049 A 
ATOM     62  C   UNL     1      13.562  -1.171  -3.048  1.00  0.00     0.074 A 
ATOM     63  C   UNL     1      14.902  -6.583   0.004  1.00  0.00     0.029 A 
ATOM     64  N   UNL     1      13.872  -4.835  -0.904  1.00  0.00    -0.354 N 
ATOM     65  N   UNL     1      13.740  -2.297  -2.394  1.00  0.00    -0.248 NA
ATOM     66  C   UNL     1      14.808  -0.475  -3.393  1.00  0.00     0.031 C 
ATOM     67  C   UNL     1      15.871  -5.674  -0.431  1.00  0.00     0.029 A 
ATOM     68  C   UNL     1      15.233  -4.604  -1.037  1.00  0.00     0.049 A 
ATOM     69  H   UNL     1      13.163  -4.235  -1.232  1.00  0.00     0.167 HD
ATOM     70  C   UNL     1      15.119  -2.459  -2.285  1.00  0.00     0.074 A 
ATOM     71  C   UNL     1      15.723  -1.324  -2.950  1.00  0.00     0.031 C 
ATOM     72  C   UNL     1      15.823  -3.460  -1.694  1.00  0.00     0.034 A 
BRANCH  59  73
ATOM     73  C   UNL     1      12.286  -7.832   0.931  1.00  0.00     0.023 A 
ATOM     74  C   UNL     1      11.661  -8.995   0.448  1.00  0.00     0.031 A 
ATOM     75  C   UNL     1      12.833  -7.870   2.226  1.00  0.00     0.131 A 
ATOM     76  C   UNL     1      11.537 -10.120   1.278  1.00  0.00     0.055 A 
ATOM     77  C   UNL     1      12.781  -9.020   3.016  1.00  0.00     0.041 A 
ATOM     78  F   UNL     1      13.418  -6.783   2.753  1.00  0.00    -0.206 F 
ATOM     79  C   UNL     1      12.117 -10.150   2.549  1.00  0.00     0.022 A 
BRANCH  76  80
ATOM     80  S   UNL     1      10.480 -11.490   0.734  1.00  0.00     0.124 S 
ATOM     81  O   UNL     1       9.200 -10.813   0.536  1.00  0.00    -0.237 OA
ATOM     82  O   UNL     1      11.155 -11.948  -0.475  1.00  0.00    -0.237 OA
ATOM     83  O   UNL     1      10.517 -12.420   1.861  1.00  0.00    -0.744 OA
ENDBRANCH  76  80
ENDBRANCH  59  73
BRANCH  60  84
ATOM     84  C   UNL     1      12.289   0.782  -4.219  1.00  0.00     0.023 A 
ATOM     85  C   UNL     1      12.900   0.901  -5.477  1.00  0.00     0.031 A 
ATOM     86  C   UNL     1      11.745   1.943  -3.640  1.00  0.00     0.131 A 
ATOM     87  C   UNL     1      12.997   2.160  -6.092  1.00  0.00     0.055 A 
ATOM     88  C   UNL     1      11.790   3.181  -4.282  1.00  0.00     0.041 A 
ATOM     89  F   UNL     1      11.154   1.889  -2.435  1.00  0.00    -0.206 F 
ATOM     90  C   UNL     1      12.432   3.297  -5.511  1.00  0.00     0.022 A 
BRANCH  87  91
ATOM     91  S   UNL     1      13.964   2.308  -7.619  1.00  0.00     0.124 S 
ATOM     92  O   UNL     1      15.270   1.822  -7.190  1.00  0.00    -0.237 OA
ATOM     93  O   UNL     1      13.224   1.442  -8.530  1.00  0.00    -0.237 OA
ATOM     94  O   UNL     1      13.897   3.735  -7.927  1.00  0.00    -0.744 OA
ENDBRANCH  87  91
ENDBRANCH  60  84
BRANCH  72  95
ATOM     95  C   UNL     1      17.330  -3.394  -1.791  1.00  0.00     0.023 A 
ATOM     96  C   UNL     1      18.073  -2.374  -1.170  1.00  0.00     0.031 A 
ATOM     97  C   UNL     1      18.033  -4.367  -2.525  1.00  0.00     0.131 A 
ATOM     98  C   UNL     1      19.464  -2.316  -1.345  1.00  0.00     0.055 A 
ATOM     99  C   UNL     1      19.424  -4.345  -2.636  1.00  0.00     0.041 A 
ATOM    100  F   UNL     1      17.378  -5.363  -3.143  1.00  0.00    -0.206 F 
ATOM    101  C   UNL     1      20.146  -3.307  -2.056  1.00  0.00     0.022 A 
BRANCH  98 102
ATOM    102  S   UNL     1      20.362  -0.870  -0.718  1.00  0.00     0.124 S 
ATOM    103  O   UNL     1      19.693   0.226  -1.412  1.00  0.00    -0.237 OA
ATOM    104  O   UNL     1      20.125  -0.954   0.719  1.00  0.00    -0.237 OA
ATOM    105  O   UNL     1      21.742  -1.116  -1.133  1.00  0.00    -0.744 OA
ENDBRANCH  98 102
ENDBRANCH  72  95
ENDBRANCH  46  47
ENDBRANCH  39  41
ENDBRANCH  38  39
ENDBRANCH  37  38
ENDBRANCH  36  37
ENDBRANCH  35  36
ENDBRANCH  34  35
ENDBRANCH   1  34
TORSDOF 25
