REMARK SMILES O=C(C[N@@H+]1CCC[C@@H]1C(=O)OCCOCCOC(=O)c1ccc(-c2c3nc(c(-c4cc(S(=O)(=O)[O-])ccc4F)c4ccc([nH]4)c(-c4cc(S(=O)(=O)[O-])ccc4F)c4nc(c(-c5cc(S(=O)(=O)[O-])ccc5F)c5ccc2[nH]5)C=C4)C=C3)cc1)NCc1ccc(Cl)cc1
REMARK SMILES IDX 13 1 12 2 11 3 9 4 10 5 8 6 4 7 5 8 6 10 7 11 3 12 2 13 1 14
REMARK SMILES IDX 83 15 84 17 85 18 86 19 91 20 87 21 90 22 88 23 89 24 14 25
REMARK SMILES IDX 15 26 16 27 17 28 18 29 19 30 20 31 21 32 82 33 22 34 81 35
REMARK SMILES IDX 23 36 24 37 25 38 75 39 26 40 80 41 74 42 76 43 27 44 79 45
REMARK SMILES IDX 73 46 72 47 28 49 60 50 40 51 59 52 41 53 44 54 58 55 77 56
REMARK SMILES IDX 42 57 43 58 57 60 78 61 45 62 29 63 30 64 38 65 31 66 37 67
REMARK SMILES IDX 39 68 36 69 32 70 33 71 34 72 35 73 61 74 62 75 70 76 63 77
REMARK SMILES IDX 69 78 71 79 68 80 64 81 65 82 66 83 67 84 46 85 47 86 55 87
REMARK SMILES IDX 48 88 54 89 56 90 53 91 49 92 50 93 51 94 52 95
REMARK H PARENT 4 9 83 16 76 48 44 59
REMARK Flexibility Score: inf
ROOT
ATOM      1  C   UNL     1       0.703   3.079   1.371  1.00  0.00     0.202 C 
ENDROOT
BRANCH   1   2
ATOM      2  C   UNL     1       0.740   2.448  -0.018  1.00  0.00     0.261 C 
BRANCH   2   3
ATOM      3  O   UNL     1       2.055   1.903  -0.246  1.00  0.00    -0.459 OA
BRANCH   3   4
ATOM      4  C   UNL     1       2.653   2.173  -1.430  1.00  0.00     0.365 C 
ATOM      5  O   UNL     1       2.185   2.898  -2.302  1.00  0.00    -0.245 OA
BRANCH   4   6
ATOM      6  C   UNL     1       4.009   1.481  -1.565  1.00  0.00     0.295 C 
ATOM      7  N   UNL     1       4.023   0.034  -1.851  1.00  0.00    -0.315 N 
ATOM      8  C   UNL     1       5.381  -0.433  -1.615  1.00  0.00     0.263 C 
ATOM      9  H   UNL     1       3.738  -0.037  -2.828  1.00  0.00     0.349 HD
ATOM     10  C   UNL     1       5.988   0.508  -0.580  1.00  0.00     0.068 C 
ATOM     11  C   UNL     1       4.995   1.656  -0.418  1.00  0.00     0.083 C 
BRANCH   7  12
ATOM     12  C   UNL     1       2.932  -0.871  -1.461  1.00  0.00     0.364 C 
BRANCH  12  13
ATOM     13  C   UNL     1       2.408  -0.808  -0.026  1.00  0.00     0.275 C 
ATOM     14  O   UNL     1       1.197  -0.809   0.199  1.00  0.00    -0.268 OA
ATOM     15  N   UNL     1       3.334  -0.772   0.984  1.00  0.00    -0.347 N 
ATOM     16  H   UNL     1       4.257  -1.068   0.811  1.00  0.00     0.164 HD
BRANCH  15  17
ATOM     17  C   UNL     1       2.967  -0.304   2.298  1.00  0.00     0.151 C 
BRANCH  17  18
ATOM     18  C   UNL     1       3.720  -0.998   3.396  1.00  0.00    -0.029 A 
ATOM     19  C   UNL     1       3.379  -2.314   3.741  1.00  0.00     0.007 A 
ATOM     20  C   UNL     1       4.673  -0.313   4.165  1.00  0.00     0.007 A 
ATOM     21  C   UNL     1       3.936  -2.914   4.871  1.00  0.00     0.021 A 
ATOM     22  C   UNL     1       5.219  -0.910   5.305  1.00  0.00     0.021 A 
ATOM     23  C   UNL     1       4.839  -2.204   5.658  1.00  0.00     0.041 A 
ATOM     24  Cl  UNL     1       5.455  -2.906   7.101  1.00  0.00    -0.084 Cl
ENDBRANCH  17  18
ENDBRANCH  15  17
ENDBRANCH  12  13
ENDBRANCH   7  12
ENDBRANCH   4   6
ENDBRANCH   3   4
ENDBRANCH   2   3
ENDBRANCH   1   2
BRANCH   1  25
ATOM     25  O   UNL     1       1.444   4.304   1.412  1.00  0.00    -0.374 OA
BRANCH  25  26
ATOM     26  C   UNL     1       2.824   4.161   1.741  1.00  0.00     0.202 C 
BRANCH  26  27
ATOM     27  C   UNL     1       3.106   4.293   3.238  1.00  0.00     0.261 C 
BRANCH  27  28
ATOM     28  O   UNL     1       2.630   3.148   3.962  1.00  0.00    -0.460 OA
BRANCH  28  29
ATOM     29  C   UNL     1       1.406   3.281   4.547  1.00  0.00     0.338 C 
ATOM     30  O   UNL     1       0.686   4.253   4.514  1.00  0.00    -0.246 OA
BRANCH  29  31
ATOM     31  C   UNL     1       1.028   1.984   5.162  1.00  0.00     0.060 A 
ATOM     32  C   UNL     1      -0.323   1.647   5.292  1.00  0.00     0.016 A 
ATOM     33  C   UNL     1       2.005   1.111   5.638  1.00  0.00     0.016 A 
ATOM     34  C   UNL     1      -0.689   0.466   5.952  1.00  0.00     0.010 A 
ATOM     35  C   UNL     1       1.640  -0.098   6.224  1.00  0.00     0.010 A 
ATOM     36  C   UNL     1       0.293  -0.401   6.455  1.00  0.00    -0.014 A 
BRANCH  36  37
ATOM     37  C   UNL     1      -0.053  -1.535   7.354  1.00  0.00     0.031 A 
ATOM     38  C   UNL     1       0.402  -1.502   8.796  1.00  0.00     0.074 A 
ATOM     39  C   UNL     1      -0.701  -2.618   6.887  1.00  0.00     0.049 A 
ATOM     40  N   UNL     1       0.177  -2.356   9.764  1.00  0.00    -0.248 NA
ATOM     41  C   UNL     1       1.281  -0.389   9.183  1.00  0.00     0.031 C 
ATOM     42  C   UNL     1      -1.079  -2.845   5.492  1.00  0.00     0.029 A 
ATOM     43  N   UNL     1      -1.142  -3.741   7.541  1.00  0.00    -0.354 N 
ATOM     44  C   UNL     1       0.907  -1.892  10.856  1.00  0.00     0.074 A 
ATOM     45  C   UNL     1       1.667  -0.754  10.393  1.00  0.00     0.031 C 
ATOM     46  C   UNL     1      -1.711  -4.029   5.399  1.00  0.00     0.029 A 
ATOM     47  C   UNL     1      -1.790  -4.637   6.725  1.00  0.00     0.049 A 
ATOM     48  H   UNL     1      -1.006  -3.890   8.505  1.00  0.00     0.167 HD
ATOM     49  C   UNL     1       0.909  -2.336  12.139  1.00  0.00     0.034 A 
ATOM     50  C   UNL     1      -2.404  -5.800   7.022  1.00  0.00     0.034 A 
ATOM     51  C   UNL     1       0.121  -3.458  12.585  1.00  0.00     0.049 A 
ATOM     52  C   UNL     1      -2.493  -6.233   8.465  1.00  0.00     0.074 A 
ATOM     53  C   UNL     1      -0.057  -3.940  13.869  1.00  0.00     0.029 A 
ATOM     54  N   UNL     1      -0.617  -4.286  11.746  1.00  0.00    -0.354 N 
ATOM     55  N   UNL     1      -1.934  -5.698   9.527  1.00  0.00    -0.248 NA
ATOM     56  C   UNL     1      -3.340  -7.396   8.752  1.00  0.00     0.031 C 
ATOM     57  C   UNL     1      -0.850  -5.092  13.800  1.00  0.00     0.029 A 
ATOM     58  C   UNL     1      -1.235  -5.285  12.482  1.00  0.00     0.049 A 
ATOM     59  H   UNL     1      -0.690  -4.178  10.770  1.00  0.00     0.167 HD
ATOM     60  C   UNL     1      -2.397  -6.437  10.614  1.00  0.00     0.074 A 
ATOM     61  C   UNL     1      -3.290  -7.444  10.076  1.00  0.00     0.031 C 
ATOM     62  C   UNL     1      -2.119  -6.289  11.936  1.00  0.00     0.034 A 
BRANCH  49  63
ATOM     63  C   UNL     1       1.789  -1.598  13.129  1.00  0.00     0.023 A 
ATOM     64  C   UNL     1       1.656  -0.213  13.347  1.00  0.00     0.031 A 
ATOM     65  C   UNL     1       2.818  -2.266  13.816  1.00  0.00     0.131 A 
ATOM     66  C   UNL     1       2.606   0.476  14.115  1.00  0.00     0.055 A 
ATOM     67  C   UNL     1       3.694  -1.590  14.671  1.00  0.00     0.041 A 
ATOM     68  F   UNL     1       3.012  -3.583  13.649  1.00  0.00    -0.206 F 
ATOM     69  C   UNL     1       3.609  -0.207  14.803  1.00  0.00     0.022 A 
BRANCH  66  70
ATOM     70  S   UNL     1       2.629   2.289  14.032  1.00  0.00     0.124 S 
ATOM     71  O   UNL     1       2.811   2.517  12.600  1.00  0.00    -0.237 OA
ATOM     72  O   UNL     1       1.324   2.647  14.574  1.00  0.00    -0.237 OA
ATOM     73  O   UNL     1       3.774   2.656  14.863  1.00  0.00    -0.744 OA
ENDBRANCH  66  70
ENDBRANCH  49  63
BRANCH  50  74
ATOM     74  C   UNL     1      -3.050  -6.596   5.942  1.00  0.00     0.023 A 
ATOM     75  C   UNL     1      -4.448  -6.683   5.846  1.00  0.00     0.031 A 
ATOM     76  C   UNL     1      -2.277  -7.284   4.991  1.00  0.00     0.131 A 
ATOM     77  C   UNL     1      -5.033  -7.472   4.844  1.00  0.00     0.055 A 
ATOM     78  C   UNL     1      -2.865  -8.036   3.971  1.00  0.00     0.041 A 
ATOM     79  F   UNL     1      -0.937  -7.218   5.031  1.00  0.00    -0.206 F 
ATOM     80  C   UNL     1      -4.251  -8.141   3.900  1.00  0.00     0.022 A 
BRANCH  77  81
ATOM     81  S   UNL     1      -6.838  -7.649   4.821  1.00  0.00     0.124 S 
ATOM     82  O   UNL     1      -7.096  -8.253   6.123  1.00  0.00    -0.237 OA
ATOM     83  O   UNL     1      -7.276  -6.266   4.657  1.00  0.00    -0.237 OA
ATOM     84  O   UNL     1      -7.081  -8.516   3.670  1.00  0.00    -0.744 OA
ENDBRANCH  77  81
ENDBRANCH  50  74
BRANCH  62  85
ATOM     85  C   UNL     1      -2.835  -7.208  12.898  1.00  0.00     0.023 A 
ATOM     86  C   UNL     1      -2.632  -8.598  12.892  1.00  0.00     0.031 A 
ATOM     87  C   UNL     1      -3.756  -6.680  13.822  1.00  0.00     0.131 A 
ATOM     88  C   UNL     1      -3.393  -9.421  13.736  1.00  0.00     0.055 A 
ATOM     89  C   UNL     1      -4.459  -7.497  14.709  1.00  0.00     0.041 A 
ATOM     90  F   UNL     1      -3.991  -5.359  13.875  1.00  0.00    -0.206 F 
ATOM     91  C   UNL     1      -4.294  -8.877  14.656  1.00  0.00     0.022 A 
BRANCH  88  92
ATOM     92  S   UNL     1      -3.285 -11.219  13.527  1.00  0.00     0.124 S 
ATOM     93  O   UNL     1      -3.590 -11.379  12.109  1.00  0.00    -0.237 OA
ATOM     94  O   UNL     1      -1.907 -11.495  13.918  1.00  0.00    -0.237 OA
ATOM     95  O   UNL     1      -4.304 -11.732  14.441  1.00  0.00    -0.744 OA
ENDBRANCH  88  92
ENDBRANCH  62  85
ENDBRANCH  36  37
ENDBRANCH  29  31
ENDBRANCH  28  29
ENDBRANCH  27  28
ENDBRANCH  26  27
ENDBRANCH  25  26
ENDBRANCH   1  25
TORSDOF 21
