REMARK SMILES O=C(OCCOCCOC(=O)[C@H]1CSCN1C(=O)c1cnc2ccccn2c1=O)c1ccc(-c2c3nc(c(-c4cc(S(=O)(=O)[O-])ccc4F)c4ccc([nH]4)c(-c4cc(S(=O)(=O)[O-])ccc4F)c4nc(c(-c5cc(S(=O)(=O)[O-])ccc5F)c5ccc2[nH]5)C=C4)C=C3)cc1
REMARK SMILES IDX 5 1 4 2 3 3 2 4 1 5 30 6 31 7 92 8 32 9 91 10 33 11 34 12
REMARK SMILES IDX 35 13 85 14 36 15 90 16 84 17 86 18 37 19 89 20 83 21 82 22
REMARK SMILES IDX 38 24 70 25 50 26 69 27 51 28 54 29 68 30 87 31 52 32 53 33
REMARK SMILES IDX 67 35 88 36 55 37 39 38 40 39 48 40 41 41 47 42 49 43 46 44
REMARK SMILES IDX 42 45 43 46 44 47 45 48 71 49 72 50 80 51 73 52 79 53 81 54
REMARK SMILES IDX 78 55 74 56 75 57 76 58 77 59 56 60 57 61 65 62 58 63 64 64
REMARK SMILES IDX 66 65 63 66 59 67 60 68 61 69 62 70 6 71 7 72 8 73 9 74
REMARK SMILES IDX 10 75 11 76 12 77 13 78 16 79 14 80 15 81 17 82 18 83 19 84
REMARK SMILES IDX 20 85 28 86 21 87 27 88 29 89 22 90 26 91 23 92 25 93 24 94
REMARK H PARENT 86 23 54 34
REMARK Flexibility Score: inf
ROOT
ATOM      1  C   UNL     1       4.187   0.055   1.377  1.00  0.00     0.202 C 
ENDROOT
BRANCH   1   2
ATOM      2  C   UNL     1       3.877   1.215   0.431  1.00  0.00     0.261 C 
BRANCH   2   3
ATOM      3  O   UNL     1       2.484   1.202   0.078  1.00  0.00    -0.460 OA
BRANCH   3   4
ATOM      4  C   UNL     1       1.933   0.771  -1.081  1.00  0.00     0.338 C 
ATOM      5  O   UNL     1       0.714   0.841  -1.224  1.00  0.00    -0.246 OA
BRANCH   4   6
ATOM      6  C   UNL     1       2.743   0.219  -2.204  1.00  0.00     0.060 A 
ATOM      7  C   UNL     1       3.903  -0.533  -2.031  1.00  0.00     0.016 A 
ATOM      8  C   UNL     1       2.247   0.375  -3.505  1.00  0.00     0.016 A 
ATOM      9  C   UNL     1       4.575  -1.104  -3.086  1.00  0.00     0.010 A 
ATOM     10  C   UNL     1       2.901  -0.223  -4.586  1.00  0.00     0.010 A 
ATOM     11  C   UNL     1       4.060  -0.975  -4.364  1.00  0.00    -0.014 A 
BRANCH  11  12
ATOM     12  C   UNL     1       4.847  -1.580  -5.439  1.00  0.00     0.031 A 
ATOM     13  C   UNL     1       5.696  -0.677  -6.265  1.00  0.00     0.074 A 
ATOM     14  C   UNL     1       4.907  -2.921  -5.522  1.00  0.00     0.049 A 
ATOM     15  N   UNL     1       6.391  -0.948  -7.330  1.00  0.00    -0.248 NA
ATOM     16  C   UNL     1       5.782   0.725  -5.820  1.00  0.00     0.031 C 
ATOM     17  C   UNL     1       4.246  -3.853  -4.598  1.00  0.00     0.029 A 
ATOM     18  N   UNL     1       5.572  -3.736  -6.392  1.00  0.00    -0.354 N 
ATOM     19  C   UNL     1       6.955   0.259  -7.720  1.00  0.00     0.074 A 
ATOM     20  C   UNL     1       6.538   1.261  -6.765  1.00  0.00     0.031 C 
ATOM     21  C   UNL     1       4.546  -5.111  -4.954  1.00  0.00     0.029 A 
ATOM     22  C   UNL     1       5.323  -5.074  -6.184  1.00  0.00     0.049 A 
ATOM     23  H   UNL     1       6.169  -3.401  -7.099  1.00  0.00     0.167 HD
ATOM     24  C   UNL     1       7.726   0.488  -8.807  1.00  0.00     0.034 A 
ATOM     25  C   UNL     1       5.633  -6.131  -6.958  1.00  0.00     0.034 A 
ATOM     26  C   UNL     1       8.091  -0.567  -9.717  1.00  0.00     0.049 A 
ATOM     27  C   UNL     1       6.381  -5.832  -8.235  1.00  0.00     0.074 A 
ATOM     28  C   UNL     1       8.803  -0.489 -10.897  1.00  0.00     0.029 A 
ATOM     29  N   UNL     1       7.751  -1.907  -9.539  1.00  0.00    -0.354 N 
ATOM     30  N   UNL     1       6.834  -4.675  -8.670  1.00  0.00    -0.248 NA
ATOM     31  C   UNL     1       6.639  -6.959  -9.133  1.00  0.00     0.031 C 
ATOM     32  C   UNL     1       8.826  -1.766 -11.468  1.00  0.00     0.029 A 
ATOM     33  C   UNL     1       8.205  -2.660 -10.606  1.00  0.00     0.049 A 
ATOM     34  H   UNL     1       7.259  -2.266  -8.765  1.00  0.00     0.167 HD
ATOM     35  C   UNL     1       7.446  -4.939  -9.889  1.00  0.00     0.074 A 
ATOM     36  C   UNL     1       7.324  -6.370 -10.103  1.00  0.00     0.031 C 
ATOM     37  C   UNL     1       8.049  -4.090 -10.761  1.00  0.00     0.034 A 
BRANCH  24  38
ATOM     38  C   UNL     1       8.073   1.921  -9.110  1.00  0.00     0.023 A 
ATOM     39  C   UNL     1       8.876   2.701  -8.258  1.00  0.00     0.031 A 
ATOM     40  C   UNL     1       7.497   2.550 -10.229  1.00  0.00     0.131 A 
ATOM     41  C   UNL     1       9.013   4.078  -8.495  1.00  0.00     0.055 A 
ATOM     42  C   UNL     1       7.705   3.903 -10.504  1.00  0.00     0.041 A 
ATOM     43  F   UNL     1       6.688   1.868 -11.055  1.00  0.00    -0.206 F 
ATOM     44  C   UNL     1       8.454   4.679  -9.626  1.00  0.00     0.022 A 
BRANCH  41  45
ATOM     45  S   UNL     1       9.797   5.107  -7.222  1.00  0.00     0.124 S 
ATOM     46  O   UNL     1       8.901   4.904  -6.086  1.00  0.00    -0.237 OA
ATOM     47  O   UNL     1      11.122   4.511  -7.104  1.00  0.00    -0.237 OA
ATOM     48  O   UNL     1       9.766   6.450  -7.798  1.00  0.00    -0.744 OA
ENDBRANCH  41  45
ENDBRANCH  24  38
BRANCH  25  49
ATOM     49  C   UNL     1       5.146  -7.503  -6.627  1.00  0.00     0.023 A 
ATOM     50  C   UNL     1       6.033  -8.581  -6.484  1.00  0.00     0.031 A 
ATOM     51  C   UNL     1       3.767  -7.775  -6.511  1.00  0.00     0.131 A 
ATOM     52  C   UNL     1       5.534  -9.880  -6.285  1.00  0.00     0.055 A 
ATOM     53  C   UNL     1       3.280  -9.056  -6.246  1.00  0.00     0.041 A 
ATOM     54  F   UNL     1       2.863  -6.792  -6.652  1.00  0.00    -0.206 F 
ATOM     55  C   UNL     1       4.165 -10.122  -6.149  1.00  0.00     0.022 A 
BRANCH  52  56
ATOM     56  S   UNL     1       6.696 -11.273  -6.330  1.00  0.00     0.124 S 
ATOM     57  O   UNL     1       7.345 -11.076  -7.621  1.00  0.00    -0.237 OA
ATOM     58  O   UNL     1       7.518 -11.018  -5.152  1.00  0.00    -0.237 OA
ATOM     59  O   UNL     1       5.826 -12.444  -6.241  1.00  0.00    -0.744 OA
ENDBRANCH  52  56
ENDBRANCH  25  49
BRANCH  37  60
ATOM     60  C   UNL     1       8.648  -4.711 -11.991  1.00  0.00     0.023 A 
ATOM     61  C   UNL     1       7.843  -5.261 -13.001  1.00  0.00     0.031 A 
ATOM     62  C   UNL     1      10.043  -4.729 -12.159  1.00  0.00     0.131 A 
ATOM     63  C   UNL     1       8.444  -5.851 -14.120  1.00  0.00     0.055 A 
ATOM     64  C   UNL     1      10.632  -5.257 -13.306  1.00  0.00     0.041 A 
ATOM     65  F   UNL     1      10.852  -4.216 -11.218  1.00  0.00    -0.206 F 
ATOM     66  C   UNL     1       9.831  -5.831 -14.290  1.00  0.00     0.022 A 
BRANCH  63  67
ATOM     67  S   UNL     1       7.390  -6.712 -15.315  1.00  0.00     0.124 S 
ATOM     68  O   UNL     1       6.790  -7.756 -14.491  1.00  0.00    -0.237 OA
ATOM     69  O   UNL     1       6.489  -5.654 -15.759  1.00  0.00    -0.237 OA
ATOM     70  O   UNL     1       8.335  -7.185 -16.325  1.00  0.00    -0.744 OA
ENDBRANCH  63  67
ENDBRANCH  37  60
ENDBRANCH  11  12
ENDBRANCH   4   6
ENDBRANCH   3   4
ENDBRANCH   2   3
ENDBRANCH   1   2
BRANCH   1  71
ATOM     71  O   UNL     1       3.963  -1.240   0.832  1.00  0.00    -0.374 OA
BRANCH  71  72
ATOM     72  C   UNL     1       2.645  -1.776   0.967  1.00  0.00     0.202 C 
BRANCH  72  73
ATOM     73  C   UNL     1       2.767  -3.110   1.688  1.00  0.00     0.261 C 
BRANCH  73  74
ATOM     74  O   UNL     1       3.253  -2.823   3.004  1.00  0.00    -0.462 OA
BRANCH  74  75
ATOM     75  C   UNL     1       4.608  -2.787   3.181  1.00  0.00     0.329 C 
ATOM     76  O   UNL     1       5.443  -3.181   2.384  1.00  0.00    -0.250 OA
BRANCH  75  77
ATOM     77  C   UNL     1       4.969  -2.159   4.541  1.00  0.00     0.206 C 
ATOM     78  C   UNL     1       5.916  -0.977   4.342  1.00  0.00     0.108 C 
ATOM     79  N   UNL     1       3.790  -1.755   5.329  1.00  0.00    -0.314 N 
ATOM     80  S   UNL     1       5.045   0.518   4.871  1.00  0.00    -0.138 SA
ATOM     81  C   UNL     1       3.769  -0.376   5.760  1.00  0.00     0.191 C 
BRANCH  79  82
ATOM     82  C   UNL     1       2.941  -2.765   5.736  1.00  0.00     0.262 C 
ATOM     83  O   UNL     1       3.269  -3.948   5.593  1.00  0.00    -0.269 OA
BRANCH  82  84
ATOM     84  C   UNL     1       1.653  -2.465   6.396  1.00  0.00     0.124 A 
ATOM     85  C   UNL     1       1.284  -3.325   7.354  1.00  0.00     0.133 A 
ATOM     86  C   UNL     1       0.686  -1.402   6.048  1.00  0.00     0.270 A 
ATOM     87  N   UNL     1       0.181  -3.206   8.149  1.00  0.00    -0.237 NA
ATOM     88  N   UNL     1      -0.344  -1.214   6.968  1.00  0.00    -0.267 N 
ATOM     89  O   UNL     1       0.803  -0.752   5.009  1.00  0.00    -0.268 OA
ATOM     90  C   UNL     1      -0.558  -2.157   7.966  1.00  0.00     0.139 A 
ATOM     91  C   UNL     1      -1.178  -0.106   6.851  1.00  0.00     0.096 A 
ATOM     92  C   UNL     1      -1.695  -1.927   8.894  1.00  0.00     0.048 A 
ATOM     93  C   UNL     1      -2.178   0.117   7.714  1.00  0.00     0.019 A 
ATOM     94  C   UNL     1      -2.438  -0.822   8.773  1.00  0.00     0.005 A 
ENDBRANCH  82  84
ENDBRANCH  79  82
ENDBRANCH  75  77
ENDBRANCH  74  75
ENDBRANCH  73  74
ENDBRANCH  72  73
ENDBRANCH  71  72
ENDBRANCH   1  71
TORSDOF 19
