REMARK SMILES CC(C)[NH2+][C@](C)(C[N@@H+]1CCC(C)(C)C1)C(=O)OCCOCCOC(=O)c1ccc(-c2c3nc(c(-c4cc(S(=O)(=O)[O-])ccc4F)c4ccc([nH]4)c(-c4cc(S(=O)(=O)[O-])ccc4F)c4nc(c(-c5cc(S(=O)(=O)[O-])ccc5F)c5ccc2[nH]5)C=C4)C=C3)cc1
REMARK SMILES IDX 21 1 20 2 19 3 18 4 17 5 15 6 16 7 5 8 6 9 4 10 2 13 1 14
REMARK SMILES IDX 3 15 7 16 8 17 9 18 14 19 10 21 11 22 12 23 13 24 22 25
REMARK SMILES IDX 23 26 24 27 25 28 26 29 27 30 88 31 28 32 87 33 29 34 30 35
REMARK SMILES IDX 31 36 81 37 32 38 86 39 80 40 82 41 33 42 85 43 79 44 78 45
REMARK SMILES IDX 34 47 66 48 46 49 65 50 47 51 50 52 64 53 83 54 48 55 49 56
REMARK SMILES IDX 63 58 84 59 51 60 35 61 36 62 44 63 37 64 43 65 45 66 42 67
REMARK SMILES IDX 38 68 39 69 40 70 41 71 67 72 68 73 76 74 69 75 75 76 77 77
REMARK SMILES IDX 74 78 70 79 71 80 72 81 73 82 52 83 53 84 61 85 54 86 60 87
REMARK SMILES IDX 62 88 59 89 55 90 56 91 57 92 58 93
REMARK H PARENT 4 11 4 12 8 20 82 46 50 57
REMARK Flexibility Score: inf
ROOT
ATOM      1  C   UNL     1      -0.942  -3.566   4.158  1.00  0.00     0.202 C 
ENDROOT
BRANCH   1   2
ATOM      2  O   UNL     1       0.273  -3.087   4.730  1.00  0.00    -0.374 OA
BRANCH   2   3
ATOM      3  C   UNL     1       0.219  -2.430   5.986  1.00  0.00     0.202 C 
BRANCH   3   4
ATOM      4  C   UNL     1       0.154  -0.895   5.876  1.00  0.00     0.261 C 
BRANCH   4   5
ATOM      5  O   UNL     1      -0.760  -0.375   4.883  1.00  0.00    -0.458 OA
BRANCH   5   6
ATOM      6  C   UNL     1      -0.280  -0.369   3.606  1.00  0.00     0.373 C 
ATOM      7  O   UNL     1       0.865  -0.726   3.320  1.00  0.00    -0.244 OA
BRANCH   6   8
ATOM      8  C   UNL     1      -1.175   0.412   2.565  1.00  0.00     0.240 C 
ATOM      9  C   UNL     1      -0.630  -0.030   1.192  1.00  0.00     0.099 C 
BRANCH   8  10
ATOM     10  N   UNL     1      -0.800   1.830   2.882  1.00  0.00    -0.326 N 
ATOM     11  H   UNL     1      -1.204   2.019   3.800  1.00  0.00     0.347 HD
ATOM     12  H   UNL     1       0.209   1.790   2.736  1.00  0.00     0.347 HD
BRANCH  10  13
ATOM     13  C   UNL     1      -1.136   2.988   2.065  1.00  0.00     0.177 C 
ATOM     14  C   UNL     1      -0.422   4.179   2.738  1.00  0.00     0.075 C 
ATOM     15  C   UNL     1      -0.678   2.946   0.609  1.00  0.00     0.075 C 
ENDBRANCH  10  13
ENDBRANCH   8  10
BRANCH   8  16
ATOM     16  C   UNL     1      -2.754   0.172   2.616  1.00  0.00     0.343 C 
BRANCH  16  17
ATOM     17  N   UNL     1      -3.406  -1.153   2.441  1.00  0.00    -0.329 N 
ATOM     18  C   UNL     1      -3.100  -1.991   1.293  1.00  0.00     0.263 C 
ATOM     19  C   UNL     1      -4.886  -1.130   2.483  1.00  0.00     0.269 C 
ATOM     20  H   UNL     1      -2.960  -1.573   3.257  1.00  0.00     0.348 HD
ATOM     21  C   UNL     1      -4.044  -3.183   1.492  1.00  0.00     0.073 C 
ATOM     22  C   UNL     1      -5.307  -2.590   2.152  1.00  0.00     0.019 C 
ATOM     23  C   UNL     1      -6.470  -2.688   1.157  1.00  0.00     0.017 C 
ATOM     24  C   UNL     1      -5.736  -3.346   3.425  1.00  0.00     0.017 C 
ENDBRANCH  16  17
ENDBRANCH   8  16
ENDBRANCH   6   8
ENDBRANCH   5   6
ENDBRANCH   4   5
ENDBRANCH   3   4
ENDBRANCH   2   3
ENDBRANCH   1   2
BRANCH   1  25
ATOM     25  C   UNL     1      -2.255  -2.905   4.533  1.00  0.00     0.261 C 
BRANCH  25  26
ATOM     26  O   UNL     1      -2.601  -3.019   5.893  1.00  0.00    -0.460 OA
BRANCH  26  27
ATOM     27  C   UNL     1      -3.396  -4.059   6.188  1.00  0.00     0.338 C 
ATOM     28  O   UNL     1      -3.707  -5.016   5.510  1.00  0.00    -0.246 OA
BRANCH  27  29
ATOM     29  C   UNL     1      -3.889  -3.683   7.497  1.00  0.00     0.060 A 
ATOM     30  C   UNL     1      -3.135  -4.056   8.606  1.00  0.00     0.016 A 
ATOM     31  C   UNL     1      -4.979  -2.808   7.573  1.00  0.00     0.016 A 
ATOM     32  C   UNL     1      -3.531  -3.599   9.845  1.00  0.00     0.010 A 
ATOM     33  C   UNL     1      -5.354  -2.326   8.813  1.00  0.00     0.010 A 
ATOM     34  C   UNL     1      -4.652  -2.760   9.947  1.00  0.00    -0.014 A 
BRANCH  34  35
ATOM     35  C   UNL     1      -5.168  -2.457  11.285  1.00  0.00     0.031 A 
ATOM     36  C   UNL     1      -6.339  -3.248  11.774  1.00  0.00     0.074 A 
ATOM     37  C   UNL     1      -4.527  -1.546  12.033  1.00  0.00     0.049 A 
ATOM     38  N   UNL     1      -6.911  -3.235  12.944  1.00  0.00    -0.248 NA
ATOM     39  C   UNL     1      -6.951  -4.181  10.810  1.00  0.00     0.031 C 
ATOM     40  C   UNL     1      -3.371  -0.759  11.592  1.00  0.00     0.029 A 
ATOM     41  N   UNL     1      -4.740  -1.143  13.318  1.00  0.00    -0.354 N 
ATOM     42  C   UNL     1      -7.943  -4.162  12.863  1.00  0.00     0.074 A 
ATOM     43  C   UNL     1      -7.956  -4.676  11.513  1.00  0.00     0.031 C 
ATOM     44  C   UNL     1      -2.963   0.019  12.607  1.00  0.00     0.029 A 
ATOM     45  C   UNL     1      -3.847  -0.192  13.748  1.00  0.00     0.049 A 
ATOM     46  H   UNL     1      -5.463  -1.500  13.883  1.00  0.00     0.167 HD
ATOM     47  C   UNL     1      -8.787  -4.552  13.846  1.00  0.00     0.034 A 
ATOM     48  C   UNL     1      -3.771   0.431  14.938  1.00  0.00     0.034 A 
ATOM     49  C   UNL     1      -8.741  -3.984  15.170  1.00  0.00     0.049 A 
ATOM     50  C   UNL     1      -4.757   0.016  15.999  1.00  0.00     0.074 A 
ATOM     51  C   UNL     1      -9.531  -4.274  16.265  1.00  0.00     0.029 A 
ATOM     52  N   UNL     1      -7.852  -2.989  15.569  1.00  0.00    -0.354 N 
ATOM     53  N   UNL     1      -5.714  -0.884  15.930  1.00  0.00    -0.248 NA
ATOM     54  C   UNL     1      -4.644   0.681  17.299  1.00  0.00     0.031 C 
ATOM     55  C   UNL     1      -9.170  -3.404  17.300  1.00  0.00     0.029 A 
ATOM     56  C   UNL     1      -8.096  -2.630  16.883  1.00  0.00     0.049 A 
ATOM     57  H   UNL     1      -7.151  -2.597  14.999  1.00  0.00     0.167 HD
ATOM     58  C   UNL     1      -6.304  -0.911  17.189  1.00  0.00     0.074 A 
ATOM     59  C   UNL     1      -5.574   0.048  17.999  1.00  0.00     0.031 C 
ATOM     60  C   UNL     1      -7.348  -1.653  17.643  1.00  0.00     0.034 A 
BRANCH  47  61
ATOM     61  C   UNL     1      -9.837  -5.576  13.492  1.00  0.00     0.023 A 
ATOM     62  C   UNL     1      -9.498  -6.872  13.062  1.00  0.00     0.031 A 
ATOM     63  C   UNL     1     -11.200  -5.232  13.525  1.00  0.00     0.131 A 
ATOM     64  C   UNL     1     -10.499  -7.748  12.613  1.00  0.00     0.055 A 
ATOM     65  C   UNL     1     -12.198  -6.137  13.155  1.00  0.00     0.041 A 
ATOM     66  F   UNL     1     -11.586  -4.001  13.894  1.00  0.00    -0.206 F 
ATOM     67  C   UNL     1     -11.850  -7.398  12.681  1.00  0.00     0.022 A 
BRANCH  64  68
ATOM     68  S   UNL     1     -10.005  -9.293  11.799  1.00  0.00     0.124 S 
ATOM     69  O   UNL     1      -9.223  -8.795  10.670  1.00  0.00    -0.237 OA
ATOM     70  O   UNL     1      -9.253  -9.975  12.846  1.00  0.00    -0.237 OA
ATOM     71  O   UNL     1     -11.278  -9.915  11.440  1.00  0.00    -0.744 OA
ENDBRANCH  64  68
ENDBRANCH  47  61
BRANCH  48  72
ATOM     72  C   UNL     1      -2.751   1.491  15.172  1.00  0.00     0.023 A 
ATOM     73  C   UNL     1      -1.755   1.345  16.148  1.00  0.00     0.031 A 
ATOM     74  C   UNL     1      -2.770   2.685  14.426  1.00  0.00     0.131 A 
ATOM     75  C   UNL     1      -0.846   2.389  16.384  1.00  0.00     0.055 A 
ATOM     76  C   UNL     1      -1.831   3.698  14.626  1.00  0.00     0.041 A 
ATOM     77  F   UNL     1      -3.697   2.877  13.473  1.00  0.00    -0.206 F 
ATOM     78  C   UNL     1      -0.869   3.559  15.620  1.00  0.00     0.022 A 
BRANCH  75  79
ATOM     79  S   UNL     1       0.318   2.233  17.765  1.00  0.00     0.124 S 
ATOM     80  O   UNL     1      -0.583   1.995  18.888  1.00  0.00    -0.237 OA
ATOM     81  O   UNL     1       1.134   1.099  17.345  1.00  0.00    -0.237 OA
ATOM     82  O   UNL     1       1.005   3.522  17.779  1.00  0.00    -0.744 OA
ENDBRANCH  75  79
ENDBRANCH  48  72
BRANCH  60  83
ATOM     83  C   UNL     1      -7.724  -1.462  19.090  1.00  0.00     0.023 A 
ATOM     84  C   UNL     1      -8.248  -0.246  19.558  1.00  0.00     0.031 A 
ATOM     85  C   UNL     1      -7.541  -2.508  20.011  1.00  0.00     0.131 A 
ATOM     86  C   UNL     1      -8.504  -0.081  20.925  1.00  0.00     0.055 A 
ATOM     87  C   UNL     1      -7.869  -2.362  21.358  1.00  0.00     0.041 A 
ATOM     88  F   UNL     1      -7.043  -3.690  19.614  1.00  0.00    -0.206 F 
ATOM     89  C   UNL     1      -8.338  -1.138  21.825  1.00  0.00     0.022 A 
BRANCH  86  90
ATOM     90  S   UNL     1      -8.949   1.569  21.528  1.00  0.00     0.124 S 
ATOM     91  O   UNL     1      -7.801   2.365  21.104  1.00  0.00    -0.237 OA
ATOM     92  O   UNL     1     -10.201   1.832  20.826  1.00  0.00    -0.237 OA
ATOM     93  O   UNL     1      -9.075   1.383  22.972  1.00  0.00    -0.744 OA
ENDBRANCH  86  90
ENDBRANCH  60  83
ENDBRANCH  34  35
ENDBRANCH  27  29
ENDBRANCH  26  27
ENDBRANCH  25  26
ENDBRANCH   1  25
TORSDOF 21
