REMARK SMILES Cc1ncn(CC[C@@H]2CCC[C@@]2([NH3+])C(=O)OCCOCCOC(=O)c2ccc(-c3c4nc(c(-c5cc(S(=O)(=O)[O-])ccc5F)c5ccc([nH]5)c(-c5cc(S(=O)(=O)[O-])ccc5F)c5nc(c(-c6cc(S(=O)(=O)[O-])ccc6F)c6ccc3[nH]6)C=C5)C=C4)cc2)c1C
REMARK SMILES IDX 19 1 18 2 17 3 16 4 14 5 15 6 12 7 8 8 9 9 10 10 11 11 7 12
REMARK SMILES IDX 6 13 5 14 1 15 2 16 3 17 88 18 4 19 89 20 13 21 20 25 21 26
REMARK SMILES IDX 22 27 23 28 24 29 25 30 26 31 87 32 27 33 86 34 28 35 29 36
REMARK SMILES IDX 30 37 80 38 31 39 85 40 79 41 81 42 32 43 84 44 78 45 77 46
REMARK SMILES IDX 33 48 65 49 45 50 64 51 46 52 49 53 63 54 82 55 47 56 48 57
REMARK SMILES IDX 62 59 83 60 50 61 34 62 35 63 43 64 36 65 42 66 44 67 41 68
REMARK SMILES IDX 37 69 38 70 39 71 40 72 66 73 67 74 75 75 68 76 74 77 76 78
REMARK SMILES IDX 73 79 69 80 70 81 71 82 72 83 51 84 52 85 60 86 53 87 59 88
REMARK SMILES IDX 61 89 58 90 54 91 55 92 56 93 57 94
REMARK H PARENT 13 22 13 23 13 24 81 47 49 58
REMARK Flexibility Score: inf
ROOT
ATOM      1  O   UNL     1       2.854   5.279  -3.436  1.00  0.00    -0.374 OA
ENDROOT
BRANCH   1   2
ATOM      2  C   UNL     1       2.690   5.681  -4.792  1.00  0.00     0.202 C 
BRANCH   2   3
ATOM      3  C   UNL     1       1.536   5.147  -5.652  1.00  0.00     0.261 C 
BRANCH   3   4
ATOM      4  O   UNL     1       0.211   5.328  -5.113  1.00  0.00    -0.459 OA
BRANCH   4   5
ATOM      5  C   UNL     1      -0.220   4.207  -4.477  1.00  0.00     0.368 C 
ATOM      6  O   UNL     1       0.520   3.251  -4.296  1.00  0.00    -0.245 OA
BRANCH   5   7
ATOM      7  C   UNL     1      -1.675   4.250  -3.974  1.00  0.00     0.195 C 
ATOM      8  C   UNL     1      -2.041   2.892  -3.308  1.00  0.00     0.064 C 
ATOM      9  C   UNL     1      -3.305   3.187  -2.500  1.00  0.00     0.011 C 
ATOM     10  C   UNL     1      -3.126   4.634  -2.030  1.00  0.00     0.008 C 
ATOM     11  C   UNL     1      -1.881   5.171  -2.754  1.00  0.00     0.081 C 
BRANCH   8  12
ATOM     12  C   UNL     1      -2.098   1.617  -4.153  1.00  0.00     0.032 C 
BRANCH  12  13
ATOM     13  C   UNL     1      -0.790   0.784  -4.211  1.00  0.00     0.124 C 
BRANCH  13  14
ATOM     14  N   UNL     1      -0.319   0.136  -2.993  1.00  0.00    -0.335 N 
ATOM     15  C   UNL     1       1.055  -0.591   0.304  1.00  0.00     0.069 C 
ATOM     16  C   UNL     1       0.494  -0.524  -1.065  1.00  0.00     0.058 A 
ATOM     17  N   UNL     1       0.147  -1.659  -1.741  1.00  0.00    -0.242 NA
ATOM     18  C   UNL     1       0.293   0.606  -1.842  1.00  0.00     0.037 A 
ATOM     19  C   UNL     1      -0.291  -1.240  -2.901  1.00  0.00     0.199 A 
ATOM     20  C   UNL     1       0.688   1.988  -1.457  1.00  0.00     0.066 C 
ENDBRANCH  13  14
ENDBRANCH  12  13
ENDBRANCH   8  12
BRANCH   7  21
ATOM     21  N   UNL     1      -2.590   4.635  -5.068  1.00  0.00    -0.343 N 
ATOM     22  H   UNL     1      -3.548   4.658  -4.719  1.00  0.00     0.345 HD
ATOM     23  H   UNL     1      -2.520   3.954  -5.825  1.00  0.00     0.345 HD
ATOM     24  H   UNL     1      -2.333   5.558  -5.417  1.00  0.00     0.345 HD
ENDBRANCH   7  21
ENDBRANCH   5   7
ENDBRANCH   4   5
ENDBRANCH   3   4
ENDBRANCH   2   3
ENDBRANCH   1   2
BRANCH   1  25
ATOM     25  C   UNL     1       1.875   5.566  -2.448  1.00  0.00     0.202 C 
BRANCH  25  26
ATOM     26  C   UNL     1       1.495   7.003  -2.125  1.00  0.00     0.261 C 
BRANCH  26  27
ATOM     27  O   UNL     1       1.060   7.718  -3.268  1.00  0.00    -0.460 OA
BRANCH  27  28
ATOM     28  C   UNL     1       2.009   8.563  -3.740  1.00  0.00     0.338 C 
ATOM     29  O   UNL     1       3.194   8.553  -3.475  1.00  0.00    -0.246 OA
BRANCH  28  30
ATOM     30  C   UNL     1       1.365   9.594  -4.554  1.00  0.00     0.060 A 
ATOM     31  C   UNL     1       2.218  10.538  -5.126  1.00  0.00     0.016 A 
ATOM     32  C   UNL     1      -0.019   9.789  -4.458  1.00  0.00     0.016 A 
ATOM     33  C   UNL     1       1.714  11.793  -5.370  1.00  0.00     0.010 A 
ATOM     34  C   UNL     1      -0.516  11.045  -4.690  1.00  0.00     0.010 A 
ATOM     35  C   UNL     1       0.377  12.053  -5.046  1.00  0.00    -0.014 A 
BRANCH  35  36
ATOM     36  C   UNL     1      -0.127  13.392  -5.254  1.00  0.00     0.031 A 
ATOM     37  C   UNL     1      -0.306  13.651  -6.697  1.00  0.00     0.074 A 
ATOM     38  C   UNL     1      -0.473  14.213  -4.244  1.00  0.00     0.049 A 
ATOM     39  N   UNL     1       0.498  14.290  -7.479  1.00  0.00    -0.248 NA
ATOM     40  C   UNL     1      -1.321  12.854  -7.412  1.00  0.00     0.031 C 
ATOM     41  C   UNL     1      -0.545  13.902  -2.813  1.00  0.00     0.029 A 
ATOM     42  N   UNL     1      -0.916  15.499  -4.292  1.00  0.00    -0.354 N 
ATOM     43  C   UNL     1      -0.111  14.238  -8.726  1.00  0.00     0.074 A 
ATOM     44  C   UNL     1      -0.998  13.113  -8.680  1.00  0.00     0.031 C 
ATOM     45  C   UNL     1      -1.214  14.889  -2.168  1.00  0.00     0.029 A 
ATOM     46  C   UNL     1      -1.491  15.964  -3.108  1.00  0.00     0.049 A 
ATOM     47  H   UNL     1      -0.837  16.058  -5.099  1.00  0.00     0.167 HD
ATOM     48  C   UNL     1      -0.137  15.348  -9.513  1.00  0.00     0.034 A 
ATOM     49  C   UNL     1      -2.175  17.132  -2.939  1.00  0.00     0.034 A 
ATOM     50  C   UNL     1       0.853  16.302  -9.056  1.00  0.00     0.049 A 
ATOM     51  C   UNL     1      -1.741  18.024  -4.041  1.00  0.00     0.074 A 
ATOM     52  C   UNL     1       2.229  16.345  -8.979  1.00  0.00     0.029 A 
ATOM     53  N   UNL     1       0.376  17.249  -8.181  1.00  0.00    -0.354 N 
ATOM     54  N   UNL     1      -0.518  18.466  -4.157  1.00  0.00    -0.248 NA
ATOM     55  C   UNL     1      -2.529  18.068  -5.265  1.00  0.00     0.031 C 
ATOM     56  C   UNL     1       2.526  17.119  -7.816  1.00  0.00     0.029 A 
ATOM     57  C   UNL     1       1.333  17.590  -7.263  1.00  0.00     0.049 A 
ATOM     58  H   UNL     1      -0.531  17.631  -8.211  1.00  0.00     0.167 HD
ATOM     59  C   UNL     1      -0.250  18.429  -5.515  1.00  0.00     0.074 A 
ATOM     60  C   UNL     1      -1.562  18.330  -6.150  1.00  0.00     0.031 C 
ATOM     61  C   UNL     1       1.015  18.173  -5.966  1.00  0.00     0.034 A 
BRANCH  48  62
ATOM     62  C   UNL     1      -1.359  15.794 -10.307  1.00  0.00     0.023 A 
ATOM     63  C   UNL     1      -1.254  17.022 -10.990  1.00  0.00     0.031 A 
ATOM     64  C   UNL     1      -2.672  15.272 -10.203  1.00  0.00     0.131 A 
ATOM     65  C   UNL     1      -2.400  17.708 -11.431  1.00  0.00     0.055 A 
ATOM     66  C   UNL     1      -3.802  15.936 -10.686  1.00  0.00     0.041 A 
ATOM     67  F   UNL     1      -2.969  14.139  -9.561  1.00  0.00    -0.206 F 
ATOM     68  C   UNL     1      -3.675  17.175 -11.279  1.00  0.00     0.022 A 
BRANCH  65  69
ATOM     69  S   UNL     1      -2.208  19.389 -12.073  1.00  0.00     0.124 S 
ATOM     70  O   UNL     1      -1.539  20.054 -10.961  1.00  0.00    -0.237 OA
ATOM     71  O   UNL     1      -1.404  19.160 -13.269  1.00  0.00    -0.237 OA
ATOM     72  O   UNL     1      -3.584  19.814 -12.319  1.00  0.00    -0.744 OA
ENDBRANCH  65  69
ENDBRANCH  48  62
BRANCH  49  73
ATOM     73  C   UNL     1      -3.425  17.361  -2.150  1.00  0.00     0.023 A 
ATOM     74  C   UNL     1      -3.878  18.643  -1.751  1.00  0.00     0.031 A 
ATOM     75  C   UNL     1      -4.346  16.299  -2.010  1.00  0.00     0.131 A 
ATOM     76  C   UNL     1      -5.195  18.815  -1.249  1.00  0.00     0.055 A 
ATOM     77  C   UNL     1      -5.644  16.477  -1.523  1.00  0.00     0.041 A 
ATOM     78  F   UNL     1      -4.044  15.060  -2.429  1.00  0.00    -0.206 F 
ATOM     79  C   UNL     1      -6.078  17.738  -1.150  1.00  0.00     0.022 A 
BRANCH  76  80
ATOM     80  S   UNL     1      -5.820  20.466  -0.773  1.00  0.00     0.124 S 
ATOM     81  O   UNL     1      -4.962  20.813   0.354  1.00  0.00    -0.237 OA
ATOM     82  O   UNL     1      -5.632  21.237  -1.996  1.00  0.00    -0.237 OA
ATOM     83  O   UNL     1      -7.218  20.214  -0.419  1.00  0.00    -0.744 OA
ENDBRANCH  76  80
ENDBRANCH  49  73
BRANCH  61  84
ATOM     84  C   UNL     1       2.163  18.416  -5.006  1.00  0.00     0.023 A 
ATOM     85  C   UNL     1       2.373  17.757  -3.772  1.00  0.00     0.031 A 
ATOM     86  C   UNL     1       3.133  19.348  -5.419  1.00  0.00     0.131 A 
ATOM     87  C   UNL     1       3.520  18.052  -3.005  1.00  0.00     0.055 A 
ATOM     88  C   UNL     1       4.276  19.616  -4.671  1.00  0.00     0.041 A 
ATOM     89  F   UNL     1       2.995  20.000  -6.586  1.00  0.00    -0.206 F 
ATOM     90  C   UNL     1       4.471  18.973  -3.457  1.00  0.00     0.022 A 
BRANCH  87  91
ATOM     91  S   UNL     1       3.790  17.270  -1.379  1.00  0.00     0.124 S 
ATOM     92  O   UNL     1       2.505  17.426  -0.707  1.00  0.00    -0.237 OA
ATOM     93  O   UNL     1       4.158  15.904  -1.743  1.00  0.00    -0.237 OA
ATOM     94  O   UNL     1       4.880  18.057  -0.798  1.00  0.00    -0.744 OA
ENDBRANCH  87  91
ENDBRANCH  61  84
ENDBRANCH  35  36
ENDBRANCH  28  30
ENDBRANCH  27  28
ENDBRANCH  26  27
ENDBRANCH  25  26
ENDBRANCH   1  25
TORSDOF 21
