REMARK SMILES O=C(CCCOc1ccc(Cl)cc1Cl)Nc1cccc(C(=O)OCCOCCOC(=O)c2ccc(-c3c4nc(c(-c5cc(S(=O)(=O)[O-])ccc5F)c5ccc([nH]5)c(-c5cc(S(=O)(=O)[O-])ccc5F)c5nc(c(-c6cc(S(=O)(=O)[O-])ccc6F)c6ccc3[nH]6)C=C5)C=C4)cc2)c1
REMARK SMILES IDX 24 1 23 2 21 3 22 4 20 5 16 6 17 7 95 8 18 9 19 10 15 11
REMARK SMILES IDX 1 12 2 13 3 15 4 16 5 17 6 18 7 19 8 20 13 21 9 22 12 23
REMARK SMILES IDX 14 24 10 25 11 26 25 27 26 28 27 29 28 30 29 31 30 32 31 33
REMARK SMILES IDX 32 34 33 35 94 36 34 37 93 38 35 39 36 40 37 41 87 42 38 43
REMARK SMILES IDX 92 44 86 45 88 46 39 47 91 48 85 49 84 50 40 52 72 53 52 54
REMARK SMILES IDX 71 55 53 56 56 57 70 58 89 59 54 60 55 61 69 63 90 64 57 65
REMARK SMILES IDX 41 66 42 67 50 68 43 69 49 70 51 71 48 72 44 73 45 74 46 75
REMARK SMILES IDX 47 76 73 77 74 78 82 79 75 80 81 81 83 82 80 83 76 84 77 85
REMARK SMILES IDX 78 86 79 87 58 88 59 89 67 90 60 91 66 92 68 93 65 94 61 95
REMARK SMILES IDX 62 96 63 97 64 98
REMARK H PARENT 15 14 88 51 56 62
REMARK Flexibility Score: inf
ROOT
ATOM      1  C   UNL     1      -2.445  -0.782   4.652  1.00  0.00     0.261 C 
ENDROOT
BRANCH   1   2
ATOM      2  O   UNL     1      -1.358  -0.195   3.920  1.00  0.00    -0.460 OA
BRANCH   2   3
ATOM      3  C   UNL     1      -1.153   1.129   4.123  1.00  0.00     0.338 C 
ATOM      4  O   UNL     1      -1.852   1.897   4.766  1.00  0.00    -0.246 OA
BRANCH   3   5
ATOM      5  C   UNL     1       0.197   1.481   3.630  1.00  0.00     0.062 A 
ATOM      6  C   UNL     1       2.048   1.170   2.117  1.00  0.00     0.042 A 
ATOM      7  C   UNL     1       2.849   1.980   2.930  1.00  0.00     0.026 A 
ATOM      8  C   UNL     1       0.729   0.900   2.478  1.00  0.00     0.041 A 
ATOM      9  C   UNL     1       2.301   2.600   4.053  1.00  0.00     0.003 A 
ATOM     10  C   UNL     1       0.973   2.357   4.400  1.00  0.00     0.016 A 
BRANCH   6  11
ATOM     11  N   UNL     1       2.614   0.641   0.946  1.00  0.00    -0.326 N 
ATOM     12  O   UNL     1       0.763   0.847  -0.420  1.00  0.00    -0.275 OA
ATOM     13  C   UNL     1       1.930   0.506  -0.244  1.00  0.00     0.224 C 
ATOM     14  H   UNL     1       3.554   0.348   0.977  1.00  0.00     0.169 HD
BRANCH  13  15
ATOM     15  C   UNL     1       2.718  -0.127  -1.374  1.00  0.00     0.104 C 
BRANCH  15  16
ATOM     16  C   UNL     1       3.978   0.592  -1.870  1.00  0.00     0.051 C 
BRANCH  16  17
ATOM     17  C   UNL     1       5.227   0.682  -0.978  1.00  0.00     0.230 C 
BRANCH  17  18
ATOM     18  O   UNL     1       6.025  -0.506  -0.915  1.00  0.00    -0.492 OA
BRANCH  18  19
ATOM     19  C   UNL     1       5.531  -1.504  -0.124  1.00  0.00     0.137 A 
ATOM     20  C   UNL     1       4.856  -2.536  -0.778  1.00  0.00     0.049 A 
ATOM     21  C   UNL     1       5.793  -1.608   1.246  1.00  0.00     0.084 A 
ATOM     22  C   UNL     1       4.341  -3.610  -0.057  1.00  0.00     0.024 A 
ATOM     23  C   UNL     1       5.322  -2.712   1.965  1.00  0.00     0.045 A 
ATOM     24  Cl  UNL     1       6.715  -0.416   2.086  1.00  0.00    -0.080 Cl
ATOM     25  C   UNL     1       4.590  -3.700   1.308  1.00  0.00     0.042 A 
ATOM     26  Cl  UNL     1       4.032  -5.068   2.180  1.00  0.00    -0.084 Cl
ENDBRANCH  18  19
ENDBRANCH  17  18
ENDBRANCH  16  17
ENDBRANCH  15  16
ENDBRANCH  13  15
ENDBRANCH   6  11
ENDBRANCH   3   5
ENDBRANCH   2   3
ENDBRANCH   1   2
BRANCH   1  27
ATOM     27  C   UNL     1      -1.938  -1.684   5.783  1.00  0.00     0.202 C 
BRANCH  27  28
ATOM     28  O   UNL     1      -1.179  -1.053   6.816  1.00  0.00    -0.374 OA
BRANCH  28  29
ATOM     29  C   UNL     1       0.205  -0.821   6.555  1.00  0.00     0.202 C 
BRANCH  29  30
ATOM     30  C   UNL     1       1.160  -2.013   6.695  1.00  0.00     0.261 C 
BRANCH  30  31
ATOM     31  O   UNL     1       0.939  -3.022   5.699  1.00  0.00    -0.460 OA
BRANCH  31  32
ATOM     32  C   UNL     1       0.281  -4.124   6.137  1.00  0.00     0.338 C 
ATOM     33  O   UNL     1      -0.107  -4.347   7.275  1.00  0.00    -0.246 OA
BRANCH  32  34
ATOM     34  C   UNL     1      -0.062  -4.970   4.982  1.00  0.00     0.060 A 
ATOM     35  C   UNL     1      -1.400  -5.334   4.784  1.00  0.00     0.016 A 
ATOM     36  C   UNL     1       0.934  -5.438   4.127  1.00  0.00     0.016 A 
ATOM     37  C   UNL     1      -1.743  -6.194   3.739  1.00  0.00     0.010 A 
ATOM     38  C   UNL     1       0.590  -6.297   3.083  1.00  0.00     0.010 A 
ATOM     39  C   UNL     1      -0.744  -6.702   2.899  1.00  0.00    -0.014 A 
BRANCH  39  40
ATOM     40  C   UNL     1      -1.036  -7.770   1.911  1.00  0.00     0.031 A 
ATOM     41  C   UNL     1      -0.577  -9.171   2.206  1.00  0.00     0.074 A 
ATOM     42  C   UNL     1      -1.653  -7.491   0.751  1.00  0.00     0.049 A 
ATOM     43  N   UNL     1      -0.568 -10.227   1.436  1.00  0.00    -0.248 NA
ATOM     44  C   UNL     1      -0.033  -9.397   3.553  1.00  0.00     0.031 C 
ATOM     45  C   UNL     1      -2.189  -6.185   0.372  1.00  0.00     0.029 A 
ATOM     46  N   UNL     1      -1.915  -8.292  -0.332  1.00  0.00    -0.354 N 
ATOM     47  C   UNL     1      -0.001 -11.243   2.198  1.00  0.00     0.074 A 
ATOM     48  C   UNL     1       0.368 -10.655   3.469  1.00  0.00     0.031 C 
ATOM     49  C   UNL     1      -2.716  -6.274  -0.862  1.00  0.00     0.029 A 
ATOM     50  C   UNL     1      -2.503  -7.624  -1.380  1.00  0.00     0.049 A 
ATOM     51  H   UNL     1      -1.703  -9.253  -0.356  1.00  0.00     0.167 HD
ATOM     52  C   UNL     1       0.184 -12.548   1.871  1.00  0.00     0.034 A 
ATOM     53  C   UNL     1      -2.804  -8.048  -2.623  1.00  0.00     0.034 A 
ATOM     54  C   UNL     1      -0.170 -13.106   0.588  1.00  0.00     0.049 A 
ATOM     55  C   UNL     1      -2.481  -9.470  -3.014  1.00  0.00     0.074 A 
ATOM     56  C   UNL     1      -0.035 -14.410   0.145  1.00  0.00     0.029 A 
ATOM     57  N   UNL     1      -0.716 -12.386  -0.469  1.00  0.00    -0.354 N 
ATOM     58  N   UNL     1      -1.934 -10.424  -2.295  1.00  0.00    -0.248 NA
ATOM     59  C   UNL     1      -2.815  -9.871  -4.387  1.00  0.00     0.031 C 
ATOM     60  C   UNL     1      -0.417 -14.460  -1.200  1.00  0.00     0.029 A 
ATOM     61  C   UNL     1      -0.886 -13.209  -1.573  1.00  0.00     0.049 A 
ATOM     62  H   UNL     1      -0.949 -11.430  -0.439  1.00  0.00     0.167 HD
ATOM     63  C   UNL     1      -1.904 -11.550  -3.115  1.00  0.00     0.074 A 
ATOM     64  C   UNL     1      -2.482 -11.153  -4.383  1.00  0.00     0.031 C 
ATOM     65  C   UNL     1      -1.455 -12.802  -2.838  1.00  0.00     0.034 A 
BRANCH  52  66
ATOM     66  C   UNL     1       0.856 -13.425   2.905  1.00  0.00     0.023 A 
ATOM     67  C   UNL     1       0.302 -13.613   4.184  1.00  0.00     0.031 A 
ATOM     68  C   UNL     1       2.104 -14.016   2.639  1.00  0.00     0.131 A 
ATOM     69  C   UNL     1       1.044 -14.267   5.180  1.00  0.00     0.055 A 
ATOM     70  C   UNL     1       2.789 -14.758   3.604  1.00  0.00     0.041 A 
ATOM     71  F   UNL     1       2.698 -13.857   1.446  1.00  0.00    -0.206 F 
ATOM     72  C   UNL     1       2.272 -14.866   4.891  1.00  0.00     0.022 A 
BRANCH  69  73
ATOM     73  S   UNL     1       0.480 -14.135   6.900  1.00  0.00     0.124 S 
ATOM     74  O   UNL     1       0.403 -12.686   7.074  1.00  0.00    -0.237 OA
ATOM     75  O   UNL     1      -0.794 -14.843   6.869  1.00  0.00    -0.237 OA
ATOM     76  O   UNL     1       1.542 -14.789   7.660  1.00  0.00    -0.744 OA
ENDBRANCH  69  73
ENDBRANCH  52  66
BRANCH  53  77
ATOM     77  C   UNL     1      -3.438  -7.117  -3.599  1.00  0.00     0.023 A 
ATOM     78  C   UNL     1      -4.737  -7.355  -4.072  1.00  0.00     0.031 A 
ATOM     79  C   UNL     1      -2.750  -5.994  -4.091  1.00  0.00     0.131 A 
ATOM     80  C   UNL     1      -5.298  -6.502  -5.033  1.00  0.00     0.055 A 
ATOM     81  C   UNL     1      -3.333  -5.118  -5.008  1.00  0.00     0.041 A 
ATOM     82  F   UNL     1      -1.503  -5.723  -3.674  1.00  0.00    -0.206 F 
ATOM     83  C   UNL     1      -4.612  -5.375  -5.492  1.00  0.00     0.022 A 
BRANCH  80  84
ATOM     84  S   UNL     1      -6.918  -6.927  -5.728  1.00  0.00     0.124 S 
ATOM     85  O   UNL     1      -6.647  -8.225  -6.335  1.00  0.00    -0.237 OA
ATOM     86  O   UNL     1      -7.765  -6.939  -4.539  1.00  0.00    -0.237 OA
ATOM     87  O   UNL     1      -7.181  -5.840  -6.667  1.00  0.00    -0.744 OA
ENDBRANCH  80  84
ENDBRANCH  53  77
BRANCH  65  88
ATOM     88  C   UNL     1      -1.633 -13.856  -3.908  1.00  0.00     0.023 A 
ATOM     89  C   UNL     1      -0.950 -13.805  -5.135  1.00  0.00     0.031 A 
ATOM     90  C   UNL     1      -2.507 -14.938  -3.685  1.00  0.00     0.131 A 
ATOM     91  C   UNL     1      -1.188 -14.787  -6.110  1.00  0.00     0.055 A 
ATOM     92  C   UNL     1      -2.690 -15.946  -4.632  1.00  0.00     0.041 A 
ATOM     93  F   UNL     1      -3.192 -15.037  -2.534  1.00  0.00    -0.206 F 
ATOM     94  C   UNL     1      -2.038 -15.867  -5.858  1.00  0.00     0.022 A 
BRANCH  91  95
ATOM     95  S   UNL     1      -0.444 -14.586  -7.753  1.00  0.00     0.124 S 
ATOM     96  O   UNL     1      -0.978 -13.295  -8.172  1.00  0.00    -0.237 OA
ATOM     97  O   UNL     1       0.985 -14.619  -7.455  1.00  0.00    -0.237 OA
ATOM     98  O   UNL     1      -0.946 -15.738  -8.501  1.00  0.00    -0.744 OA
ENDBRANCH  91  95
ENDBRANCH  65  88
ENDBRANCH  39  40
ENDBRANCH  32  34
ENDBRANCH  31  32
ENDBRANCH  30  31
ENDBRANCH  29  30
ENDBRANCH  28  29
ENDBRANCH  27  28
ENDBRANCH   1  27
TORSDOF 23
