REMARK SMILES CC[C@@H](C(=O)OCCOCCOC(=O)c1ccc(-c2c3nc(c(-c4cc(S(=O)(=O)[O-])ccc4F)c4ccc([nH]4)c(-c4cc(S(=O)(=O)[O-])ccc4F)c4nc(c(-c5cc(S(=O)(=O)[O-])ccc5F)c5ccc2[nH]5)C=C4)C=C3)cc1)N1C(=O)/C(=C/C(C)=C/c2ccccc2)SC1=S
REMARK SMILES IDX 9 1 8 2 7 3 6 4 4 5 5 6 3 7 2 8 1 9 78 10 79 11 93 12 80 13
REMARK SMILES IDX 81 14 92 15 94 16 82 17 83 18 84 19 85 20 86 21 87 22 91 23
REMARK SMILES IDX 88 24 90 25 89 26 10 27 11 28 12 29 13 30 14 31 15 32 16 33
REMARK SMILES IDX 77 34 17 35 76 36 18 37 19 38 20 39 70 40 21 41 75 42 69 43
REMARK SMILES IDX 71 44 22 45 74 46 68 47 67 48 23 50 55 51 35 52 54 53 36 54
REMARK SMILES IDX 39 55 53 56 72 57 37 58 38 59 52 61 73 62 40 63 24 64 25 65
REMARK SMILES IDX 33 66 26 67 32 68 34 69 31 70 27 71 28 72 29 73 30 74 56 75
REMARK SMILES IDX 57 76 65 77 58 78 64 79 66 80 63 81 59 82 60 83 61 84 62 85
REMARK SMILES IDX 41 86 42 87 50 88 43 89 49 90 51 91 48 92 44 93 45 94 46 95
REMARK SMILES IDX 47 96
REMARK H PARENT 71 49 39 60
REMARK Flexibility Score: inf
ROOT
ATOM      1  O   UNL     1      -1.503   0.749   4.106  1.00  0.00    -0.374 OA
ENDROOT
BRANCH   1   2
ATOM      2  C   UNL     1      -0.329   1.554   3.974  1.00  0.00     0.202 C 
BRANCH   2   3
ATOM      3  C   UNL     1       1.006   0.817   4.133  1.00  0.00     0.261 C 
BRANCH   3   4
ATOM      4  O   UNL     1       1.305   0.056   2.940  1.00  0.00    -0.462 OA
BRANCH   4   5
ATOM      5  C   UNL     1       1.284  -1.296   3.047  1.00  0.00     0.329 C 
ATOM      6  O   UNL     1       1.216  -1.898   4.114  1.00  0.00    -0.250 OA
BRANCH   5   7
ATOM      7  C   UNL     1       1.377  -2.006   1.674  1.00  0.00     0.201 C 
BRANCH   7   8
ATOM      8  C   UNL     1       0.734  -1.363   0.436  1.00  0.00     0.034 C 
ATOM      9  C   UNL     1       1.280   0.003   0.038  1.00  0.00     0.007 C 
ENDBRANCH   7   8
BRANCH   7  10
ATOM     10  N   UNL     1       0.892  -3.393   1.917  1.00  0.00    -0.278 N 
ATOM     11  C   UNL     1       1.767  -4.463   1.835  1.00  0.00     0.266 C 
ATOM     12  C   UNL     1      -0.368  -3.766   2.326  1.00  0.00     0.149 C 
ATOM     13  O   UNL     1       2.885  -4.455   1.343  1.00  0.00    -0.268 OA
ATOM     14  C   UNL     1       1.084  -5.691   2.353  1.00  0.00     0.080 C 
ATOM     15  S   UNL     1      -0.202  -5.169   3.360  1.00  0.00    -0.054 SA
ATOM     16  S   UNL     1      -1.862  -3.268   1.800  1.00  0.00    -0.052 S 
ATOM     17  C   UNL     1       1.335  -6.922   1.886  1.00  0.00     0.024 C 
BRANCH  17  18
ATOM     18  C   UNL     1       0.677  -8.200   2.194  1.00  0.00    -0.049 C 
ATOM     19  C   UNL     1       1.521  -9.405   1.859  1.00  0.00     0.044 C 
ATOM     20  C   UNL     1      -0.592  -8.310   2.645  1.00  0.00     0.011 C 
BRANCH  20  21
ATOM     21  C   UNL     1      -1.310  -9.492   3.155  1.00  0.00    -0.025 A 
ATOM     22  C   UNL     1      -2.700  -9.567   2.978  1.00  0.00     0.008 A 
ATOM     23  C   UNL     1      -0.688 -10.448   3.966  1.00  0.00     0.008 A 
ATOM     24  C   UNL     1      -3.440 -10.598   3.562  1.00  0.00     0.001 A 
ATOM     25  C   UNL     1      -1.424 -11.488   4.539  1.00  0.00     0.001 A 
ATOM     26  C   UNL     1      -2.800 -11.563   4.335  1.00  0.00     0.000 A 
ENDBRANCH  20  21
ENDBRANCH  17  18
ENDBRANCH   7  10
ENDBRANCH   5   7
ENDBRANCH   4   5
ENDBRANCH   3   4
ENDBRANCH   2   3
ENDBRANCH   1   2
BRANCH   1  27
ATOM     27  C   UNL     1      -1.829  -0.084   3.000  1.00  0.00     0.202 C 
BRANCH  27  28
ATOM     28  C   UNL     1      -2.760   0.488   1.929  1.00  0.00     0.261 C 
BRANCH  28  29
ATOM     29  O   UNL     1      -2.191   1.659   1.337  1.00  0.00    -0.460 OA
BRANCH  29  30
ATOM     30  C   UNL     1      -2.637   2.803   1.905  1.00  0.00     0.338 C 
ATOM     31  O   UNL     1      -3.542   2.917   2.717  1.00  0.00    -0.246 OA
BRANCH  30  32
ATOM     32  C   UNL     1      -1.720   3.900   1.565  1.00  0.00     0.060 A 
ATOM     33  C   UNL     1      -1.344   4.748   2.613  1.00  0.00     0.016 A 
ATOM     34  C   UNL     1      -1.256   4.114   0.264  1.00  0.00     0.016 A 
ATOM     35  C   UNL     1      -0.567   5.867   2.352  1.00  0.00     0.010 A 
ATOM     36  C   UNL     1      -0.479   5.242   0.002  1.00  0.00     0.010 A 
ATOM     37  C   UNL     1      -0.179   6.147   1.037  1.00  0.00    -0.014 A 
BRANCH  37  38
ATOM     38  C   UNL     1       0.340   7.495   0.720  1.00  0.00     0.031 A 
ATOM     39  C   UNL     1      -0.610   8.492   0.114  1.00  0.00     0.074 A 
ATOM     40  C   UNL     1       1.604   7.837   1.019  1.00  0.00     0.049 A 
ATOM     41  N   UNL     1      -0.382   9.708  -0.305  1.00  0.00    -0.248 NA
ATOM     42  C   UNL     1      -2.006   8.050  -0.044  1.00  0.00     0.031 C 
ATOM     43  C   UNL     1       2.579   6.968   1.677  1.00  0.00     0.029 A 
ATOM     44  N   UNL     1       2.283   9.008   0.807  1.00  0.00    -0.354 N 
ATOM     45  C   UNL     1      -1.601  10.173  -0.787  1.00  0.00     0.074 A 
ATOM     46  C   UNL     1      -2.554   9.094  -0.645  1.00  0.00     0.031 C 
ATOM     47  C   UNL     1       3.737   7.637   1.806  1.00  0.00     0.029 A 
ATOM     48  C   UNL     1       3.599   8.959   1.197  1.00  0.00     0.049 A 
ATOM     49  H   UNL     1       1.867   9.809   0.412  1.00  0.00     0.167 HD
ATOM     50  C   UNL     1      -1.897  11.395  -1.292  1.00  0.00     0.034 A 
ATOM     51  C   UNL     1       4.584   9.867   1.046  1.00  0.00     0.034 A 
ATOM     52  C   UNL     1      -0.925  12.451  -1.429  1.00  0.00     0.049 A 
ATOM     53  C   UNL     1       4.257  11.185   0.383  1.00  0.00     0.074 A 
ATOM     54  C   UNL     1      -1.104  13.728  -1.929  1.00  0.00     0.029 A 
ATOM     55  N   UNL     1       0.415  12.348  -1.072  1.00  0.00    -0.354 N 
ATOM     56  N   UNL     1       3.107  11.612  -0.088  1.00  0.00    -0.248 NA
ATOM     57  C   UNL     1       5.358  12.147   0.238  1.00  0.00     0.031 C 
ATOM     58  C   UNL     1       0.140  14.365  -1.952  1.00  0.00     0.029 A 
ATOM     59  C   UNL     1       1.078  13.526  -1.373  1.00  0.00     0.049 A 
ATOM     60  H   UNL     1       0.831  11.554  -0.665  1.00  0.00     0.167 HD
ATOM     61  C   UNL     1       3.338  12.909  -0.541  1.00  0.00     0.074 A 
ATOM     62  C   UNL     1       4.736  13.193  -0.286  1.00  0.00     0.031 C 
ATOM     63  C   UNL     1       2.473  13.791  -1.105  1.00  0.00     0.034 A 
BRANCH  50  64
ATOM     64  C   UNL     1      -3.304  11.622  -1.790  1.00  0.00     0.023 A 
ATOM     65  C   UNL     1      -4.416  11.565  -0.931  1.00  0.00     0.031 A 
ATOM     66  C   UNL     1      -3.539  11.867  -3.154  1.00  0.00     0.131 A 
ATOM     67  C   UNL     1      -5.712  11.678  -1.457  1.00  0.00     0.055 A 
ATOM     68  C   UNL     1      -4.826  12.065  -3.657  1.00  0.00     0.041 A 
ATOM     69  F   UNL     1      -2.521  11.902  -4.028  1.00  0.00    -0.206 F 
ATOM     70  C   UNL     1      -5.924  11.957  -2.809  1.00  0.00     0.022 A 
BRANCH  67  71
ATOM     71  S   UNL     1      -7.121  11.303  -0.378  1.00  0.00     0.124 S 
ATOM     72  O   UNL     1      -6.825   9.931   0.028  1.00  0.00    -0.237 OA
ATOM     73  O   UNL     1      -7.000  12.317   0.663  1.00  0.00    -0.237 OA
ATOM     74  O   UNL     1      -8.277  11.448  -1.260  1.00  0.00    -0.744 OA
ENDBRANCH  67  71
ENDBRANCH  50  64
BRANCH  51  75
ATOM     75  C   UNL     1       5.974   9.555   1.485  1.00  0.00     0.023 A 
ATOM     76  C   UNL     1       6.615  10.321   2.470  1.00  0.00     0.031 A 
ATOM     77  C   UNL     1       6.706   8.515   0.881  1.00  0.00     0.131 A 
ATOM     78  C   UNL     1       7.960  10.073   2.785  1.00  0.00     0.055 A 
ATOM     79  C   UNL     1       8.024   8.232   1.243  1.00  0.00     0.041 A 
ATOM     80  F   UNL     1       6.144   7.752  -0.070  1.00  0.00    -0.206 F 
ATOM     81  C   UNL     1       8.664   9.024   2.190  1.00  0.00     0.022 A 
BRANCH  78  82
ATOM     82  S   UNL     1       8.811  11.212   3.910  1.00  0.00     0.124 S 
ATOM     83  O   UNL     1       8.639  12.488   3.224  1.00  0.00    -0.237 OA
ATOM     84  O   UNL     1       8.054  11.039   5.145  1.00  0.00    -0.237 OA
ATOM     85  O   UNL     1      10.179  10.699   3.942  1.00  0.00    -0.744 OA
ENDBRANCH  78  82
ENDBRANCH  51  75
BRANCH  63  86
ATOM     86  C   UNL     1       2.993  15.175  -1.413  1.00  0.00     0.023 A 
ATOM     87  C   UNL     1       3.969  15.408  -2.398  1.00  0.00     0.031 A 
ATOM     88  C   UNL     1       2.481  16.284  -0.714  1.00  0.00     0.131 A 
ATOM     89  C   UNL     1       4.435  16.713  -2.621  1.00  0.00     0.055 A 
ATOM     90  C   UNL     1       2.900  17.585  -0.987  1.00  0.00     0.041 A 
ATOM     91  F   UNL     1       1.550  16.119   0.240  1.00  0.00    -0.206 F 
ATOM     92  C   UNL     1       3.892  17.804  -1.938  1.00  0.00     0.022 A 
BRANCH  89  93
ATOM     93  S   UNL     1       5.827  16.959  -3.758  1.00  0.00     0.124 S 
ATOM     94  O   UNL     1       6.865  16.133  -3.150  1.00  0.00    -0.237 OA
ATOM     95  O   UNL     1       5.287  16.474  -5.024  1.00  0.00    -0.237 OA
ATOM     96  O   UNL     1       6.067  18.400  -3.700  1.00  0.00    -0.744 OA
ENDBRANCH  89  93
ENDBRANCH  63  86
ENDBRANCH  37  38
ENDBRANCH  30  32
ENDBRANCH  29  30
ENDBRANCH  28  29
ENDBRANCH  27  28
ENDBRANCH   1  27
TORSDOF 21
