REMARK SMILES C[C@@H](Oc1ccc(N)cc1)C(=O)OCCOCCOC(=O)c1ccc(-c2c3nc(c(-c4cc(S(=O)(=O)[O-])ccc4F)c4ccc([nH]4)c(-c4cc(S(=O)(=O)[O-])ccc4F)c4nc(c(-c5cc(S(=O)(=O)[O-])ccc5F)c5ccc2[nH]5)C=C4)C=C3)cc1
REMARK SMILES IDX 16 1 15 2 14 3 13 4 11 5 12 6 2 7 1 8 3 9 4 10 5 11 10 12
REMARK SMILES IDX 6 13 9 14 7 15 8 16 17 19 18 20 19 21 20 22 21 23 22 24
REMARK SMILES IDX 23 25 84 26 24 27 83 28 25 29 26 30 27 31 77 32 28 33 82 34
REMARK SMILES IDX 76 35 78 36 29 37 81 38 75 39 74 40 30 42 62 43 42 44 61 45
REMARK SMILES IDX 43 46 46 47 60 48 79 49 44 50 45 51 59 53 80 54 47 55 31 56
REMARK SMILES IDX 32 57 40 58 33 59 39 60 41 61 38 62 34 63 35 64 36 65 37 66
REMARK SMILES IDX 63 67 64 68 72 69 65 70 71 71 73 72 70 73 66 74 67 75 68 76
REMARK SMILES IDX 69 77 48 78 49 79 57 80 50 81 56 82 58 83 55 84 51 85 52 86
REMARK SMILES IDX 53 87 54 88
REMARK H PARENT 8 17 8 18 78 41 46 52
REMARK Flexibility Score: inf
ROOT
ATOM      1  O   UNL     1      -3.480   0.395   1.731  1.00  0.00    -0.374 OA
ENDROOT
BRANCH   1   2
ATOM      2  C   UNL     1      -3.708   0.910   0.417  1.00  0.00     0.202 C 
BRANCH   2   3
ATOM      3  C   UNL     1      -2.850   2.109   0.002  1.00  0.00     0.261 C 
BRANCH   3   4
ATOM      4  O   UNL     1      -1.489   1.712  -0.261  1.00  0.00    -0.461 OA
BRANCH   4   5
ATOM      5  C   UNL     1      -0.517   2.361   0.439  1.00  0.00     0.347 C 
ATOM      6  O   UNL     1      -0.718   3.271   1.238  1.00  0.00    -0.248 OA
BRANCH   5   7
ATOM      7  C   UNL     1       0.882   1.824   0.132  1.00  0.00     0.279 C 
ATOM      8  C   UNL     1       0.909   0.310  -0.078  1.00  0.00     0.066 C 
BRANCH   7   9
ATOM      9  O   UNL     1       1.364   2.499  -1.038  1.00  0.00    -0.479 OA
BRANCH   9  10
ATOM     10  C   UNL     1       2.705   2.748  -0.948  1.00  0.00     0.120 A 
ATOM     11  C   UNL     1       3.623   1.771  -1.322  1.00  0.00     0.048 A 
ATOM     12  C   UNL     1       3.140   4.000  -0.529  1.00  0.00     0.048 A 
ATOM     13  C   UNL     1       4.990   2.032  -1.224  1.00  0.00     0.029 A 
ATOM     14  C   UNL     1       4.511   4.261  -0.453  1.00  0.00     0.029 A 
ATOM     15  C   UNL     1       5.447   3.289  -0.823  1.00  0.00     0.032 A 
BRANCH  15  16
ATOM     16  N   UNL     1       6.806   3.522  -0.672  1.00  0.00    -0.399 N 
ATOM     17  H   UNL     1       7.456   2.831  -0.936  1.00  0.00     0.156 HD
ATOM     18  H   UNL     1       7.121   4.378  -0.302  1.00  0.00     0.156 HD
ENDBRANCH  15  16
ENDBRANCH   9  10
ENDBRANCH   7   9
ENDBRANCH   5   7
ENDBRANCH   4   5
ENDBRANCH   3   4
ENDBRANCH   2   3
ENDBRANCH   1   2
BRANCH   1  19
ATOM     19  C   UNL     1      -2.275  -0.333   1.945  1.00  0.00     0.202 C 
BRANCH  19  20
ATOM     20  C   UNL     1      -2.235  -1.777   1.424  1.00  0.00     0.261 C 
BRANCH  20  21
ATOM     21  O   UNL     1      -2.406  -1.870  -0.002  1.00  0.00    -0.460 OA
BRANCH  21  22
ATOM     22  C   UNL     1      -3.580  -2.429  -0.389  1.00  0.00     0.338 C 
ATOM     23  O   UNL     1      -4.438  -2.910   0.342  1.00  0.00    -0.246 OA
BRANCH  22  24
ATOM     24  C   UNL     1      -3.800  -2.236  -1.834  1.00  0.00     0.060 A 
ATOM     25  C   UNL     1      -4.996  -1.619  -2.225  1.00  0.00     0.016 A 
ATOM     26  C   UNL     1      -2.911  -2.725  -2.793  1.00  0.00     0.016 A 
ATOM     27  C   UNL     1      -5.330  -1.530  -3.575  1.00  0.00     0.010 A 
ATOM     28  C   UNL     1      -3.253  -2.642  -4.150  1.00  0.00     0.010 A 
ATOM     29  C   UNL     1      -4.479  -2.075  -4.545  1.00  0.00    -0.014 A 
BRANCH  29  30
ATOM     30  C   UNL     1      -4.951  -2.183  -5.950  1.00  0.00     0.031 A 
ATOM     31  C   UNL     1      -5.495  -3.499  -6.437  1.00  0.00     0.074 A 
ATOM     32  C   UNL     1      -4.933  -1.116  -6.769  1.00  0.00     0.049 A 
ATOM     33  N   UNL     1      -5.934  -3.830  -7.624  1.00  0.00    -0.248 NA
ATOM     34  C   UNL     1      -5.547  -4.588  -5.450  1.00  0.00     0.031 C 
ATOM     35  C   UNL     1      -4.473   0.222  -6.399  1.00  0.00     0.029 A 
ATOM     36  N   UNL     1      -5.307  -0.992  -8.084  1.00  0.00    -0.354 N 
ATOM     37  C   UNL     1      -6.311  -5.167  -7.530  1.00  0.00     0.074 A 
ATOM     38  C   UNL     1      -6.012  -5.591  -6.179  1.00  0.00     0.031 C 
ATOM     39  C   UNL     1      -4.578   1.029  -7.469  1.00  0.00     0.029 A 
ATOM     40  C   UNL     1      -5.077   0.259  -8.607  1.00  0.00     0.049 A 
ATOM     41  H   UNL     1      -5.703  -1.728  -8.604  1.00  0.00     0.167 HD
ATOM     42  C   UNL     1      -6.863  -5.962  -8.481  1.00  0.00     0.034 A 
ATOM     43  C   UNL     1      -5.223   0.722  -9.866  1.00  0.00     0.034 A 
ATOM     44  C   UNL     1      -7.146  -5.527  -9.828  1.00  0.00     0.049 A 
ATOM     45  C   UNL     1      -5.757  -0.205 -10.932  1.00  0.00     0.074 A 
ATOM     46  C   UNL     1      -7.725  -6.243 -10.862  1.00  0.00     0.029 A 
ATOM     47  N   UNL     1      -6.856  -4.266 -10.334  1.00  0.00    -0.354 N 
ATOM     48  N   UNL     1      -6.124  -1.462 -10.827  1.00  0.00    -0.248 NA
ATOM     49  C   UNL     1      -5.904   0.352 -12.284  1.00  0.00     0.031 C 
ATOM     50  C   UNL     1      -7.715  -5.442 -12.010  1.00  0.00     0.029 A 
ATOM     51  C   UNL     1      -7.206  -4.198 -11.675  1.00  0.00     0.049 A 
ATOM     52  H   UNL     1      -6.459  -3.529  -9.817  1.00  0.00     0.167 HD
ATOM     53  C   UNL     1      -6.571  -1.835 -12.093  1.00  0.00     0.074 A 
ATOM     54  C   UNL     1      -6.438  -0.668 -12.940  1.00  0.00     0.031 C 
ATOM     55  C   UNL     1      -7.054  -3.032 -12.514  1.00  0.00     0.034 A 
BRANCH  42  56
ATOM     56  C   UNL     1      -7.138  -7.399  -8.106  1.00  0.00     0.023 A 
ATOM     57  C   UNL     1      -8.070  -7.742  -7.110  1.00  0.00     0.031 A 
ATOM     58  C   UNL     1      -6.430  -8.441  -8.731  1.00  0.00     0.131 A 
ATOM     59  C   UNL     1      -8.213  -9.082  -6.718  1.00  0.00     0.055 A 
ATOM     60  C   UNL     1      -6.636  -9.780  -8.392  1.00  0.00     0.041 A 
ATOM     61  F   UNL     1      -5.512  -8.174  -9.673  1.00  0.00    -0.206 F 
ATOM     62  C   UNL     1      -7.520 -10.106  -7.368  1.00  0.00     0.022 A 
BRANCH  59  63
ATOM     63  S   UNL     1      -9.205  -9.454  -5.245  1.00  0.00     0.124 S 
ATOM     64  O   UNL     1      -8.534  -8.651  -4.226  1.00  0.00    -0.237 OA
ATOM     65  O   UNL     1     -10.535  -9.005  -5.639  1.00  0.00    -0.237 OA
ATOM     66  O   UNL     1      -9.055 -10.899  -5.086  1.00  0.00    -0.744 OA
ENDBRANCH  59  63
ENDBRANCH  42  56
BRANCH  43  67
ATOM     67  C   UNL     1      -4.808   2.113 -10.208  1.00  0.00     0.023 A 
ATOM     68  C   UNL     1      -5.738   3.068 -10.645  1.00  0.00     0.031 A 
ATOM     69  C   UNL     1      -3.454   2.490 -10.146  1.00  0.00     0.131 A 
ATOM     70  C   UNL     1      -5.297   4.342 -11.042  1.00  0.00     0.055 A 
ATOM     71  C   UNL     1      -3.027   3.773 -10.493  1.00  0.00     0.041 A 
ATOM     72  F   UNL     1      -2.523   1.613  -9.738  1.00  0.00    -0.206 F 
ATOM     73  C   UNL     1      -3.951   4.704 -10.956  1.00  0.00     0.022 A 
BRANCH  70  74
ATOM     74  S   UNL     1      -6.502   5.498 -11.750  1.00  0.00     0.124 S 
ATOM     75  O   UNL     1      -7.000   4.745 -12.895  1.00  0.00    -0.237 OA
ATOM     76  O   UNL     1      -7.437   5.677 -10.643  1.00  0.00    -0.237 OA
ATOM     77  O   UNL     1      -5.696   6.673 -12.077  1.00  0.00    -0.744 OA
ENDBRANCH  70  74
ENDBRANCH  43  67
BRANCH  55  78
ATOM     78  C   UNL     1      -7.517  -3.122 -13.949  1.00  0.00     0.023 A 
ATOM     79  C   UNL     1      -6.617  -3.044 -15.026  1.00  0.00     0.031 A 
ATOM     80  C   UNL     1      -8.883  -3.289 -14.240  1.00  0.00     0.131 A 
ATOM     81  C   UNL     1      -7.099  -3.084 -16.344  1.00  0.00     0.055 A 
ATOM     82  C   UNL     1      -9.350  -3.386 -15.551  1.00  0.00     0.041 A 
ATOM     83  F   UNL     1      -9.787  -3.368 -13.251  1.00  0.00    -0.206 F 
ATOM     84  C   UNL     1      -8.458  -3.272 -16.613  1.00  0.00     0.022 A 
BRANCH  81  85
ATOM     85  S   UNL     1      -5.936  -2.809 -17.709  1.00  0.00     0.124 S 
ATOM     86  O   UNL     1      -5.420  -1.479 -17.405  1.00  0.00    -0.237 OA
ATOM     87  O   UNL     1      -4.994  -3.912 -17.545  1.00  0.00    -0.237 OA
ATOM     88  O   UNL     1      -6.779  -2.889 -18.901  1.00  0.00    -0.744 OA
ENDBRANCH  81  85
ENDBRANCH  55  78
ENDBRANCH  29  30
ENDBRANCH  22  24
ENDBRANCH  21  22
ENDBRANCH  20  21
ENDBRANCH  19  20
ENDBRANCH   1  19
TORSDOF 20
