REMARK SMILES CCOC(=O)c1c(NC(=O)[C@@H]2[C@@H](C(=O)OCCOCCOC(=O)c3ccc(-c4c5nc(c(-c6cc(S(=O)(=O)[O-])ccc6F)c6ccc([nH]6)c(-c6cc(S(=O)(=O)[O-])ccc6F)c6nc(c(-c7cc(S(=O)(=O)[O-])ccc7F)c7ccc4[nH]7)C=C6)C=C5)cc3)[C@@H]3C=C[C@H]2CC3)sc2c1CCC2
REMARK SMILES IDX 17 1 16 2 15 3 13 4 14 5 12 6 11 7 90 8 87 9 89 10 91 11
REMARK SMILES IDX 88 12 92 13 9 14 8 15 10 17 7 18 6 19 95 20 93 21 94 22
REMARK SMILES IDX 96 23 98 24 97 25 4 26 5 27 3 28 2 29 1 30 18 31 19 32 20 33
REMARK SMILES IDX 21 34 22 35 23 36 24 37 25 38 86 39 26 40 85 41 27 42 28 43
REMARK SMILES IDX 29 44 79 45 30 46 84 47 78 48 80 49 31 50 83 51 77 52 76 53
REMARK SMILES IDX 32 55 64 56 44 57 63 58 45 59 48 60 62 61 81 62 46 63 47 64
REMARK SMILES IDX 61 66 82 67 49 68 33 69 34 70 42 71 35 72 41 73 43 74 40 75
REMARK SMILES IDX 36 76 37 77 38 78 39 79 65 80 66 81 74 82 67 83 73 84 75 85
REMARK SMILES IDX 72 86 68 87 69 88 70 89 71 90 50 91 51 92 59 93 52 94 58 95
REMARK SMILES IDX 60 96 57 97 53 98 54 99 55 100 56 101
REMARK H PARENT 8 16 80 54 48 65
REMARK Flexibility Score: inf
ROOT
ATOM      1  C   UNL     1       1.524  -6.568  -6.825  1.00  0.00     0.202 C 
ENDROOT
BRANCH   1   2
ATOM      2  C   UNL     1       1.487  -7.146  -5.394  1.00  0.00     0.261 C 
BRANCH   2   3
ATOM      3  O   UNL     1       2.348  -6.550  -4.398  1.00  0.00    -0.463 OA
BRANCH   3   4
ATOM      4  C   UNL     1       3.610  -7.057  -4.378  1.00  0.00     0.310 C 
ATOM      5  O   UNL     1       4.019  -7.832  -5.233  1.00  0.00    -0.252 OA
BRANCH   4   6
ATOM      6  C   UNL     1       4.403  -6.622  -3.139  1.00  0.00     0.119 C 
ATOM      7  C   UNL     1       5.231  -5.285  -3.277  1.00  0.00     0.100 C 
ATOM      8  C   UNL     1       6.743  -5.603  -3.015  1.00  0.00     0.025 C 
ATOM      9  C   UNL     1       5.368  -7.794  -2.765  1.00  0.00     0.026 C 
ATOM     10  C   UNL     1       6.870  -6.286  -1.658  1.00  0.00    -0.027 C 
ATOM     11  C   UNL     1       7.203  -6.629  -4.071  1.00  0.00     0.009 C 
ATOM     12  C   UNL     1       6.116  -7.389  -1.513  1.00  0.00    -0.027 C 
ATOM     13  C   UNL     1       6.485  -7.974  -3.832  1.00  0.00     0.009 C 
BRANCH   7  14
ATOM     14  C   UNL     1       4.826  -4.227  -2.239  1.00  0.00     0.229 C 
ATOM     15  N   UNL     1       4.817  -2.877  -2.416  1.00  0.00    -0.317 N 
ATOM     16  H   UNL     1       4.978  -2.373  -1.587  1.00  0.00     0.170 HD
ATOM     17  O   UNL     1       4.518  -4.583  -1.091  1.00  0.00    -0.274 OA
BRANCH  15  18
ATOM     18  C   UNL     1       4.629  -2.070  -3.523  1.00  0.00     0.110 A 
ATOM     19  C   UNL     1       3.928  -0.858  -3.505  1.00  0.00     0.098 A 
ATOM     20  C   UNL     1       3.549  -0.533  -4.841  1.00  0.00    -0.017 A 
ATOM     21  S   UNL     1       5.257  -2.420  -5.070  1.00  0.00    -0.122 S 
ATOM     22  C   UNL     1       4.242  -1.281  -5.759  1.00  0.00     0.011 A 
ATOM     23  C   UNL     1       2.610   0.391  -5.544  1.00  0.00     0.038 C 
ATOM     24  C   UNL     1       3.882  -0.987  -7.175  1.00  0.00     0.047 C 
ATOM     25  C   UNL     1       2.530  -0.243  -6.973  1.00  0.00     0.010 C 
BRANCH  19  26
ATOM     26  C   UNL     1       3.603  -0.201  -2.243  1.00  0.00     0.341 C 
ATOM     27  O   UNL     1       4.478   0.257  -1.519  1.00  0.00    -0.246 OA
BRANCH  26  28
ATOM     28  O   UNL     1       2.306  -0.348  -1.874  1.00  0.00    -0.462 OA
BRANCH  28  29
ATOM     29  C   UNL     1       1.933   0.234  -0.608  1.00  0.00     0.230 C 
ATOM     30  C   UNL     1       1.908  -0.797   0.497  1.00  0.00     0.049 C 
ENDBRANCH  28  29
ENDBRANCH  26  28
ENDBRANCH  19  26
ENDBRANCH  15  18
ENDBRANCH   7  14
ENDBRANCH   4   6
ENDBRANCH   3   4
ENDBRANCH   2   3
ENDBRANCH   1   2
BRANCH   1  31
ATOM     31  O   UNL     1       2.642  -5.817  -7.244  1.00  0.00    -0.374 OA
BRANCH  31  32
ATOM     32  C   UNL     1       3.050  -4.695  -6.490  1.00  0.00     0.202 C 
BRANCH  32  33
ATOM     33  C   UNL     1       2.106  -3.898  -5.570  1.00  0.00     0.261 C 
BRANCH  33  34
ATOM     34  O   UNL     1       0.762  -4.369  -5.472  1.00  0.00    -0.460 OA
BRANCH  34  35
ATOM     35  C   UNL     1      -0.173  -3.538  -5.988  1.00  0.00     0.338 C 
ATOM     36  O   UNL     1      -0.806  -3.796  -7.000  1.00  0.00    -0.246 OA
BRANCH  35  37
ATOM     37  C   UNL     1      -0.386  -2.326  -5.166  1.00  0.00     0.060 A 
ATOM     38  C   UNL     1      -0.964  -1.204  -5.767  1.00  0.00     0.016 A 
ATOM     39  C   UNL     1      -0.019  -2.294  -3.819  1.00  0.00     0.016 A 
ATOM     40  C   UNL     1      -1.108  -0.021  -5.041  1.00  0.00     0.010 A 
ATOM     41  C   UNL     1      -0.181  -1.118  -3.102  1.00  0.00     0.010 A 
ATOM     42  C   UNL     1      -0.678   0.041  -3.712  1.00  0.00    -0.014 A 
BRANCH  42  43
ATOM     43  C   UNL     1      -1.055   1.193  -2.885  1.00  0.00     0.031 A 
ATOM     44  C   UNL     1      -2.424   1.040  -2.337  1.00  0.00     0.074 A 
ATOM     45  C   UNL     1      -0.307   2.233  -2.453  1.00  0.00     0.049 A 
ATOM     46  N   UNL     1      -3.486   1.651  -2.743  1.00  0.00    -0.248 NA
ATOM     47  C   UNL     1      -2.681  -0.037  -1.370  1.00  0.00     0.031 C 
ATOM     48  C   UNL     1       1.122   2.482  -2.626  1.00  0.00     0.029 A 
ATOM     49  N   UNL     1      -0.680   3.241  -1.601  1.00  0.00    -0.354 N 
ATOM     50  C   UNL     1      -4.507   1.194  -1.923  1.00  0.00     0.074 A 
ATOM     51  C   UNL     1      -4.012  -0.006  -1.309  1.00  0.00     0.031 C 
ATOM     52  C   UNL     1       1.539   3.383  -1.701  1.00  0.00     0.029 A 
ATOM     53  C   UNL     1       0.383   3.905  -0.989  1.00  0.00     0.049 A 
ATOM     54  H   UNL     1      -1.621   3.477  -1.435  1.00  0.00     0.167 HD
ATOM     55  C   UNL     1      -5.571   1.980  -1.605  1.00  0.00     0.034 A 
ATOM     56  C   UNL     1       0.312   4.785   0.048  1.00  0.00     0.034 A 
ATOM     57  C   UNL     1      -5.640   3.145  -2.463  1.00  0.00     0.049 A 
ATOM     58  C   UNL     1      -1.042   5.382   0.016  1.00  0.00     0.074 A 
ATOM     59  C   UNL     1      -5.656   3.343  -3.833  1.00  0.00     0.029 A 
ATOM     60  N   UNL     1      -5.312   4.371  -1.927  1.00  0.00    -0.354 N 
ATOM     61  N   UNL     1      -1.458   6.144  -0.955  1.00  0.00    -0.248 NA
ATOM     62  C   UNL     1      -2.092   4.802   0.840  1.00  0.00     0.031 C 
ATOM     63  C   UNL     1      -4.846   4.497  -4.051  1.00  0.00     0.029 A 
ATOM     64  C   UNL     1      -4.442   4.975  -2.804  1.00  0.00     0.049 A 
ATOM     65  H   UNL     1      -5.638   4.745  -1.077  1.00  0.00     0.167 HD
ATOM     66  C   UNL     1      -2.774   5.769  -1.155  1.00  0.00     0.074 A 
ATOM     67  C   UNL     1      -3.149   5.051   0.061  1.00  0.00     0.031 C 
ATOM     68  C   UNL     1      -3.331   5.813  -2.400  1.00  0.00     0.034 A 
BRANCH  55  69
ATOM     69  C   UNL     1      -6.341   1.884  -0.307  1.00  0.00     0.023 A 
ATOM     70  C   UNL     1      -7.468   2.712  -0.171  1.00  0.00     0.031 A 
ATOM     71  C   UNL     1      -5.907   1.243   0.878  1.00  0.00     0.131 A 
ATOM     72  C   UNL     1      -8.048   2.943   1.087  1.00  0.00     0.055 A 
ATOM     73  C   UNL     1      -6.544   1.405   2.111  1.00  0.00     0.041 A 
ATOM     74  F   UNL     1      -4.791   0.509   0.946  1.00  0.00    -0.206 F 
ATOM     75  C   UNL     1      -7.602   2.285   2.229  1.00  0.00     0.022 A 
BRANCH  72  76
ATOM     76  S   UNL     1      -9.265   4.273   1.232  1.00  0.00     0.124 S 
ATOM     77  O   UNL     1      -8.548   5.391   0.626  1.00  0.00    -0.237 OA
ATOM     78  O   UNL     1     -10.386   3.736   0.468  1.00  0.00    -0.237 OA
ATOM     79  O   UNL     1      -9.481   4.378   2.672  1.00  0.00    -0.744 OA
ENDBRANCH  72  76
ENDBRANCH  55  69
BRANCH  56  80
ATOM     80  C   UNL     1       1.236   4.975   1.200  1.00  0.00     0.023 A 
ATOM     81  C   UNL     1       1.255   6.152   1.980  1.00  0.00     0.031 A 
ATOM     82  C   UNL     1       1.925   3.862   1.725  1.00  0.00     0.131 A 
ATOM     83  C   UNL     1       1.944   6.181   3.216  1.00  0.00     0.055 A 
ATOM     84  C   UNL     1       2.613   3.896   2.941  1.00  0.00     0.041 A 
ATOM     85  F   UNL     1       1.855   2.667   1.121  1.00  0.00    -0.206 F 
ATOM     86  C   UNL     1       2.618   5.056   3.698  1.00  0.00     0.022 A 
BRANCH  83  87
ATOM     87  S   UNL     1       1.862   7.655   4.287  1.00  0.00     0.124 S 
ATOM     88  O   UNL     1       2.727   8.596   3.584  1.00  0.00    -0.237 OA
ATOM     89  O   UNL     1       0.436   7.962   4.292  1.00  0.00    -0.237 OA
ATOM     90  O   UNL     1       2.386   7.176   5.567  1.00  0.00    -0.744 OA
ENDBRANCH  83  87
ENDBRANCH  56  80
BRANCH  68  91
ATOM     91  C   UNL     1      -2.598   6.569  -3.492  1.00  0.00     0.023 A 
ATOM     92  C   UNL     1      -1.271   6.303  -3.902  1.00  0.00     0.031 A 
ATOM     93  C   UNL     1      -3.323   7.525  -4.223  1.00  0.00     0.131 A 
ATOM     94  C   UNL     1      -0.714   6.993  -4.996  1.00  0.00     0.055 A 
ATOM     95  C   UNL     1      -2.775   8.195  -5.317  1.00  0.00     0.041 A 
ATOM     96  F   UNL     1      -4.599   7.802  -3.905  1.00  0.00    -0.206 F 
ATOM     97  C   UNL     1      -1.464   7.936  -5.704  1.00  0.00     0.022 A 
BRANCH  94  98
ATOM     98  S   UNL     1       1.004   6.670  -5.512  1.00  0.00     0.124 S 
ATOM     99  O   UNL     1       1.760   6.763  -4.269  1.00  0.00    -0.237 OA
ATOM    100  O   UNL     1       0.913   5.336  -6.103  1.00  0.00    -0.237 OA
ATOM    101  O   UNL     1       1.277   7.740  -6.473  1.00  0.00    -0.744 OA
ENDBRANCH  94  98
ENDBRANCH  68  91
ENDBRANCH  42  43
ENDBRANCH  35  37
ENDBRANCH  34  35
ENDBRANCH  33  34
ENDBRANCH  32  33
ENDBRANCH  31  32
ENDBRANCH   1  31
TORSDOF 22
