REMARK SMILES Cc1ccc2c(c1)c(-c1ccnc3c(C)cccc13)c(C)n2CC(=O)OCCOCCOC(=O)c1ccc(-c2c3nc(c(-c4cc(S(=O)(=O)[O-])ccc4F)c4ccc([nH]4)c(-c4cc(S(=O)(=O)[O-])ccc4F)c4nc(c(-c5cc(S(=O)(=O)[O-])ccc5F)c5ccc2[nH]5)C=C4)C=C3)cc1
REMARK SMILES IDX 30 1 29 2 28 3 27 4 26 5 24 6 25 7 23 8 22 9 1 10 2 11 3 12
REMARK SMILES IDX 7 13 4 14 6 15 5 16 8 17 20 18 21 19 9 20 10 21 19 22 11 23
REMARK SMILES IDX 13 24 18 25 12 26 14 27 17 28 15 29 16 30 31 31 32 32 33 33
REMARK SMILES IDX 34 34 35 35 36 36 97 37 37 38 96 39 38 40 39 41 40 42 90 43
REMARK SMILES IDX 41 44 95 45 89 46 91 47 42 48 94 49 88 50 87 51 43 53 75 54
REMARK SMILES IDX 55 55 74 56 56 57 59 58 73 59 92 60 57 61 58 62 72 64 93 65
REMARK SMILES IDX 60 66 44 67 45 68 53 69 46 70 52 71 54 72 51 73 47 74 48 75
REMARK SMILES IDX 49 76 50 77 76 78 77 79 85 80 78 81 84 82 86 83 83 84 79 85
REMARK SMILES IDX 80 86 81 87 82 88 61 89 62 90 70 91 63 92 69 93 71 94 68 95
REMARK SMILES IDX 64 96 65 97 66 98 67 99
REMARK H PARENT 91 52 59 63
REMARK Flexibility Score: inf
ROOT
ATOM      1  C   UNL     1      -2.878   3.344  -7.591  1.00  0.00     0.202 C 
ENDROOT
BRANCH   1   2
ATOM      2  O   UNL     1      -4.008   2.788  -8.246  1.00  0.00    -0.374 OA
BRANCH   2   3
ATOM      3  C   UNL     1      -4.870   1.936  -7.500  1.00  0.00     0.202 C 
BRANCH   3   4
ATOM      4  C   UNL     1      -4.339   0.633  -6.875  1.00  0.00     0.261 C 
BRANCH   4   5
ATOM      5  O   UNL     1      -3.028   0.725  -6.278  1.00  0.00    -0.462 OA
BRANCH   5   6
ATOM      6  C   UNL     1      -2.049   0.073  -6.958  1.00  0.00     0.326 C 
ATOM      7  O   UNL     1      -2.238  -0.583  -7.982  1.00  0.00    -0.250 OA
BRANCH   6   8
ATOM      8  C   UNL     1      -0.651   0.216  -6.417  1.00  0.00     0.244 C 
BRANCH   8   9
ATOM      9  N   UNL     1      -0.409   1.094  -5.269  1.00  0.00    -0.333 N 
ATOM     10  C   UNL     1       0.914  -0.126   0.087  1.00  0.00     0.044 C 
ATOM     11  C   UNL     1       0.422   0.143  -1.303  1.00  0.00    -0.050 A 
ATOM     12  C   UNL     1      -0.021  -0.902  -2.116  1.00  0.00     0.005 A 
ATOM     13  C   UNL     1       0.478   1.444  -1.823  1.00  0.00     0.014 A 
ATOM     14  C   UNL     1      -0.390  -0.684  -3.448  1.00  0.00     0.027 A 
ATOM     15  C   UNL     1       0.156   1.681  -3.176  1.00  0.00     0.008 A 
ATOM     16  C   UNL     1      -0.253   0.611  -3.974  1.00  0.00     0.049 A 
ATOM     17  C   UNL     1       0.191   2.838  -4.003  1.00  0.00     0.011 A 
ATOM     18  C   UNL     1       0.047   2.408  -5.318  1.00  0.00     0.024 A 
ATOM     19  C   UNL     1       0.366   3.152  -6.574  1.00  0.00     0.065 C 
BRANCH  17  20
ATOM     20  C   UNL     1       0.522   4.212  -3.630  1.00  0.00    -0.005 A 
ATOM     21  C   UNL     1       1.849   4.623  -3.703  1.00  0.00     0.029 A 
ATOM     22  C   UNL     1      -0.480   5.133  -3.224  1.00  0.00     0.008 A 
ATOM     23  C   UNL     1       2.126   5.945  -3.437  1.00  0.00     0.112 A 
ATOM     24  C   UNL     1      -0.100   6.485  -3.039  1.00  0.00     0.074 A 
ATOM     25  C   UNL     1      -1.823   4.761  -2.993  1.00  0.00     0.011 A 
ATOM     26  N   UNL     1       1.189   6.871  -3.146  1.00  0.00    -0.256 NA
ATOM     27  C   UNL     1      -1.096   7.431  -2.743  1.00  0.00    -0.025 A 
ATOM     28  C   UNL     1      -2.779   5.703  -2.632  1.00  0.00     0.001 A 
ATOM     29  C   UNL     1      -0.797   8.903  -2.638  1.00  0.00     0.047 C 
ATOM     30  C   UNL     1      -2.429   7.038  -2.555  1.00  0.00     0.005 A 
ENDBRANCH  17  20
ENDBRANCH   8   9
ENDBRANCH   6   8
ENDBRANCH   5   6
ENDBRANCH   4   5
ENDBRANCH   3   4
ENDBRANCH   2   3
ENDBRANCH   1   2
BRANCH   1  31
ATOM     31  C   UNL     1      -3.060   4.264  -6.376  1.00  0.00     0.261 C 
BRANCH  31  32
ATOM     32  O   UNL     1      -3.911   3.711  -5.379  1.00  0.00    -0.460 OA
BRANCH  32  33
ATOM     33  C   UNL     1      -4.820   4.583  -4.874  1.00  0.00     0.338 C 
ATOM     34  O   UNL     1      -4.797   5.805  -4.920  1.00  0.00    -0.246 OA
BRANCH  33  35
ATOM     35  C   UNL     1      -6.021   3.792  -4.607  1.00  0.00     0.060 A 
ATOM     36  C   UNL     1      -5.929   2.526  -4.017  1.00  0.00     0.016 A 
ATOM     37  C   UNL     1      -7.146   4.199  -5.334  1.00  0.00     0.016 A 
ATOM     38  C   UNL     1      -6.917   1.601  -4.305  1.00  0.00     0.010 A 
ATOM     39  C   UNL     1      -8.115   3.268  -5.635  1.00  0.00     0.010 A 
ATOM     40  C   UNL     1      -7.954   1.958  -5.181  1.00  0.00    -0.014 A 
BRANCH  40  41
ATOM     41  C   UNL     1      -8.945   0.949  -5.520  1.00  0.00     0.031 A 
ATOM     42  C   UNL     1      -9.827   0.598  -4.379  1.00  0.00     0.074 A 
ATOM     43  C   UNL     1      -9.174   0.515  -6.775  1.00  0.00     0.049 A 
ATOM     44  N   UNL     1      -9.961  -0.538  -3.777  1.00  0.00    -0.248 NA
ATOM     45  C   UNL     1     -10.524   1.718  -3.724  1.00  0.00     0.031 C 
ATOM     46  C   UNL     1      -8.645   1.046  -8.033  1.00  0.00     0.029 A 
ATOM     47  N   UNL     1     -10.051  -0.433  -7.196  1.00  0.00    -0.354 N 
ATOM     48  C   UNL     1     -10.903  -0.316  -2.774  1.00  0.00     0.074 A 
ATOM     49  C   UNL     1     -11.060   1.112  -2.669  1.00  0.00     0.031 C 
ATOM     50  C   UNL     1      -9.386   0.578  -9.062  1.00  0.00     0.029 A 
ATOM     51  C   UNL     1     -10.367  -0.359  -8.544  1.00  0.00     0.049 A 
ATOM     52  H   UNL     1     -10.429  -1.115  -6.595  1.00  0.00     0.167 HD
ATOM     53  C   UNL     1     -11.653  -1.319  -2.236  1.00  0.00     0.034 A 
ATOM     54  C   UNL     1     -11.456  -0.906  -9.143  1.00  0.00     0.034 A 
ATOM     55  C   UNL     1     -11.114  -2.612  -2.546  1.00  0.00     0.049 A 
ATOM     56  C   UNL     1     -11.998  -1.950  -8.233  1.00  0.00     0.074 A 
ATOM     57  C   UNL     1      -9.929  -3.258  -2.256  1.00  0.00     0.029 A 
ATOM     58  N   UNL     1     -11.677  -3.313  -3.586  1.00  0.00    -0.354 N 
ATOM     59  N   UNL     1     -11.378  -3.062  -7.948  1.00  0.00    -0.248 NA
ATOM     60  C   UNL     1     -13.006  -1.530  -7.268  1.00  0.00     0.031 C 
ATOM     61  C   UNL     1      -9.609  -3.982  -3.439  1.00  0.00     0.029 A 
ATOM     62  C   UNL     1     -10.642  -3.781  -4.357  1.00  0.00     0.049 A 
ATOM     63  H   UNL     1     -12.638  -3.451  -3.748  1.00  0.00     0.167 HD
ATOM     64  C   UNL     1     -11.590  -3.244  -6.588  1.00  0.00     0.074 A 
ATOM     65  C   UNL     1     -12.660  -2.308  -6.240  1.00  0.00     0.031 C 
ATOM     66  C   UNL     1     -10.695  -3.911  -5.800  1.00  0.00     0.034 A 
BRANCH  53  67
ATOM     67  C   UNL     1     -13.044  -1.112  -1.696  1.00  0.00     0.023 A 
ATOM     68  C   UNL     1     -13.810   0.032  -1.994  1.00  0.00     0.031 A 
ATOM     69  C   UNL     1     -13.725  -2.153  -1.038  1.00  0.00     0.131 A 
ATOM     70  C   UNL     1     -15.151   0.142  -1.615  1.00  0.00     0.055 A 
ATOM     71  C   UNL     1     -15.088  -2.076  -0.726  1.00  0.00     0.041 A 
ATOM     72  F   UNL     1     -13.097  -3.298  -0.724  1.00  0.00    -0.206 F 
ATOM     73  C   UNL     1     -15.809  -0.921  -1.009  1.00  0.00     0.022 A 
BRANCH  70  74
ATOM     74  S   UNL     1     -16.056   1.686  -1.907  1.00  0.00     0.124 S 
ATOM     75  O   UNL     1     -17.092   1.253  -2.838  1.00  0.00    -0.237 OA
ATOM     76  O   UNL     1     -16.513   2.021  -0.560  1.00  0.00    -0.237 OA
ATOM     77  O   UNL     1     -15.038   2.579  -2.451  1.00  0.00    -0.744 OA
ENDBRANCH  70  74
ENDBRANCH  53  67
BRANCH  54  78
ATOM     78  C   UNL     1     -12.324  -0.177 -10.107  1.00  0.00     0.023 A 
ATOM     79  C   UNL     1     -12.402   1.229 -10.049  1.00  0.00     0.031 A 
ATOM     80  C   UNL     1     -13.286  -0.839 -10.885  1.00  0.00     0.131 A 
ATOM     81  C   UNL     1     -13.417   1.925 -10.715  1.00  0.00     0.055 A 
ATOM     82  C   UNL     1     -14.296  -0.141 -11.564  1.00  0.00     0.041 A 
ATOM     83  F   UNL     1     -13.301  -2.179 -10.953  1.00  0.00    -0.206 F 
ATOM     84  C   UNL     1     -14.372   1.247 -11.472  1.00  0.00     0.022 A 
BRANCH  81  85
ATOM     85  S   UNL     1     -13.552   3.725 -10.540  1.00  0.00     0.124 S 
ATOM     86  O   UNL     1     -13.733   4.157 -11.924  1.00  0.00    -0.237 OA
ATOM     87  O   UNL     1     -14.723   3.854  -9.682  1.00  0.00    -0.237 OA
ATOM     88  O   UNL     1     -12.277   4.107  -9.938  1.00  0.00    -0.744 OA
ENDBRANCH  81  85
ENDBRANCH  54  78
BRANCH  66  89
ATOM     89  C   UNL     1      -9.517  -4.614  -6.442  1.00  0.00     0.023 A 
ATOM     90  C   UNL     1      -9.238  -5.925  -6.019  1.00  0.00     0.031 A 
ATOM     91  C   UNL     1      -8.540  -3.967  -7.224  1.00  0.00     0.131 A 
ATOM     92  C   UNL     1      -8.010  -6.523  -6.329  1.00  0.00     0.055 A 
ATOM     93  C   UNL     1      -7.344  -4.593  -7.591  1.00  0.00     0.041 A 
ATOM     94  F   UNL     1      -8.662  -2.682  -7.574  1.00  0.00    -0.206 F 
ATOM     95  C   UNL     1      -7.066  -5.872  -7.127  1.00  0.00     0.022 A 
BRANCH  92  96
ATOM     96  S   UNL     1      -7.539  -8.092  -5.558  1.00  0.00     0.124 S 
ATOM     97  O   UNL     1      -7.409  -8.976  -6.713  1.00  0.00    -0.237 OA
ATOM     98  O   UNL     1      -6.285  -7.745  -4.891  1.00  0.00    -0.237 OA
ATOM     99  O   UNL     1      -8.650  -8.394  -4.661  1.00  0.00    -0.744 OA
ENDBRANCH  92  96
ENDBRANCH  66  89
ENDBRANCH  40  41
ENDBRANCH  33  35
ENDBRANCH  32  33
ENDBRANCH  31  32
ENDBRANCH   1  31
TORSDOF 19
