REMARK SMILES COc1ccc(-c2[nH]nc3nc(-c4ccc(C(F)(F)F)cc4)cc(C(=O)OCCOCCOC(=O)c4ccc(-c5c6nc(c(-c7cc(S(=O)(=O)[O-])ccc7F)c7ccc([nH]7)c(-c7cc(S(=O)(=O)[O-])ccc7F)c7nc(c(-c8cc(S(=O)(=O)[O-])ccc8F)c8ccc5[nH]8)C=C7)C=C6)cc4)c23)cc1
REMARK SMILES IDX 31 1 30 2 29 3 28 4 27 5 25 6 26 7 24 8 7 9 8 10 99 11 9 12
REMARK SMILES IDX 10 14 11 15 23 16 12 17 6 18 3 19 4 20 101 21 5 22 100 23
REMARK SMILES IDX 2 24 1 25 13 26 14 27 22 28 15 29 21 30 16 31 17 32 18 33
REMARK SMILES IDX 19 34 20 35 32 36 33 37 34 38 35 39 36 40 37 41 98 42 38 43
REMARK SMILES IDX 97 44 39 45 40 46 41 47 91 48 42 49 96 50 90 51 92 52 43 53
REMARK SMILES IDX 95 54 89 55 88 56 44 58 76 59 56 60 75 61 57 62 60 63 74 64
REMARK SMILES IDX 93 65 58 66 59 67 73 69 94 70 61 71 45 72 46 73 54 74 47 75
REMARK SMILES IDX 53 76 55 77 52 78 48 79 49 80 50 81 51 82 77 83 78 84 86 85
REMARK SMILES IDX 79 86 85 87 87 88 84 89 80 90 81 91 82 92 83 93 62 94 63 95
REMARK SMILES IDX 71 96 64 97 70 98 72 99 69 100 65 101 66 102 67 103 68 104
REMARK H PARENT 8 13 92 57 60 68
REMARK Flexibility Score: inf
ROOT
ATOM      1  C   UNL     1       4.373   3.980   1.403  1.00  0.00     0.202 C 
ENDROOT
BRANCH   1   2
ATOM      2  O   UNL     1       3.805   4.031   0.097  1.00  0.00    -0.374 OA
BRANCH   2   3
ATOM      3  C   UNL     1       4.255   5.135  -0.691  1.00  0.00     0.202 C 
BRANCH   3   4
ATOM      4  C   UNL     1       3.536   6.439  -0.341  1.00  0.00     0.261 C 
BRANCH   4   5
ATOM      5  O   UNL     1       3.772   6.779   1.040  1.00  0.00    -0.460 OA
BRANCH   5   6
ATOM      6  C   UNL     1       2.737   6.564   1.896  1.00  0.00     0.339 C 
ATOM      7  O   UNL     1       1.573   6.383   1.597  1.00  0.00    -0.246 OA
BRANCH   6   8
ATOM      8  C   UNL     1       3.248   6.587   3.276  1.00  0.00     0.075 A 
ATOM      9  C   UNL     1       1.888   4.785   4.455  1.00  0.00     0.075 A 
ATOM     10  N   UNL     1       1.743   4.561   5.806  1.00  0.00    -0.275 N 
ATOM     11  C   UNL     1       2.741   5.881   4.380  1.00  0.00     0.061 A 
ATOM     12  N   UNL     1       2.519   5.316   6.593  1.00  0.00    -0.154 NA
ATOM     13  H   UNL     1       1.115   3.894   6.166  1.00  0.00     0.190 HD
ATOM     14  C   UNL     1       3.179   6.090   5.733  1.00  0.00     0.182 A 
ATOM     15  N   UNL     1       4.158   6.966   6.063  1.00  0.00    -0.226 NA
ATOM     16  C   UNL     1       4.293   7.455   3.651  1.00  0.00     0.045 A 
ATOM     17  C   UNL     1       4.703   7.618   4.998  1.00  0.00     0.074 A 
BRANCH   9  18
ATOM     18  C   UNL     1       1.346   3.809   3.510  1.00  0.00     0.001 A 
ATOM     19  C   UNL     1       0.484   1.933   1.584  1.00  0.00     0.118 A 
ATOM     20  C   UNL     1      -0.223   3.120   1.800  1.00  0.00     0.047 A 
ATOM     21  C   UNL     1       1.587   1.651   2.384  1.00  0.00     0.047 A 
ATOM     22  C   UNL     1       0.203   4.054   2.755  1.00  0.00     0.014 A 
ATOM     23  C   UNL     1       1.996   2.572   3.358  1.00  0.00     0.014 A 
BRANCH  19  24
ATOM     24  O   UNL     1      -0.000   1.142   0.579  1.00  0.00    -0.497 OA
ATOM     25  C   UNL     1       0.823   0.056   0.165  1.00  0.00     0.278 C 
ENDBRANCH  19  24
ENDBRANCH   9  18
BRANCH  17  26
ATOM     26  C   UNL     1       5.758   8.596   5.351  1.00  0.00     0.000 A 
ATOM     27  C   UNL     1       6.742   8.300   6.311  1.00  0.00     0.011 A 
ATOM     28  C   UNL     1       5.794   9.872   4.760  1.00  0.00     0.011 A 
ATOM     29  C   UNL     1       7.718   9.242   6.668  1.00  0.00     0.014 A 
ATOM     30  C   UNL     1       6.763  10.816   5.116  1.00  0.00     0.014 A 
ATOM     31  C   UNL     1       7.732  10.514   6.079  1.00  0.00     0.056 A 
BRANCH  31  32
ATOM     32  C   UNL     1       8.758  11.540   6.496  1.00  0.00     0.416 C 
ATOM     33  F   UNL     1       8.673  11.855   7.818  1.00  0.00    -0.166 F 
ATOM     34  F   UNL     1      10.037  11.126   6.288  1.00  0.00    -0.166 F 
ATOM     35  F   UNL     1       8.638  12.725   5.829  1.00  0.00    -0.166 F 
ENDBRANCH  31  32
ENDBRANCH  17  26
ENDBRANCH   6   8
ENDBRANCH   5   6
ENDBRANCH   4   5
ENDBRANCH   3   4
ENDBRANCH   2   3
ENDBRANCH   1   2
BRANCH   1  36
ATOM     36  C   UNL     1       5.113   2.681   1.663  1.00  0.00     0.261 C 
BRANCH  36  37
ATOM     37  O   UNL     1       6.473   2.893   1.325  1.00  0.00    -0.460 OA
BRANCH  37  38
ATOM     38  C   UNL     1       6.735   3.066   0.002  1.00  0.00     0.338 C 
ATOM     39  O   UNL     1       6.083   2.747  -0.948  1.00  0.00    -0.246 OA
BRANCH  38  40
ATOM     40  C   UNL     1       8.068   3.682  -0.019  1.00  0.00     0.060 A 
ATOM     41  C   UNL     1       8.929   3.194  -0.992  1.00  0.00     0.016 A 
ATOM     42  C   UNL     1       8.503   4.419   1.096  1.00  0.00     0.016 A 
ATOM     43  C   UNL     1      10.267   3.180  -0.686  1.00  0.00     0.010 A 
ATOM     44  C   UNL     1       9.834   4.374   1.413  1.00  0.00     0.010 A 
ATOM     45  C   UNL     1      10.676   3.663   0.564  1.00  0.00    -0.014 A 
BRANCH  45  46
ATOM     46  C   UNL     1      12.063   3.501   0.924  1.00  0.00     0.031 A 
ATOM     47  C   UNL     1      12.903   4.523   0.281  1.00  0.00     0.074 A 
ATOM     48  C   UNL     1      12.493   2.583   1.807  1.00  0.00     0.049 A 
ATOM     49  N   UNL     1      13.620   4.389  -0.783  1.00  0.00    -0.248 NA
ATOM     50  C   UNL     1      12.698   5.920   0.699  1.00  0.00     0.031 C 
ATOM     51  C   UNL     1      11.701   1.735   2.700  1.00  0.00     0.029 A 
ATOM     52  N   UNL     1      13.770   2.285   2.154  1.00  0.00    -0.354 N 
ATOM     53  C   UNL     1      14.181   5.641  -0.985  1.00  0.00     0.074 A 
ATOM     54  C   UNL     1      13.345   6.563  -0.272  1.00  0.00     0.031 C 
ATOM     55  C   UNL     1      12.519   1.190   3.633  1.00  0.00     0.029 A 
ATOM     56  C   UNL     1      13.896   1.548   3.325  1.00  0.00     0.049 A 
ATOM     57  H   UNL     1      14.546   2.569   1.619  1.00  0.00     0.167 HD
ATOM     58  C   UNL     1      15.465   5.764  -1.413  1.00  0.00     0.034 A 
ATOM     59  C   UNL     1      15.047   1.330   4.019  1.00  0.00     0.034 A 
ATOM     60  C   UNL     1      15.929   4.521  -2.001  1.00  0.00     0.049 A 
ATOM     61  C   UNL     1      16.173   1.582   3.079  1.00  0.00     0.074 A 
ATOM     62  C   UNL     1      15.481   3.720  -3.035  1.00  0.00     0.029 A 
ATOM     63  N   UNL     1      16.768   3.723  -1.252  1.00  0.00    -0.354 N 
ATOM     64  N   UNL     1      16.411   0.837   2.033  1.00  0.00    -0.248 NA
ATOM     65  C   UNL     1      16.713   2.934   3.001  1.00  0.00     0.031 C 
ATOM     66  C   UNL     1      15.681   2.382  -2.584  1.00  0.00     0.029 A 
ATOM     67  C   UNL     1      16.317   2.427  -1.341  1.00  0.00     0.049 A 
ATOM     68  H   UNL     1      17.553   4.028  -0.742  1.00  0.00     0.167 HD
ATOM     69  C   UNL     1      16.733   1.726   1.017  1.00  0.00     0.074 A 
ATOM     70  C   UNL     1      16.999   2.993   1.696  1.00  0.00     0.031 C 
ATOM     71  C   UNL     1      16.468   1.432  -0.292  1.00  0.00     0.034 A 
BRANCH  58  72
ATOM     72  C   UNL     1      16.413   6.841  -0.922  1.00  0.00     0.023 A 
ATOM     73  C   UNL     1      17.721   6.801  -1.430  1.00  0.00     0.031 A 
ATOM     74  C   UNL     1      16.215   7.708   0.181  1.00  0.00     0.131 A 
ATOM     75  C   UNL     1      18.767   7.483  -0.786  1.00  0.00     0.055 A 
ATOM     76  C   UNL     1      17.247   8.435   0.778  1.00  0.00     0.041 A 
ATOM     77  F   UNL     1      15.046   7.854   0.811  1.00  0.00    -0.206 F 
ATOM     78  C   UNL     1      18.541   8.297   0.318  1.00  0.00     0.022 A 
BRANCH  75  79
ATOM     79  S   UNL     1      20.459   7.136  -1.316  1.00  0.00     0.124 S 
ATOM     80  O   UNL     1      20.500   5.681  -1.220  1.00  0.00    -0.237 OA
ATOM     81  O   UNL     1      20.468   7.696  -2.663  1.00  0.00    -0.237 OA
ATOM     82  O   UNL     1      21.272   7.851  -0.336  1.00  0.00    -0.744 OA
ENDBRANCH  75  79
ENDBRANCH  58  72
BRANCH  59  83
ATOM     83  C   UNL     1      15.203   1.298   5.502  1.00  0.00     0.023 A 
ATOM     84  C   UNL     1      16.299   0.690   6.155  1.00  0.00     0.031 A 
ATOM     85  C   UNL     1      14.355   2.095   6.304  1.00  0.00     0.131 A 
ATOM     86  C   UNL     1      16.500   0.888   7.544  1.00  0.00     0.055 A 
ATOM     87  C   UNL     1      14.555   2.283   7.673  1.00  0.00     0.041 A 
ATOM     88  F   UNL     1      13.343   2.793   5.764  1.00  0.00    -0.206 F 
ATOM     89  C   UNL     1      15.635   1.685   8.299  1.00  0.00     0.022 A 
BRANCH  86  90
ATOM     90  S   UNL     1      17.946   0.164   8.389  1.00  0.00     0.124 S 
ATOM     91  O   UNL     1      17.709  -1.268   8.244  1.00  0.00    -0.237 OA
ATOM     92  O   UNL     1      19.061   0.719   7.631  1.00  0.00    -0.237 OA
ATOM     93  O   UNL     1      17.829   0.667   9.759  1.00  0.00    -0.744 OA
ENDBRANCH  86  90
ENDBRANCH  59  83
BRANCH  71  94
ATOM     94  C   UNL     1      16.114  -0.001  -0.649  1.00  0.00     0.023 A 
ATOM     95  C   UNL     1      15.024  -0.730  -0.118  1.00  0.00     0.031 A 
ATOM     96  C   UNL     1      16.865  -0.609  -1.670  1.00  0.00     0.131 A 
ATOM     97  C   UNL     1      14.732  -2.020  -0.608  1.00  0.00     0.055 A 
ATOM     98  C   UNL     1      16.560  -1.875  -2.167  1.00  0.00     0.041 A 
ATOM     99  F   UNL     1      17.898   0.040  -2.234  1.00  0.00    -0.206 F 
ATOM    100  C   UNL     1      15.495  -2.589  -1.633  1.00  0.00     0.022 A 
BRANCH  97 101
ATOM    101  S   UNL     1      13.359  -2.997   0.089  1.00  0.00     0.124 S 
ATOM    102  O   UNL     1      13.548  -2.875   1.529  1.00  0.00    -0.237 OA
ATOM    103  O   UNL     1      12.184  -2.326  -0.461  1.00  0.00    -0.237 OA
ATOM    104  O   UNL     1      13.593  -4.341  -0.444  1.00  0.00    -0.744 OA
ENDBRANCH  97 101
ENDBRANCH  71  94
ENDBRANCH  45  46
ENDBRANCH  38  40
ENDBRANCH  37  38
ENDBRANCH  36  37
ENDBRANCH   1  36
TORSDOF 21
