REMARK SMILES CC(C)(C(=O)OCCOCCOC(=O)c1ccc(-c2c3nc(c(-c4cc(S(=O)(=O)[O-])ccc4F)c4ccc([nH]4)c(-c4cc(S(=O)(=O)[O-])ccc4F)c4nc(c(-c5cc(S(=O)(=O)[O-])ccc5F)c5ccc2[nH]5)C=C4)C=C3)cc1)n1cccc1
REMARK SMILES IDX 10 1 9 2 8 3 7 4 6 5 4 6 5 7 2 8 1 9 3 10 78 11 79 12 82 13
REMARK SMILES IDX 80 14 81 15 11 16 12 17 13 18 14 19 15 20 16 21 77 22 17 23
REMARK SMILES IDX 76 24 18 25 19 26 20 27 70 28 21 29 75 30 69 31 71 32 22 33
REMARK SMILES IDX 74 34 68 35 67 36 23 38 55 39 35 40 54 41 36 42 39 43 53 44
REMARK SMILES IDX 72 45 37 46 38 47 52 49 73 50 40 51 24 52 25 53 33 54 26 55
REMARK SMILES IDX 32 56 34 57 31 58 27 59 28 60 29 61 30 62 56 63 57 64 65 65
REMARK SMILES IDX 58 66 64 67 66 68 63 69 59 70 60 71 61 72 62 73 41 74 42 75
REMARK SMILES IDX 50 76 43 77 49 78 51 79 48 80 44 81 45 82 46 83 47 84
REMARK H PARENT 71 37 39 48
REMARK Flexibility Score: inf
ROOT
ATOM      1  C   UNL     1      -2.384  -1.778  -0.043  1.00  0.00     0.202 C 
ENDROOT
BRANCH   1   2
ATOM      2  O   UNL     1      -3.592  -1.395   0.607  1.00  0.00    -0.374 OA
BRANCH   2   3
ATOM      3  C   UNL     1      -3.801   0.003   0.821  1.00  0.00     0.202 C 
BRANCH   3   4
ATOM      4  C   UNL     1      -2.976   0.653   1.935  1.00  0.00     0.261 C 
BRANCH   4   5
ATOM      5  O   UNL     1      -1.575   0.683   1.595  1.00  0.00    -0.461 OA
BRANCH   5   6
ATOM      6  C   UNL     1      -0.736   0.061   2.471  1.00  0.00     0.331 C 
ATOM      7  O   UNL     1      -1.092  -0.385   3.557  1.00  0.00    -0.249 OA
BRANCH   6   8
ATOM      8  C   UNL     1       0.722   0.025   1.972  1.00  0.00     0.136 C 
ATOM      9  C   UNL     1       0.891   0.315   0.463  1.00  0.00     0.047 C 
ATOM     10  C   UNL     1       1.439   1.170   2.719  1.00  0.00     0.047 C 
BRANCH   8  11
ATOM     11  N   UNL     1       1.277  -1.311   2.293  1.00  0.00    -0.338 N 
ATOM     12  C   UNL     1       2.067  -1.636   3.372  1.00  0.00     0.087 A 
ATOM     13  C   UNL     1       0.982  -2.478   1.617  1.00  0.00     0.087 A 
ATOM     14  C   UNL     1       2.221  -3.004   3.409  1.00  0.00     0.019 A 
ATOM     15  C   UNL     1       1.532  -3.538   2.302  1.00  0.00     0.019 A 
ENDBRANCH   8  11
ENDBRANCH   6   8
ENDBRANCH   5   6
ENDBRANCH   4   5
ENDBRANCH   3   4
ENDBRANCH   2   3
ENDBRANCH   1   2
BRANCH   1  16
ATOM     16  C   UNL     1      -2.330  -1.621  -1.569  1.00  0.00     0.261 C 
BRANCH  16  17
ATOM     17  O   UNL     1      -2.539  -0.264  -1.994  1.00  0.00    -0.460 OA
BRANCH  17  18
ATOM     18  C   UNL     1      -3.728  -0.048  -2.609  1.00  0.00     0.338 C 
ATOM     19  O   UNL     1      -4.558  -0.893  -2.921  1.00  0.00    -0.246 OA
BRANCH  18  20
ATOM     20  C   UNL     1      -4.000   1.397  -2.694  1.00  0.00     0.060 A 
ATOM     21  C   UNL     1      -5.188   1.862  -2.115  1.00  0.00     0.016 A 
ATOM     22  C   UNL     1      -3.147   2.276  -3.364  1.00  0.00     0.016 A 
ATOM     23  C   UNL     1      -5.544   3.204  -2.231  1.00  0.00     0.010 A 
ATOM     24  C   UNL     1      -3.513   3.622  -3.491  1.00  0.00     0.010 A 
ATOM     25  C   UNL     1      -4.724   4.087  -2.946  1.00  0.00    -0.014 A 
BRANCH  25  26
ATOM     26  C   UNL     1      -5.200   5.467  -3.214  1.00  0.00     0.031 A 
ATOM     27  C   UNL     1      -5.825   5.780  -4.546  1.00  0.00     0.074 A 
ATOM     28  C   UNL     1      -5.110   6.416  -2.264  1.00  0.00     0.049 A 
ATOM     29  N   UNL     1      -6.281   6.918  -5.000  1.00  0.00    -0.248 NA
ATOM     30  C   UNL     1      -5.955   4.659  -5.490  1.00  0.00     0.031 C 
ATOM     31  C   UNL     1      -4.569   6.213  -0.920  1.00  0.00     0.029 A 
ATOM     32  N   UNL     1      -5.465   7.742  -2.285  1.00  0.00    -0.354 N 
ATOM     33  C   UNL     1      -6.749   6.655  -6.283  1.00  0.00     0.074 A 
ATOM     34  C   UNL     1      -6.496   5.254  -6.544  1.00  0.00     0.031 C 
ATOM     35  C   UNL     1      -4.617   7.377  -0.250  1.00  0.00     0.029 A 
ATOM     36  C   UNL     1      -5.152   8.416  -1.127  1.00  0.00     0.049 A 
ATOM     37  H   UNL     1      -5.903   8.170  -3.056  1.00  0.00     0.167 HD
ATOM     38  C   UNL     1      -7.340   7.505  -7.159  1.00  0.00     0.034 A 
ATOM     39  C   UNL     1      -5.256   9.727  -0.824  1.00  0.00     0.034 A 
ATOM     40  C   UNL     1      -7.580   8.901  -6.886  1.00  0.00     0.049 A 
ATOM     41  C   UNL     1      -5.833  10.670  -1.855  1.00  0.00     0.074 A 
ATOM     42  C   UNL     1      -8.197   9.842  -7.692  1.00  0.00     0.029 A 
ATOM     43  N   UNL     1      -7.200   9.562  -5.725  1.00  0.00    -0.354 N 
ATOM     44  N   UNL     1      -6.292  10.402  -3.056  1.00  0.00    -0.248 NA
ATOM     45  C   UNL     1      -5.912  12.089  -1.486  1.00  0.00     0.031 C 
ATOM     46  C   UNL     1      -8.121  11.084  -7.054  1.00  0.00     0.029 A 
ATOM     47  C   UNL     1      -7.529  10.906  -5.814  1.00  0.00     0.049 A 
ATOM     48  H   UNL     1      -6.761   9.139  -4.953  1.00  0.00     0.167 HD
ATOM     49  C   UNL     1      -6.737  11.617  -3.572  1.00  0.00     0.074 A 
ATOM     50  C   UNL     1      -6.512  12.611  -2.544  1.00  0.00     0.031 C 
ATOM     51  C   UNL     1      -7.284  11.889  -4.785  1.00  0.00     0.034 A 
BRANCH  38  52
ATOM     52  C   UNL     1      -7.718   6.963  -8.515  1.00  0.00     0.023 A 
ATOM     53  C   UNL     1      -8.727   5.998  -8.676  1.00  0.00     0.031 A 
ATOM     54  C   UNL     1      -7.060   7.429  -9.667  1.00  0.00     0.131 A 
ATOM     55  C   UNL     1      -9.017   5.497  -9.956  1.00  0.00     0.055 A 
ATOM     56  C   UNL     1      -7.399   6.977 -10.943  1.00  0.00     0.041 A 
ATOM     57  F   UNL     1      -6.073   8.334  -9.570  1.00  0.00    -0.206 F 
ATOM     58  C   UNL     1      -8.377   5.998 -11.092  1.00  0.00     0.022 A 
BRANCH  55  59
ATOM     59  S   UNL     1     -10.170   4.105 -10.106  1.00  0.00     0.124 S 
ATOM     60  O   UNL     1      -9.498   3.078  -9.313  1.00  0.00    -0.237 OA
ATOM     61  O   UNL     1     -11.398   4.649  -9.539  1.00  0.00    -0.237 OA
ATOM     62  O   UNL     1     -10.208   3.846 -11.544  1.00  0.00    -0.744 OA
ENDBRANCH  55  59
ENDBRANCH  38  52
BRANCH  39  63
ATOM     63  C   UNL     1      -4.754  10.250   0.480  1.00  0.00     0.023 A 
ATOM     64  C   UNL     1      -5.611  10.891   1.389  1.00  0.00     0.031 A 
ATOM     65  C   UNL     1      -3.384  10.191   0.799  1.00  0.00     0.131 A 
ATOM     66  C   UNL     1      -5.084  11.498   2.540  1.00  0.00     0.055 A 
ATOM     67  C   UNL     1      -2.874  10.742   1.976  1.00  0.00     0.041 A 
ATOM     68  F   UNL     1      -2.517   9.595  -0.034  1.00  0.00    -0.206 F 
ATOM     69  C   UNL     1      -3.724  11.416   2.847  1.00  0.00     0.022 A 
BRANCH  66  70
ATOM     70  S   UNL     1      -6.187  12.498   3.576  1.00  0.00     0.124 S 
ATOM     71  O   UNL     1      -6.709  13.460   2.612  1.00  0.00    -0.237 OA
ATOM     72  O   UNL     1      -7.132  11.498   4.063  1.00  0.00    -0.237 OA
ATOM     73  O   UNL     1      -5.291  13.052   4.589  1.00  0.00    -0.744 OA
ENDBRANCH  66  70
ENDBRANCH  39  63
BRANCH  51  74
ATOM     74  C   UNL     1      -7.706  13.316  -5.043  1.00  0.00     0.023 A 
ATOM     75  C   UNL     1      -6.767  14.357  -5.139  1.00  0.00     0.031 A 
ATOM     76  C   UNL     1      -9.068  13.639  -5.179  1.00  0.00     0.131 A 
ATOM     77  C   UNL     1      -7.204  15.680  -5.308  1.00  0.00     0.055 A 
ATOM     78  C   UNL     1      -9.494  14.948  -5.410  1.00  0.00     0.041 A 
ATOM     79  F   UNL     1     -10.009  12.685  -5.094  1.00  0.00    -0.206 F 
ATOM     80  C   UNL     1      -8.560  15.979  -5.462  1.00  0.00     0.022 A 
BRANCH  77  81
ATOM     81  S   UNL     1      -5.982  17.017  -5.231  1.00  0.00     0.124 S 
ATOM     82  O   UNL     1      -5.414  16.833  -3.900  1.00  0.00    -0.237 OA
ATOM     83  O   UNL     1      -5.100  16.700  -6.350  1.00  0.00    -0.237 OA
ATOM     84  O   UNL     1      -6.785  18.227  -5.401  1.00  0.00    -0.744 OA
ENDBRANCH  77  81
ENDBRANCH  51  74
ENDBRANCH  25  26
ENDBRANCH  18  20
ENDBRANCH  17  18
ENDBRANCH  16  17
ENDBRANCH   1  16
TORSDOF 18
