REMARK SMILES CCCc1c(C(=O)OCCOCCOC(=O)c2ccc(-c3c4nc(c(-c5cc(S(=O)(=O)[O-])ccc5F)c5ccc([nH]5)c(-c5cc(S(=O)(=O)[O-])ccc5F)c5nc(c(-c6cc(S(=O)(=O)[O-])ccc6F)c6ccc3[nH]6)C=C5)C=C4)cc2)nnn1[C@@H](C)[C@H](C)O
REMARK SMILES IDX 11 1 10 2 9 3 8 4 6 5 7 6 5 7 4 8 82 9 80 10 81 11 3 12 2 13
REMARK SMILES IDX 1 14 83 15 84 16 85 17 86 18 87 19 12 21 13 22 14 23 15 24
REMARK SMILES IDX 16 25 17 26 18 27 79 28 19 29 78 30 20 31 21 32 22 33 72 34
REMARK SMILES IDX 23 35 77 36 71 37 73 38 24 39 76 40 70 41 69 42 25 44 57 45
REMARK SMILES IDX 37 46 56 47 38 48 41 49 55 50 74 51 39 52 40 53 54 55 75 56
REMARK SMILES IDX 42 57 26 58 27 59 35 60 28 61 34 62 36 63 33 64 29 65 30 66
REMARK SMILES IDX 31 67 32 68 58 69 59 70 67 71 60 72 66 73 68 74 65 75 61 76
REMARK SMILES IDX 62 77 63 78 64 79 43 80 44 81 52 82 45 83 51 84 53 85 50 86
REMARK SMILES IDX 46 87 47 88 48 89 49 90
REMARK H PARENT 87 20 73 43 41 54
REMARK Flexibility Score: inf
ROOT
ATOM      1  O   UNL     1       7.273   2.459   8.676  1.00  0.00    -0.374 OA
ENDROOT
BRANCH   1   2
ATOM      2  C   UNL     1       8.348   2.548   7.743  1.00  0.00     0.202 C 
BRANCH   2   3
ATOM      3  C   UNL     1       8.510   1.401   6.740  1.00  0.00     0.261 C 
BRANCH   3   4
ATOM      4  O   UNL     1       7.387   1.271   5.848  1.00  0.00    -0.458 OA
BRANCH   4   5
ATOM      5  C   UNL     1       6.652   0.127   6.016  1.00  0.00     0.360 C 
ATOM      6  O   UNL     1       6.979  -0.795   6.751  1.00  0.00    -0.244 OA
BRANCH   5   7
ATOM      7  C   UNL     1       5.361   0.154   5.336  1.00  0.00     0.193 A 
ATOM      8  C   UNL     1       4.977   0.592   4.069  1.00  0.00     0.074 A 
ATOM      9  N   UNL     1       3.626   0.294   4.038  1.00  0.00    -0.243 N 
ATOM     10  N   UNL     1       4.253  -0.318   6.003  1.00  0.00    -0.123 NA
ATOM     11  N   UNL     1       3.201  -0.183   5.222  1.00  0.00    -0.066 NA
BRANCH   8  12
ATOM     12  C   UNL     1       5.734   1.260   2.962  1.00  0.00     0.058 C 
BRANCH  12  13
ATOM     13  C   UNL     1       6.224   0.348   1.826  1.00  0.00     0.003 C 
ATOM     14  C   UNL     1       5.284   0.217   0.630  1.00  0.00     0.004 C 
ENDBRANCH  12  13
ENDBRANCH   8  12
BRANCH   9  15
ATOM     15  C   UNL     1       2.752   0.106   2.881  1.00  0.00     0.135 C 
ATOM     16  C   UNL     1       2.538  -1.400   2.677  1.00  0.00     0.036 C 
BRANCH  15  17
ATOM     17  C   UNL     1       1.457   0.939   2.953  1.00  0.00     0.135 C 
ATOM     18  C   UNL     1       0.375   0.453   1.988  1.00  0.00     0.040 C 
BRANCH  17  19
ATOM     19  O   UNL     1       1.764   2.299   2.612  1.00  0.00    -0.391 OA
ATOM     20  H   UNL     1       2.102   2.337   1.703  1.00  0.00     0.211 HD
ENDBRANCH  17  19
ENDBRANCH  15  17
ENDBRANCH   9  15
ENDBRANCH   5   7
ENDBRANCH   4   5
ENDBRANCH   3   4
ENDBRANCH   2   3
ENDBRANCH   1   2
BRANCH   1  21
ATOM     21  C   UNL     1       5.937   2.615   8.210  1.00  0.00     0.202 C 
BRANCH  21  22
ATOM     22  C   UNL     1       5.502   3.981   7.696  1.00  0.00     0.261 C 
BRANCH  22  23
ATOM     23  O   UNL     1       6.269   4.449   6.592  1.00  0.00    -0.460 OA
BRANCH  23  24
ATOM     24  C   UNL     1       7.101   5.472   6.914  1.00  0.00     0.338 C 
ATOM     25  O   UNL     1       7.611   5.683   7.998  1.00  0.00    -0.246 OA
BRANCH  24  26
ATOM     26  C   UNL     1       7.175   6.400   5.778  1.00  0.00     0.060 A 
ATOM     27  C   UNL     1       8.033   7.495   5.900  1.00  0.00     0.016 A 
ATOM     28  C   UNL     1       6.242   6.310   4.735  1.00  0.00     0.016 A 
ATOM     29  C   UNL     1       7.846   8.576   5.061  1.00  0.00     0.010 A 
ATOM     30  C   UNL     1       6.045   7.396   3.911  1.00  0.00     0.010 A 
ATOM     31  C   UNL     1       6.803   8.545   4.122  1.00  0.00    -0.014 A 
BRANCH  31  32
ATOM     32  C   UNL     1       6.676   9.654   3.191  1.00  0.00     0.031 A 
ATOM     33  C   UNL     1       7.820   9.682   2.251  1.00  0.00     0.074 A 
ATOM     34  C   UNL     1       5.604  10.472   3.117  1.00  0.00     0.049 A 
ATOM     35  N   UNL     1       8.804  10.517   2.257  1.00  0.00    -0.248 NA
ATOM     36  C   UNL     1       8.039   8.515   1.375  1.00  0.00     0.031 C 
ATOM     37  C   UNL     1       4.351  10.377   3.867  1.00  0.00     0.029 A 
ATOM     38  N   UNL     1       5.373  11.533   2.288  1.00  0.00    -0.354 N 
ATOM     39  C   UNL     1       9.588  10.156   1.172  1.00  0.00     0.074 A 
ATOM     40  C   UNL     1       9.236   8.800   0.859  1.00  0.00     0.031 C 
ATOM     41  C   UNL     1       3.425  11.194   3.308  1.00  0.00     0.029 A 
ATOM     42  C   UNL     1       4.042  11.959   2.235  1.00  0.00     0.049 A 
ATOM     43  H   UNL     1       6.090  11.965   1.769  1.00  0.00     0.167 HD
ATOM     44  C   UNL     1      10.178  11.121   0.415  1.00  0.00     0.034 A 
ATOM     45  C   UNL     1       3.482  12.846   1.357  1.00  0.00     0.034 A 
ATOM     46  C   UNL     1      10.285  12.361   1.158  1.00  0.00     0.049 A 
ATOM     47  C   UNL     1       4.589  13.677   0.825  1.00  0.00     0.074 A 
ATOM     48  C   UNL     1      10.830  12.707   2.382  1.00  0.00     0.029 A 
ATOM     49  N   UNL     1       9.415  13.380   0.842  1.00  0.00    -0.354 N 
ATOM     50  N   UNL     1       5.262  14.516   1.561  1.00  0.00    -0.248 NA
ATOM     51  C   UNL     1       5.281  13.211  -0.366  1.00  0.00     0.031 C 
ATOM     52  C   UNL     1       9.904  13.632   2.951  1.00  0.00     0.029 A 
ATOM     53  C   UNL     1       8.905  13.891   2.011  1.00  0.00     0.049 A 
ATOM     54  H   UNL     1       9.197  13.690  -0.067  1.00  0.00     0.167 HD
ATOM     55  C   UNL     1       6.587  14.310   1.211  1.00  0.00     0.074 A 
ATOM     56  C   UNL     1       6.529  13.571  -0.051  1.00  0.00     0.031 C 
ATOM     57  C   UNL     1       7.589  14.497   2.122  1.00  0.00     0.034 A 
BRANCH  44  58
ATOM     58  C   UNL     1      10.229  11.065  -1.098  1.00  0.00     0.023 A 
ATOM     59  C   UNL     1      10.876  12.124  -1.756  1.00  0.00     0.031 A 
ATOM     60  C   UNL     1       9.445  10.219  -1.923  1.00  0.00     0.131 A 
ATOM     61  C   UNL     1      10.658  12.362  -3.124  1.00  0.00     0.055 A 
ATOM     62  C   UNL     1       9.287  10.421  -3.295  1.00  0.00     0.041 A 
ATOM     63  F   UNL     1       8.710   9.207  -1.450  1.00  0.00    -0.206 F 
ATOM     64  C   UNL     1       9.870  11.517  -3.899  1.00  0.00     0.022 A 
BRANCH  61  65
ATOM     65  S   UNL     1      11.283  13.903  -3.835  1.00  0.00     0.124 S 
ATOM     66  O   UNL     1      10.642  14.896  -2.979  1.00  0.00    -0.237 OA
ATOM     67  O   UNL     1      12.724  13.743  -3.672  1.00  0.00    -0.237 OA
ATOM     68  O   UNL     1      10.802  13.858  -5.213  1.00  0.00    -0.744 OA
ENDBRANCH  61  65
ENDBRANCH  44  58
BRANCH  45  69
ATOM     69  C   UNL     1       2.131  12.803   0.709  1.00  0.00     0.023 A 
ATOM     70  C   UNL     1       1.553  13.902   0.021  1.00  0.00     0.031 A 
ATOM     71  C   UNL     1       1.498  11.554   0.527  1.00  0.00     0.131 A 
ATOM     72  C   UNL     1       0.410  13.718  -0.802  1.00  0.00     0.055 A 
ATOM     73  C   UNL     1       0.377  11.379  -0.288  1.00  0.00     0.041 A 
ATOM     74  F   UNL     1       2.005  10.433   1.063  1.00  0.00    -0.206 F 
ATOM     75  C   UNL     1      -0.165  12.457  -0.966  1.00  0.00     0.022 A 
BRANCH  72  76
ATOM     76  S   UNL     1      -0.312  15.101  -1.759  1.00  0.00     0.124 S 
ATOM     77  O   UNL     1      -0.872  15.949  -0.714  1.00  0.00    -0.237 OA
ATOM     78  O   UNL     1       0.842  15.628  -2.478  1.00  0.00    -0.237 OA
ATOM     79  O   UNL     1      -1.308  14.445  -2.610  1.00  0.00    -0.744 OA
ENDBRANCH  72  76
ENDBRANCH  45  69
BRANCH  57  80
ATOM     80  C   UNL     1       7.257  15.244   3.406  1.00  0.00     0.023 A 
ATOM     81  C   UNL     1       6.205  14.923   4.299  1.00  0.00     0.031 A 
ATOM     82  C   UNL     1       8.096  16.316   3.762  1.00  0.00     0.131 A 
ATOM     83  C   UNL     1       6.007  15.688   5.468  1.00  0.00     0.055 A 
ATOM     84  C   UNL     1       7.916  17.050   4.933  1.00  0.00     0.041 A 
ATOM     85  F   UNL     1       9.127  16.664   2.974  1.00  0.00    -0.206 F 
ATOM     86  C   UNL     1       6.862  16.747   5.785  1.00  0.00     0.022 A 
BRANCH  83  87
ATOM     87  S   UNL     1       4.595  15.360   6.577  1.00  0.00     0.124 S 
ATOM     88  O   UNL     1       3.476  15.171   5.662  1.00  0.00    -0.237 OA
ATOM     89  O   UNL     1       5.035  14.171   7.302  1.00  0.00    -0.237 OA
ATOM     90  O   UNL     1       4.517  16.574   7.393  1.00  0.00    -0.744 OA
ENDBRANCH  83  87
ENDBRANCH  57  80
ENDBRANCH  31  32
ENDBRANCH  24  26
ENDBRANCH  23  24
ENDBRANCH  22  23
ENDBRANCH  21  22
ENDBRANCH   1  21
TORSDOF 22
