REMARK SMILES CC(C)(C)OC(=O)N[C@@H](Cc1c[nH]c2cccc(Cl)c12)C(=O)OCCOCCOC(=O)c1ccc(-c2c3nc(c(-c4cc(S(=O)(=O)[O-])ccc4F)c4ccc([nH]4)c(-c4cc(S(=O)(=O)[O-])ccc4F)c4nc(c(-c5cc(S(=O)(=O)[O-])ccc5F)c5ccc2[nH]5)C=C4)C=C3)cc1
REMARK SMILES IDX 26 1 25 2 24 3 23 4 21 5 22 6 9 7 8 8 6 9 7 10 5 12 2 13
REMARK SMILES IDX 1 14 3 15 4 16 10 17 11 18 12 19 20 20 13 21 14 22 18 23
REMARK SMILES IDX 15 25 17 26 19 27 16 28 27 29 28 30 29 31 30 32 31 33 32 34
REMARK SMILES IDX 33 35 94 36 34 37 93 38 35 39 36 40 37 41 87 42 38 43 92 44
REMARK SMILES IDX 86 45 88 46 39 47 91 48 85 49 84 50 40 52 72 53 52 54 71 55
REMARK SMILES IDX 53 56 56 57 70 58 89 59 54 60 55 61 69 63 90 64 57 65 41 66
REMARK SMILES IDX 42 67 50 68 43 69 49 70 51 71 48 72 44 73 45 74 46 75 47 76
REMARK SMILES IDX 73 77 74 78 82 79 75 80 81 81 83 82 80 83 76 84 77 85 78 86
REMARK SMILES IDX 79 87 58 88 59 89 67 90 60 91 66 92 68 93 65 94 61 95 62 96
REMARK SMILES IDX 63 97 64 98
REMARK H PARENT 8 11 13 24 88 51 56 62
REMARK Flexibility Score: inf
ROOT
ATOM      1  O   UNL     1      -1.137   2.944  -5.980  1.00  0.00    -0.374 OA
ENDROOT
BRANCH   1   2
ATOM      2  C   UNL     1      -0.783   2.476  -7.276  1.00  0.00     0.202 C 
BRANCH   2   3
ATOM      3  C   UNL     1       0.584   1.838  -7.503  1.00  0.00     0.261 C 
BRANCH   3   4
ATOM      4  O   UNL     1       0.922   0.799  -6.575  1.00  0.00    -0.462 OA
BRANCH   4   5
ATOM      5  C   UNL     1       1.887   1.129  -5.668  1.00  0.00     0.329 C 
ATOM      6  O   UNL     1       2.384   2.244  -5.546  1.00  0.00    -0.250 OA
BRANCH   5   7
ATOM      7  C   UNL     1       2.380  -0.074  -4.867  1.00  0.00     0.200 C 
BRANCH   7   8
ATOM      8  N   UNL     1       1.386  -1.141  -4.703  1.00  0.00    -0.308 N 
ATOM      9  C   UNL     1       0.746  -1.524  -3.565  1.00  0.00     0.408 C 
ATOM     10  O   UNL     1      -0.046  -2.463  -3.581  1.00  0.00    -0.225 OA
ATOM     11  H   UNL     1       1.152  -1.641  -5.518  1.00  0.00     0.168 HD
BRANCH   9  12
ATOM     12  O   UNL     1       1.067  -0.790  -2.472  1.00  0.00    -0.444 OA
BRANCH  12  13
ATOM     13  C   UNL     1       0.509  -1.121  -1.164  1.00  0.00     0.106 C 
ATOM     14  C   UNL     1       1.046  -0.040  -0.209  1.00  0.00     0.056 C 
ATOM     15  C   UNL     1       1.016  -2.485  -0.677  1.00  0.00     0.056 C 
ATOM     16  C   UNL     1      -1.024  -1.050  -1.138  1.00  0.00     0.056 C 
ENDBRANCH  12  13
ENDBRANCH   9  12
ENDBRANCH   7   8
BRANCH   7  17
ATOM     17  C   UNL     1       3.688  -0.584  -5.521  1.00  0.00     0.075 C 
BRANCH  17  18
ATOM     18  C   UNL     1       3.495  -1.244  -6.867  1.00  0.00    -0.018 A 
ATOM     19  C   UNL     1       3.282  -2.602  -7.029  1.00  0.00     0.087 A 
ATOM     20  C   UNL     1       3.414  -0.652  -8.186  1.00  0.00     0.021 A 
ATOM     21  N   UNL     1       2.974  -2.844  -8.336  1.00  0.00    -0.361 N 
ATOM     22  C   UNL     1       2.964  -1.666  -9.044  1.00  0.00     0.047 A 
ATOM     23  C   UNL     1       3.597   0.620  -8.780  1.00  0.00     0.050 A 
ATOM     24  H   UNL     1       2.786  -3.732  -8.717  1.00  0.00     0.166 HD
ATOM     25  C   UNL     1       2.595  -1.439 -10.379  1.00  0.00     0.027 A 
ATOM     26  C   UNL     1       3.203   0.884 -10.095  1.00  0.00     0.021 A 
ATOM     27  Cl  UNL     1       4.397   1.830  -7.878  1.00  0.00    -0.084 Cl
ATOM     28  C   UNL     1       2.682  -0.138 -10.878  1.00  0.00     0.004 A 
ENDBRANCH  17  18
ENDBRANCH   7  17
ENDBRANCH   5   7
ENDBRANCH   4   5
ENDBRANCH   3   4
ENDBRANCH   2   3
ENDBRANCH   1   2
BRANCH   1  29
ATOM     29  C   UNL     1      -1.121   2.071  -4.857  1.00  0.00     0.202 C 
BRANCH  29  30
ATOM     30  C   UNL     1      -2.020   0.840  -4.822  1.00  0.00     0.261 C 
BRANCH  30  31
ATOM     31  O   UNL     1      -1.931   0.028  -5.981  1.00  0.00    -0.460 OA
BRANCH  31  32
ATOM     32  C   UNL     1      -2.944   0.278  -6.839  1.00  0.00     0.338 C 
ATOM     33  O   UNL     1      -3.655   1.273  -6.859  1.00  0.00    -0.246 OA
BRANCH  32  34
ATOM     34  C   UNL     1      -3.215  -0.899  -7.663  1.00  0.00     0.060 A 
ATOM     35  C   UNL     1      -4.260  -0.724  -8.568  1.00  0.00     0.016 A 
ATOM     36  C   UNL     1      -2.832  -2.160  -7.181  1.00  0.00     0.016 A 
ATOM     37  C   UNL     1      -5.134  -1.767  -8.724  1.00  0.00     0.010 A 
ATOM     38  C   UNL     1      -3.706  -3.207  -7.352  1.00  0.00     0.010 A 
ATOM     39  C   UNL     1      -4.897  -2.961  -8.027  1.00  0.00    -0.014 A 
BRANCH  39  40
ATOM     40  C   UNL     1      -5.880  -4.006  -8.191  1.00  0.00     0.031 A 
ATOM     41  C   UNL     1      -5.794  -4.565  -9.550  1.00  0.00     0.074 A 
ATOM     42  C   UNL     1      -6.745  -4.405  -7.240  1.00  0.00     0.049 A 
ATOM     43  N   UNL     1      -6.495  -4.198 -10.571  1.00  0.00    -0.248 NA
ATOM     44  C   UNL     1      -4.615  -5.380  -9.884  1.00  0.00     0.031 C 
ATOM     45  C   UNL     1      -6.717  -4.106  -5.806  1.00  0.00     0.029 A 
ATOM     46  N   UNL     1      -7.811  -5.243  -7.357  1.00  0.00    -0.354 N 
ATOM     47  C   UNL     1      -6.026  -4.981 -11.614  1.00  0.00     0.074 A 
ATOM     48  C   UNL     1      -4.725  -5.449 -11.212  1.00  0.00     0.031 C 
ATOM     49  C   UNL     1      -7.562  -4.949  -5.161  1.00  0.00     0.029 A 
ATOM     50  C   UNL     1      -8.304  -5.715  -6.148  1.00  0.00     0.049 A 
ATOM     51  H   UNL     1      -8.199  -5.494  -8.227  1.00  0.00     0.167 HD
ATOM     52  C   UNL     1      -6.900  -5.494 -12.523  1.00  0.00     0.034 A 
ATOM     53  C   UNL     1      -9.228  -6.697  -5.995  1.00  0.00     0.034 A 
ATOM     54  C   UNL     1      -8.190  -4.868 -12.406  1.00  0.00     0.049 A 
ATOM     55  C   UNL     1      -9.981  -6.809  -7.263  1.00  0.00     0.074 A 
ATOM     56  C   UNL     1      -8.762  -3.672 -12.774  1.00  0.00     0.029 A 
ATOM     57  N   UNL     1      -8.967  -5.412 -11.415  1.00  0.00    -0.354 N 
ATOM     58  N   UNL     1     -10.799  -5.889  -7.693  1.00  0.00    -0.248 NA
ATOM     59  C   UNL     1      -9.560  -7.792  -8.257  1.00  0.00     0.031 C 
ATOM     60  C   UNL     1      -9.854  -3.461 -11.883  1.00  0.00     0.029 A 
ATOM     61  C   UNL     1      -9.953  -4.551 -11.021  1.00  0.00     0.049 A 
ATOM     62  H   UNL     1      -8.832  -6.310 -11.036  1.00  0.00     0.167 HD
ATOM     63  C   UNL     1     -10.631  -5.913  -9.062  1.00  0.00     0.074 A 
ATOM     64  C   UNL     1     -10.019  -7.200  -9.363  1.00  0.00     0.031 C 
ATOM     65  C   UNL     1     -10.679  -4.763  -9.787  1.00  0.00     0.034 A 
BRANCH  52  66
ATOM     66  C   UNL     1      -6.755  -6.878 -13.107  1.00  0.00     0.023 A 
ATOM     67  C   UNL     1      -5.920  -7.855 -12.536  1.00  0.00     0.031 A 
ATOM     68  C   UNL     1      -7.643  -7.331 -14.099  1.00  0.00     0.131 A 
ATOM     69  C   UNL     1      -5.927  -9.183 -12.969  1.00  0.00     0.055 A 
ATOM     70  C   UNL     1      -7.706  -8.678 -14.483  1.00  0.00     0.041 A 
ATOM     71  F   UNL     1      -8.509  -6.489 -14.684  1.00  0.00    -0.206 F 
ATOM     72  C   UNL     1      -6.840  -9.612 -13.922  1.00  0.00     0.022 A 
BRANCH  69  73
ATOM     73  S   UNL     1      -4.752 -10.368 -12.259  1.00  0.00     0.124 S 
ATOM     74  O   UNL     1      -5.635 -11.431 -11.794  1.00  0.00    -0.237 OA
ATOM     75  O   UNL     1      -3.926 -10.688 -13.420  1.00  0.00    -0.237 OA
ATOM     76  O   UNL     1      -4.077  -9.598 -11.217  1.00  0.00    -0.744 OA
ENDBRANCH  69  73
ENDBRANCH  52  66
BRANCH  53  77
ATOM     77  C   UNL     1      -9.262  -7.797  -5.004  1.00  0.00     0.023 A 
ATOM     78  C   UNL     1      -8.057  -8.308  -4.491  1.00  0.00     0.031 A 
ATOM     79  C   UNL     1     -10.420  -8.584  -4.849  1.00  0.00     0.131 A 
ATOM     80  C   UNL     1      -8.019  -9.594  -3.931  1.00  0.00     0.055 A 
ATOM     81  C   UNL     1     -10.381  -9.860  -4.276  1.00  0.00     0.041 A 
ATOM     82  F   UNL     1     -11.599  -8.163  -5.333  1.00  0.00    -0.206 F 
ATOM     83  C   UNL     1      -9.170 -10.379  -3.832  1.00  0.00     0.022 A 
BRANCH  80  84
ATOM     84  S   UNL     1      -6.442 -10.311  -3.393  1.00  0.00     0.124 S 
ATOM     85  O   UNL     1      -6.799 -10.928  -2.118  1.00  0.00    -0.237 OA
ATOM     86  O   UNL     1      -6.152 -11.240  -4.480  1.00  0.00    -0.237 OA
ATOM     87  O   UNL     1      -5.561  -9.152  -3.291  1.00  0.00    -0.744 OA
ENDBRANCH  80  84
ENDBRANCH  53  77
BRANCH  65  88
ATOM     88  C   UNL     1     -11.426  -3.595  -9.220  1.00  0.00     0.023 A 
ATOM     89  C   UNL     1     -12.515  -3.147  -9.980  1.00  0.00     0.031 A 
ATOM     90  C   UNL     1     -11.029  -2.831  -8.111  1.00  0.00     0.131 A 
ATOM     91  C   UNL     1     -13.137  -1.937  -9.676  1.00  0.00     0.055 A 
ATOM     92  C   UNL     1     -11.697  -1.650  -7.767  1.00  0.00     0.041 A 
ATOM     93  F   UNL     1      -9.954  -3.164  -7.381  1.00  0.00    -0.206 F 
ATOM     94  C   UNL     1     -12.745  -1.188  -8.564  1.00  0.00     0.022 A 
BRANCH  91  95
ATOM     95  S   UNL     1     -14.375  -1.259 -10.806  1.00  0.00     0.124 S 
ATOM     96  O   UNL     1     -15.545  -1.127  -9.943  1.00  0.00    -0.237 OA
ATOM     97  O   UNL     1     -13.755  -0.003 -11.221  1.00  0.00    -0.237 OA
ATOM     98  O   UNL     1     -14.489  -2.268 -11.856  1.00  0.00    -0.744 OA
ENDBRANCH  91  95
ENDBRANCH  65  88
ENDBRANCH  39  40
ENDBRANCH  32  34
ENDBRANCH  31  32
ENDBRANCH  30  31
ENDBRANCH  29  30
ENDBRANCH   1  29
TORSDOF 22
