REMARK SMILES COc1cccc(N2CCN(c3ccc(NC(=O)c4ccc(F)cc4)c(C(=O)OCCOCCOC(=O)c4ccc(-c5c6nc(c(-c7cc(S(=O)(=O)[O-])ccc7F)c7ccc([nH]7)c(-c7cc(S(=O)(=O)[O-])ccc7F)c7nc(c(-c8cc(S(=O)(=O)[O-])ccc8F)c8ccc5[nH]8)C=C7)C=C6)cc4)c3)CC2)c1
REMARK SMILES IDX 32 1 31 2 30 3 29 4 27 5 28 6 26 7 12 8 13 9 101 10 14 11
REMARK SMILES IDX 15 12 11 13 8 14 9 15 103 16 10 17 102 18 7 19 3 20 4 21
REMARK SMILES IDX 104 22 5 23 6 24 2 25 1 26 16 27 17 28 18 30 19 31 20 32
REMARK SMILES IDX 25 33 21 34 24 35 22 36 23 37 33 38 34 39 35 40 36 41 37 42
REMARK SMILES IDX 38 43 39 44 100 45 40 46 99 47 41 48 42 49 43 50 93 51 44 52
REMARK SMILES IDX 98 53 92 54 94 55 45 56 97 57 91 58 90 59 46 61 78 62 58 63
REMARK SMILES IDX 77 64 59 65 62 66 76 67 95 68 60 69 61 70 75 72 96 73 63 74
REMARK SMILES IDX 47 75 48 76 56 77 49 78 55 79 57 80 54 81 50 82 51 83 52 84
REMARK SMILES IDX 53 85 79 86 80 87 88 88 81 89 87 90 89 91 86 92 82 93 83 94
REMARK SMILES IDX 84 95 85 96 64 97 65 98 73 99 66 100 72 101 74 102 71 103
REMARK SMILES IDX 67 104 68 105 69 106 70 107
REMARK H PARENT 16 29 94 60 62 71
REMARK Flexibility Score: inf
ROOT
ATOM      1  O   UNL     1      12.265   4.529  -6.436  1.00  0.00    -0.374 OA
ENDROOT
BRANCH   1   2
ATOM      2  C   UNL     1      11.649   3.455  -7.150  1.00  0.00     0.202 C 
BRANCH   2   3
ATOM      3  C   UNL     1      11.491   2.132  -6.391  1.00  0.00     0.261 C 
BRANCH   3   4
ATOM      4  O   UNL     1      10.592   2.273  -5.276  1.00  0.00    -0.460 OA
BRANCH   4   5
ATOM      5  C   UNL     1      11.160   2.180  -4.050  1.00  0.00     0.340 C 
ATOM      6  O   UNL     1      12.308   1.846  -3.797  1.00  0.00    -0.246 OA
BRANCH   5   7
ATOM      7  C   UNL     1      10.260   2.798  -3.046  1.00  0.00     0.085 A 
ATOM      8  C   UNL     1       7.982   3.146  -2.203  1.00  0.00     0.038 A 
ATOM      9  C   UNL     1       8.519   4.099  -1.335  1.00  0.00     0.028 A 
ATOM     10  C   UNL     1       8.878   2.526  -3.084  1.00  0.00     0.043 A 
ATOM     11  C   UNL     1       9.883   4.397  -1.308  1.00  0.00     0.029 A 
ATOM     12  C   UNL     1      10.789   3.699  -2.103  1.00  0.00     0.056 A 
BRANCH   8  13
ATOM     13  N   UNL     1       6.637   2.861  -2.199  1.00  0.00    -0.368 N 
ATOM     14  N   UNL     1       4.038   2.651  -3.319  1.00  0.00    -0.368 N 
ATOM     15  C   UNL     1       4.556   3.980  -2.987  1.00  0.00     0.138 C 
ATOM     16  C   UNL     1       5.033   1.618  -3.636  1.00  0.00     0.138 C 
ATOM     17  C   UNL     1       5.609   3.870  -1.858  1.00  0.00     0.138 C 
ATOM     18  C   UNL     1       6.093   1.525  -2.520  1.00  0.00     0.138 C 
BRANCH  14  19
ATOM     19  C   UNL     1       2.701   2.361  -3.203  1.00  0.00     0.040 A 
ATOM     20  C   UNL     1       0.886   1.048  -2.245  1.00  0.00     0.120 A 
ATOM     21  C   UNL     1      -0.034   1.728  -3.038  1.00  0.00     0.046 A 
ATOM     22  C   UNL     1       2.247   1.345  -2.351  1.00  0.00     0.072 A 
ATOM     23  C   UNL     1       0.396   2.748  -3.884  1.00  0.00     0.006 A 
ATOM     24  C   UNL     1       1.752   3.071  -3.948  1.00  0.00     0.026 A 
BRANCH  20  25
ATOM     25  O   UNL     1       0.381   0.063  -1.439  1.00  0.00    -0.497 OA
ATOM     26  C   UNL     1       0.938   0.048  -0.129  1.00  0.00     0.278 C 
ENDBRANCH  20  25
ENDBRANCH  14  19
ENDBRANCH   8  13
BRANCH  12  27
ATOM     27  N   UNL     1      12.187   3.918  -2.022  1.00  0.00    -0.321 N 
ATOM     28  C   UNL     1      12.969   4.498  -1.046  1.00  0.00     0.255 C 
ATOM     29  H   UNL     1      12.691   3.598  -2.805  1.00  0.00     0.170 HD
ATOM     30  O   UNL     1      14.129   4.830  -1.278  1.00  0.00    -0.269 OA
BRANCH  28  31
ATOM     31  C   UNL     1      12.453   4.680   0.328  1.00  0.00     0.040 A 
ATOM     32  C   UNL     1      12.604   5.930   0.941  1.00  0.00     0.017 A 
ATOM     33  C   UNL     1      11.794   3.636   0.995  1.00  0.00     0.017 A 
ATOM     34  C   UNL     1      12.020   6.159   2.187  1.00  0.00     0.040 A 
ATOM     35  C   UNL     1      11.198   3.876   2.232  1.00  0.00     0.040 A 
ATOM     36  C   UNL     1      11.307   5.137   2.811  1.00  0.00     0.123 A 
ATOM     37  F   UNL     1      10.710   5.375   3.985  1.00  0.00    -0.207 F 
ENDBRANCH  28  31
ENDBRANCH  12  27
ENDBRANCH   5   7
ENDBRANCH   4   5
ENDBRANCH   3   4
ENDBRANCH   2   3
ENDBRANCH   1   2
BRANCH   1  38
ATOM     38  C   UNL     1      11.446   5.267  -5.530  1.00  0.00     0.202 C 
BRANCH  38  39
ATOM     39  C   UNL     1      10.485   6.304  -6.122  1.00  0.00     0.261 C 
BRANCH  39  40
ATOM     40  O   UNL     1       9.454   5.707  -6.927  1.00  0.00    -0.460 OA
BRANCH  40  41
ATOM     41  C   UNL     1       9.610   5.880  -8.262  1.00  0.00     0.338 C 
ATOM     42  O   UNL     1      10.488   6.522  -8.821  1.00  0.00    -0.246 OA
BRANCH  41  43
ATOM     43  C   UNL     1       8.662   5.018  -8.992  1.00  0.00     0.060 A 
ATOM     44  C   UNL     1       9.181   4.166  -9.976  1.00  0.00     0.016 A 
ATOM     45  C   UNL     1       7.287   5.085  -8.764  1.00  0.00     0.016 A 
ATOM     46  C   UNL     1       8.321   3.407 -10.768  1.00  0.00     0.010 A 
ATOM     47  C   UNL     1       6.425   4.329  -9.566  1.00  0.00     0.010 A 
ATOM     48  C   UNL     1       6.936   3.510 -10.591  1.00  0.00    -0.014 A 
BRANCH  48  49
ATOM     49  C   UNL     1       6.011   2.886 -11.571  1.00  0.00     0.031 A 
ATOM     50  C   UNL     1       5.357   3.761 -12.606  1.00  0.00     0.074 A 
ATOM     51  C   UNL     1       5.764   1.564 -11.546  1.00  0.00     0.049 A 
ATOM     52  N   UNL     1       4.431   3.465 -13.480  1.00  0.00    -0.248 NA
ATOM     53  C   UNL     1       5.808   5.161 -12.653  1.00  0.00     0.031 C 
ATOM     54  C   UNL     1       6.381   0.608 -10.628  1.00  0.00     0.029 A 
ATOM     55  N   UNL     1       4.913   0.800 -12.305  1.00  0.00    -0.354 N 
ATOM     56  C   UNL     1       4.184   4.641 -14.181  1.00  0.00     0.074 A 
ATOM     57  C   UNL     1       5.027   5.663 -13.598  1.00  0.00     0.031 C 
ATOM     58  C   UNL     1       5.869  -0.612 -10.861  1.00  0.00     0.029 A 
ATOM     59  C   UNL     1       4.854  -0.516 -11.909  1.00  0.00     0.049 A 
ATOM     60  H   UNL     1       4.394   1.159 -13.061  1.00  0.00     0.167 HD
ATOM     61  C   UNL     1       3.341   4.844 -15.224  1.00  0.00     0.034 A 
ATOM     62  C   UNL     1       4.044  -1.516 -12.316  1.00  0.00     0.034 A 
ATOM     63  C   UNL     1       2.495   3.817 -15.781  1.00  0.00     0.049 A 
ATOM     64  C   UNL     1       3.032  -1.241 -13.406  1.00  0.00     0.074 A 
ATOM     65  C   UNL     1       1.593   3.916 -16.827  1.00  0.00     0.029 A 
ATOM     66  N   UNL     1       2.440   2.503 -15.334  1.00  0.00    -0.354 N 
ATOM     67  N   UNL     1       2.797  -0.122 -14.053  1.00  0.00    -0.248 NA
ATOM     68  C   UNL     1       2.183  -2.365 -13.826  1.00  0.00     0.031 C 
ATOM     69  C   UNL     1       0.944   2.685 -16.964  1.00  0.00     0.029 A 
ATOM     70  C   UNL     1       1.502   1.791 -16.065  1.00  0.00     0.049 A 
ATOM     71  H   UNL     1       2.988   2.132 -14.605  1.00  0.00     0.167 HD
ATOM     72  C   UNL     1       1.801  -0.421 -14.981  1.00  0.00     0.074 A 
ATOM     73  C   UNL     1       1.489  -1.825 -14.816  1.00  0.00     0.031 C 
ATOM     74  C   UNL     1       1.203   0.388 -15.892  1.00  0.00     0.034 A 
BRANCH  61  75
ATOM     75  C   UNL     1       3.265   6.240 -15.793  1.00  0.00     0.023 A 
ATOM     76  C   UNL     1       4.374   6.846 -16.409  1.00  0.00     0.031 A 
ATOM     77  C   UNL     1       2.075   6.984 -15.703  1.00  0.00     0.131 A 
ATOM     78  C   UNL     1       4.292   8.177 -16.846  1.00  0.00     0.055 A 
ATOM     79  C   UNL     1       1.976   8.279 -16.215  1.00  0.00     0.041 A 
ATOM     80  F   UNL     1       0.990   6.469 -15.104  1.00  0.00    -0.206 F 
ATOM     81  C   UNL     1       3.093   8.888 -16.779  1.00  0.00     0.022 A 
BRANCH  78  82
ATOM     82  S   UNL     1       5.814   9.009 -17.375  1.00  0.00     0.124 S 
ATOM     83  O   UNL     1       6.639   8.905 -16.174  1.00  0.00    -0.237 OA
ATOM     84  O   UNL     1       6.237   8.202 -18.513  1.00  0.00    -0.237 OA
ATOM     85  O   UNL     1       5.369  10.363 -17.700  1.00  0.00    -0.744 OA
ENDBRANCH  78  82
ENDBRANCH  61  75
BRANCH  62  86
ATOM     86  C   UNL     1       4.102  -2.854 -11.656  1.00  0.00     0.023 A 
ATOM     87  C   UNL     1       4.417  -4.013 -12.383  1.00  0.00     0.031 A 
ATOM     88  C   UNL     1       3.765  -3.003 -10.298  1.00  0.00     0.131 A 
ATOM     89  C   UNL     1       4.330  -5.271 -11.766  1.00  0.00     0.055 A 
ATOM     90  C   UNL     1       3.744  -4.250  -9.672  1.00  0.00     0.041 A 
ATOM     91  F   UNL     1       3.451  -1.930  -9.554  1.00  0.00    -0.206 F 
ATOM     92  C   UNL     1       4.011  -5.397 -10.413  1.00  0.00     0.022 A 
BRANCH  89  93
ATOM     93  S   UNL     1       4.526  -6.755 -12.792  1.00  0.00     0.124 S 
ATOM     94  O   UNL     1       3.497  -6.552 -13.805  1.00  0.00    -0.237 OA
ATOM     95  O   UNL     1       5.907  -6.628 -13.245  1.00  0.00    -0.237 OA
ATOM     96  O   UNL     1       4.276  -7.850 -11.857  1.00  0.00    -0.744 OA
ENDBRANCH  89  93
ENDBRANCH  62  86
BRANCH  74  97
ATOM     97  C   UNL     1       0.199  -0.241 -16.829  1.00  0.00     0.023 A 
ATOM     98  C   UNL     1      -1.034  -0.741 -16.376  1.00  0.00     0.031 A 
ATOM     99  C   UNL     1       0.483  -0.328 -18.204  1.00  0.00     0.131 A 
ATOM    100  C   UNL     1      -1.917  -1.349 -17.283  1.00  0.00     0.055 A 
ATOM    101  C   UNL     1      -0.425  -0.877 -19.110  1.00  0.00     0.041 A 
ATOM    102  F   UNL     1       1.646   0.131 -18.693  1.00  0.00    -0.206 F 
ATOM    103  C   UNL     1      -1.628  -1.402 -18.650  1.00  0.00     0.022 A 
BRANCH 100 104
ATOM    104  S   UNL     1      -3.417  -2.143 -16.644  1.00  0.00     0.124 S 
ATOM    105  O   UNL     1      -2.867  -3.138 -15.729  1.00  0.00    -0.237 OA
ATOM    106  O   UNL     1      -4.121  -1.026 -16.022  1.00  0.00    -0.237 OA
ATOM    107  O   UNL     1      -4.055  -2.686 -17.841  1.00  0.00    -0.744 OA
ENDBRANCH 100 104
ENDBRANCH  74  97
ENDBRANCH  48  49
ENDBRANCH  41  43
ENDBRANCH  40  41
ENDBRANCH  39  40
ENDBRANCH  38  39
ENDBRANCH   1  38
TORSDOF 22
