REMARK SMILES C[C@H]1[C@H](C(=O)OCCOCCOC(=O)c2ccc(-c3c4nc(c(-c5cc(S(=O)(=O)[O-])ccc5F)c5ccc([nH]5)c(-c5cc(S(=O)(=O)[O-])ccc5F)c5nc(c(-c6cc(S(=O)(=O)[O-])ccc6F)c6ccc3[nH]6)C=C5)C=C4)cc2)CCN1C(=O)[C@H]1CC[C@@H](C[NH3+])CC1
REMARK SMILES IDX 8 1 7 2 6 3 4 4 5 5 3 6 1 7 2 8 80 9 78 10 79 11 81 12 82 13
REMARK SMILES IDX 83 14 90 15 84 16 89 17 85 18 86 19 87 20 88 21 9 25 10 26
REMARK SMILES IDX 11 27 12 28 13 29 14 30 15 31 16 32 77 33 17 34 76 35 18 36
REMARK SMILES IDX 19 37 20 38 70 39 21 40 75 41 69 42 71 43 22 44 74 45 68 46
REMARK SMILES IDX 67 47 23 49 55 50 35 51 54 52 36 53 39 54 53 55 72 56 37 57
REMARK SMILES IDX 38 58 52 60 73 61 40 62 24 63 25 64 33 65 26 66 32 67 34 68
REMARK SMILES IDX 31 69 27 70 28 71 29 72 30 73 56 74 57 75 65 76 58 77 64 78
REMARK SMILES IDX 66 79 63 80 59 81 60 82 61 83 62 84 41 85 42 86 50 87 43 88
REMARK SMILES IDX 49 89 51 90 48 91 44 92 45 93 46 94 47 95
REMARK H PARENT 88 22 88 23 88 24 71 48 39 59
REMARK Flexibility Score: inf
ROOT
ATOM      1  C   UNL     1       0.189   4.032   3.374  1.00  0.00     0.202 C 
ENDROOT
BRANCH   1   2
ATOM      2  C   UNL     1      -1.054   3.286   2.876  1.00  0.00     0.261 C 
BRANCH   2   3
ATOM      3  O   UNL     1      -0.763   2.159   2.028  1.00  0.00    -0.463 OA
BRANCH   3   4
ATOM      4  C   UNL     1      -1.099   2.319   0.722  1.00  0.00     0.311 C 
ATOM      5  O   UNL     1      -1.599   3.332   0.243  1.00  0.00    -0.252 OA
BRANCH   4   6
ATOM      6  C   UNL     1      -0.860   1.092  -0.122  1.00  0.00     0.123 C 
ATOM      7  C   UNL     1       1.446   0.531  -0.822  1.00  0.00     0.032 C 
ATOM      8  C   UNL     1       0.362   0.194   0.210  1.00  0.00     0.096 C 
ATOM      9  N   UNL     1      -0.151  -1.191   0.075  1.00  0.00    -0.339 N 
ATOM     10  C   UNL     1      -2.062   0.166  -0.070  1.00  0.00     0.039 C 
ATOM     11  C   UNL     1      -1.480  -1.152  -0.524  1.00  0.00     0.121 C 
BRANCH   9  12
ATOM     12  C   UNL     1       0.323  -2.430   0.454  1.00  0.00     0.225 C 
ATOM     13  O   UNL     1      -0.325  -3.441   0.136  1.00  0.00    -0.275 OA
BRANCH  12  14
ATOM     14  C   UNL     1       1.630  -2.684   1.215  1.00  0.00     0.078 C 
ATOM     15  C   UNL     1       2.868  -2.631   0.321  1.00  0.00     0.014 C 
ATOM     16  C   UNL     1       1.810  -1.983   2.561  1.00  0.00     0.014 C 
ATOM     17  C   UNL     1       4.137  -3.061   1.055  1.00  0.00     0.010 C 
ATOM     18  C   UNL     1       3.091  -2.478   3.252  1.00  0.00     0.010 C 
ATOM     19  C   UNL     1       4.344  -2.302   2.376  1.00  0.00     0.044 C 
BRANCH  19  20
ATOM     20  C   UNL     1       4.715  -0.825   2.122  1.00  0.00     0.262 C 
BRANCH  20  21
ATOM     21  N   UNL     1       5.162  -0.159   3.335  1.00  0.00    -0.357 N 
ATOM     22  H   UNL     1       4.411  -0.167   4.024  1.00  0.00     0.344 HD
ATOM     23  H   UNL     1       5.416   0.805   3.119  1.00  0.00     0.344 HD
ATOM     24  H   UNL     1       5.974  -0.648   3.711  1.00  0.00     0.344 HD
ENDBRANCH  20  21
ENDBRANCH  19  20
ENDBRANCH  12  14
ENDBRANCH   9  12
ENDBRANCH   4   6
ENDBRANCH   3   4
ENDBRANCH   2   3
ENDBRANCH   1   2
BRANCH   1  25
ATOM     25  O   UNL     1       1.116   4.491   2.396  1.00  0.00    -0.374 OA
BRANCH  25  26
ATOM     26  C   UNL     1       1.924   3.523   1.734  1.00  0.00     0.202 C 
BRANCH  26  27
ATOM     27  C   UNL     1       2.972   2.775   2.565  1.00  0.00     0.261 C 
BRANCH  27  28
ATOM     28  O   UNL     1       2.398   1.968   3.612  1.00  0.00    -0.460 OA
BRANCH  28  29
ATOM     29  C   UNL     1       2.800   2.320   4.860  1.00  0.00     0.338 C 
ATOM     30  O   UNL     1       3.643   3.168   5.135  1.00  0.00    -0.246 OA
BRANCH  29  31
ATOM     31  C   UNL     1       1.998   1.659   5.906  1.00  0.00     0.060 A 
ATOM     32  C   UNL     1       1.462   2.469   6.914  1.00  0.00     0.016 A 
ATOM     33  C   UNL     1       1.885   0.271   5.990  1.00  0.00     0.016 A 
ATOM     34  C   UNL     1       0.888   1.890   8.043  1.00  0.00     0.010 A 
ATOM     35  C   UNL     1       1.313  -0.313   7.128  1.00  0.00     0.010 A 
ATOM     36  C   UNL     1       0.857   0.495   8.183  1.00  0.00    -0.014 A 
BRANCH  36  37
ATOM     37  C   UNL     1       0.487  -0.083   9.500  1.00  0.00     0.031 A 
ATOM     38  C   UNL     1       1.575  -0.501  10.454  1.00  0.00     0.074 A 
ATOM     39  C   UNL     1      -0.804  -0.160   9.871  1.00  0.00     0.049 A 
ATOM     40  N   UNL     1       1.481  -0.923  11.689  1.00  0.00    -0.248 NA
ATOM     41  C   UNL     1       2.953  -0.437   9.943  1.00  0.00     0.031 C 
ATOM     42  C   UNL     1      -1.943   0.222   9.038  1.00  0.00     0.029 A 
ATOM     43  N   UNL     1      -1.371  -0.573  11.050  1.00  0.00    -0.354 N 
ATOM     44  C   UNL     1       2.786  -1.161  12.110  1.00  0.00     0.074 A 
ATOM     45  C   UNL     1       3.646  -0.889  10.978  1.00  0.00     0.031 C 
ATOM     46  C   UNL     1      -3.076   0.033   9.737  1.00  0.00     0.029 A 
ATOM     47  C   UNL     1      -2.744  -0.496  11.058  1.00  0.00     0.049 A 
ATOM     48  H   UNL     1      -0.845  -0.894  11.817  1.00  0.00     0.167 HD
ATOM     49  C   UNL     1       3.228  -1.552  13.332  1.00  0.00     0.034 A 
ATOM     50  C   UNL     1      -3.630  -0.814  12.023  1.00  0.00     0.034 A 
ATOM     51  C   UNL     1       2.358  -1.839  14.448  1.00  0.00     0.049 A 
ATOM     52  C   UNL     1      -3.119  -1.291  13.360  1.00  0.00     0.074 A 
ATOM     53  C   UNL     1       2.699  -2.225  15.733  1.00  0.00     0.029 A 
ATOM     54  N   UNL     1       0.970  -1.784  14.409  1.00  0.00    -0.354 N 
ATOM     55  N   UNL     1      -1.880  -1.469  13.758  1.00  0.00    -0.248 NA
ATOM     56  C   UNL     1      -4.129  -1.586  14.384  1.00  0.00     0.031 C 
ATOM     57  C   UNL     1       1.519  -2.465  16.449  1.00  0.00     0.029 A 
ATOM     58  C   UNL     1       0.441  -2.157  15.636  1.00  0.00     0.049 A 
ATOM     59  H   UNL     1       0.439  -1.518  13.623  1.00  0.00     0.167 HD
ATOM     60  C   UNL     1      -1.964  -1.869  15.090  1.00  0.00     0.074 A 
ATOM     61  C   UNL     1      -3.372  -1.886  15.429  1.00  0.00     0.031 C 
ATOM     62  C   UNL     1      -0.967  -2.188  15.957  1.00  0.00     0.034 A 
BRANCH  49  63
ATOM     63  C   UNL     1       4.718  -1.731  13.504  1.00  0.00     0.023 A 
ATOM     64  C   UNL     1       5.610  -0.648  13.394  1.00  0.00     0.031 A 
ATOM     65  C   UNL     1       5.260  -3.005  13.751  1.00  0.00     0.131 A 
ATOM     66  C   UNL     1       6.994  -0.870  13.460  1.00  0.00     0.055 A 
ATOM     67  C   UNL     1       6.635  -3.207  13.891  1.00  0.00     0.041 A 
ATOM     68  F   UNL     1       4.462  -4.080  13.846  1.00  0.00    -0.206 F 
ATOM     69  C   UNL     1       7.512  -2.138  13.731  1.00  0.00     0.022 A 
BRANCH  66  70
ATOM     70  S   UNL     1       8.113   0.498  13.048  1.00  0.00     0.124 S 
ATOM     71  O   UNL     1       7.693   0.824  11.688  1.00  0.00    -0.237 OA
ATOM     72  O   UNL     1       7.793   1.487  14.071  1.00  0.00    -0.237 OA
ATOM     73  O   UNL     1       9.442  -0.102  13.155  1.00  0.00    -0.744 OA
ENDBRANCH  66  70
ENDBRANCH  49  63
BRANCH  50  74
ATOM     74  C   UNL     1      -5.093  -0.703  11.765  1.00  0.00     0.023 A 
ATOM     75  C   UNL     1      -5.891   0.214  12.466  1.00  0.00     0.031 A 
ATOM     76  C   UNL     1      -5.723  -1.555  10.839  1.00  0.00     0.131 A 
ATOM     77  C   UNL     1      -7.280   0.228  12.265  1.00  0.00     0.055 A 
ATOM     78  C   UNL     1      -7.098  -1.504  10.608  1.00  0.00     0.041 A 
ATOM     79  F   UNL     1      -5.004  -2.446  10.139  1.00  0.00    -0.206 F 
ATOM     80  C   UNL     1      -7.887  -0.617  11.333  1.00  0.00     0.022 A 
BRANCH  77  81
ATOM     81  S   UNL     1      -8.297   1.320  13.297  1.00  0.00     0.124 S 
ATOM     82  O   UNL     1      -7.966   0.854  14.639  1.00  0.00    -0.237 OA
ATOM     83  O   UNL     1      -7.790   2.638  12.931  1.00  0.00    -0.237 OA
ATOM     84  O   UNL     1      -9.660   1.034  12.854  1.00  0.00    -0.744 OA
ENDBRANCH  77  81
ENDBRANCH  50  74
BRANCH  62  85
ATOM     85  C   UNL     1      -1.377  -2.543  17.366  1.00  0.00     0.023 A 
ATOM     86  C   UNL     1      -2.126  -3.699  17.651  1.00  0.00     0.031 A 
ATOM     87  C   UNL     1      -1.040  -1.695  18.436  1.00  0.00     0.131 A 
ATOM     88  C   UNL     1      -2.572  -3.939  18.959  1.00  0.00     0.055 A 
ATOM     89  C   UNL     1      -1.433  -1.972  19.747  1.00  0.00     0.041 A 
ATOM     90  F   UNL     1      -0.326  -0.577  18.224  1.00  0.00    -0.206 F 
ATOM     91  C   UNL     1      -2.218  -3.090  20.012  1.00  0.00     0.022 A 
BRANCH  88  92
ATOM     92  S   UNL     1      -3.718  -5.315  19.250  1.00  0.00     0.124 S 
ATOM     93  O   UNL     1      -4.806  -5.005  18.328  1.00  0.00    -0.237 OA
ATOM     94  O   UNL     1      -2.903  -6.476  18.907  1.00  0.00    -0.237 OA
ATOM     95  O   UNL     1      -4.052  -5.190  20.668  1.00  0.00    -0.744 OA
ENDBRANCH  88  92
ENDBRANCH  62  85
ENDBRANCH  36  37
ENDBRANCH  29  31
ENDBRANCH  28  29
ENDBRANCH  27  28
ENDBRANCH  26  27
ENDBRANCH  25  26
ENDBRANCH   1  25
TORSDOF 21
