REMARK SMILES COC(=O)[C@@H]1CCN(S(=O)(=O)N2CCC(C(=O)OCCOCCOC(=O)c3ccc(-c4c5nc(c(-c6cc(S(=O)(=O)[O-])ccc6F)c6ccc([nH]6)c(-c6cc(S(=O)(=O)[O-])ccc6F)c6nc(c(-c7cc(S(=O)(=O)[O-])ccc7F)c7ccc4[nH]7)C=C6)C=C5)cc3)CC2)C1
REMARK SMILES IDX 20 1 19 2 18 3 16 4 17 5 15 6 12 7 13 8 91 9 14 10 90 11
REMARK SMILES IDX 9 12 10 13 11 14 8 15 5 16 6 17 92 18 7 19 3 20 4 21 2 22
REMARK SMILES IDX 1 23 21 24 22 25 23 26 24 27 25 28 26 29 27 30 28 31 89 32
REMARK SMILES IDX 29 33 88 34 30 35 31 36 32 37 82 38 33 39 87 40 81 41 83 42
REMARK SMILES IDX 34 43 86 44 80 45 79 46 35 48 67 49 47 50 66 51 48 52 51 53
REMARK SMILES IDX 65 54 84 55 49 56 50 57 64 59 85 60 52 61 36 62 37 63 45 64
REMARK SMILES IDX 38 65 44 66 46 67 43 68 39 69 40 70 41 71 42 72 68 73 69 74
REMARK SMILES IDX 77 75 70 76 76 77 78 78 75 79 71 80 72 81 73 82 74 83 53 84
REMARK SMILES IDX 54 85 62 86 55 87 61 88 63 89 60 90 56 91 57 92 58 93 59 94
REMARK H PARENT 83 47 51 58
REMARK Flexibility Score: inf
ROOT
ATOM      1  C   UNL     1       1.217  15.224  -0.396  1.00  0.00     0.202 C 
ENDROOT
BRANCH   1   2
ATOM      2  C   UNL     1       0.657  14.227  -1.412  1.00  0.00     0.261 C 
BRANCH   2   3
ATOM      3  O   UNL     1       0.358  12.954  -0.823  1.00  0.00    -0.463 OA
BRANCH   3   4
ATOM      4  C   UNL     1       1.259  11.986  -1.111  1.00  0.00     0.309 C 
ATOM      5  O   UNL     1       2.236  12.113  -1.842  1.00  0.00    -0.252 OA
BRANCH   4   6
ATOM      6  C   UNL     1       0.933  10.667  -0.471  1.00  0.00     0.102 C 
ATOM      7  N   UNL     1      -0.460   8.329   0.396  1.00  0.00    -0.189 NA
ATOM      8  C   UNL     1       0.178   9.191   1.417  1.00  0.00     0.104 C 
ATOM      9  C   UNL     1       0.072   8.445  -0.972  1.00  0.00     0.104 C 
ATOM     10  C   UNL     1       0.298  10.642   0.920  1.00  0.00     0.032 C 
ATOM     11  C   UNL     1       0.051   9.883  -1.431  1.00  0.00     0.032 C 
BRANCH   7  12
ATOM     12  S   UNL     1      -1.038   6.830   0.885  1.00  0.00     0.281 S 
ATOM     13  O   UNL     1      -1.745   6.220  -0.215  1.00  0.00    -0.195 OA
ATOM     14  O   UNL     1      -1.680   6.997   2.171  1.00  0.00    -0.195 OA
BRANCH  12  15
ATOM     15  N   UNL     1       0.363   5.904   1.163  1.00  0.00    -0.188 NA
ATOM     16  C   UNL     1       0.046   3.581   0.543  1.00  0.00     0.116 C 
ATOM     17  C   UNL     1       0.689   4.338  -0.609  1.00  0.00     0.033 C 
ATOM     18  C   UNL     1       0.036   4.547   1.734  1.00  0.00     0.118 C 
ATOM     19  C   UNL     1       1.275   5.569   0.047  1.00  0.00     0.104 C 
BRANCH  16  20
ATOM     20  C   UNL     1       0.820   2.319   0.825  1.00  0.00     0.310 C 
ATOM     21  O   UNL     1       1.680   2.188   1.683  1.00  0.00    -0.252 OA
BRANCH  20  22
ATOM     22  O   UNL     1       0.450   1.353  -0.064  1.00  0.00    -0.469 OA
ATOM     23  C   UNL     1       1.125   0.107   0.108  1.00  0.00     0.282 C 
ENDBRANCH  20  22
ENDBRANCH  16  20
ENDBRANCH  12  15
ENDBRANCH   7  12
ENDBRANCH   4   6
ENDBRANCH   3   4
ENDBRANCH   2   3
ENDBRANCH   1   2
BRANCH   1  24
ATOM     24  O   UNL     1       2.395  14.870   0.322  1.00  0.00    -0.374 OA
BRANCH  24  25
ATOM     25  C   UNL     1       2.299  13.893   1.356  1.00  0.00     0.202 C 
BRANCH  25  26
ATOM     26  C   UNL     1       1.501  14.221   2.626  1.00  0.00     0.261 C 
BRANCH  26  27
ATOM     27  O   UNL     1       0.101  14.448   2.385  1.00  0.00    -0.460 OA
BRANCH  27  28
ATOM     28  C   UNL     1      -0.287  15.739   2.557  1.00  0.00     0.338 C 
ATOM     29  O   UNL     1       0.417  16.670   2.912  1.00  0.00    -0.246 OA
BRANCH  28  30
ATOM     30  C   UNL     1      -1.657  15.937   2.049  1.00  0.00     0.060 A 
ATOM     31  C   UNL     1      -1.839  16.902   1.049  1.00  0.00     0.016 A 
ATOM     32  C   UNL     1      -2.751  15.278   2.608  1.00  0.00     0.016 A 
ATOM     33  C   UNL     1      -3.122  17.250   0.639  1.00  0.00     0.010 A 
ATOM     34  C   UNL     1      -4.042  15.636   2.201  1.00  0.00     0.010 A 
ATOM     35  C   UNL     1      -4.234  16.650   1.243  1.00  0.00    -0.014 A 
BRANCH  35  36
ATOM     36  C   UNL     1      -5.588  17.198   0.977  1.00  0.00     0.031 A 
ATOM     37  C   UNL     1      -6.239  18.072   2.014  1.00  0.00     0.074 A 
ATOM     38  C   UNL     1      -6.207  16.959  -0.193  1.00  0.00     0.049 A 
ATOM     39  N   UNL     1      -7.428  18.617   2.015  1.00  0.00    -0.248 NA
ATOM     40  C   UNL     1      -5.440  18.365   3.213  1.00  0.00     0.031 C 
ATOM     41  C   UNL     1      -5.651  16.174  -1.294  1.00  0.00     0.029 A 
ATOM     42  N   UNL     1      -7.442  17.350  -0.647  1.00  0.00    -0.354 N 
ATOM     43  C   UNL     1      -7.524  19.314   3.215  1.00  0.00     0.074 A 
ATOM     44  C   UNL     1      -6.289  19.081   3.934  1.00  0.00     0.031 C 
ATOM     45  C   UNL     1      -6.547  16.132  -2.294  1.00  0.00     0.029 A 
ATOM     46  C   UNL     1      -7.756  16.845  -1.887  1.00  0.00     0.049 A 
ATOM     47  H   UNL     1      -8.044  17.936  -0.135  1.00  0.00     0.167 HD
ATOM     48  C   UNL     1      -8.544  20.087   3.668  1.00  0.00     0.034 A 
ATOM     49  C   UNL     1      -8.901  16.919  -2.596  1.00  0.00     0.034 A 
ATOM     50  C   UNL     1      -9.774  20.293   2.943  1.00  0.00     0.049 A 
ATOM     51  C   UNL     1     -10.064  17.697  -2.028  1.00  0.00     0.074 A 
ATOM     52  C   UNL     1     -10.871  21.056   3.304  1.00  0.00     0.029 A 
ATOM     53  N   UNL     1     -10.080  19.721   1.713  1.00  0.00    -0.354 N 
ATOM     54  N   UNL     1     -10.146  18.351  -0.891  1.00  0.00    -0.248 NA
ATOM     55  C   UNL     1     -11.284  17.754  -2.842  1.00  0.00     0.031 C 
ATOM     56  C   UNL     1     -11.868  20.878   2.339  1.00  0.00     0.029 A 
ATOM     57  C   UNL     1     -11.361  20.084   1.322  1.00  0.00     0.049 A 
ATOM     58  H   UNL     1      -9.475  19.143   1.194  1.00  0.00     0.167 HD
ATOM     59  C   UNL     1     -11.416  18.923  -0.872  1.00  0.00     0.074 A 
ATOM     60  C   UNL     1     -12.056  18.548  -2.116  1.00  0.00     0.031 C 
ATOM     61  C   UNL     1     -11.997  19.694   0.084  1.00  0.00     0.034 A 
BRANCH  48  62
ATOM     62  C   UNL     1      -8.385  20.715   5.034  1.00  0.00     0.023 A 
ATOM     63  C   UNL     1      -7.361  21.639   5.311  1.00  0.00     0.031 A 
ATOM     64  C   UNL     1      -9.247  20.357   6.086  1.00  0.00     0.131 A 
ATOM     65  C   UNL     1      -7.176  22.108   6.621  1.00  0.00     0.055 A 
ATOM     66  C   UNL     1      -9.113  20.898   7.367  1.00  0.00     0.041 A 
ATOM     67  F   UNL     1     -10.228  19.461   5.893  1.00  0.00    -0.206 F 
ATOM     68  C   UNL     1      -8.062  21.766   7.645  1.00  0.00     0.022 A 
BRANCH  65  69
ATOM     69  S   UNL     1      -5.666  23.038   7.001  1.00  0.00     0.124 S 
ATOM     70  O   UNL     1      -4.628  22.094   6.595  1.00  0.00    -0.237 OA
ATOM     71  O   UNL     1      -5.809  24.227   6.169  1.00  0.00    -0.237 OA
ATOM     72  O   UNL     1      -5.758  23.269   8.441  1.00  0.00    -0.744 OA
ENDBRANCH  65  69
ENDBRANCH  48  62
BRANCH  49  73
ATOM     73  C   UNL     1      -9.026  16.197  -3.896  1.00  0.00     0.023 A 
ATOM     74  C   UNL     1      -9.248  16.887  -5.097  1.00  0.00     0.031 A 
ATOM     75  C   UNL     1      -8.969  14.791  -3.944  1.00  0.00     0.131 A 
ATOM     76  C   UNL     1      -9.447  16.170  -6.288  1.00  0.00     0.055 A 
ATOM     77  C   UNL     1      -9.107  14.086  -5.140  1.00  0.00     0.041 A 
ATOM     78  F   UNL     1      -8.764  14.081  -2.823  1.00  0.00    -0.206 F 
ATOM     79  C   UNL     1      -9.361  14.776  -6.320  1.00  0.00     0.022 A 
BRANCH  76  80
ATOM     80  S   UNL     1      -9.912  17.083  -7.785  1.00  0.00     0.124 S 
ATOM     81  O   UNL     1     -11.140  17.744  -7.359  1.00  0.00    -0.237 OA
ATOM     82  O   UNL     1      -8.753  17.947  -7.984  1.00  0.00    -0.237 OA
ATOM     83  O   UNL     1     -10.082  16.031  -8.785  1.00  0.00    -0.744 OA
ENDBRANCH  76  80
ENDBRANCH  49  73
BRANCH  61  84
ATOM     84  C   UNL     1     -13.382  20.226  -0.205  1.00  0.00     0.023 A 
ATOM     85  C   UNL     1     -14.495  19.378  -0.338  1.00  0.00     0.031 A 
ATOM     86  C   UNL     1     -13.588  21.610  -0.356  1.00  0.00     0.131 A 
ATOM     87  C   UNL     1     -15.749  19.914  -0.672  1.00  0.00     0.055 A 
ATOM     88  C   UNL     1     -14.851  22.144  -0.618  1.00  0.00     0.041 A 
ATOM     89  F   UNL     1     -12.563  22.470  -0.246  1.00  0.00    -0.206 F 
ATOM     90  C   UNL     1     -15.938  21.293  -0.792  1.00  0.00     0.022 A 
BRANCH  87  91
ATOM     91  S   UNL     1     -17.110  18.777  -1.056  1.00  0.00     0.124 S 
ATOM     92  O   UNL     1     -16.551  17.997  -2.155  1.00  0.00    -0.237 OA
ATOM     93  O   UNL     1     -17.288  18.066   0.205  1.00  0.00    -0.237 OA
ATOM     94  O   UNL     1     -18.208  19.669  -1.424  1.00  0.00    -0.744 OA
ENDBRANCH  87  91
ENDBRANCH  61  84
ENDBRANCH  35  36
ENDBRANCH  28  30
ENDBRANCH  27  28
ENDBRANCH  26  27
ENDBRANCH  25  26
ENDBRANCH  24  25
ENDBRANCH   1  24
TORSDOF 21
