REMARK SMILES O=C(OCCOCCOC(=O)c1cccc(Nc2ccnc3ccc(F)cc23)c1)c1ccc(-c2c3nc(c(-c4cc(S(=O)(=O)[O-])ccc4F)c4ccc([nH]4)c(-c4cc(S(=O)(=O)[O-])ccc4F)c4nc(c(-c5cc(S(=O)(=O)[O-])ccc5F)c5ccc2[nH]5)C=C4)C=C3)cc1
REMARK SMILES IDX 5 1 4 2 3 3 2 4 1 5 30 6 31 7 92 8 32 9 91 10 33 11 34 12
REMARK SMILES IDX 35 13 85 14 36 15 90 16 84 17 86 18 37 19 89 20 83 21 82 22
REMARK SMILES IDX 38 24 70 25 50 26 69 27 51 28 54 29 68 30 87 31 52 32 53 33
REMARK SMILES IDX 67 35 88 36 55 37 39 38 40 39 48 40 41 41 47 42 49 43 46 44
REMARK SMILES IDX 42 45 43 46 44 47 45 48 71 49 72 50 80 51 73 52 79 53 81 54
REMARK SMILES IDX 78 55 74 56 75 57 76 58 77 59 56 60 57 61 65 62 58 63 64 64
REMARK SMILES IDX 66 65 63 66 59 67 60 68 61 69 62 70 6 71 7 72 8 73 9 74
REMARK SMILES IDX 10 75 11 76 12 77 13 78 29 79 14 80 16 81 15 82 17 83 18 85
REMARK SMILES IDX 19 86 28 87 20 88 22 89 27 90 21 91 23 92 25 93 24 94 26 95
REMARK H PARENT 86 23 54 34 17 84
REMARK Flexibility Score: inf
ROOT
ATOM      1  C   UNL     1       4.360  -0.119  -1.548  1.00  0.00     0.202 C 
ENDROOT
BRANCH   1   2
ATOM      2  C   UNL     1       3.962  -1.126  -0.468  1.00  0.00     0.261 C 
BRANCH   2   3
ATOM      3  O   UNL     1       2.567  -0.997  -0.156  1.00  0.00    -0.460 OA
BRANCH   3   4
ATOM      4  C   UNL     1       2.028  -0.411   0.940  1.00  0.00     0.338 C 
ATOM      5  O   UNL     1       0.806  -0.400   1.071  1.00  0.00    -0.246 OA
BRANCH   4   6
ATOM      6  C   UNL     1       2.863   0.197   2.012  1.00  0.00     0.060 A 
ATOM      7  C   UNL     1       4.063   0.867   1.778  1.00  0.00     0.016 A 
ATOM      8  C   UNL     1       2.374   0.149   3.325  1.00  0.00     0.016 A 
ATOM      9  C   UNL     1       4.825   1.372   2.813  1.00  0.00     0.010 A 
ATOM     10  C   UNL     1       3.098   0.729   4.372  1.00  0.00     0.010 A 
ATOM     11  C   UNL     1       4.341   1.320   4.115  1.00  0.00    -0.014 A 
BRANCH  11  12
ATOM     12  C   UNL     1       5.231   1.817   5.179  1.00  0.00     0.031 A 
ATOM     13  C   UNL     1       5.905   0.817   6.064  1.00  0.00     0.074 A 
ATOM     14  C   UNL     1       5.542   3.126   5.210  1.00  0.00     0.049 A 
ATOM     15  N   UNL     1       6.723   1.012   7.060  1.00  0.00    -0.248 NA
ATOM     16  C   UNL     1       5.624  -0.600   5.779  1.00  0.00     0.031 C 
ATOM     17  C   UNL     1       5.028   4.134   4.276  1.00  0.00     0.029 A 
ATOM     18  N   UNL     1       6.396   3.827   6.015  1.00  0.00    -0.354 N 
ATOM     19  C   UNL     1       7.030  -0.254   7.546  1.00  0.00     0.074 A 
ATOM     20  C   UNL     1       6.298  -1.207   6.741  1.00  0.00     0.031 C 
ATOM     21  C   UNL     1       5.618   5.312   4.532  1.00  0.00     0.029 A 
ATOM     22  C   UNL     1       6.475   5.164   5.701  1.00  0.00     0.049 A 
ATOM     23  H   UNL     1       6.907   3.414   6.748  1.00  0.00     0.167 HD
ATOM     24  C   UNL     1       7.844  -0.576   8.580  1.00  0.00     0.034 A 
ATOM     25  C   UNL     1       7.141   6.157   6.320  1.00  0.00     0.034 A 
ATOM     26  C   UNL     1       8.543   0.420   9.354  1.00  0.00     0.049 A 
ATOM     27  C   UNL     1       7.947   5.787   7.539  1.00  0.00     0.074 A 
ATOM     28  C   UNL     1       9.339   0.253  10.471  1.00  0.00     0.029 A 
ATOM     29  N   UNL     1       8.518   1.787   9.083  1.00  0.00    -0.354 N 
ATOM     30  N   UNL     1       8.162   4.596   8.056  1.00  0.00    -0.248 NA
ATOM     31  C   UNL     1       8.586   6.887   8.265  1.00  0.00     0.031 C 
ATOM     32  C   UNL     1       9.735   1.520  10.915  1.00  0.00     0.029 A 
ATOM     33  C   UNL     1       9.259   2.476  10.029  1.00  0.00     0.049 A 
ATOM     34  H   UNL     1       8.043   2.203   8.328  1.00  0.00     0.167 HD
ATOM     35  C   UNL     1       8.984   4.803   9.157  1.00  0.00     0.074 A 
ATOM     36  C   UNL     1       9.241   6.231   9.211  1.00  0.00     0.031 C 
ATOM     37  C   UNL     1       9.482   3.905  10.047  1.00  0.00     0.034 A 
BRANCH  24  38
ATOM     38  C   UNL     1       7.899  -2.032   8.974  1.00  0.00     0.023 A 
ATOM     39  C   UNL     1       8.382  -3.028   8.104  1.00  0.00     0.031 A 
ATOM     40  C   UNL     1       7.344  -2.445  10.199  1.00  0.00     0.131 A 
ATOM     41  C   UNL     1       8.205  -4.384   8.426  1.00  0.00     0.055 A 
ATOM     42  C   UNL     1       7.255  -3.793  10.553  1.00  0.00     0.041 A 
ATOM     43  F   UNL     1       6.836  -1.547  11.057  1.00  0.00    -0.206 F 
ATOM     44  C   UNL     1       7.667  -4.773   9.655  1.00  0.00     0.022 A 
BRANCH  41  45
ATOM     45  S   UNL     1       8.506  -5.628   7.138  1.00  0.00     0.124 S 
ATOM     46  O   UNL     1       7.579  -5.200   6.092  1.00  0.00    -0.237 OA
ATOM     47  O   UNL     1       9.923  -5.446   6.847  1.00  0.00    -0.237 OA
ATOM     48  O   UNL     1       8.159  -6.889   7.790  1.00  0.00    -0.744 OA
ENDBRANCH  41  45
ENDBRANCH  24  38
BRANCH  25  49
ATOM     49  C   UNL     1       7.023   7.572   5.856  1.00  0.00     0.023 A 
ATOM     50  C   UNL     1       8.152   8.313   5.473  1.00  0.00     0.031 A 
ATOM     51  C   UNL     1       5.776   8.227   5.837  1.00  0.00     0.131 A 
ATOM     52  C   UNL     1       8.020   9.669   5.130  1.00  0.00     0.055 A 
ATOM     53  C   UNL     1       5.641   9.557   5.436  1.00  0.00     0.041 A 
ATOM     54  F   UNL     1       4.659   7.576   6.201  1.00  0.00    -0.206 F 
ATOM     55  C   UNL     1       6.770  10.291   5.094  1.00  0.00     0.022 A 
BRANCH  52  56
ATOM     56  S   UNL     1       9.521  10.641   4.824  1.00  0.00     0.124 S 
ATOM     57  O   UNL     1      10.255  10.454   6.070  1.00  0.00    -0.237 OA
ATOM     58  O   UNL     1      10.074   9.981   3.647  1.00  0.00    -0.237 OA
ATOM     59  O   UNL     1       9.011  11.992   4.597  1.00  0.00    -0.744 OA
ENDBRANCH  52  56
ENDBRANCH  25  49
BRANCH  37  60
ATOM     60  C   UNL     1      10.390   4.457  11.115  1.00  0.00     0.023 A 
ATOM     61  C   UNL     1       9.915   5.325  12.112  1.00  0.00     0.031 A 
ATOM     62  C   UNL     1      11.756   4.123  11.117  1.00  0.00     0.131 A 
ATOM     63  C   UNL     1      10.813   5.884  13.031  1.00  0.00     0.055 A 
ATOM     64  C   UNL     1      12.631   4.626  12.079  1.00  0.00     0.041 A 
ATOM     65  F   UNL     1      12.260   3.299  10.184  1.00  0.00    -0.206 F 
ATOM     66  C   UNL     1      12.164   5.525  13.033  1.00  0.00     0.022 A 
BRANCH  63  67
ATOM     67  S   UNL     1      10.212   7.175  14.153  1.00  0.00     0.124 S 
ATOM     68  O   UNL     1       9.708   8.177  13.220  1.00  0.00    -0.237 OA
ATOM     69  O   UNL     1       9.203   6.465  14.933  1.00  0.00    -0.237 OA
ATOM     70  O   UNL     1      11.408   7.566  14.897  1.00  0.00    -0.744 OA
ENDBRANCH  63  67
ENDBRANCH  37  60
ENDBRANCH  11  12
ENDBRANCH   4   6
ENDBRANCH   3   4
ENDBRANCH   2   3
ENDBRANCH   1   2
BRANCH   1  71
ATOM     71  O   UNL     1       4.115   1.261  -1.261  1.00  0.00    -0.374 OA
BRANCH  71  72
ATOM     72  C   UNL     1       2.787   1.730  -1.525  1.00  0.00     0.202 C 
BRANCH  72  73
ATOM     73  C   UNL     1       2.813   2.812  -2.609  1.00  0.00     0.261 C 
BRANCH  73  74
ATOM     74  O   UNL     1       3.296   2.209  -3.821  1.00  0.00    -0.460 OA
BRANCH  74  75
ATOM     75  C   UNL     1       4.629   2.361  -4.014  1.00  0.00     0.338 C 
ATOM     76  O   UNL     1       5.333   3.288  -3.651  1.00  0.00    -0.246 OA
BRANCH  75  77
ATOM     77  C   UNL     1       5.147   1.084  -4.540  1.00  0.00     0.062 A 
ATOM     78  C   UNL     1       6.312   0.566  -3.961  1.00  0.00     0.016 A 
ATOM     79  C   UNL     1       4.489   0.392  -5.559  1.00  0.00     0.041 A 
ATOM     80  C   UNL     1       6.764  -0.699  -4.323  1.00  0.00     0.003 A 
ATOM     81  C   UNL     1       5.054  -0.795  -6.047  1.00  0.00     0.039 A 
ATOM     82  C   UNL     1       6.138  -1.377  -5.365  1.00  0.00     0.026 A 
BRANCH  81  83
ATOM     83  N   UNL     1       4.907  -1.105  -7.444  1.00  0.00    -0.355 N 
ATOM     84  H   UNL     1       4.153  -1.630  -7.797  1.00  0.00     0.167 HD
BRANCH  83  85
ATOM     85  C   UNL     1       5.954  -0.587  -8.279  1.00  0.00     0.050 A 
ATOM     86  C   UNL     1       6.209   0.791  -8.227  1.00  0.00     0.047 A 
ATOM     87  C   UNL     1       6.844  -1.423  -8.983  1.00  0.00     0.027 A 
ATOM     88  C   UNL     1       7.419   1.256  -8.682  1.00  0.00     0.114 A 
ATOM     89  C   UNL     1       8.024  -0.815  -9.477  1.00  0.00     0.072 A 
ATOM     90  C   UNL     1       6.627  -2.799  -9.218  1.00  0.00     0.051 A 
ATOM     91  N   UNL     1       8.325   0.478  -9.296  1.00  0.00    -0.256 NA
ATOM     92  C   UNL     1       8.925  -1.578 -10.199  1.00  0.00     0.032 A 
ATOM     93  C   UNL     1       7.530  -3.518  -9.993  1.00  0.00     0.124 A 
ATOM     94  C   UNL     1       8.677  -2.918 -10.489  1.00  0.00     0.041 A 
ATOM     95  F   UNL     1       7.282  -4.801 -10.286  1.00  0.00    -0.207 F 
ENDBRANCH  83  85
ENDBRANCH  81  83
ENDBRANCH  75  77
ENDBRANCH  74  75
ENDBRANCH  73  74
ENDBRANCH  72  73
ENDBRANCH  71  72
ENDBRANCH   1  71
TORSDOF 19
