REMARK SMILES CC(C)[C@H](NC(=O)[C@H](C)NC(=O)CNC(=O)OCc1ccccc1)C(=O)OCCOCCOC(=O)c1ccc(-c2c3nc(c(-c4cc(S(=O)(=O)[O-])ccc4F)c4ccc([nH]4)c(-c4cc(S(=O)(=O)[O-])ccc4F)c4nc(c(-c5cc(S(=O)(=O)[O-])ccc5F)c5ccc2[nH]5)C=C4)C=C3)cc1
REMARK SMILES IDX 28 1 27 2 25 3 26 4 4 5 2 6 1 7 3 8 5 9 6 10 7 12 8 13 9 14
REMARK SMILES IDX 10 15 11 16 12 18 13 19 14 20 15 21 16 23 17 24 18 25 19 26
REMARK SMILES IDX 20 27 24 28 21 29 23 30 22 31 29 32 30 33 31 34 32 35 33 36
REMARK SMILES IDX 34 37 35 38 36 39 37 40 98 41 38 42 97 43 39 44 40 45 41 46
REMARK SMILES IDX 91 47 42 48 96 49 90 50 92 51 43 52 95 53 89 54 88 55 44 57
REMARK SMILES IDX 76 58 56 59 75 60 57 61 60 62 74 63 93 64 58 65 59 66 73 68
REMARK SMILES IDX 94 69 61 70 45 71 46 72 54 73 47 74 53 75 55 76 52 77 48 78
REMARK SMILES IDX 49 79 50 80 51 81 77 82 78 83 86 84 79 85 85 86 87 87 84 88
REMARK SMILES IDX 80 89 81 90 82 91 83 92 62 93 63 94 71 95 64 96 70 97 72 98
REMARK SMILES IDX 69 99 65 100 66 101 67 102 68 103
REMARK H PARENT 5 11 10 17 14 22 92 56 60 67
REMARK Flexibility Score: inf
ROOT
ATOM      1  C   UNL     1       0.890   2.801  -7.261  1.00  0.00     0.261 C 
ENDROOT
BRANCH   1   2
ATOM      2  O   UNL     1       0.257   2.207  -6.118  1.00  0.00    -0.462 OA
BRANCH   2   3
ATOM      3  C   UNL     1      -0.817   2.917  -5.686  1.00  0.00     0.328 C 
ATOM      4  O   UNL     1      -1.183   3.981  -6.181  1.00  0.00    -0.250 OA
BRANCH   3   5
ATOM      5  C   UNL     1      -1.585   2.269  -4.520  1.00  0.00     0.194 C 
BRANCH   5   6
ATOM      6  C   UNL     1      -1.614   3.166  -3.276  1.00  0.00     0.017 C 
ATOM      7  C   UNL     1      -1.443   4.672  -3.478  1.00  0.00     0.010 C 
ATOM      8  C   UNL     1      -2.841   2.884  -2.412  1.00  0.00     0.010 C 
ENDBRANCH   5   6
BRANCH   5   9
ATOM      9  N   UNL     1      -1.372   0.823  -4.215  1.00  0.00    -0.341 N 
ATOM     10  C   UNL     1      -0.653   0.032  -3.375  1.00  0.00     0.242 C 
ATOM     11  H   UNL     1      -1.927   0.268  -4.809  1.00  0.00     0.164 HD
ATOM     12  O   UNL     1      -0.922  -1.175  -3.458  1.00  0.00    -0.273 OA
BRANCH  10  13
ATOM     13  C   UNL     1       0.480   0.520  -2.438  1.00  0.00     0.168 C 
ATOM     14  C   UNL     1       1.228  -0.677  -1.833  1.00  0.00     0.041 C 
BRANCH  13  15
ATOM     15  N   UNL     1       0.106   1.390  -1.322  1.00  0.00    -0.343 N 
ATOM     16  C   UNL     1       0.680   2.579  -0.941  1.00  0.00     0.240 C 
ATOM     17  H   UNL     1      -0.653   1.085  -0.774  1.00  0.00     0.164 HD
ATOM     18  O   UNL     1       0.253   3.144   0.068  1.00  0.00    -0.273 OA
BRANCH  16  19
ATOM     19  C   UNL     1       1.773   3.223  -1.812  1.00  0.00     0.219 C 
BRANCH  19  20
ATOM     20  N   UNL     1       2.985   2.455  -1.680  1.00  0.00    -0.312 N 
ATOM     21  C   UNL     1       3.557   1.678  -2.637  1.00  0.00     0.407 C 
ATOM     22  H   UNL     1       3.444   2.498  -0.810  1.00  0.00     0.167 HD
ATOM     23  O   UNL     1       4.389   0.838  -2.337  1.00  0.00    -0.225 OA
BRANCH  21  24
ATOM     24  O   UNL     1       3.083   1.927  -3.885  1.00  0.00    -0.445 OA
BRANCH  24  25
ATOM     25  C   UNL     1       3.801   1.289  -4.951  1.00  0.00     0.270 C 
BRANCH  25  26
ATOM     26  C   UNL     1       4.955   2.189  -5.295  1.00  0.00    -0.011 A 
ATOM     27  C   UNL     1       6.108   2.150  -4.498  1.00  0.00     0.007 A 
ATOM     28  C   UNL     1       4.885   3.129  -6.328  1.00  0.00     0.007 A 
ATOM     29  C   UNL     1       7.143   3.056  -4.694  1.00  0.00     0.000 A 
ATOM     30  C   UNL     1       5.946   4.008  -6.554  1.00  0.00     0.000 A 
ATOM     31  C   UNL     1       7.071   3.974  -5.733  1.00  0.00     0.000 A 
ENDBRANCH  25  26
ENDBRANCH  24  25
ENDBRANCH  21  24
ENDBRANCH  19  20
ENDBRANCH  16  19
ENDBRANCH  13  15
ENDBRANCH  10  13
ENDBRANCH   5   9
ENDBRANCH   3   5
ENDBRANCH   2   3
ENDBRANCH   1   2
BRANCH   1  32
ATOM     32  C   UNL     1       0.512   2.159  -8.599  1.00  0.00     0.202 C 
BRANCH  32  33
ATOM     33  O   UNL     1      -0.864   1.925  -8.870  1.00  0.00    -0.374 OA
BRANCH  33  34
ATOM     34  C   UNL     1      -1.538   0.893  -8.158  1.00  0.00     0.202 C 
BRANCH  34  35
ATOM     35  C   UNL     1      -1.112  -0.567  -8.358  1.00  0.00     0.261 C 
BRANCH  35  36
ATOM     36  O   UNL     1       0.239  -0.844  -7.951  1.00  0.00    -0.460 OA
BRANCH  36  37
ATOM     37  C   UNL     1       1.083  -1.099  -8.985  1.00  0.00     0.338 C 
ATOM     38  O   UNL     1       0.805  -1.065 -10.173  1.00  0.00    -0.246 OA
BRANCH  37  39
ATOM     39  C   UNL     1       2.470  -1.258  -8.511  1.00  0.00     0.060 A 
ATOM     40  C   UNL     1       3.455  -0.457  -9.103  1.00  0.00     0.016 A 
ATOM     41  C   UNL     1       2.824  -2.272  -7.621  1.00  0.00     0.016 A 
ATOM     42  C   UNL     1       4.804  -0.716  -8.865  1.00  0.00     0.010 A 
ATOM     43  C   UNL     1       4.180  -2.528  -7.383  1.00  0.00     0.010 A 
ATOM     44  C   UNL     1       5.181  -1.783  -8.039  1.00  0.00    -0.014 A 
BRANCH  44  45
ATOM     45  C   UNL     1       6.605  -2.209  -7.963  1.00  0.00     0.031 A 
ATOM     46  C   UNL     1       7.048  -3.458  -8.665  1.00  0.00     0.074 A 
ATOM     47  C   UNL     1       7.529  -1.474  -7.320  1.00  0.00     0.049 A 
ATOM     48  N   UNL     1       8.228  -4.022  -8.674  1.00  0.00    -0.248 NA
ATOM     49  C   UNL     1       6.040  -4.143  -9.486  1.00  0.00     0.031 C 
ATOM     50  C   UNL     1       7.284  -0.165  -6.739  1.00  0.00     0.029 A 
ATOM     51  N   UNL     1       8.855  -1.719  -7.047  1.00  0.00    -0.354 N 
ATOM     52  C   UNL     1       8.118  -5.112  -9.524  1.00  0.00     0.074 A 
ATOM     53  C   UNL     1       6.734  -5.169  -9.953  1.00  0.00     0.031 C 
ATOM     54  C   UNL     1       8.405   0.255  -6.135  1.00  0.00     0.029 A 
ATOM     55  C   UNL     1       9.424  -0.769  -6.234  1.00  0.00     0.049 A 
ATOM     56  H   UNL     1       9.346  -2.497  -7.398  1.00  0.00     0.167 HD
ATOM     57  C   UNL     1       9.091  -5.964  -9.932  1.00  0.00     0.034 A 
ATOM     58  C   UNL     1      10.614  -0.712  -5.605  1.00  0.00     0.034 A 
ATOM     59  C   UNL     1      10.462  -5.907  -9.480  1.00  0.00     0.049 A 
ATOM     60  C   UNL     1      11.620  -1.781  -5.896  1.00  0.00     0.074 A 
ATOM     61  C   UNL     1      11.519  -6.726  -9.839  1.00  0.00     0.029 A 
ATOM     62  N   UNL     1      10.967  -4.997  -8.558  1.00  0.00    -0.354 N 
ATOM     63  N   UNL     1      11.503  -2.812  -6.697  1.00  0.00    -0.248 NA
ATOM     64  C   UNL     1      12.930  -1.655  -5.250  1.00  0.00     0.031 C 
ATOM     65  C   UNL     1      12.635  -6.369  -9.073  1.00  0.00     0.029 A 
ATOM     66  C   UNL     1      12.305  -5.268  -8.300  1.00  0.00     0.049 A 
ATOM     67  H   UNL     1      10.451  -4.267  -8.147  1.00  0.00     0.167 HD
ATOM     68  C   UNL     1      12.748  -3.426  -6.701  1.00  0.00     0.074 A 
ATOM     69  C   UNL     1      13.596  -2.651  -5.816  1.00  0.00     0.031 C 
ATOM     70  C   UNL     1      13.150  -4.516  -7.400  1.00  0.00     0.034 A 
BRANCH  57  71
ATOM     71  C   UNL     1       8.677  -7.061 -10.880  1.00  0.00     0.023 A 
ATOM     72  C   UNL     1       8.182  -6.779 -12.166  1.00  0.00     0.031 A 
ATOM     73  C   UNL     1       8.730  -8.406 -10.474  1.00  0.00     0.131 A 
ATOM     74  C   UNL     1       7.684  -7.818 -12.966  1.00  0.00     0.055 A 
ATOM     75  C   UNL     1       8.315  -9.443 -11.310  1.00  0.00     0.041 A 
ATOM     76  F   UNL     1       9.167  -8.732  -9.248  1.00  0.00    -0.206 F 
ATOM     77  C   UNL     1       7.773  -9.151 -12.558  1.00  0.00     0.022 A 
BRANCH  74  78
ATOM     78  S   UNL     1       6.770  -7.388 -14.473  1.00  0.00     0.124 S 
ATOM     79  O   UNL     1       5.693  -6.558 -13.937  1.00  0.00    -0.237 OA
ATOM     80  O   UNL     1       7.777  -6.694 -15.267  1.00  0.00    -0.237 OA
ATOM     81  O   UNL     1       6.345  -8.684 -14.997  1.00  0.00    -0.744 OA
ENDBRANCH  74  78
ENDBRANCH  57  71
BRANCH  58  82
ATOM     82  C   UNL     1      10.902   0.378  -4.628  1.00  0.00     0.023 A 
ATOM     83  C   UNL     1      11.904   1.330  -4.863  1.00  0.00     0.031 A 
ATOM     84  C   UNL     1      10.189   0.458  -3.416  1.00  0.00     0.131 A 
ATOM     85  C   UNL     1      12.197   2.295  -3.885  1.00  0.00     0.055 A 
ATOM     86  C   UNL     1      10.453   1.447  -2.466  1.00  0.00     0.041 A 
ATOM     87  F   UNL     1       9.215  -0.424  -3.141  1.00  0.00    -0.206 F 
ATOM     88  C   UNL     1      11.471   2.366  -2.693  1.00  0.00     0.022 A 
BRANCH  85  89
ATOM     89  S   UNL     1      13.600   3.411  -4.160  1.00  0.00     0.124 S 
ATOM     90  O   UNL     1      14.693   2.470  -4.374  1.00  0.00    -0.237 OA
ATOM     91  O   UNL     1      13.159   4.163  -5.330  1.00  0.00    -0.237 OA
ATOM     92  O   UNL     1      13.671   4.179  -2.919  1.00  0.00    -0.744 OA
ENDBRANCH  85  89
ENDBRANCH  58  82
BRANCH  70  93
ATOM     93  C   UNL     1      14.601  -4.904  -7.268  1.00  0.00     0.023 A 
ATOM     94  C   UNL     1      15.144  -5.329  -6.043  1.00  0.00     0.031 A 
ATOM     95  C   UNL     1      15.464  -4.798  -8.373  1.00  0.00     0.131 A 
ATOM     96  C   UNL     1      16.523  -5.562  -5.935  1.00  0.00     0.055 A 
ATOM     97  C   UNL     1      16.821  -5.106  -8.277  1.00  0.00     0.041 A 
ATOM     98  F   UNL     1      15.003  -4.385  -9.565  1.00  0.00    -0.206 F 
ATOM     99  C   UNL     1      17.361  -5.474  -7.049  1.00  0.00     0.022 A 
BRANCH  96 100
ATOM    100  S   UNL     1      17.224  -5.864  -4.290  1.00  0.00     0.124 S 
ATOM    101  O   UNL     1      16.867  -4.638  -3.582  1.00  0.00    -0.237 OA
ATOM    102  O   UNL     1      16.521  -7.071  -3.867  1.00  0.00    -0.237 OA
ATOM    103  O   UNL     1      18.651  -6.037  -4.552  1.00  0.00    -0.744 OA
ENDBRANCH  96 100
ENDBRANCH  70  93
ENDBRANCH  44  45
ENDBRANCH  37  39
ENDBRANCH  36  37
ENDBRANCH  35  36
ENDBRANCH  34  35
ENDBRANCH  33  34
ENDBRANCH  32  33
ENDBRANCH   1  32
TORSDOF 26
