REMARK SMILES O=C(Cc1ccc(=O)n(C(F)F)c1)OCCOCCOC(=O)c1ccc(-c2c3nc(c(-c4cc(S(=O)(=O)[O-])ccc4F)c4ccc([nH]4)c(-c4cc(S(=O)(=O)[O-])ccc4F)c4nc(c(-c5cc(S(=O)(=O)[O-])ccc5F)c5ccc2[nH]5)C=C4)C=C3)cc1
REMARK SMILES IDX 18 1 17 2 16 3 15 4 14 5 2 6 1 7 3 8 4 9 5 10 13 11 6 12
REMARK SMILES IDX 9 13 7 14 8 15 10 16 11 17 12 18 19 19 20 20 21 21 22 22
REMARK SMILES IDX 23 23 24 24 85 25 25 26 84 27 26 28 27 29 28 30 78 31 29 32
REMARK SMILES IDX 83 33 77 34 79 35 30 36 82 37 76 38 75 39 31 41 63 42 43 43
REMARK SMILES IDX 62 44 44 45 47 46 61 47 80 48 45 49 46 50 60 52 81 53 48 54
REMARK SMILES IDX 32 55 33 56 41 57 34 58 40 59 42 60 39 61 35 62 36 63 37 64
REMARK SMILES IDX 38 65 64 66 65 67 73 68 66 69 72 70 74 71 71 72 67 73 68 74
REMARK SMILES IDX 69 75 70 76 49 77 50 78 58 79 51 80 57 81 59 82 56 83 52 84
REMARK SMILES IDX 53 85 54 86 55 87
REMARK H PARENT 79 40 47 51
REMARK Flexibility Score: inf
ROOT
ATOM      1  C   UNL     1       2.920  -0.280   2.567  1.00  0.00     0.202 C 
ENDROOT
BRANCH   1   2
ATOM      2  O   UNL     1       4.128  -0.704   1.928  1.00  0.00    -0.374 OA
BRANCH   2   3
ATOM      3  C   UNL     1       4.888   0.272   1.232  1.00  0.00     0.202 C 
BRANCH   3   4
ATOM      4  C   UNL     1       4.370   0.762  -0.120  1.00  0.00     0.261 C 
BRANCH   4   5
ATOM      5  O   UNL     1       2.946   0.881  -0.256  1.00  0.00    -0.463 OA
BRANCH   5   6
ATOM      6  C   UNL     1       2.147  -0.084  -0.774  1.00  0.00     0.310 C 
ATOM      7  O   UNL     1       0.994   0.181  -1.110  1.00  0.00    -0.252 OA
BRANCH   6   8
ATOM      8  C   UNL     1       2.665  -1.510  -0.847  1.00  0.00     0.159 C 
BRANCH   8   9
ATOM      9  C   UNL     1       3.541  -1.924  -1.997  1.00  0.00    -0.020 A 
ATOM     10  C   UNL     1       4.020  -0.984  -2.990  1.00  0.00     0.011 A 
ATOM     11  C   UNL     1       3.936  -3.206  -2.091  1.00  0.00     0.099 A 
ATOM     12  C   UNL     1       4.936  -1.349  -3.896  1.00  0.00     0.072 A 
ATOM     13  N   UNL     1       4.815  -3.630  -3.070  1.00  0.00    -0.258 N 
ATOM     14  C   UNL     1       5.396  -2.761  -3.978  1.00  0.00     0.254 A 
ATOM     15  O   UNL     1       6.221  -3.066  -4.833  1.00  0.00    -0.269 OA
BRANCH  13  16
ATOM     16  C   UNL     1       5.089  -5.032  -3.234  1.00  0.00     0.451 C 
ATOM     17  F   UNL     1       4.514  -5.494  -4.373  1.00  0.00    -0.185 F 
ATOM     18  F   UNL     1       6.416  -5.294  -3.297  1.00  0.00    -0.185 F 
ENDBRANCH  13  16
ENDBRANCH   8   9
ENDBRANCH   6   8
ENDBRANCH   5   6
ENDBRANCH   4   5
ENDBRANCH   3   4
ENDBRANCH   2   3
ENDBRANCH   1   2
BRANCH   1  19
ATOM     19  C   UNL     1       3.050   0.667   3.763  1.00  0.00     0.261 C 
BRANCH  19  20
ATOM     20  O   UNL     1       3.347   2.007   3.338  1.00  0.00    -0.460 OA
BRANCH  20  21
ATOM     21  C   UNL     1       4.567   2.485   3.691  1.00  0.00     0.338 C 
ATOM     22  O   UNL     1       5.416   1.912   4.353  1.00  0.00    -0.246 OA
BRANCH  21  23
ATOM     23  C   UNL     1       4.811   3.723   2.928  1.00  0.00     0.060 A 
ATOM     24  C   UNL     1       3.886   4.767   2.954  1.00  0.00     0.016 A 
ATOM     25  C   UNL     1       5.992   3.830   2.180  1.00  0.00     0.016 A 
ATOM     26  C   UNL     1       4.159   5.938   2.247  1.00  0.00     0.010 A 
ATOM     27  C   UNL     1       6.260   4.999   1.470  1.00  0.00     0.010 A 
ATOM     28  C   UNL     1       5.355   6.069   1.518  1.00  0.00    -0.014 A 
BRANCH  28  29
ATOM     29  C   UNL     1       5.728   7.382   0.944  1.00  0.00     0.031 A 
ATOM     30  C   UNL     1       5.639   7.648  -0.526  1.00  0.00     0.074 A 
ATOM     31  C   UNL     1       6.173   8.332   1.790  1.00  0.00     0.049 A 
ATOM     32  N   UNL     1       5.889   8.757  -1.169  1.00  0.00    -0.248 NA
ATOM     33  C   UNL     1       5.220   6.532  -1.388  1.00  0.00     0.031 C 
ATOM     34  C   UNL     1       6.325   8.149   3.234  1.00  0.00     0.029 A 
ATOM     35  N   UNL     1       6.577   9.625   1.572  1.00  0.00    -0.354 N 
ATOM     36  C   UNL     1       5.645   8.485  -2.509  1.00  0.00     0.074 A 
ATOM     37  C   UNL     1       5.269   7.090  -2.592  1.00  0.00     0.031 C 
ATOM     38  C   UNL     1       6.772   9.291   3.776  1.00  0.00     0.029 A 
ATOM     39  C   UNL     1       6.980  10.275   2.716  1.00  0.00     0.049 A 
ATOM     40  H   UNL     1       6.578  10.047   0.683  1.00  0.00     0.167 HD
ATOM     41  C   UNL     1       5.714   9.336  -3.559  1.00  0.00     0.034 A 
ATOM     42  C   UNL     1       7.470  11.519   2.894  1.00  0.00     0.034 A 
ATOM     43  C   UNL     1       6.093  10.723  -3.442  1.00  0.00     0.049 A 
ATOM     44  C   UNL     1       7.564  12.434   1.700  1.00  0.00     0.074 A 
ATOM     45  C   UNL     1       6.140  11.678  -4.442  1.00  0.00     0.029 A 
ATOM     46  N   UNL     1       6.495  11.351  -2.271  1.00  0.00    -0.354 N 
ATOM     47  N   UNL     1       7.220  12.195   0.455  1.00  0.00    -0.248 NA
ATOM     48  C   UNL     1       8.093  13.786   1.923  1.00  0.00     0.031 C 
ATOM     49  C   UNL     1       6.647  12.855  -3.897  1.00  0.00     0.029 A 
ATOM     50  C   UNL     1       6.829  12.669  -2.535  1.00  0.00     0.049 A 
ATOM     51  H   UNL     1       6.536  10.924  -1.385  1.00  0.00     0.167 HD
ATOM     52  C   UNL     1       7.464  13.374  -0.244  1.00  0.00     0.074 A 
ATOM     53  C   UNL     1       7.962  14.332   0.720  1.00  0.00     0.031 C 
ATOM     54  C   UNL     1       7.294  13.631  -1.564  1.00  0.00     0.034 A 
BRANCH  41  55
ATOM     55  C   UNL     1       5.350   8.841  -4.937  1.00  0.00     0.023 A 
ATOM     56  C   UNL     1       6.303   8.887  -5.973  1.00  0.00     0.031 A 
ATOM     57  C   UNL     1       4.021   8.525  -5.269  1.00  0.00     0.131 A 
ATOM     58  C   UNL     1       5.901   8.682  -7.299  1.00  0.00     0.055 A 
ATOM     59  C   UNL     1       3.635   8.276  -6.587  1.00  0.00     0.041 A 
ATOM     60  F   UNL     1       3.075   8.475  -4.318  1.00  0.00    -0.206 F 
ATOM     61  C   UNL     1       4.573   8.372  -7.611  1.00  0.00     0.022 A 
BRANCH  58  62
ATOM     62  S   UNL     1       7.062   8.902  -8.675  1.00  0.00     0.124 S 
ATOM     63  O   UNL     1       6.983   7.606  -9.344  1.00  0.00    -0.237 OA
ATOM     64  O   UNL     1       6.465  10.018  -9.402  1.00  0.00    -0.237 OA
ATOM     65  O   UNL     1       8.334   9.183  -8.018  1.00  0.00    -0.744 OA
ENDBRANCH  58  62
ENDBRANCH  41  55
BRANCH  42  66
ATOM     66  C   UNL     1       7.857  11.961   4.267  1.00  0.00     0.023 A 
ATOM     67  C   UNL     1       8.849  11.273   4.990  1.00  0.00     0.031 A 
ATOM     68  C   UNL     1       7.175  13.004   4.914  1.00  0.00     0.131 A 
ATOM     69  C   UNL     1       9.082  11.590   6.335  1.00  0.00     0.055 A 
ATOM     70  C   UNL     1       7.466  13.370   6.230  1.00  0.00     0.041 A 
ATOM     71  F   UNL     1       6.207  13.679   4.275  1.00  0.00    -0.206 F 
ATOM     72  C   UNL     1       8.411  12.649   6.953  1.00  0.00     0.022 A 
BRANCH  69  73
ATOM     73  S   UNL     1      10.154  10.547   7.362  1.00  0.00     0.124 S 
ATOM     74  O   UNL     1      11.203  11.483   7.753  1.00  0.00    -0.237 OA
ATOM     75  O   UNL     1       9.241  10.140   8.428  1.00  0.00    -0.237 OA
ATOM     76  O   UNL     1      10.564   9.479   6.457  1.00  0.00    -0.744 OA
ENDBRANCH  69  73
ENDBRANCH  42  66
BRANCH  54  77
ATOM     77  C   UNL     1       7.625  15.008  -2.092  1.00  0.00     0.023 A 
ATOM     78  C   UNL     1       6.617  15.778  -2.706  1.00  0.00     0.031 A 
ATOM     79  C   UNL     1       8.952  15.458  -2.179  1.00  0.00     0.131 A 
ATOM     80  C   UNL     1       6.962  16.918  -3.441  1.00  0.00     0.055 A 
ATOM     81  C   UNL     1       9.284  16.629  -2.863  1.00  0.00     0.041 A 
ATOM     82  F   UNL     1       9.949  14.754  -1.619  1.00  0.00    -0.206 F 
ATOM     83  C   UNL     1       8.289  17.352  -3.516  1.00  0.00     0.022 A 
BRANCH  80  84
ATOM     84  S   UNL     1       5.722  17.808  -4.422  1.00  0.00     0.124 S 
ATOM     85  O   UNL     1       5.816  19.160  -3.876  1.00  0.00    -0.237 OA
ATOM     86  O   UNL     1       6.233  17.647  -5.780  1.00  0.00    -0.237 OA
ATOM     87  O   UNL     1       4.475  17.108  -4.132  1.00  0.00    -0.744 OA
ENDBRANCH  80  84
ENDBRANCH  54  77
ENDBRANCH  28  29
ENDBRANCH  21  23
ENDBRANCH  20  21
ENDBRANCH  19  20
ENDBRANCH   1  19
TORSDOF 19
