REMARK SMILES CCc1c(C)sc(NC(=O)[C@H]2CC(C)=C(C)C[C@H]2C(=O)OCCOCCOC(=O)c2ccc(-c3c4nc(c(-c5cc(S(=O)(=O)[O-])ccc5F)c5ccc([nH]5)c(-c5cc(S(=O)(=O)[O-])ccc5F)c5nc(c(-c6cc(S(=O)(=O)[O-])ccc6F)c6ccc3[nH]6)C=C5)C=C4)cc2)c1C(=O)NC1CC1
REMARK SMILES IDX 23 1 22 2 21 3 19 4 20 5 18 6 11 7 12 8 13 9 17 10 14 11
REMARK SMILES IDX 15 12 16 13 9 14 8 15 10 17 7 18 3 19 4 20 93 21 5 22 6 23
REMARK SMILES IDX 2 24 1 25 94 26 95 27 96 28 97 30 98 31 99 32 24 33 25 34
REMARK SMILES IDX 26 35 27 36 28 37 29 38 30 39 31 40 92 41 32 42 91 43 33 44
REMARK SMILES IDX 34 45 35 46 85 47 36 48 90 49 84 50 86 51 37 52 89 53 83 54
REMARK SMILES IDX 82 55 38 57 70 58 50 59 69 60 51 61 54 62 68 63 87 64 52 65
REMARK SMILES IDX 53 66 67 68 88 69 55 70 39 71 40 72 48 73 41 74 47 75 49 76
REMARK SMILES IDX 46 77 42 78 43 79 44 80 45 81 71 82 72 83 80 84 73 85 79 86
REMARK SMILES IDX 81 87 78 88 74 89 75 90 76 91 77 92 56 93 57 94 65 95 58 96
REMARK SMILES IDX 64 97 66 98 63 99 59 100 60 101 61 102 62 103
REMARK H PARENT 8 16 96 29 86 56 54 67
REMARK Flexibility Score: inf
ROOT
ATOM      1  C   UNL     1      -1.504   9.539  -0.270  1.00  0.00     0.202 C 
ENDROOT
BRANCH   1   2
ATOM      2  C   UNL     1      -1.101   9.557  -1.746  1.00  0.00     0.261 C 
BRANCH   2   3
ATOM      3  O   UNL     1      -0.061   8.596  -2.014  1.00  0.00    -0.463 OA
BRANCH   3   4
ATOM      4  C   UNL     1       1.202   8.998  -1.769  1.00  0.00     0.310 C 
ATOM      5  O   UNL     1       1.532  10.155  -1.522  1.00  0.00    -0.252 OA
BRANCH   4   6
ATOM      6  C   UNL     1       2.236   7.903  -1.957  1.00  0.00     0.116 C 
ATOM      7  C   UNL     1       2.266   6.625  -1.052  1.00  0.00     0.097 C 
ATOM      8  C   UNL     1       2.735   5.394  -1.830  1.00  0.00     0.045 C 
ATOM      9  C   UNL     1       2.420   5.275  -3.284  1.00  0.00    -0.074 C 
ATOM     10  C   UNL     1       2.394   7.738  -3.487  1.00  0.00     0.046 C 
ATOM     11  C   UNL     1       2.346   3.848  -3.760  1.00  0.00     0.039 C 
ATOM     12  C   UNL     1       2.262   6.359  -4.056  1.00  0.00    -0.073 C 
ATOM     13  C   UNL     1       2.010   6.271  -5.534  1.00  0.00     0.039 C 
BRANCH   7  14
ATOM     14  C   UNL     1       1.071   6.241  -0.139  1.00  0.00     0.229 C 
ATOM     15  N   UNL     1       1.277   5.568   1.074  1.00  0.00    -0.317 N 
ATOM     16  H   UNL     1       1.117   6.038   1.924  1.00  0.00     0.170 HD
ATOM     17  O   UNL     1      -0.084   6.554  -0.422  1.00  0.00    -0.274 OA
BRANCH  15  18
ATOM     18  C   UNL     1       1.707   4.236   1.091  1.00  0.00     0.108 A 
ATOM     19  C   UNL     1       1.671   1.974   0.697  1.00  0.00    -0.020 A 
ATOM     20  C   UNL     1       2.934   2.369   0.244  1.00  0.00     0.008 A 
ATOM     21  C   UNL     1       1.077   3.053   1.513  1.00  0.00     0.078 A 
ATOM     22  C   UNL     1       3.905   1.706  -0.672  1.00  0.00     0.057 C 
ATOM     23  S   UNL     1       3.362   3.903   0.896  1.00  0.00    -0.122 S 
BRANCH  19  24
ATOM     24  C   UNL     1       0.999   0.656   0.396  1.00  0.00     0.034 C 
ATOM     25  C   UNL     1       1.450  -0.172  -0.794  1.00  0.00     0.009 C 
ENDBRANCH  19  24
BRANCH  21  26
ATOM     26  C   UNL     1      -0.069   3.130   2.442  1.00  0.00     0.254 C 
ATOM     27  O   UNL     1      -0.335   4.217   2.968  1.00  0.00    -0.269 OA
ATOM     28  N   UNL     1      -0.865   2.082   2.854  1.00  0.00    -0.349 N 
ATOM     29  H   UNL     1      -1.748   2.360   3.191  1.00  0.00     0.164 HD
BRANCH  28  30
ATOM     30  C   UNL     1      -0.653   0.678   2.885  1.00  0.00     0.082 C 
ATOM     31  C   UNL     1      -1.614  -0.238   3.604  1.00  0.00     0.027 C 
ATOM     32  C   UNL     1      -1.554  -0.256   2.112  1.00  0.00     0.027 C 
ENDBRANCH  28  30
ENDBRANCH  21  26
ENDBRANCH  15  18
ENDBRANCH   7  14
ENDBRANCH   4   6
ENDBRANCH   3   4
ENDBRANCH   2   3
ENDBRANCH   1   2
BRANCH   1  33
ATOM     33  O   UNL     1      -0.650  10.287   0.600  1.00  0.00    -0.374 OA
BRANCH  33  34
ATOM     34  C   UNL     1       0.366   9.545   1.276  1.00  0.00     0.202 C 
BRANCH  34  35
ATOM     35  C   UNL     1      -0.077   8.795   2.538  1.00  0.00     0.261 C 
BRANCH  35  36
ATOM     36  O   UNL     1      -0.965   7.707   2.228  1.00  0.00    -0.460 OA
BRANCH  36  37
ATOM     37  C   UNL     1      -2.289   7.999   2.349  1.00  0.00     0.338 C 
ATOM     38  O   UNL     1      -2.756   9.012   2.828  1.00  0.00    -0.246 OA
BRANCH  37  39
ATOM     39  C   UNL     1      -3.126   6.968   1.672  1.00  0.00     0.060 A 
ATOM     40  C   UNL     1      -4.397   7.336   1.226  1.00  0.00     0.016 A 
ATOM     41  C   UNL     1      -2.696   5.656   1.480  1.00  0.00     0.016 A 
ATOM     42  C   UNL     1      -5.260   6.373   0.697  1.00  0.00     0.010 A 
ATOM     43  C   UNL     1      -3.550   4.685   0.959  1.00  0.00     0.010 A 
ATOM     44  C   UNL     1      -4.860   5.032   0.616  1.00  0.00    -0.014 A 
BRANCH  44  45
ATOM     45  C   UNL     1      -5.854   3.980   0.303  1.00  0.00     0.031 A 
ATOM     46  C   UNL     1      -6.474   3.201   1.431  1.00  0.00     0.074 A 
ATOM     47  C   UNL     1      -6.211   3.736  -0.968  1.00  0.00     0.049 A 
ATOM     48  N   UNL     1      -7.418   2.297   1.394  1.00  0.00    -0.248 NA
ATOM     49  C   UNL     1      -5.949   3.469   2.778  1.00  0.00     0.031 C 
ATOM     50  C   UNL     1      -5.658   4.410  -2.141  1.00  0.00     0.029 A 
ATOM     51  N   UNL     1      -7.125   2.852  -1.483  1.00  0.00    -0.354 N 
ATOM     52  C   UNL     1      -7.621   1.906   2.713  1.00  0.00     0.074 A 
ATOM     53  C   UNL     1      -6.649   2.620   3.515  1.00  0.00     0.031 C 
ATOM     54  C   UNL     1      -6.252   3.920  -3.242  1.00  0.00     0.029 A 
ATOM     55  C   UNL     1      -7.210   2.886  -2.854  1.00  0.00     0.049 A 
ATOM     56  H   UNL     1      -7.668   2.251  -0.923  1.00  0.00     0.167 HD
ATOM     57  C   UNL     1      -8.548   1.049   3.210  1.00  0.00     0.034 A 
ATOM     58  C   UNL     1      -7.973   2.162  -3.697  1.00  0.00     0.034 A 
ATOM     59  C   UNL     1      -9.490   0.325   2.389  1.00  0.00     0.049 A 
ATOM     60  C   UNL     1      -8.954   1.165  -3.130  1.00  0.00     0.074 A 
ATOM     61  C   UNL     1     -10.500  -0.534   2.789  1.00  0.00     0.029 A 
ATOM     62  N   UNL     1      -9.525   0.354   1.000  1.00  0.00    -0.354 N 
ATOM     63  N   UNL     1      -9.189   0.856  -1.875  1.00  0.00    -0.248 NA
ATOM     64  C   UNL     1      -9.786   0.434  -4.095  1.00  0.00     0.031 C 
ATOM     65  C   UNL     1     -11.082  -1.091   1.645  1.00  0.00     0.029 A 
ATOM     66  C   UNL     1     -10.505  -0.508   0.528  1.00  0.00     0.049 A 
ATOM     67  H   UNL     1      -8.940   0.907   0.433  1.00  0.00     0.167 HD
ATOM     68  C   UNL     1     -10.221  -0.081  -1.901  1.00  0.00     0.074 A 
ATOM     69  C   UNL     1     -10.568  -0.275  -3.294  1.00  0.00     0.031 C 
ATOM     70  C   UNL     1     -10.832  -0.714  -0.866  1.00  0.00     0.034 A 
BRANCH  57  71
ATOM     71  C   UNL     1      -8.559   0.825   4.705  1.00  0.00     0.023 A 
ATOM     72  C   UNL     1      -8.804   1.875   5.609  1.00  0.00     0.031 A 
ATOM     73  C   UNL     1      -8.299  -0.450   5.238  1.00  0.00     0.131 A 
ATOM     74  C   UNL     1      -8.707   1.649   6.990  1.00  0.00     0.055 A 
ATOM     75  C   UNL     1      -8.292  -0.687   6.614  1.00  0.00     0.041 A 
ATOM     76  F   UNL     1      -8.032  -1.488   4.430  1.00  0.00    -0.206 F 
ATOM     77  C   UNL     1      -8.480   0.369   7.500  1.00  0.00     0.022 A 
BRANCH  74  78
ATOM     78  S   UNL     1      -8.717   3.080   8.105  1.00  0.00     0.124 S 
ATOM     79  O   UNL     1      -7.609   3.872   7.576  1.00  0.00    -0.237 OA
ATOM     80  O   UNL     1     -10.052   3.629   7.900  1.00  0.00    -0.237 OA
ATOM     81  O   UNL     1      -8.478   2.491   9.420  1.00  0.00    -0.744 OA
ENDBRANCH  74  78
ENDBRANCH  57  71
BRANCH  58  82
ATOM     82  C   UNL     1      -7.835   2.348  -5.169  1.00  0.00     0.023 A 
ATOM     83  C   UNL     1      -8.892   2.850  -5.944  1.00  0.00     0.031 A 
ATOM     84  C   UNL     1      -6.643   1.994  -5.827  1.00  0.00     0.131 A 
ATOM     85  C   UNL     1      -8.751   2.947  -7.337  1.00  0.00     0.055 A 
ATOM     86  C   UNL     1      -6.489   2.145  -7.205  1.00  0.00     0.041 A 
ATOM     87  F   UNL     1      -5.602   1.508  -5.132  1.00  0.00    -0.206 F 
ATOM     88  C   UNL     1      -7.552   2.613  -7.970  1.00  0.00     0.022 A 
BRANCH  85  89
ATOM     89  S   UNL     1     -10.191   3.441  -8.323  1.00  0.00     0.124 S 
ATOM     90  O   UNL     1     -11.157   2.405  -7.976  1.00  0.00    -0.237 OA
ATOM     91  O   UNL     1     -10.469   4.777  -7.807  1.00  0.00    -0.237 OA
ATOM     92  O   UNL     1      -9.694   3.396  -9.696  1.00  0.00    -0.744 OA
ENDBRANCH  85  89
ENDBRANCH  58  82
BRANCH  70  93
ATOM     93  C   UNL     1     -11.972  -1.649  -1.202  1.00  0.00     0.023 A 
ATOM     94  C   UNL     1     -11.774  -2.831  -1.938  1.00  0.00     0.031 A 
ATOM     95  C   UNL     1     -13.281  -1.348  -0.781  1.00  0.00     0.131 A 
ATOM     96  C   UNL     1     -12.873  -3.635  -2.282  1.00  0.00     0.055 A 
ATOM     97  C   UNL     1     -14.359  -2.187  -1.068  1.00  0.00     0.041 A 
ATOM     98  F   UNL     1     -13.534  -0.232  -0.079  1.00  0.00    -0.206 F 
ATOM     99  C   UNL     1     -14.161  -3.331  -1.834  1.00  0.00     0.022 A 
BRANCH  96 100
ATOM    100  S   UNL     1     -12.612  -5.032  -3.409  1.00  0.00     0.124 S 
ATOM    101  O   UNL     1     -12.047  -4.374  -4.582  1.00  0.00    -0.237 OA
ATOM    102  O   UNL     1     -11.697  -5.879  -2.651  1.00  0.00    -0.237 OA
ATOM    103  O   UNL     1     -13.955  -5.581  -3.592  1.00  0.00    -0.744 OA
ENDBRANCH  96 100
ENDBRANCH  70  93
ENDBRANCH  44  45
ENDBRANCH  37  39
ENDBRANCH  36  37
ENDBRANCH  35  36
ENDBRANCH  34  35
ENDBRANCH  33  34
ENDBRANCH   1  33
TORSDOF 22
