REMARK SMILES CC[C@](C)(NC(=O)N1Cc2ccccc2C1)C(=O)OCCOCCOC(=O)c1ccc(-c2c3nc(c(-c4cc(S(=O)(=O)[O-])ccc4F)c4ccc([nH]4)c(-c4cc(S(=O)(=O)[O-])ccc4F)c4nc(c(-c5cc(S(=O)(=O)[O-])ccc5F)c5ccc2[nH]5)C=C4)C=C3)cc1
REMARK SMILES IDX 23 1 22 2 21 3 20 4 19 5 17 6 18 7 3 8 4 9 2 10 1 11 5 12
REMARK SMILES IDX 6 13 7 15 8 16 9 17 16 18 10 19 15 20 11 21 14 22 12 23
REMARK SMILES IDX 13 24 24 25 25 26 26 27 27 28 28 29 29 30 90 31 30 32 89 33
REMARK SMILES IDX 31 34 32 35 33 36 83 37 34 38 88 39 82 40 84 41 35 42 87 43
REMARK SMILES IDX 81 44 80 45 36 47 68 48 48 49 67 50 49 51 52 52 66 53 85 54
REMARK SMILES IDX 50 55 51 56 65 58 86 59 53 60 37 61 38 62 46 63 39 64 45 65
REMARK SMILES IDX 47 66 44 67 40 68 41 69 42 70 43 71 69 72 70 73 78 74 71 75
REMARK SMILES IDX 77 76 79 77 76 78 72 79 73 80 74 81 75 82 54 83 55 84 63 85
REMARK SMILES IDX 56 86 62 87 64 88 61 89 57 90 58 91 59 92 60 93
REMARK H PARENT 5 14 84 46 52 57
REMARK Flexibility Score: inf
ROOT
ATOM      1  C   UNL     1       2.723  -2.197   3.065  1.00  0.00     0.202 C 
ENDROOT
BRANCH   1   2
ATOM      2  O   UNL     1       3.593  -2.366   1.919  1.00  0.00    -0.374 OA
BRANCH   2   3
ATOM      3  C   UNL     1       4.521  -1.386   1.401  1.00  0.00     0.202 C 
BRANCH   3   4
ATOM      4  C   UNL     1       4.159   0.029   0.863  1.00  0.00     0.261 C 
BRANCH   4   5
ATOM      5  O   UNL     1       3.140   0.658   1.607  1.00  0.00    -0.462 OA
BRANCH   5   6
ATOM      6  C   UNL     1       1.902   0.668   1.109  1.00  0.00     0.331 C 
ATOM      7  O   UNL     1       1.630   0.497  -0.083  1.00  0.00    -0.249 OA
BRANCH   6   8
ATOM      8  C   UNL     1       0.866   0.852   2.234  1.00  0.00     0.136 C 
ATOM      9  C   UNL     1      -0.086  -0.372   2.069  1.00  0.00     0.047 C 
BRANCH   8  10
ATOM     10  C   UNL     1       0.031   2.142   2.012  1.00  0.00     0.037 C 
ATOM     11  C   UNL     1      -0.873   2.171   0.773  1.00  0.00     0.007 C 
ENDBRANCH   8  10
BRANCH   8  12
ATOM     12  N   UNL     1       1.363   0.856   3.683  1.00  0.00    -0.322 N 
ATOM     13  C   UNL     1       2.471   1.075   4.448  1.00  0.00     0.318 C 
ATOM     14  H   UNL     1       0.614   0.614   4.274  1.00  0.00     0.166 HD
ATOM     15  O   UNL     1       2.262   1.160   5.661  1.00  0.00    -0.249 OA
ATOM     16  N   UNL     1       3.747   1.073   3.938  1.00  0.00    -0.316 N 
ATOM     17  C   UNL     1       4.639  -0.019   4.295  1.00  0.00     0.157 C 
ATOM     18  C   UNL     1       4.580   2.273   4.061  1.00  0.00     0.157 C 
ATOM     19  C   UNL     1       6.021   0.397   3.986  1.00  0.00    -0.023 A 
ATOM     20  C   UNL     1       5.995   1.776   3.841  1.00  0.00    -0.023 A 
ATOM     21  C   UNL     1       7.174  -0.380   3.916  1.00  0.00     0.006 A 
ATOM     22  C   UNL     1       7.181   2.430   3.600  1.00  0.00     0.006 A 
ATOM     23  C   UNL     1       8.364   0.276   3.644  1.00  0.00     0.000 A 
ATOM     24  C   UNL     1       8.363   1.671   3.487  1.00  0.00     0.000 A 
ENDBRANCH   8  12
ENDBRANCH   6   8
ENDBRANCH   5   6
ENDBRANCH   4   5
ENDBRANCH   3   4
ENDBRANCH   2   3
ENDBRANCH   1   2
BRANCH   1  25
ATOM     25  C   UNL     1       3.065  -2.763   4.529  1.00  0.00     0.261 C 
BRANCH  25  26
ATOM     26  O   UNL     1       3.103  -1.727   5.610  1.00  0.00    -0.460 OA
BRANCH  26  27
ATOM     27  C   UNL     1       3.801  -1.989   6.779  1.00  0.00     0.338 C 
ATOM     28  O   UNL     1       4.165  -3.115   7.090  1.00  0.00    -0.246 OA
BRANCH  27  29
ATOM     29  C   UNL     1       4.364  -0.752   7.509  1.00  0.00     0.060 A 
ATOM     30  C   UNL     1       5.747  -0.502   7.375  1.00  0.00     0.016 A 
ATOM     31  C   UNL     1       3.642   0.167   8.284  1.00  0.00     0.016 A 
ATOM     32  C   UNL     1       6.378   0.644   7.922  1.00  0.00     0.010 A 
ATOM     33  C   UNL     1       4.298   1.281   8.914  1.00  0.00     0.010 A 
ATOM     34  C   UNL     1       5.680   1.533   8.751  1.00  0.00    -0.014 A 
BRANCH  34  35
ATOM     35  C   UNL     1       6.481   2.424   9.692  1.00  0.00     0.031 A 
ATOM     36  C   UNL     1       7.007   1.759  10.956  1.00  0.00     0.074 A 
ATOM     37  C   UNL     1       6.859   3.708   9.470  1.00  0.00     0.049 A 
ATOM     38  N   UNL     1       7.733   2.240  11.936  1.00  0.00    -0.248 NA
ATOM     39  C   UNL     1       6.671   0.335  11.109  1.00  0.00     0.031 C 
ATOM     40  C   UNL     1       6.568   4.494   8.274  1.00  0.00     0.029 A 
ATOM     41  N   UNL     1       7.598   4.585  10.254  1.00  0.00    -0.354 N 
ATOM     42  C   UNL     1       7.940   1.177  12.815  1.00  0.00     0.074 A 
ATOM     43  C   UNL     1       7.251   0.035  12.256  1.00  0.00     0.031 C 
ATOM     44  C   UNL     1       7.110   5.724   8.405  1.00  0.00     0.029 A 
ATOM     45  C   UNL     1       7.766   5.847   9.710  1.00  0.00     0.049 A 
ATOM     46  H   UNL     1       7.973   4.329  11.128  1.00  0.00     0.167 HD
ATOM     47  C   UNL     1       8.627   1.136  13.985  1.00  0.00     0.034 A 
ATOM     48  C   UNL     1       8.353   6.970  10.202  1.00  0.00     0.034 A 
ATOM     49  C   UNL     1       9.281   2.270  14.587  1.00  0.00     0.049 A 
ATOM     50  C   UNL     1       8.991   6.946  11.585  1.00  0.00     0.074 A 
ATOM     51  C   UNL     1       9.958   2.332  15.794  1.00  0.00     0.029 A 
ATOM     52  N   UNL     1       9.325   3.546  14.045  1.00  0.00    -0.354 N 
ATOM     53  N   UNL     1       9.140   5.938  12.415  1.00  0.00    -0.248 NA
ATOM     54  C   UNL     1       9.542   8.214  12.095  1.00  0.00     0.031 C 
ATOM     55  C   UNL     1      10.335   3.660  16.021  1.00  0.00     0.029 A 
ATOM     56  C   UNL     1       9.986   4.408  14.909  1.00  0.00     0.049 A 
ATOM     57  H   UNL     1       8.943   3.803  13.175  1.00  0.00     0.167 HD
ATOM     58  C   UNL     1       9.841   6.444  13.514  1.00  0.00     0.074 A 
ATOM     59  C   UNL     1      10.093   7.840  13.240  1.00  0.00     0.031 C 
ATOM     60  C   UNL     1      10.245   5.804  14.643  1.00  0.00     0.034 A 
BRANCH  47  61
ATOM     61  C   UNL     1       8.608  -0.175  14.740  1.00  0.00     0.023 A 
ATOM     62  C   UNL     1       9.195  -1.344  14.222  1.00  0.00     0.031 A 
ATOM     63  C   UNL     1       7.929  -0.268  15.968  1.00  0.00     0.131 A 
ATOM     64  C   UNL     1       9.018  -2.567  14.888  1.00  0.00     0.055 A 
ATOM     65  C   UNL     1       7.834  -1.470  16.669  1.00  0.00     0.041 A 
ATOM     66  F   UNL     1       7.325   0.808  16.498  1.00  0.00    -0.206 F 
ATOM     67  C   UNL     1       8.365  -2.633  16.120  1.00  0.00     0.022 A 
BRANCH  64  68
ATOM     68  S   UNL     1       9.504  -4.096  14.040  1.00  0.00     0.124 S 
ATOM     69  O   UNL     1       8.706  -4.024  12.818  1.00  0.00    -0.237 OA
ATOM     70  O   UNL     1      10.943  -3.923  13.875  1.00  0.00    -0.237 OA
ATOM     71  O   UNL     1       9.105  -5.148  14.974  1.00  0.00    -0.744 OA
ENDBRANCH  64  68
ENDBRANCH  47  61
BRANCH  48  72
ATOM     72  C   UNL     1       8.330   8.273   9.444  1.00  0.00     0.023 A 
ATOM     73  C   UNL     1       9.512   8.958   9.091  1.00  0.00     0.031 A 
ATOM     74  C   UNL     1       7.109   8.920   9.175  1.00  0.00     0.131 A 
ATOM     75  C   UNL     1       9.445  10.252   8.537  1.00  0.00     0.055 A 
ATOM     76  C   UNL     1       7.048  10.180   8.571  1.00  0.00     0.041 A 
ATOM     77  F   UNL     1       5.946   8.342   9.514  1.00  0.00    -0.206 F 
ATOM     78  C   UNL     1       8.220  10.859   8.259  1.00  0.00     0.022 A 
BRANCH  75  79
ATOM     79  S   UNL     1      10.984  11.186   8.272  1.00  0.00     0.124 S 
ATOM     80  O   UNL     1      11.526  11.257   9.624  1.00  0.00    -0.237 OA
ATOM     81  O   UNL     1      11.702  10.329   7.335  1.00  0.00    -0.237 OA
ATOM     82  O   UNL     1      10.521  12.458   7.718  1.00  0.00    -0.744 OA
ENDBRANCH  75  79
ENDBRANCH  48  72
BRANCH  60  83
ATOM     83  C   UNL     1      11.076   6.584  15.642  1.00  0.00     0.023 A 
ATOM     84  C   UNL     1      10.572   7.701  16.334  1.00  0.00     0.031 A 
ATOM     85  C   UNL     1      12.407   6.203  15.899  1.00  0.00     0.131 A 
ATOM     86  C   UNL     1      11.412   8.434  17.190  1.00  0.00     0.055 A 
ATOM     87  C   UNL     1      13.214   6.892  16.806  1.00  0.00     0.041 A 
ATOM     88  F   UNL     1      12.949   5.147  15.270  1.00  0.00    -0.206 F 
ATOM     89  C   UNL     1      12.723   8.026  17.444  1.00  0.00     0.022 A 
BRANCH  86  90
ATOM     90  S   UNL     1      10.808  10.003  17.874  1.00  0.00     0.124 S 
ATOM     91  O   UNL     1      10.425  10.733  16.670  1.00  0.00    -0.237 OA
ATOM     92  O   UNL     1       9.710   9.568  18.731  1.00  0.00    -0.237 OA
ATOM     93  O   UNL     1      11.970  10.540  18.581  1.00  0.00    -0.744 OA
ENDBRANCH  86  90
ENDBRANCH  60  83
ENDBRANCH  34  35
ENDBRANCH  27  29
ENDBRANCH  26  27
ENDBRANCH  25  26
ENDBRANCH   1  25
TORSDOF 19
