REMARK SMILES CC[C@H](C)CN(CC)C(=O)Nc1ccc(C(=O)OCCOCCOC(=O)c2ccc(-c3c4nc(c(-c5cc(S(=O)(=O)[O-])ccc5F)c5ccc([nH]5)c(-c5cc(S(=O)(=O)[O-])ccc5F)c5nc(c(-c6cc(S(=O)(=O)[O-])ccc6F)c6ccc3[nH]6)C=C5)C=C4)cc2)cc1Cl
REMARK SMILES IDX 20 1 19 2 18 3 16 4 17 5 15 6 12 7 13 8 91 9 14 10 90 11
REMARK SMILES IDX 92 12 11 13 9 14 10 15 6 17 5 18 3 19 4 20 2 21 1 22 7 23
REMARK SMILES IDX 8 24 21 25 22 26 23 27 24 28 25 29 26 30 27 31 28 32 89 33
REMARK SMILES IDX 29 34 88 35 30 36 31 37 32 38 82 39 33 40 87 41 81 42 83 43
REMARK SMILES IDX 34 44 86 45 80 46 79 47 35 49 67 50 47 51 66 52 48 53 51 54
REMARK SMILES IDX 65 55 84 56 49 57 50 58 64 60 85 61 52 62 36 63 37 64 45 65
REMARK SMILES IDX 38 66 44 67 46 68 43 69 39 70 40 71 41 72 42 73 68 74 69 75
REMARK SMILES IDX 77 76 70 77 76 78 78 79 75 80 71 81 72 82 73 83 74 84 53 85
REMARK SMILES IDX 54 86 62 87 55 88 61 89 63 90 60 91 56 92 57 93 58 94 59 95
REMARK H PARENT 11 16 83 48 51 59
REMARK Flexibility Score: inf
ROOT
ATOM      1  C   UNL     1       5.102   6.027  10.489  1.00  0.00     0.202 C 
ENDROOT
BRANCH   1   2
ATOM      2  C   UNL     1       5.413   6.068   8.992  1.00  0.00     0.261 C 
BRANCH   2   3
ATOM      3  O   UNL     1       4.478   5.258   8.266  1.00  0.00    -0.460 OA
BRANCH   3   4
ATOM      4  C   UNL     1       4.997   4.162   7.670  1.00  0.00     0.338 C 
ATOM      5  O   UNL     1       6.180   3.895   7.529  1.00  0.00    -0.246 OA
BRANCH   4   6
ATOM      6  C   UNL     1       3.912   3.248   7.232  1.00  0.00     0.061 A 
ATOM      7  C   UNL     1       2.010   1.607   6.051  1.00  0.00     0.061 A 
ATOM      8  C   UNL     1       3.342   1.189   6.090  1.00  0.00     0.028 A 
ATOM      9  C   UNL     1       1.597   2.718   6.798  1.00  0.00     0.065 A 
ATOM     10  C   UNL     1       4.295   2.025   6.663  1.00  0.00     0.018 A 
ATOM     11  C   UNL     1       2.551   3.556   7.372  1.00  0.00     0.038 A 
ATOM     12  Cl  UNL     1      -0.077   3.045   7.074  1.00  0.00    -0.082 Cl
BRANCH   7  13
ATOM     13  N   UNL     1       1.175   0.945   5.153  1.00  0.00    -0.306 N 
ATOM     14  C   UNL     1       0.440   1.414   4.108  1.00  0.00     0.321 C 
ATOM     15  O   UNL     1      -0.449   0.653   3.708  1.00  0.00    -0.248 OA
ATOM     16  H   UNL     1       1.105  -0.026   5.299  1.00  0.00     0.171 HD
BRANCH  14  17
ATOM     17  N   UNL     1       0.779   2.566   3.415  1.00  0.00    -0.325 N 
BRANCH  17  18
ATOM     18  C   UNL     1       0.106   2.771   2.123  1.00  0.00     0.124 C 
BRANCH  18  19
ATOM     19  C   UNL     1       0.892   2.126   0.947  1.00  0.00     0.005 C 
ATOM     20  C   UNL     1       0.597   0.625   0.844  1.00  0.00     0.009 C 
BRANCH  19  21
ATOM     21  C   UNL     1       0.567   2.861  -0.368  1.00  0.00     0.002 C 
ATOM     22  C   UNL     1       1.458   2.444  -1.533  1.00  0.00     0.004 C 
ENDBRANCH  19  21
ENDBRANCH  18  19
ENDBRANCH  17  18
BRANCH  17  23
ATOM     23  C   UNL     1       1.836   3.555   3.689  1.00  0.00     0.118 C 
ATOM     24  C   UNL     1       1.288   4.880   4.210  1.00  0.00     0.027 C 
ENDBRANCH  17  23
ENDBRANCH  14  17
ENDBRANCH   7  13
ENDBRANCH   4   6
ENDBRANCH   3   4
ENDBRANCH   2   3
ENDBRANCH   1   2
BRANCH   1  25
ATOM     25  O   UNL     1       5.237   4.756  11.128  1.00  0.00    -0.374 OA
BRANCH  25  26
ATOM     26  C   UNL     1       4.185   3.809  10.953  1.00  0.00     0.202 C 
BRANCH  26  27
ATOM     27  C   UNL     1       2.901   4.010  11.767  1.00  0.00     0.261 C 
BRANCH  27  28
ATOM     28  O   UNL     1       2.237   5.248  11.470  1.00  0.00    -0.460 OA
BRANCH  28  29
ATOM     29  C   UNL     1       2.369   6.191  12.438  1.00  0.00     0.338 C 
ATOM     30  O   UNL     1       2.935   6.060  13.510  1.00  0.00    -0.246 OA
BRANCH  29  31
ATOM     31  C   UNL     1       1.884   7.496  11.950  1.00  0.00     0.060 A 
ATOM     32  C   UNL     1       2.731   8.599  12.120  1.00  0.00     0.016 A 
ATOM     33  C   UNL     1       0.607   7.660  11.409  1.00  0.00     0.016 A 
ATOM     34  C   UNL     1       2.285   9.879  11.801  1.00  0.00     0.010 A 
ATOM     35  C   UNL     1       0.157   8.948  11.097  1.00  0.00     0.010 A 
ATOM     36  C   UNL     1       0.981  10.066  11.325  1.00  0.00    -0.014 A 
BRANCH  36  37
ATOM     37  C   UNL     1       0.437  11.442  11.217  1.00  0.00     0.031 A 
ATOM     38  C   UNL     1      -0.434  11.968  12.326  1.00  0.00     0.074 A 
ATOM     39  C   UNL     1       0.744  12.223  10.167  1.00  0.00     0.049 A 
ATOM     40  N   UNL     1      -1.038  13.123  12.433  1.00  0.00    -0.248 NA
ATOM     41  C   UNL     1      -0.654  11.064  13.465  1.00  0.00     0.031 C 
ATOM     42  C   UNL     1       1.615  11.838   9.057  1.00  0.00     0.029 A 
ATOM     43  N   UNL     1       0.354  13.503   9.861  1.00  0.00    -0.354 N 
ATOM     44  C   UNL     1      -1.712  13.087  13.649  1.00  0.00     0.074 A 
ATOM     45  C   UNL     1      -1.473  11.778  14.222  1.00  0.00     0.031 C 
ATOM     46  C   UNL     1       1.684  12.858   8.184  1.00  0.00     0.029 A 
ATOM     47  C   UNL     1       0.836  13.952   8.655  1.00  0.00     0.049 A 
ATOM     48  H   UNL     1      -0.216  14.047  10.450  1.00  0.00     0.167 HD
ATOM     49  C   UNL     1      -2.454  14.058  14.237  1.00  0.00     0.034 A 
ATOM     50  C   UNL     1       0.600  15.105   7.996  1.00  0.00     0.034 A 
ATOM     51  C   UNL     1      -2.695  15.352  13.645  1.00  0.00     0.049 A 
ATOM     52  C   UNL     1      -0.300  16.139   8.628  1.00  0.00     0.074 A 
ATOM     53  C   UNL     1      -3.420  16.414  14.157  1.00  0.00     0.029 A 
ATOM     54  N   UNL     1      -2.229  15.755  12.400  1.00  0.00    -0.354 N 
ATOM     55  N   UNL     1      -0.925  16.097   9.782  1.00  0.00    -0.248 NA
ATOM     56  C   UNL     1      -0.518  17.379   7.871  1.00  0.00     0.031 C 
ATOM     57  C   UNL     1      -3.451  17.430  13.195  1.00  0.00     0.029 A 
ATOM     58  C   UNL     1      -2.679  17.035  12.113  1.00  0.00     0.049 A 
ATOM     59  H   UNL     1      -1.661  15.212  11.807  1.00  0.00     0.167 HD
ATOM     60  C   UNL     1      -1.585  17.318   9.902  1.00  0.00     0.074 A 
ATOM     61  C   UNL     1      -1.273  18.076   8.708  1.00  0.00     0.031 C 
ATOM     62  C   UNL     1      -2.370  17.775  10.911  1.00  0.00     0.034 A 
BRANCH  49  63
ATOM     63  C   UNL     1      -3.100  13.727  15.562  1.00  0.00     0.023 A 
ATOM     64  C   UNL     1      -2.337  13.448  16.709  1.00  0.00     0.031 A 
ATOM     65  C   UNL     1      -4.500  13.651  15.668  1.00  0.00     0.131 A 
ATOM     66  C   UNL     1      -2.973  13.035  17.890  1.00  0.00     0.055 A 
ATOM     67  C   UNL     1      -5.130  13.317  16.868  1.00  0.00     0.041 A 
ATOM     68  F   UNL     1      -5.280  13.884  14.601  1.00  0.00    -0.206 F 
ATOM     69  C   UNL     1      -4.366  12.991  17.984  1.00  0.00     0.022 A 
BRANCH  66  70
ATOM     70  S   UNL     1      -1.952  12.414  19.255  1.00  0.00     0.124 S 
ATOM     71  O   UNL     1      -1.238  11.314  18.612  1.00  0.00    -0.237 OA
ATOM     72  O   UNL     1      -1.149  13.581  19.604  1.00  0.00    -0.237 OA
ATOM     73  O   UNL     1      -2.932  12.008  20.259  1.00  0.00    -0.744 OA
ENDBRANCH  66  70
ENDBRANCH  49  63
BRANCH  50  74
ATOM     74  C   UNL     1       1.185  15.331   6.644  1.00  0.00     0.023 A 
ATOM     75  C   UNL     1       2.115  16.356   6.414  1.00  0.00     0.031 A 
ATOM     76  C   UNL     1       0.781  14.548   5.547  1.00  0.00     0.131 A 
ATOM     77  C   UNL     1       2.582  16.598   5.112  1.00  0.00     0.055 A 
ATOM     78  C   UNL     1       1.285  14.760   4.263  1.00  0.00     0.041 A 
ATOM     79  F   UNL     1      -0.106  13.553   5.712  1.00  0.00    -0.206 F 
ATOM     80  C   UNL     1       2.182  15.799   4.038  1.00  0.00     0.022 A 
BRANCH  77  81
ATOM     81  S   UNL     1       3.667  18.023   4.827  1.00  0.00     0.124 S 
ATOM     82  O   UNL     1       2.831  19.128   5.282  1.00  0.00    -0.237 OA
ATOM     83  O   UNL     1       4.816  17.700   5.666  1.00  0.00    -0.237 OA
ATOM     84  O   UNL     1       3.916  17.978   3.388  1.00  0.00    -0.744 OA
ENDBRANCH  77  81
ENDBRANCH  50  74
BRANCH  62  85
ATOM     85  C   UNL     1      -2.905  19.181  10.783  1.00  0.00     0.023 A 
ATOM     86  C   UNL     1      -3.854  19.529   9.806  1.00  0.00     0.031 A 
ATOM     87  C   UNL     1      -2.450  20.190  11.651  1.00  0.00     0.131 A 
ATOM     88  C   UNL     1      -4.279  20.861   9.687  1.00  0.00     0.055 A 
ATOM     89  C   UNL     1      -2.919  21.501  11.565  1.00  0.00     0.041 A 
ATOM     90  F   UNL     1      -1.543  19.915  12.602  1.00  0.00    -0.206 F 
ATOM     91  C   UNL     1      -3.829  21.846  10.571  1.00  0.00     0.022 A 
BRANCH  88  92
ATOM     92  S   UNL     1      -5.363  21.312   8.304  1.00  0.00     0.124 S 
ATOM     93  O   UNL     1      -4.561  20.921   7.149  1.00  0.00    -0.237 OA
ATOM     94  O   UNL     1      -6.549  20.502   8.560  1.00  0.00    -0.237 OA
ATOM     95  O   UNL     1      -5.550  22.753   8.469  1.00  0.00    -0.744 OA
ENDBRANCH  88  92
ENDBRANCH  62  85
ENDBRANCH  36  37
ENDBRANCH  29  31
ENDBRANCH  28  29
ENDBRANCH  27  28
ENDBRANCH  26  27
ENDBRANCH  25  26
ENDBRANCH   1  25
TORSDOF 23
