REMARK SMILES O=C(Cc1ccccc1Nc1c(Cl)cccc1C(F)(F)F)OCCOCCOC(=O)c1ccc(-c2c3nc(c(-c4cc(S(=O)(=O)[O-])ccc4F)c4ccc([nH]4)c(-c4cc(S(=O)(=O)[O-])ccc4F)c4nc(c(-c5cc(S(=O)(=O)[O-])ccc5F)c5ccc2[nH]5)C=C4)C=C3)cc1
REMARK SMILES IDX 24 1 23 2 22 3 2 4 1 5 3 6 4 7 5 8 9 9 6 10 8 11 7 12 10 13
REMARK SMILES IDX 11 15 12 16 17 17 13 18 14 19 16 20 15 21 18 22 19 23 20 24
REMARK SMILES IDX 21 25 25 26 26 27 27 28 28 29 29 30 30 31 31 32 32 33 93 34
REMARK SMILES IDX 33 35 92 36 34 37 35 38 36 39 86 40 37 41 91 42 85 43 87 44
REMARK SMILES IDX 38 45 90 46 84 47 83 48 39 50 71 51 51 52 70 53 52 54 55 55
REMARK SMILES IDX 69 56 88 57 53 58 54 59 68 61 89 62 56 63 40 64 41 65 49 66
REMARK SMILES IDX 42 67 48 68 50 69 47 70 43 71 44 72 45 73 46 74 72 75 73 76
REMARK SMILES IDX 81 77 74 78 80 79 82 80 79 81 75 82 76 83 77 84 78 85 57 86
REMARK SMILES IDX 58 87 66 88 59 89 65 90 67 91 64 92 60 93 61 94 62 95 63 96
REMARK H PARENT 10 14 87 49 55 60
REMARK Flexibility Score: inf
ROOT
ATOM      1  C   UNL     1       4.855  -1.038   0.508  1.00  0.00     0.202 C 
ENDROOT
BRANCH   1   2
ATOM      2  C   UNL     1       4.088   0.278   0.659  1.00  0.00     0.261 C 
BRANCH   2   3
ATOM      3  O   UNL     1       2.665   0.191   0.534  1.00  0.00    -0.463 OA
BRANCH   3   4
ATOM      4  C   UNL     1       2.000   0.205  -0.640  1.00  0.00     0.310 C 
ATOM      5  O   UNL     1       0.772   0.332  -0.645  1.00  0.00    -0.252 OA
BRANCH   4   6
ATOM      6  C   UNL     1       2.728   0.046  -1.956  1.00  0.00     0.160 C 
BRANCH   6   7
ATOM      7  C   UNL     1       3.703   1.143  -2.304  1.00  0.00    -0.013 A 
ATOM      8  C   UNL     1       4.973   0.765  -2.781  1.00  0.00     0.006 A 
ATOM      9  C   UNL     1       3.384   2.507  -2.126  1.00  0.00     0.042 A 
ATOM     10  C   UNL     1       5.951   1.722  -3.020  1.00  0.00     0.000 A 
ATOM     11  C   UNL     1       4.397   3.450  -2.347  1.00  0.00     0.026 A 
ATOM     12  C   UNL     1       5.667   3.063  -2.789  1.00  0.00     0.002 A 
BRANCH   9  13
ATOM     13  N   UNL     1       2.110   2.884  -1.667  1.00  0.00    -0.354 N 
ATOM     14  H   UNL     1       1.534   2.131  -1.402  1.00  0.00     0.167 HD
BRANCH  13  15
ATOM     15  C   UNL     1       1.516   4.151  -1.519  1.00  0.00     0.070 A 
ATOM     16  C   UNL     1       1.110   4.582  -0.235  1.00  0.00     0.065 A 
ATOM     17  C   UNL     1       1.099   4.883  -2.645  1.00  0.00     0.080 A 
ATOM     18  Cl  UNL     1       1.490   3.659   1.180  1.00  0.00    -0.082 Cl
ATOM     19  C   UNL     1       0.374   5.753  -0.067  1.00  0.00     0.023 A 
ATOM     20  C   UNL     1       0.377   6.078  -2.455  1.00  0.00     0.015 A 
ATOM     21  C   UNL     1       0.016   6.508  -1.178  1.00  0.00     0.002 A 
BRANCH  17  22
ATOM     22  C   UNL     1       1.387   4.415  -4.052  1.00  0.00     0.418 C 
ATOM     23  F   UNL     1       0.531   4.968  -4.967  1.00  0.00    -0.166 F 
ATOM     24  F   UNL     1       2.632   4.756  -4.483  1.00  0.00    -0.166 F 
ATOM     25  F   UNL     1       1.262   3.070  -4.242  1.00  0.00    -0.166 F 
ENDBRANCH  17  22
ENDBRANCH  13  15
ENDBRANCH   9  13
ENDBRANCH   6   7
ENDBRANCH   4   6
ENDBRANCH   3   4
ENDBRANCH   2   3
ENDBRANCH   1   2
BRANCH   1  26
ATOM     26  O   UNL     1       4.286  -2.107  -0.237  1.00  0.00    -0.374 OA
BRANCH  26  27
ATOM     27  C   UNL     1       3.084  -2.730   0.218  1.00  0.00     0.202 C 
BRANCH  27  28
ATOM     28  C   UNL     1       3.067  -3.497   1.539  1.00  0.00     0.261 C 
BRANCH  28  29
ATOM     29  O   UNL     1       3.397  -2.680   2.667  1.00  0.00    -0.460 OA
BRANCH  29  30
ATOM     30  C   UNL     1       4.622  -2.929   3.179  1.00  0.00     0.338 C 
ATOM     31  O   UNL     1       5.437  -3.751   2.768  1.00  0.00    -0.246 OA
BRANCH  30  32
ATOM     32  C   UNL     1       4.957  -1.926   4.197  1.00  0.00     0.060 A 
ATOM     33  C   UNL     1       6.214  -1.313   4.106  1.00  0.00     0.016 A 
ATOM     34  C   UNL     1       4.105  -1.668   5.274  1.00  0.00     0.016 A 
ATOM     35  C   UNL     1       6.666  -0.511   5.143  1.00  0.00     0.010 A 
ATOM     36  C   UNL     1       4.565  -0.869   6.320  1.00  0.00     0.010 A 
ATOM     37  C   UNL     1       5.869  -0.344   6.282  1.00  0.00    -0.014 A 
BRANCH  37  38
ATOM     38  C   UNL     1       6.508   0.162   7.516  1.00  0.00     0.031 A 
ATOM     39  C   UNL     1       6.980  -0.845   8.530  1.00  0.00     0.074 A 
ATOM     40  C   UNL     1       6.724   1.476   7.684  1.00  0.00     0.049 A 
ATOM     41  N   UNL     1       7.574  -0.655   9.678  1.00  0.00    -0.248 NA
ATOM     42  C   UNL     1       6.743  -2.260   8.202  1.00  0.00     0.031 C 
ATOM     43  C   UNL     1       6.359   2.519   6.727  1.00  0.00     0.029 A 
ATOM     44  N   UNL     1       7.314   2.154   8.717  1.00  0.00    -0.354 N 
ATOM     45  C   UNL     1       7.773  -1.924  10.214  1.00  0.00     0.074 A 
ATOM     46  C   UNL     1       7.197  -2.870   9.284  1.00  0.00     0.031 C 
ATOM     47  C   UNL     1       6.739   3.711   7.218  1.00  0.00     0.029 A 
ATOM     48  C   UNL     1       7.338   3.516   8.537  1.00  0.00     0.049 A 
ATOM     49  H   UNL     1       7.686   1.709   9.512  1.00  0.00     0.167 HD
ATOM     50  C   UNL     1       8.387  -2.264  11.373  1.00  0.00     0.034 A 
ATOM     51  C   UNL     1       7.781   4.488   9.357  1.00  0.00     0.034 A 
ATOM     52  C   UNL     1       8.945  -1.294  12.284  1.00  0.00     0.049 A 
ATOM     53  C   UNL     1       8.386   4.090  10.682  1.00  0.00     0.074 A 
ATOM     54  C   UNL     1       9.601  -1.511  13.481  1.00  0.00     0.029 A 
ATOM     55  N   UNL     1       8.898   0.084  12.100  1.00  0.00    -0.354 N 
ATOM     56  N   UNL     1       8.576   2.888  11.180  1.00  0.00    -0.248 NA
ATOM     57  C   UNL     1       8.848   5.180  11.548  1.00  0.00     0.031 C 
ATOM     58  C   UNL     1       9.879  -0.266  14.058  1.00  0.00     0.029 A 
ATOM     59  C   UNL     1       9.479   0.730  13.180  1.00  0.00     0.049 A 
ATOM     60  H   UNL     1       8.508   0.535  11.316  1.00  0.00     0.167 HD
ATOM     61  C   UNL     1       9.215   3.080  12.403  1.00  0.00     0.074 A 
ATOM     62  C   UNL     1       9.388   4.511  12.555  1.00  0.00     0.031 C 
ATOM     63  C   UNL     1       9.629   2.161  13.315  1.00  0.00     0.034 A 
BRANCH  50  64
ATOM     64  C   UNL     1       8.417  -3.731  11.739  1.00  0.00     0.023 A 
ATOM     65  C   UNL     1       9.074  -4.687  10.943  1.00  0.00     0.031 A 
ATOM     66  C   UNL     1       7.727  -4.188  12.876  1.00  0.00     0.131 A 
ATOM     67  C   UNL     1       8.959  -6.053  11.249  1.00  0.00     0.055 A 
ATOM     68  C   UNL     1       7.688  -5.540  13.223  1.00  0.00     0.041 A 
ATOM     69  F   UNL     1       7.056  -3.329  13.659  1.00  0.00    -0.206 F 
ATOM     70  C   UNL     1       8.292  -6.484  12.398  1.00  0.00     0.022 A 
BRANCH  67  71
ATOM     71  S   UNL     1       9.550  -7.268  10.037  1.00  0.00     0.124 S 
ATOM     72  O   UNL     1       8.777  -6.904   8.853  1.00  0.00    -0.237 OA
ATOM     73  O   UNL     1      10.979  -6.987   9.980  1.00  0.00    -0.237 OA
ATOM     74  O   UNL     1       9.190  -8.552  10.636  1.00  0.00    -0.744 OA
ENDBRANCH  67  71
ENDBRANCH  50  64
BRANCH  51  75
ATOM     75  C   UNL     1       7.656   5.921   8.969  1.00  0.00     0.023 A 
ATOM     76  C   UNL     1       8.793   6.726   8.795  1.00  0.00     0.031 A 
ATOM     77  C   UNL     1       6.394   6.521   8.811  1.00  0.00     0.131 A 
ATOM     78  C   UNL     1       8.646   8.094   8.519  1.00  0.00     0.055 A 
ATOM     79  C   UNL     1       6.253   7.870   8.482  1.00  0.00     0.041 A 
ATOM     80  F   UNL     1       5.273   5.798   8.967  1.00  0.00    -0.206 F 
ATOM     81  C   UNL     1       7.384   8.669   8.348  1.00  0.00     0.022 A 
BRANCH  78  82
ATOM     82  S   UNL     1      10.131   9.133   8.471  1.00  0.00     0.124 S 
ATOM     83  O   UNL     1      10.687   8.918   9.802  1.00  0.00    -0.237 OA
ATOM     84  O   UNL     1      10.875   8.546   7.361  1.00  0.00    -0.237 OA
ATOM     85  O   UNL     1       9.601  10.473   8.224  1.00  0.00    -0.744 OA
ENDBRANCH  78  82
ENDBRANCH  51  75
BRANCH  63  86
ATOM     86  C   UNL     1      10.357   2.687  14.529  1.00  0.00     0.023 A 
ATOM     87  C   UNL     1       9.721   3.505  15.479  1.00  0.00     0.031 A 
ATOM     88  C   UNL     1      11.716   2.384  14.723  1.00  0.00     0.131 A 
ATOM     89  C   UNL     1      10.461   4.051  16.538  1.00  0.00     0.055 A 
ATOM     90  C   UNL     1      12.430   2.870  15.819  1.00  0.00     0.041 A 
ATOM     91  F   UNL     1      12.376   1.609  13.847  1.00  0.00    -0.206 F 
ATOM     92  C   UNL     1      11.807   3.724  16.724  1.00  0.00     0.022 A 
BRANCH  89  93
ATOM     93  S   UNL     1       9.674   5.293  17.600  1.00  0.00     0.124 S 
ATOM     94  O   UNL     1       9.261   6.303  16.630  1.00  0.00    -0.237 OA
ATOM     95  O   UNL     1       8.597   4.531  18.224  1.00  0.00    -0.237 OA
ATOM     96  O   UNL     1      10.747   5.702  18.503  1.00  0.00    -0.744 OA
ENDBRANCH  89  93
ENDBRANCH  63  86
ENDBRANCH  37  38
ENDBRANCH  30  32
ENDBRANCH  29  30
ENDBRANCH  28  29
ENDBRANCH  27  28
ENDBRANCH  26  27
ENDBRANCH   1  26
TORSDOF 21
