REMARK SMILES Cc1ccc(S(=O)(=O)Nc2cc(C(=O)OCCOCCOC(=O)c3ccc(-c4c5nc(c(-c6cc(S(=O)(=O)[O-])ccc6F)c6ccc([nH]6)c(-c6cc(S(=O)(=O)[O-])ccc6F)c6nc(c(-c7cc(S(=O)(=O)[O-])ccc7F)c7ccc4[nH]7)C=C6)C=C5)cc3)cnc2N2CCCC2)c(C)c1
REMARK SMILES IDX 18 1 17 2 16 3 15 4 13 5 14 6 12 7 10 8 11 9 89 10 88 11
REMARK SMILES IDX 87 12 9 13 6 15 7 16 8 17 5 18 1 19 2 20 3 21 97 22 4 23
REMARK SMILES IDX 95 24 96 25 90 26 91 27 94 28 92 29 93 30 19 31 20 32 21 33
REMARK SMILES IDX 22 34 23 35 24 36 25 37 86 38 26 39 85 40 27 41 28 42 29 43
REMARK SMILES IDX 79 44 30 45 84 46 78 47 80 48 31 49 83 50 77 51 76 52 32 54
REMARK SMILES IDX 64 55 44 56 63 57 45 58 48 59 62 60 81 61 46 62 47 63 61 65
REMARK SMILES IDX 82 66 49 67 33 68 34 69 42 70 35 71 41 72 43 73 40 74 36 75
REMARK SMILES IDX 37 76 38 77 39 78 65 79 66 80 74 81 67 82 73 83 75 84 72 85
REMARK SMILES IDX 68 86 69 87 70 88 71 89 50 90 51 91 59 92 52 93 58 94 60 95
REMARK SMILES IDX 57 96 53 97 54 98 55 99 56 100
REMARK H PARENT 9 14 80 53 48 64
REMARK Flexibility Score: inf
ROOT
ATOM      1  O   UNL     1       4.251  -4.247   3.750  1.00  0.00    -0.374 OA
ENDROOT
BRANCH   1   2
ATOM      2  C   UNL     1       3.890  -2.870   3.870  1.00  0.00     0.202 C 
BRANCH   2   3
ATOM      3  C   UNL     1       3.548  -2.124   2.578  1.00  0.00     0.261 C 
BRANCH   3   4
ATOM      4  O   UNL     1       2.357  -2.648   1.970  1.00  0.00    -0.460 OA
BRANCH   4   5
ATOM      5  C   UNL     1       2.533  -3.292   0.798  1.00  0.00     0.339 C 
ATOM      6  O   UNL     1       3.579  -3.406   0.165  1.00  0.00    -0.246 OA
BRANCH   5   7
ATOM      7  C   UNL     1       1.287  -3.946   0.371  1.00  0.00     0.080 A 
ATOM      8  C   UNL     1      -1.084  -4.011   0.097  1.00  0.00     0.092 A 
ATOM      9  C   UNL     1       0.027  -3.515   0.774  1.00  0.00     0.048 A 
ATOM     10  C   UNL     1      -0.928  -5.065  -0.838  1.00  0.00     0.153 A 
ATOM     11  N   UNL     1       0.292  -5.560  -1.141  1.00  0.00    -0.236 NA
ATOM     12  C   UNL     1       1.367  -4.971  -0.562  1.00  0.00     0.129 A 
BRANCH   8  13
ATOM     13  N   UNL     1      -2.379  -3.444   0.356  1.00  0.00    -0.276 N 
ATOM     14  H   UNL     1      -3.029  -3.960   0.886  1.00  0.00     0.180 HD
BRANCH  13  15
ATOM     15  S   UNL     1      -2.826  -1.899  -0.230  1.00  0.00     0.262 S 
ATOM     16  O   UNL     1      -3.647  -1.367   0.839  1.00  0.00    -0.201 OA
ATOM     17  O   UNL     1      -3.399  -2.086  -1.547  1.00  0.00    -0.201 OA
BRANCH  15  18
ATOM     18  C   UNL     1      -1.407  -0.828  -0.456  1.00  0.00     0.090 A 
ATOM     19  C   UNL     1       2.348   1.274  -0.202  1.00  0.00     0.044 C 
ATOM     20  C   UNL     1       1.031   0.574  -0.368  1.00  0.00    -0.051 A 
ATOM     21  C   UNL     1       0.937  -0.623  -1.075  1.00  0.00     0.005 A 
ATOM     22  C   UNL     1      -0.144   1.155   0.115  1.00  0.00     0.008 A 
ATOM     23  C   UNL     1      -0.285  -1.300  -1.150  1.00  0.00     0.023 A 
ATOM     24  C   UNL     1      -1.383   0.487   0.039  1.00  0.00    -0.030 A 
ATOM     25  C   UNL     1      -2.602   1.291   0.399  1.00  0.00     0.046 C 
ENDBRANCH  15  18
ENDBRANCH  13  15
ENDBRANCH   8  13
BRANCH  10  26
ATOM     26  N   UNL     1      -2.044  -5.607  -1.457  1.00  0.00    -0.355 N 
ATOM     27  C   UNL     1      -2.466  -5.007  -2.715  1.00  0.00     0.118 C 
ATOM     28  C   UNL     1      -2.115  -7.062  -1.608  1.00  0.00     0.118 C 
ATOM     29  C   UNL     1      -3.661  -5.878  -3.069  1.00  0.00     0.023 C 
ATOM     30  C   UNL     1      -3.186  -7.277  -2.691  1.00  0.00     0.023 C 
ENDBRANCH  10  26
ENDBRANCH   5   7
ENDBRANCH   4   5
ENDBRANCH   3   4
ENDBRANCH   2   3
ENDBRANCH   1   2
BRANCH   1  31
ATOM     31  C   UNL     1       3.228  -5.194   3.459  1.00  0.00     0.202 C 
BRANCH  31  32
ATOM     32  C   UNL     1       2.240  -5.579   4.569  1.00  0.00     0.261 C 
BRANCH  32  33
ATOM     33  O   UNL     1       1.599  -4.457   5.190  1.00  0.00    -0.460 OA
BRANCH  33  34
ATOM     34  C   UNL     1       2.088  -4.169   6.422  1.00  0.00     0.338 C 
ATOM     35  O   UNL     1       2.950  -4.791   7.029  1.00  0.00    -0.246 OA
BRANCH  34  36
ATOM     36  C   UNL     1       1.571  -2.874   6.900  1.00  0.00     0.060 A 
ATOM     37  C   UNL     1       2.514  -1.950   7.363  1.00  0.00     0.016 A 
ATOM     38  C   UNL     1       0.203  -2.595   6.979  1.00  0.00     0.016 A 
ATOM     39  C   UNL     1       2.092  -0.771   7.966  1.00  0.00     0.010 A 
ATOM     40  C   UNL     1      -0.219  -1.407   7.588  1.00  0.00     0.010 A 
ATOM     41  C   UNL     1       0.724  -0.510   8.122  1.00  0.00    -0.014 A 
BRANCH  41  42
ATOM     42  C   UNL     1       0.322   0.640   8.968  1.00  0.00     0.031 A 
ATOM     43  C   UNL     1      -0.077   0.400  10.399  1.00  0.00     0.074 A 
ATOM     44  C   UNL     1       0.404   1.894   8.490  1.00  0.00     0.049 A 
ATOM     45  N   UNL     1      -0.340   1.265  11.345  1.00  0.00    -0.248 NA
ATOM     46  C   UNL     1      -0.198  -1.004  10.813  1.00  0.00     0.031 C 
ATOM     47  C   UNL     1       0.786   2.248   7.124  1.00  0.00     0.029 A 
ATOM     48  N   UNL     1       0.185   3.100   9.104  1.00  0.00    -0.354 N 
ATOM     49  C   UNL     1      -0.640   0.510  12.475  1.00  0.00     0.074 A 
ATOM     50  C   UNL     1      -0.590  -0.880  12.071  1.00  0.00     0.031 C 
ATOM     51  C   UNL     1       0.778   3.587   7.004  1.00  0.00     0.029 A 
ATOM     52  C   UNL     1       0.376   4.181   8.277  1.00  0.00     0.049 A 
ATOM     53  H   UNL     1      -0.084   3.184  10.048  1.00  0.00     0.167 HD
ATOM     54  C   UNL     1      -0.912   0.936  13.735  1.00  0.00     0.034 A 
ATOM     55  C   UNL     1       0.240   5.499   8.518  1.00  0.00     0.034 A 
ATOM     56  C   UNL     1      -0.994   2.329  14.110  1.00  0.00     0.049 A 
ATOM     57  C   UNL     1      -0.111   5.956   9.911  1.00  0.00     0.074 A 
ATOM     58  C   UNL     1      -1.260   2.877  15.353  1.00  0.00     0.029 A 
ATOM     59  N   UNL     1      -0.829   3.399  13.237  1.00  0.00    -0.354 N 
ATOM     60  N   UNL     1      -0.355   5.236  10.982  1.00  0.00    -0.248 NA
ATOM     61  C   UNL     1      -0.177   7.406  10.131  1.00  0.00     0.031 C 
ATOM     62  C   UNL     1      -1.326   4.270  15.216  1.00  0.00     0.029 A 
ATOM     63  C   UNL     1      -1.018   4.601  13.906  1.00  0.00     0.049 A 
ATOM     64  H   UNL     1      -0.609   3.317  12.281  1.00  0.00     0.167 HD
ATOM     65  C   UNL     1      -0.583   6.147  12.010  1.00  0.00     0.074 A 
ATOM     66  C   UNL     1      -0.425   7.467  11.431  1.00  0.00     0.031 C 
ATOM     67  C   UNL     1      -0.889   5.914  13.314  1.00  0.00     0.034 A 
BRANCH  54  68
ATOM     68  C   UNL     1      -1.190  -0.130  14.772  1.00  0.00     0.023 A 
ATOM     69  C   UNL     1      -0.224  -1.094  15.117  1.00  0.00     0.031 A 
ATOM     70  C   UNL     1      -2.456  -0.229  15.375  1.00  0.00     0.131 A 
ATOM     71  C   UNL     1      -0.567  -2.164  15.959  1.00  0.00     0.055 A 
ATOM     72  C   UNL     1      -2.764  -1.246  16.282  1.00  0.00     0.041 A 
ATOM     73  F   UNL     1      -3.428   0.645  15.072  1.00  0.00    -0.206 F 
ATOM     74  C   UNL     1      -1.824  -2.233  16.563  1.00  0.00     0.022 A 
BRANCH  71  75
ATOM     75  S   UNL     1       0.587  -3.557  16.104  1.00  0.00     0.124 S 
ATOM     76  O   UNL     1       0.761  -3.945  14.707  1.00  0.00    -0.237 OA
ATOM     77  O   UNL     1       1.742  -2.942  16.747  1.00  0.00    -0.237 OA
ATOM     78  O   UNL     1      -0.143  -4.523  16.923  1.00  0.00    -0.744 OA
ENDBRANCH  71  75
ENDBRANCH  54  68
BRANCH  55  79
ATOM     79  C   UNL     1       0.419   6.475   7.408  1.00  0.00     0.023 A 
ATOM     80  C   UNL     1       1.493   7.379   7.386  1.00  0.00     0.031 A 
ATOM     81  C   UNL     1      -0.501   6.514   6.344  1.00  0.00     0.131 A 
ATOM     82  C   UNL     1       1.605   8.302   6.333  1.00  0.00     0.055 A 
ATOM     83  C   UNL     1      -0.362   7.404   5.280  1.00  0.00     0.041 A 
ATOM     84  F   UNL     1      -1.540   5.664   6.316  1.00  0.00    -0.206 F 
ATOM     85  C   UNL     1       0.692   8.312   5.275  1.00  0.00     0.022 A 
BRANCH  82  86
ATOM     86  S   UNL     1       2.944   9.524   6.383  1.00  0.00     0.124 S 
ATOM     87  O   UNL     1       2.637  10.255   7.607  1.00  0.00    -0.237 OA
ATOM     88  O   UNL     1       4.129   8.673   6.423  1.00  0.00    -0.237 OA
ATOM     89  O   UNL     1       2.764  10.276   5.143  1.00  0.00    -0.744 OA
ENDBRANCH  82  86
ENDBRANCH  55  79
BRANCH  67  90
ATOM     90  C   UNL     1      -1.043   7.126  14.205  1.00  0.00     0.023 A 
ATOM     91  C   UNL     1      -2.069   8.067  14.008  1.00  0.00     0.031 A 
ATOM     92  C   UNL     1      -0.126   7.362  15.245  1.00  0.00     0.131 A 
ATOM     93  C   UNL     1      -2.110   9.234  14.787  1.00  0.00     0.055 A 
ATOM     94  C   UNL     1      -0.212   8.491  16.062  1.00  0.00     0.041 A 
ATOM     95  F   UNL     1       0.877   6.500  15.481  1.00  0.00    -0.206 F 
ATOM     96  C   UNL     1      -1.197   9.444  15.823  1.00  0.00     0.022 A 
BRANCH  93  97
ATOM     97  S   UNL     1      -3.294  10.536  14.345  1.00  0.00     0.124 S 
ATOM     98  O   UNL     1      -2.970  10.778  12.943  1.00  0.00    -0.237 OA
ATOM     99  O   UNL     1      -4.577   9.890  14.601  1.00  0.00    -0.237 OA
ATOM    100  O   UNL     1      -2.957  11.629  15.256  1.00  0.00    -0.744 OA
ENDBRANCH  93  97
ENDBRANCH  67  90
ENDBRANCH  41  42
ENDBRANCH  34  36
ENDBRANCH  33  34
ENDBRANCH  32  33
ENDBRANCH  31  32
ENDBRANCH   1  31
TORSDOF 21
