REMARK SMILES [NH3+][C@H](CS[C@@H]1CC(=O)N(c2ccc3ccccc3c2)C1=O)C(=O)OCCOCCOC(=O)c1ccc(-c2c3nc(c(-c4cc(S(=O)(=O)[O-])ccc4F)c4ccc([nH]4)c(-c4cc(S(=O)(=O)[O-])ccc4F)c4nc(c(-c5cc(S(=O)(=O)[O-])ccc5F)c5ccc2[nH]5)C=C4)C=C3)cc1
REMARK SMILES IDX 26 1 25 2 24 3 22 4 23 5 2 6 1 7 3 11 4 12 5 13 6 14 20 15
REMARK SMILES IDX 7 16 9 17 21 18 8 19 10 20 11 21 19 22 12 23 18 24 13 25
REMARK SMILES IDX 17 26 14 27 16 28 15 29 27 30 28 31 29 32 30 33 31 34 32 35
REMARK SMILES IDX 33 36 34 37 95 38 35 39 94 40 36 41 37 42 38 43 88 44 39 45
REMARK SMILES IDX 93 46 87 47 89 48 40 49 92 50 86 51 85 52 41 54 73 55 53 56
REMARK SMILES IDX 72 57 54 58 57 59 71 60 90 61 55 62 56 63 70 65 91 66 58 67
REMARK SMILES IDX 42 68 43 69 51 70 44 71 50 72 52 73 49 74 45 75 46 76 47 77
REMARK SMILES IDX 48 78 74 79 75 80 83 81 76 82 82 83 84 84 81 85 77 86 78 87
REMARK SMILES IDX 79 88 80 89 59 90 60 91 68 92 61 93 67 94 69 95 66 96 62 97
REMARK SMILES IDX 63 98 64 99 65 100
REMARK H PARENT 1 8 1 9 1 10 89 53 57 64
REMARK Flexibility Score: inf
ROOT
ATOM      1  C   UNL     1      -3.817   0.834  -0.045  1.00  0.00     0.202 C 
ENDROOT
BRANCH   1   2
ATOM      2  C   UNL     1      -3.175   1.435  -1.297  1.00  0.00     0.261 C 
BRANCH   2   3
ATOM      3  O   UNL     1      -1.795   1.054  -1.453  1.00  0.00    -0.459 OA
BRANCH   3   4
ATOM      4  C   UNL     1      -0.886   2.045  -1.220  1.00  0.00     0.365 C 
ATOM      5  O   UNL     1      -1.151   3.163  -0.797  1.00  0.00    -0.245 OA
BRANCH   4   6
ATOM      6  C   UNL     1       0.535   1.583  -1.557  1.00  0.00     0.301 C 
BRANCH   6   7
ATOM      7  N   UNL     1       0.608   1.147  -2.977  1.00  0.00    -0.345 N 
ATOM      8  H   UNL     1       0.265   1.895  -3.579  1.00  0.00     0.345 HD
ATOM      9  H   UNL     1       0.033   0.315  -3.107  1.00  0.00     0.345 HD
ATOM     10  H   UNL     1       1.576   0.933  -3.217  1.00  0.00     0.345 HD
ENDBRANCH   6   7
BRANCH   6  11
ATOM     11  C   UNL     1       1.041   0.495  -0.590  1.00  0.00     0.147 C 
BRANCH  11  12
ATOM     12  S   UNL     1       2.699   0.811   0.134  1.00  0.00    -0.141 SA
BRANCH  12  13
ATOM     13  C   UNL     1       3.653   1.280  -1.340  1.00  0.00     0.146 C 
ATOM     14  C   UNL     1       4.312   0.109  -2.024  1.00  0.00     0.125 C 
ATOM     15  C   UNL     1       4.802   2.197  -1.006  1.00  0.00     0.247 C 
ATOM     16  C   UNL     1       5.581   0.712  -2.550  1.00  0.00     0.235 C 
ATOM     17  N   UNL     1       5.840   1.878  -1.861  1.00  0.00    -0.250 N 
ATOM     18  O   UNL     1       4.717   3.135  -0.222  1.00  0.00    -0.273 OA
ATOM     19  O   UNL     1       6.263   0.149  -3.395  1.00  0.00    -0.274 OA
BRANCH  17  20
ATOM     20  C   UNL     1       6.987   2.700  -2.051  1.00  0.00     0.052 A 
ATOM     21  C   UNL     1       7.684   2.700  -3.266  1.00  0.00     0.027 A 
ATOM     22  C   UNL     1       7.427   3.576  -1.046  1.00  0.00     0.035 A 
ATOM     23  C   UNL     1       8.754   3.575  -3.485  1.00  0.00     0.011 A 
ATOM     24  C   UNL     1       8.510   4.449  -1.241  1.00  0.00    -0.016 A 
ATOM     25  C   UNL     1       9.174   4.459  -2.484  1.00  0.00    -0.018 A 
ATOM     26  C   UNL     1       8.938   5.316  -0.224  1.00  0.00     0.009 A 
ATOM     27  C   UNL     1      10.237   5.353  -2.688  1.00  0.00     0.009 A 
ATOM     28  C   UNL     1      10.002   6.193  -0.437  1.00  0.00     0.001 A 
ATOM     29  C   UNL     1      10.646   6.216  -1.670  1.00  0.00     0.001 A 
ENDBRANCH  17  20
ENDBRANCH  12  13
ENDBRANCH  11  12
ENDBRANCH   6  11
ENDBRANCH   4   6
ENDBRANCH   3   4
ENDBRANCH   2   3
ENDBRANCH   1   2
BRANCH   1  30
ATOM     30  O   UNL     1      -3.416   1.382   1.208  1.00  0.00    -0.374 OA
BRANCH  30  31
ATOM     31  C   UNL     1      -2.168   0.951   1.744  1.00  0.00     0.202 C 
BRANCH  31  32
ATOM     32  C   UNL     1      -2.127  -0.450   2.370  1.00  0.00     0.261 C 
BRANCH  32  33
ATOM     33  O   UNL     1      -2.258  -1.496   1.389  1.00  0.00    -0.460 OA
BRANCH  33  34
ATOM     34  C   UNL     1      -3.437  -2.165   1.428  1.00  0.00     0.338 C 
ATOM     35  O   UNL     1      -4.355  -1.989   2.218  1.00  0.00    -0.246 OA
BRANCH  34  36
ATOM     36  C   UNL     1      -3.566  -3.028   0.240  1.00  0.00     0.060 A 
ATOM     37  C   UNL     1      -4.703  -2.871  -0.564  1.00  0.00     0.016 A 
ATOM     38  C   UNL     1      -2.632  -4.028  -0.037  1.00  0.00     0.016 A 
ATOM     39  C   UNL     1      -4.936  -3.741  -1.627  1.00  0.00     0.010 A 
ATOM     40  C   UNL     1      -2.874  -4.909  -1.096  1.00  0.00     0.010 A 
ATOM     41  C   UNL     1      -4.043  -4.790  -1.873  1.00  0.00    -0.014 A 
BRANCH  41  42
ATOM     42  C   UNL     1      -4.405  -5.876  -2.816  1.00  0.00     0.031 A 
ATOM     43  C   UNL     1      -4.932  -7.167  -2.253  1.00  0.00     0.074 A 
ATOM     44  C   UNL     1      -4.245  -5.729  -4.142  1.00  0.00     0.049 A 
ATOM     45  N   UNL     1      -5.162  -8.305  -2.852  1.00  0.00    -0.248 NA
ATOM     46  C   UNL     1      -5.221  -7.169  -0.812  1.00  0.00     0.031 C 
ATOM     47  C   UNL     1      -3.797  -4.507  -4.806  1.00  0.00     0.029 A 
ATOM     48  N   UNL     1      -4.415  -6.629  -5.164  1.00  0.00    -0.354 N 
ATOM     49  C   UNL     1      -5.603  -9.171  -1.856  1.00  0.00     0.074 A 
ATOM     50  C   UNL     1      -5.575  -8.428  -0.614  1.00  0.00     0.031 C 
ATOM     51  C   UNL     1      -3.691  -4.745  -6.124  1.00  0.00     0.029 A 
ATOM     52  C   UNL     1      -4.016  -6.146  -6.387  1.00  0.00     0.049 A 
ATOM     53  H   UNL     1      -4.787  -7.531  -5.033  1.00  0.00     0.167 HD
ATOM     54  C   UNL     1      -5.994 -10.465  -1.972  1.00  0.00     0.034 A 
ATOM     55  C   UNL     1      -3.880  -6.776  -7.571  1.00  0.00     0.034 A 
ATOM     56  C   UNL     1      -5.997 -11.188  -3.221  1.00  0.00     0.049 A 
ATOM     57  C   UNL     1      -4.234  -8.239  -7.671  1.00  0.00     0.074 A 
ATOM     58  C   UNL     1      -6.389 -12.493  -3.463  1.00  0.00     0.029 A 
ATOM     59  N   UNL     1      -5.569 -10.671  -4.439  1.00  0.00    -0.354 N 
ATOM     60  N   UNL     1      -4.647  -9.055  -6.728  1.00  0.00    -0.248 NA
ATOM     61  C   UNL     1      -4.110  -8.865  -8.994  1.00  0.00     0.031 C 
ATOM     62  C   UNL     1      -6.125 -12.788  -4.806  1.00  0.00     0.029 A 
ATOM     63  C   UNL     1      -5.651 -11.642  -5.425  1.00  0.00     0.049 A 
ATOM     64  H   UNL     1      -5.253  -9.750  -4.580  1.00  0.00     0.167 HD
ATOM     65  C   UNL     1      -4.862 -10.282  -7.351  1.00  0.00     0.074 A 
ATOM     66  C   UNL     1      -4.531 -10.099  -8.750  1.00  0.00     0.031 C 
ATOM     67  C   UNL     1      -5.307 -11.449  -6.817  1.00  0.00     0.034 A 
BRANCH  54  68
ATOM     68  C   UNL     1      -6.372 -11.185  -0.698  1.00  0.00     0.023 A 
ATOM     69  C   UNL     1      -7.444 -10.759   0.107  1.00  0.00     0.031 A 
ATOM     70  C   UNL     1      -5.601 -12.270  -0.241  1.00  0.00     0.131 A 
ATOM     71  C   UNL     1      -7.649 -11.343   1.367  1.00  0.00     0.055 A 
ATOM     72  C   UNL     1      -5.871 -12.909   0.970  1.00  0.00     0.041 A 
ATOM     73  F   UNL     1      -4.550 -12.709  -0.952  1.00  0.00    -0.206 F 
ATOM     74  C   UNL     1      -6.886 -12.431   1.793  1.00  0.00     0.022 A 
BRANCH  71  75
ATOM     75  S   UNL     1      -8.795 -10.532   2.517  1.00  0.00     0.124 S 
ATOM     76  O   UNL     1      -8.254  -9.176   2.566  1.00  0.00    -0.237 OA
ATOM     77  O   UNL     1     -10.078 -10.684   1.841  1.00  0.00    -0.237 OA
ATOM     78  O   UNL     1      -8.642 -11.300   3.751  1.00  0.00    -0.744 OA
ENDBRANCH  71  75
ENDBRANCH  54  68
BRANCH  55  79
ATOM     79  C   UNL     1      -3.325  -6.038  -8.740  1.00  0.00     0.023 A 
ATOM     80  C   UNL     1      -4.113  -5.747  -9.863  1.00  0.00     0.031 A 
ATOM     81  C   UNL     1      -1.984  -5.610  -8.742  1.00  0.00     0.131 A 
ATOM     82  C   UNL     1      -3.548  -5.066 -10.953  1.00  0.00     0.055 A 
ATOM     83  C   UNL     1      -1.439  -4.896  -9.810  1.00  0.00     0.041 A 
ATOM     84  F   UNL     1      -1.191  -5.858  -7.688  1.00  0.00    -0.206 F 
ATOM     85  C   UNL     1      -2.222  -4.626 -10.928  1.00  0.00     0.022 A 
BRANCH  82  86
ATOM     86  S   UNL     1      -4.564  -4.791 -12.430  1.00  0.00     0.124 S 
ATOM     87  O   UNL     1      -4.849  -6.157 -12.852  1.00  0.00    -0.237 OA
ATOM     88  O   UNL     1      -5.690  -4.038 -11.886  1.00  0.00    -0.237 OA
ATOM     89  O   UNL     1      -3.681  -4.033 -13.313  1.00  0.00    -0.744 OA
ENDBRANCH  82  86
ENDBRANCH  55  79
BRANCH  67  90
ATOM     90  C   UNL     1      -5.523 -12.608  -7.761  1.00  0.00     0.023 A 
ATOM     91  C   UNL     1      -4.455 -13.274  -8.385  1.00  0.00     0.031 A 
ATOM     92  C   UNL     1      -6.829 -13.065  -8.018  1.00  0.00     0.131 A 
ATOM     93  C   UNL     1      -4.714 -14.339  -9.264  1.00  0.00     0.055 A 
ATOM     94  C   UNL     1      -7.077 -14.158  -8.849  1.00  0.00     0.041 A 
ATOM     95  F   UNL     1      -7.887 -12.464  -7.450  1.00  0.00    -0.206 F 
ATOM     96  C   UNL     1      -6.016 -14.796  -9.484  1.00  0.00     0.022 A 
BRANCH  93  97
ATOM     97  S   UNL     1      -3.330 -15.082 -10.171  1.00  0.00     0.124 S 
ATOM     98  O   UNL     1      -2.813 -13.942 -10.921  1.00  0.00    -0.237 OA
ATOM     99  O   UNL     1      -2.479 -15.577  -9.095  1.00  0.00    -0.237 OA
ATOM    100  O   UNL     1      -3.968 -16.118 -10.982  1.00  0.00    -0.744 OA
ENDBRANCH  93  97
ENDBRANCH  67  90
ENDBRANCH  41  42
ENDBRANCH  34  36
ENDBRANCH  33  34
ENDBRANCH  32  33
ENDBRANCH  31  32
ENDBRANCH  30  31
ENDBRANCH   1  30
TORSDOF 22
