REMARK SMILES COC(=O)c1ccc(C)c(NC(=O)[C@H]2CC=CC[C@H]2C(=O)OCCOCCOC(=O)c2ccc(-c3c4nc(c(-c5cc(S(=O)(=O)[O-])ccc5F)c5ccc([nH]5)c(-c5cc(S(=O)(=O)[O-])ccc5F)c5nc(c(-c6cc(S(=O)(=O)[O-])ccc6F)c6ccc3[nH]6)C=C5)C=C4)cc2)c1
REMARK SMILES IDX 24 1 23 2 22 3 20 4 21 5 19 6 14 7 15 8 16 9 18 10 17 11
REMARK SMILES IDX 12 12 11 13 13 15 10 16 5 17 6 18 94 19 7 20 8 21 9 22 3 23
REMARK SMILES IDX 4 24 2 25 1 26 25 27 26 28 27 29 28 30 29 31 30 32 31 33
REMARK SMILES IDX 32 34 93 35 33 36 92 37 34 38 35 39 36 40 86 41 37 42 91 43
REMARK SMILES IDX 85 44 87 45 38 46 90 47 84 48 83 49 39 51 71 52 51 53 70 54
REMARK SMILES IDX 52 55 55 56 69 57 88 58 53 59 54 60 68 62 89 63 56 64 40 65
REMARK SMILES IDX 41 66 49 67 42 68 48 69 50 70 47 71 43 72 44 73 45 74 46 75
REMARK SMILES IDX 72 76 73 77 81 78 74 79 80 80 82 81 79 82 75 83 76 84 77 85
REMARK SMILES IDX 78 86 57 87 58 88 66 89 59 90 65 91 67 92 64 93 60 94 61 95
REMARK SMILES IDX 62 96 63 97
REMARK H PARENT 11 14 87 50 55 61
REMARK Flexibility Score: inf
ROOT
ATOM      1  C   UNL     1       5.750  -4.370   1.954  1.00  0.00     0.202 C 
ENDROOT
BRANCH   1   2
ATOM      2  C   UNL     1       5.530  -2.987   2.510  1.00  0.00     0.261 C 
BRANCH   2   3
ATOM      3  O   UNL     1       6.356  -2.031   1.870  1.00  0.00    -0.463 OA
BRANCH   3   4
ATOM      4  C   UNL     1       7.675  -2.155   2.133  1.00  0.00     0.310 C 
ATOM      5  O   UNL     1       8.184  -2.651   3.122  1.00  0.00    -0.252 OA
BRANCH   4   6
ATOM      6  C   UNL     1       8.449  -1.699   0.943  1.00  0.00     0.116 C 
ATOM      7  C   UNL     1       7.802  -2.080  -0.426  1.00  0.00     0.097 C 
ATOM      8  C   UNL     1       8.913  -1.779  -1.473  1.00  0.00     0.041 C 
ATOM      9  C   UNL     1       9.633  -0.460  -1.264  1.00  0.00    -0.030 C 
ATOM     10  C   UNL     1       8.830  -0.232   1.090  1.00  0.00     0.043 C 
ATOM     11  C   UNL     1       9.569   0.248  -0.124  1.00  0.00    -0.030 C 
BRANCH   7  12
ATOM     12  C   UNL     1       6.518  -1.301  -0.823  1.00  0.00     0.228 C 
ATOM     13  N   UNL     1       5.214  -1.680  -0.654  1.00  0.00    -0.326 N 
ATOM     14  H   UNL     1       4.665  -0.870  -0.548  1.00  0.00     0.169 HD
ATOM     15  O   UNL     1       6.668  -0.164  -1.297  1.00  0.00    -0.274 OA
BRANCH  13  16
ATOM     16  C   UNL     1       4.357  -2.821  -0.576  1.00  0.00     0.044 A 
ATOM     17  C   UNL     1       2.003  -3.490   0.001  1.00  0.00     0.062 A 
ATOM     18  C   UNL     1       2.317  -4.810  -0.269  1.00  0.00     0.016 A 
ATOM     19  C   UNL     1       3.042  -2.540  -0.103  1.00  0.00     0.042 A 
ATOM     20  C   UNL     1       3.591  -5.127  -0.750  1.00  0.00     0.006 A 
ATOM     21  C   UNL     1       4.596  -4.142  -0.979  1.00  0.00    -0.027 A 
ATOM     22  C   UNL     1       5.846  -4.625  -1.651  1.00  0.00     0.046 C 
BRANCH  17  23
ATOM     23  C   UNL     1       0.548  -3.165   0.254  1.00  0.00     0.337 C 
ATOM     24  O   UNL     1      -0.364  -3.955   0.119  1.00  0.00    -0.246 OA
BRANCH  23  25
ATOM     25  O   UNL     1       0.412  -1.872   0.576  1.00  0.00    -0.465 OA
ATOM     26  C   UNL     1      -0.833  -1.202   0.348  1.00  0.00     0.282 C 
ENDBRANCH  23  25
ENDBRANCH  17  23
ENDBRANCH  13  16
ENDBRANCH   7  12
ENDBRANCH   4   6
ENDBRANCH   3   4
ENDBRANCH   2   3
ENDBRANCH   1   2
BRANCH   1  27
ATOM     27  O   UNL     1       6.790  -5.027   2.656  1.00  0.00    -0.374 OA
BRANCH  27  28
ATOM     28  C   UNL     1       7.221  -6.253   2.094  1.00  0.00     0.202 C 
BRANCH  28  29
ATOM     29  C   UNL     1       6.098  -7.284   1.873  1.00  0.00     0.261 C 
BRANCH  29  30
ATOM     30  O   UNL     1       5.485  -7.717   3.115  1.00  0.00    -0.460 OA
BRANCH  30  31
ATOM     31  C   UNL     1       4.277  -7.173   3.459  1.00  0.00     0.338 C 
ATOM     32  O   UNL     1       3.213  -7.480   2.946  1.00  0.00    -0.246 OA
BRANCH  31  33
ATOM     33  C   UNL     1       4.443  -6.116   4.504  1.00  0.00     0.060 A 
ATOM     34  C   UNL     1       3.449  -5.144   4.760  1.00  0.00     0.016 A 
ATOM     35  C   UNL     1       5.713  -5.938   5.020  1.00  0.00     0.016 A 
ATOM     36  C   UNL     1       3.776  -3.924   5.400  1.00  0.00     0.010 A 
ATOM     37  C   UNL     1       6.053  -4.688   5.486  1.00  0.00     0.010 A 
ATOM     38  C   UNL     1       5.106  -3.663   5.711  1.00  0.00    -0.014 A 
BRANCH  38  39
ATOM     39  C   UNL     1       5.742  -2.398   6.153  1.00  0.00     0.031 A 
ATOM     40  C   UNL     1       6.731  -2.532   7.277  1.00  0.00     0.074 A 
ATOM     41  C   UNL     1       5.824  -1.288   5.362  1.00  0.00     0.049 A 
ATOM     42  N   UNL     1       7.526  -1.604   7.668  1.00  0.00    -0.248 NA
ATOM     43  C   UNL     1       6.906  -3.757   8.065  1.00  0.00     0.031 C 
ATOM     44  C   UNL     1       7.022  -0.448   5.213  1.00  0.00     0.029 A 
ATOM     45  N   UNL     1       4.897  -0.662   4.511  1.00  0.00    -0.354 N 
ATOM     46  C   UNL     1       8.483  -2.154   8.488  1.00  0.00     0.074 A 
ATOM     47  C   UNL     1       8.025  -3.492   8.743  1.00  0.00     0.031 C 
ATOM     48  C   UNL     1       6.723   0.666   4.537  1.00  0.00     0.029 A 
ATOM     49  C   UNL     1       5.292   0.691   4.354  1.00  0.00     0.049 A 
ATOM     50  H   UNL     1       4.113  -1.088   4.096  1.00  0.00     0.167 HD
ATOM     51  C   UNL     1       9.578  -1.403   8.783  1.00  0.00     0.034 A 
ATOM     52  C   UNL     1       4.485   1.749   4.654  1.00  0.00     0.034 A 
ATOM     53  C   UNL     1       9.385  -0.028   8.313  1.00  0.00     0.049 A 
ATOM     54  C   UNL     1       4.983   2.587   5.773  1.00  0.00     0.074 A 
ATOM     55  C   UNL     1       9.870   0.715   7.254  1.00  0.00     0.029 A 
ATOM     56  N   UNL     1       8.334   0.697   8.857  1.00  0.00    -0.354 N 
ATOM     57  N   UNL     1       6.092   2.336   6.399  1.00  0.00    -0.248 NA
ATOM     58  C   UNL     1       4.248   3.708   6.340  1.00  0.00     0.031 C 
ATOM     59  C   UNL     1       9.046   1.871   7.133  1.00  0.00     0.029 A 
ATOM     60  C   UNL     1       8.100   1.854   8.147  1.00  0.00     0.049 A 
ATOM     61  H   UNL     1       7.820   0.419   9.649  1.00  0.00     0.167 HD
ATOM     62  C   UNL     1       6.126   3.062   7.548  1.00  0.00     0.074 A 
ATOM     63  C   UNL     1       5.013   3.987   7.407  1.00  0.00     0.031 C 
ATOM     64  C   UNL     1       7.006   2.738   8.540  1.00  0.00     0.034 A 
BRANCH  51  65
ATOM     65  C   UNL     1      10.872  -1.845   9.427  1.00  0.00     0.023 A 
ATOM     66  C   UNL     1      11.896  -0.881   9.559  1.00  0.00     0.031 A 
ATOM     67  C   UNL     1      11.210  -3.138   9.870  1.00  0.00     0.131 A 
ATOM     68  C   UNL     1      13.158  -1.204  10.088  1.00  0.00     0.055 A 
ATOM     69  C   UNL     1      12.460  -3.456  10.424  1.00  0.00     0.041 A 
ATOM     70  F   UNL     1      10.376  -4.177   9.779  1.00  0.00    -0.206 F 
ATOM     71  C   UNL     1      13.444  -2.488  10.532  1.00  0.00     0.022 A 
BRANCH  68  72
ATOM     72  S   UNL     1      14.428   0.085  10.162  1.00  0.00     0.124 S 
ATOM     73  O   UNL     1      14.630   0.398   8.751  1.00  0.00    -0.237 OA
ATOM     74  O   UNL     1      13.783   1.113  10.970  1.00  0.00    -0.237 OA
ATOM     75  O   UNL     1      15.554  -0.589  10.808  1.00  0.00    -0.744 OA
ENDBRANCH  68  72
ENDBRANCH  51  65
BRANCH  52  76
ATOM     76  C   UNL     1       3.069   1.606   4.250  1.00  0.00     0.023 A 
ATOM     77  C   UNL     1       2.876   1.899   2.892  1.00  0.00     0.031 A 
ATOM     78  C   UNL     1       2.323   0.586   4.856  1.00  0.00     0.131 A 
ATOM     79  C   UNL     1       2.291   0.935   2.081  1.00  0.00     0.055 A 
ATOM     80  C   UNL     1       1.725  -0.374   4.056  1.00  0.00     0.041 A 
ATOM     81  F   UNL     1       2.435   0.343   6.170  1.00  0.00    -0.206 F 
ATOM     82  C   UNL     1       1.803  -0.237   2.667  1.00  0.00     0.022 A 
BRANCH  79  83
ATOM     83  S   UNL     1       2.488   1.190   0.284  1.00  0.00     0.124 S 
ATOM     84  O   UNL     1       2.199   2.610   0.129  1.00  0.00    -0.237 OA
ATOM     85  O   UNL     1       3.873   0.771   0.090  1.00  0.00    -0.237 OA
ATOM     86  O   UNL     1       1.514   0.315  -0.348  1.00  0.00    -0.744 OA
ENDBRANCH  79  83
ENDBRANCH  52  76
BRANCH  64  87
ATOM     87  C   UNL     1       6.891   3.250   9.953  1.00  0.00     0.023 A 
ATOM     88  C   UNL     1       5.740   3.890  10.423  1.00  0.00     0.031 A 
ATOM     89  C   UNL     1       7.927   3.090  10.898  1.00  0.00     0.131 A 
ATOM     90  C   UNL     1       5.710   4.506  11.678  1.00  0.00     0.055 A 
ATOM     91  C   UNL     1       7.844   3.584  12.202  1.00  0.00     0.041 A 
ATOM     92  F   UNL     1       9.065   2.445  10.603  1.00  0.00    -0.206 F 
ATOM     93  C   UNL     1       6.747   4.340  12.587  1.00  0.00     0.022 A 
BRANCH  90  94
ATOM     94  S   UNL     1       4.352   5.657  11.998  1.00  0.00     0.124 S 
ATOM     95  O   UNL     1       4.513   6.620  10.911  1.00  0.00    -0.237 OA
ATOM     96  O   UNL     1       3.179   4.794  11.904  1.00  0.00    -0.237 OA
ATOM     97  O   UNL     1       4.645   6.172  13.333  1.00  0.00    -0.744 OA
ENDBRANCH  90  94
ENDBRANCH  64  87
ENDBRANCH  38  39
ENDBRANCH  31  33
ENDBRANCH  30  31
ENDBRANCH  29  30
ENDBRANCH  28  29
ENDBRANCH  27  28
ENDBRANCH   1  27
TORSDOF 21
