REMARK SMILES COc1cc(C(C)C)cc([C@H]([NH3+])C(=O)OCCOCCOC(=O)c2ccc(-c3c4nc(c(-c5cc(S(=O)(=O)[O-])ccc5F)c5ccc([nH]5)c(-c5cc(S(=O)(=O)[O-])ccc5F)c5nc(c(-c6cc(S(=O)(=O)[O-])ccc6F)c6ccc3[nH]6)C=C5)C=C4)cc2)c1O
REMARK SMILES IDX 19 1 18 2 17 3 16 4 15 5 13 6 14 7 11 8 10 9 3 10 4 11 87 12
REMARK SMILES IDX 5 13 9 14 2 15 1 16 88 17 6 19 7 20 8 21 12 22 20 26 21 27
REMARK SMILES IDX 22 28 23 29 24 30 25 31 86 32 26 33 85 34 27 35 28 36 29 37
REMARK SMILES IDX 79 38 30 39 84 40 78 41 80 42 31 43 83 44 77 45 76 46 32 48
REMARK SMILES IDX 64 49 44 50 63 51 45 52 48 53 62 54 81 55 46 56 47 57 61 59
REMARK SMILES IDX 82 60 49 61 33 62 34 63 42 64 35 65 41 66 43 67 40 68 36 69
REMARK SMILES IDX 37 70 38 71 39 72 65 73 66 74 74 75 67 76 73 77 75 78 72 79
REMARK SMILES IDX 68 80 69 81 70 82 71 83 50 84 51 85 59 86 52 87 58 88 60 89
REMARK SMILES IDX 57 90 53 91 54 92 55 93 56 94
REMARK H PARENT 88 18 12 23 12 24 12 25 80 47 48 58
REMARK Flexibility Score: inf
ROOT
ATOM      1  C   UNL     1       4.373  -4.343  -2.179  1.00  0.00     0.202 C 
ENDROOT
BRANCH   1   2
ATOM      2  O   UNL     1       5.051  -5.545  -2.542  1.00  0.00    -0.374 OA
BRANCH   2   3
ATOM      3  C   UNL     1       4.415  -6.422  -3.471  1.00  0.00     0.202 C 
BRANCH   3   4
ATOM      4  C   UNL     1       3.219  -7.229  -2.960  1.00  0.00     0.261 C 
BRANCH   4   5
ATOM      5  O   UNL     1       2.122  -6.373  -2.615  1.00  0.00    -0.459 OA
BRANCH   5   6
ATOM      6  C   UNL     1       1.802  -6.324  -1.284  1.00  0.00     0.369 C 
ATOM      7  O   UNL     1       2.286  -7.047  -0.419  1.00  0.00    -0.245 OA
BRANCH   6   8
ATOM      8  C   UNL     1       0.728  -5.251  -1.008  1.00  0.00     0.327 C 
BRANCH   8   9
ATOM      9  C   UNL     1      -0.635  -5.904  -0.975  1.00  0.00     0.067 A 
ATOM     10  C   UNL     1      -2.482  -6.871   0.287  1.00  0.00     0.161 A 
ATOM     11  C   UNL     1      -3.064  -7.285  -0.920  1.00  0.00     0.054 A 
ATOM     12  C   UNL     1      -1.281  -6.157   0.243  1.00  0.00     0.167 A 
ATOM     13  C   UNL     1      -2.462  -7.012  -2.159  1.00  0.00    -0.041 A 
ATOM     14  C   UNL     1      -1.241  -6.331  -2.167  1.00  0.00     0.018 A 
BRANCH  10  15
ATOM     15  O   UNL     1      -3.208  -7.205   1.399  1.00  0.00    -0.493 OA
ATOM     16  C   UNL     1      -2.520  -7.319   2.639  1.00  0.00     0.278 C 
ENDBRANCH  10  15
BRANCH  12  17
ATOM     17  O   UNL     1      -0.711  -5.628   1.368  1.00  0.00    -0.504 OA
ATOM     18  H   UNL     1      -1.107  -5.771   2.205  1.00  0.00     0.293 HD
ENDBRANCH  12  17
BRANCH  13  19
ATOM     19  C   UNL     1      -3.071  -7.448  -3.479  1.00  0.00     0.013 C 
ATOM     20  C   UNL     1      -3.087  -8.970  -3.610  1.00  0.00     0.012 C 
ATOM     21  C   UNL     1      -4.465  -6.853  -3.685  1.00  0.00     0.012 C 
ENDBRANCH  13  19
ENDBRANCH   8   9
BRANCH   8  22
ATOM     22  N   UNL     1       0.791  -4.112  -1.965  1.00  0.00    -0.342 N 
ATOM     23  H   UNL     1       0.612  -4.451  -2.910  1.00  0.00     0.345 HD
ATOM     24  H   UNL     1       1.717  -3.686  -1.926  1.00  0.00     0.345 HD
ATOM     25  H   UNL     1       0.086  -3.418  -1.715  1.00  0.00     0.345 HD
ENDBRANCH   8  22
ENDBRANCH   6   8
ENDBRANCH   5   6
ENDBRANCH   4   5
ENDBRANCH   3   4
ENDBRANCH   2   3
ENDBRANCH   1   2
BRANCH   1  26
ATOM     26  C   UNL     1       4.292  -3.219  -3.220  1.00  0.00     0.261 C 
BRANCH  26  27
ATOM     27  O   UNL     1       3.579  -3.587  -4.414  1.00  0.00    -0.460 OA
BRANCH  27  28
ATOM     28  C   UNL     1       4.353  -3.700  -5.519  1.00  0.00     0.338 C 
ATOM     29  O   UNL     1       5.563  -3.504  -5.595  1.00  0.00    -0.246 OA
BRANCH  28  30
ATOM     30  C   UNL     1       3.578  -4.266  -6.634  1.00  0.00     0.060 A 
ATOM     31  C   UNL     1       4.049  -5.446  -7.223  1.00  0.00     0.016 A 
ATOM     32  C   UNL     1       2.469  -3.602  -7.162  1.00  0.00     0.016 A 
ATOM     33  C   UNL     1       3.438  -5.946  -8.371  1.00  0.00     0.010 A 
ATOM     34  C   UNL     1       1.864  -4.100  -8.322  1.00  0.00     0.010 A 
ATOM     35  C   UNL     1       2.366  -5.255  -8.950  1.00  0.00    -0.014 A 
BRANCH  35  36
ATOM     36  C   UNL     1       1.869  -5.656 -10.290  1.00  0.00     0.031 A 
ATOM     37  C   UNL     1       2.336  -4.889 -11.497  1.00  0.00     0.074 A 
ATOM     38  C   UNL     1       1.023  -6.693 -10.428  1.00  0.00     0.049 A 
ATOM     39  N   UNL     1       1.976  -5.011 -12.749  1.00  0.00    -0.248 NA
ATOM     40  C   UNL     1       3.340  -3.841 -11.258  1.00  0.00     0.031 C 
ATOM     41  C   UNL     1       0.540  -7.538  -9.336  1.00  0.00     0.029 A 
ATOM     42  N   UNL     1       0.408  -7.203 -11.544  1.00  0.00    -0.354 N 
ATOM     43  C   UNL     1       2.697  -4.046 -13.446  1.00  0.00     0.074 A 
ATOM     44  C   UNL     1       3.497  -3.334 -12.472  1.00  0.00     0.031 C 
ATOM     45  C   UNL     1      -0.317  -8.446  -9.834  1.00  0.00     0.029 A 
ATOM     46  C   UNL     1      -0.474  -8.222 -11.270  1.00  0.00     0.049 A 
ATOM     47  H   UNL     1       0.583  -6.872 -12.455  1.00  0.00     0.167 HD
ATOM     48  C   UNL     1       2.691  -3.783 -14.775  1.00  0.00     0.034 A 
ATOM     49  C   UNL     1      -1.336  -8.872 -12.079  1.00  0.00     0.034 A 
ATOM     50  C   UNL     1       1.888  -4.504 -15.732  1.00  0.00     0.049 A 
ATOM     51  C   UNL     1      -1.378  -8.512 -13.546  1.00  0.00     0.074 A 
ATOM     52  C   UNL     1       1.835  -4.344 -17.106  1.00  0.00     0.029 A 
ATOM     53  N   UNL     1       0.986  -5.511 -15.415  1.00  0.00    -0.354 N 
ATOM     54  N   UNL     1      -0.676  -7.612 -14.196  1.00  0.00    -0.248 NA
ATOM     55  C   UNL     1      -2.321  -9.260 -14.388  1.00  0.00     0.031 C 
ATOM     56  C   UNL     1       0.849  -5.200 -17.609  1.00  0.00     0.029 A 
ATOM     57  C   UNL     1       0.344  -5.953 -16.561  1.00  0.00     0.049 A 
ATOM     58  H   UNL     1       0.827  -5.861 -14.509  1.00  0.00     0.167 HD
ATOM     59  C   UNL     1      -1.073  -7.710 -15.528  1.00  0.00     0.074 A 
ATOM     60  C   UNL     1      -2.065  -8.762 -15.589  1.00  0.00     0.031 C 
ATOM     61  C   UNL     1      -0.650  -6.999 -16.605  1.00  0.00     0.034 A 
BRANCH  48  62
ATOM     62  C   UNL     1       3.532  -2.628 -15.262  1.00  0.00     0.023 A 
ATOM     63  C   UNL     1       4.935  -2.646 -15.196  1.00  0.00     0.031 A 
ATOM     64  C   UNL     1       2.911  -1.484 -15.796  1.00  0.00     0.131 A 
ATOM     65  C   UNL     1       5.669  -1.520 -15.602  1.00  0.00     0.055 A 
ATOM     66  C   UNL     1       3.650  -0.396 -16.264  1.00  0.00     0.041 A 
ATOM     67  F   UNL     1       1.573  -1.402 -15.863  1.00  0.00    -0.206 F 
ATOM     68  C   UNL     1       5.037  -0.405 -16.157  1.00  0.00     0.022 A 
BRANCH  65  69
ATOM     69  S   UNL     1       7.454  -1.484 -15.284  1.00  0.00     0.124 S 
ATOM     70  O   UNL     1       7.499  -1.627 -13.831  1.00  0.00    -0.237 OA
ATOM     71  O   UNL     1       7.935  -2.626 -16.054  1.00  0.00    -0.237 OA
ATOM     72  O   UNL     1       7.866  -0.175 -15.787  1.00  0.00    -0.744 OA
ENDBRANCH  65  69
ENDBRANCH  48  62
BRANCH  49  73
ATOM     73  C   UNL     1      -2.279  -9.885 -11.520  1.00  0.00     0.023 A 
ATOM     74  C   UNL     1      -2.233 -11.228 -11.924  1.00  0.00     0.031 A 
ATOM     75  C   UNL     1      -3.288  -9.503 -10.616  1.00  0.00     0.131 A 
ATOM     76  C   UNL     1      -3.207 -12.130 -11.465  1.00  0.00     0.055 A 
ATOM     77  C   UNL     1      -4.220 -10.415 -10.120  1.00  0.00     0.041 A 
ATOM     78  F   UNL     1      -3.379  -8.230 -10.197  1.00  0.00    -0.206 F 
ATOM     79  C   UNL     1      -4.192 -11.735 -10.556  1.00  0.00     0.022 A 
BRANCH  76  80
ATOM     80  S   UNL     1      -3.228 -13.809 -12.151  1.00  0.00     0.124 S 
ATOM     81  O   UNL     1      -3.350 -13.544 -13.580  1.00  0.00    -0.237 OA
ATOM     82  O   UNL     1      -1.943 -14.334 -11.702  1.00  0.00    -0.237 OA
ATOM     83  O   UNL     1      -4.401 -14.416 -11.526  1.00  0.00    -0.744 OA
ENDBRANCH  76  80
ENDBRANCH  49  73
BRANCH  61  84
ATOM     84  C   UNL     1      -1.226  -7.375 -17.949  1.00  0.00     0.023 A 
ATOM     85  C   UNL     1      -2.576  -7.147 -18.267  1.00  0.00     0.031 A 
ATOM     86  C   UNL     1      -0.405  -7.965 -18.926  1.00  0.00     0.131 A 
ATOM     87  C   UNL     1      -3.077  -7.551 -19.515  1.00  0.00     0.055 A 
ATOM     88  C   UNL     1      -0.895  -8.312 -20.186  1.00  0.00     0.041 A 
ATOM     89  F   UNL     1       0.891  -8.206 -18.675  1.00  0.00    -0.206 F 
ATOM     90  C   UNL     1      -2.240  -8.116 -20.482  1.00  0.00     0.022 A 
BRANCH  87  91
ATOM     91  S   UNL     1      -4.856  -7.397 -19.834  1.00  0.00     0.124 S 
ATOM     92  O   UNL     1      -5.426  -8.228 -18.778  1.00  0.00    -0.237 OA
ATOM     93  O   UNL     1      -5.074  -5.961 -19.703  1.00  0.00    -0.237 OA
ATOM     94  O   UNL     1      -5.009  -7.925 -21.189  1.00  0.00    -0.744 OA
ENDBRANCH  87  91
ENDBRANCH  61  84
ENDBRANCH  35  36
ENDBRANCH  28  30
ENDBRANCH  27  28
ENDBRANCH  26  27
ENDBRANCH   1  26
TORSDOF 22
