REMARK SMILES O=C(OCCOCCOC(=O)[C@@H]1[C@H](C(=O)Nc2ccc(Cn3cncn3)cc2)[C@@H]2C=C[C@H]1CC2)c1ccc(-c2c3nc(c(-c4cc(S(=O)(=O)[O-])ccc4F)c4ccc([nH]4)c(-c4cc(S(=O)(=O)[O-])ccc4F)c4nc(c(-c5cc(S(=O)(=O)[O-])ccc5F)c5ccc2[nH]5)C=C4)C=C3)cc1
REMARK SMILES IDX 7 1 6 2 5 3 4 4 3 5 2 6 1 7 35 8 36 9 97 10 37 11 96 12
REMARK SMILES IDX 38 13 39 14 40 15 90 16 41 17 95 18 89 19 91 20 42 21 94 22
REMARK SMILES IDX 88 23 87 24 43 26 75 27 55 28 74 29 56 30 59 31 73 32 92 33
REMARK SMILES IDX 57 34 58 35 72 37 93 38 60 39 44 40 45 41 53 42 46 43 52 44
REMARK SMILES IDX 54 45 51 46 47 47 48 48 49 49 50 50 76 51 77 52 85 53 78 54
REMARK SMILES IDX 84 55 86 56 83 57 79 58 80 59 81 60 82 61 61 62 62 63 70 64
REMARK SMILES IDX 63 65 69 66 71 67 68 68 64 69 65 70 66 71 67 72 8 73 9 74
REMARK SMILES IDX 10 75 11 76 12 77 13 78 32 79 29 80 31 81 33 82 30 83 34 84
REMARK SMILES IDX 14 85 15 86 16 87 17 89 18 90 28 91 19 92 27 93 20 94 21 95
REMARK SMILES IDX 22 96 23 97 26 98 24 99 25 100
REMARK H PARENT 91 25 59 36 16 88
REMARK Flexibility Score: inf
ROOT
ATOM      1  C   UNL     1       2.187   3.102  -1.120  1.00  0.00     0.202 C 
ENDROOT
BRANCH   1   2
ATOM      2  O   UNL     1       3.071   3.053  -0.006  1.00  0.00    -0.374 OA
BRANCH   2   3
ATOM      3  C   UNL     1       4.031   2.022   0.061  1.00  0.00     0.202 C 
BRANCH   3   4
ATOM      4  C   UNL     1       3.614   0.625  -0.365  1.00  0.00     0.261 C 
BRANCH   4   5
ATOM      5  O   UNL     1       2.256   0.344  -0.656  1.00  0.00    -0.460 OA
BRANCH   5   6
ATOM      6  C   UNL     1       1.209   0.224   0.168  1.00  0.00     0.338 C 
ATOM      7  O   UNL     1       0.082   0.357  -0.289  1.00  0.00    -0.246 OA
BRANCH   6   8
ATOM      8  C   UNL     1       1.381  -0.148   1.585  1.00  0.00     0.060 A 
ATOM      9  C   UNL     1       2.574  -0.546   2.197  1.00  0.00     0.016 A 
ATOM     10  C   UNL     1       0.173  -0.235   2.291  1.00  0.00     0.016 A 
ATOM     11  C   UNL     1       2.544  -1.206   3.400  1.00  0.00     0.010 A 
ATOM     12  C   UNL     1       0.141  -0.848   3.517  1.00  0.00     0.010 A 
ATOM     13  C   UNL     1       1.316  -1.401   4.009  1.00  0.00    -0.014 A 
BRANCH  13  14
ATOM     14  C   UNL     1       1.315  -2.068   5.286  1.00  0.00     0.031 A 
ATOM     15  C   UNL     1       2.045  -1.288   6.320  1.00  0.00     0.074 A 
ATOM     16  C   UNL     1       0.568  -3.174   5.441  1.00  0.00     0.049 A 
ATOM     17  N   UNL     1       3.096  -1.630   6.989  1.00  0.00    -0.248 NA
ATOM     18  C   UNL     1       1.713   0.148   6.441  1.00  0.00     0.031 C 
ATOM     19  C   UNL     1      -0.332  -3.799   4.466  1.00  0.00     0.029 A 
ATOM     20  N   UNL     1       0.323  -3.884   6.561  1.00  0.00    -0.354 N 
ATOM     21  C   UNL     1       3.370  -0.543   7.817  1.00  0.00     0.074 A 
ATOM     22  C   UNL     1       2.685   0.577   7.243  1.00  0.00     0.031 C 
ATOM     23  C   UNL     1      -1.221  -4.577   5.121  1.00  0.00     0.029 A 
ATOM     24  C   UNL     1      -0.867  -4.600   6.529  1.00  0.00     0.049 A 
ATOM     25  H   UNL     1       0.933  -3.894   7.334  1.00  0.00     0.167 HD
ATOM     26  C   UNL     1       3.855  -0.730   9.074  1.00  0.00     0.034 A 
ATOM     27  C   UNL     1      -1.555  -5.049   7.613  1.00  0.00     0.034 A 
ATOM     28  C   UNL     1       4.475  -2.032   9.190  1.00  0.00     0.049 A 
ATOM     29  C   UNL     1      -0.588  -5.043   8.750  1.00  0.00     0.074 A 
ATOM     30  C   UNL     1       5.519  -2.658   8.533  1.00  0.00     0.029 A 
ATOM     31  N   UNL     1       3.756  -3.045   9.790  1.00  0.00    -0.354 N 
ATOM     32  N   UNL     1       0.482  -5.796   8.773  1.00  0.00    -0.248 NA
ATOM     33  C   UNL     1      -0.505  -3.840   9.572  1.00  0.00     0.031 C 
ATOM     34  C   UNL     1       5.078  -4.001   8.345  1.00  0.00     0.029 A 
ATOM     35  C   UNL     1       3.842  -4.153   8.980  1.00  0.00     0.049 A 
ATOM     36  H   UNL     1       3.269  -2.985  10.643  1.00  0.00     0.167 HD
ATOM     37  C   UNL     1       1.500  -4.976   9.246  1.00  0.00     0.074 A 
ATOM     38  C   UNL     1       0.814  -3.808   9.802  1.00  0.00     0.031 C 
ATOM     39  C   UNL     1       2.800  -5.160   8.861  1.00  0.00     0.034 A 
BRANCH  26  40
ATOM     40  C   UNL     1       3.383   0.060  10.280  1.00  0.00     0.023 A 
ATOM     41  C   UNL     1       3.913  -0.321  11.525  1.00  0.00     0.031 A 
ATOM     42  C   UNL     1       2.260   0.921  10.335  1.00  0.00     0.131 A 
ATOM     43  C   UNL     1       3.260   0.017  12.722  1.00  0.00     0.055 A 
ATOM     44  C   UNL     1       1.651   1.307  11.532  1.00  0.00     0.041 A 
ATOM     45  F   UNL     1       1.625   1.378   9.251  1.00  0.00    -0.206 F 
ATOM     46  C   UNL     1       2.126   0.822  12.734  1.00  0.00     0.022 A 
BRANCH  43  47
ATOM     47  S   UNL     1       3.812  -0.786  14.245  1.00  0.00     0.124 S 
ATOM     48  O   UNL     1       3.769  -2.194  13.864  1.00  0.00    -0.237 OA
ATOM     49  O   UNL     1       5.139  -0.206  14.422  1.00  0.00    -0.237 OA
ATOM     50  O   UNL     1       2.813  -0.372  15.226  1.00  0.00    -0.744 OA
ENDBRANCH  43  47
ENDBRANCH  26  40
BRANCH  27  51
ATOM     51  C   UNL     1      -3.042  -5.033   7.758  1.00  0.00     0.023 A 
ATOM     52  C   UNL     1      -3.736  -5.847   8.677  1.00  0.00     0.031 A 
ATOM     53  C   UNL     1      -3.805  -4.039   7.098  1.00  0.00     0.131 A 
ATOM     54  C   UNL     1      -5.126  -5.662   8.886  1.00  0.00     0.055 A 
ATOM     55  C   UNL     1      -5.176  -3.867   7.302  1.00  0.00     0.041 A 
ATOM     56  F   UNL     1      -3.228  -3.142   6.283  1.00  0.00    -0.206 F 
ATOM     57  C   UNL     1      -5.843  -4.676   8.204  1.00  0.00     0.022 A 
BRANCH  54  58
ATOM     58  S   UNL     1      -6.020  -6.668  10.116  1.00  0.00     0.124 S 
ATOM     59  O   UNL     1      -5.969  -7.999   9.525  1.00  0.00    -0.237 OA
ATOM     60  O   UNL     1      -5.226  -6.463  11.324  1.00  0.00    -0.237 OA
ATOM     61  O   UNL     1      -7.351  -6.062  10.153  1.00  0.00    -0.744 OA
ENDBRANCH  54  58
ENDBRANCH  27  51
BRANCH  39  62
ATOM     62  C   UNL     1       3.150  -6.410   8.069  1.00  0.00     0.023 A 
ATOM     63  C   UNL     1       2.614  -6.749   6.802  1.00  0.00     0.031 A 
ATOM     64  C   UNL     1       4.189  -7.214   8.566  1.00  0.00     0.131 A 
ATOM     65  C   UNL     1       3.115  -7.863   6.095  1.00  0.00     0.055 A 
ATOM     66  C   UNL     1       4.693  -8.303   7.856  1.00  0.00     0.041 A 
ATOM     67  F   UNL     1       4.769  -6.924   9.743  1.00  0.00    -0.206 F 
ATOM     68  C   UNL     1       4.154  -8.636   6.620  1.00  0.00     0.022 A 
BRANCH  65  69
ATOM     69  S   UNL     1       2.423  -8.332   4.472  1.00  0.00     0.124 S 
ATOM     70  O   UNL     1       0.984  -8.319   4.698  1.00  0.00    -0.237 OA
ATOM     71  O   UNL     1       2.946  -7.289   3.592  1.00  0.00    -0.237 OA
ATOM     72  O   UNL     1       2.990  -9.662   4.233  1.00  0.00    -0.744 OA
ENDBRANCH  65  69
ENDBRANCH  39  62
ENDBRANCH  13  14
ENDBRANCH   6   8
ENDBRANCH   5   6
ENDBRANCH   4   5
ENDBRANCH   3   4
ENDBRANCH   2   3
ENDBRANCH   1   2
BRANCH   1  73
ATOM     73  C   UNL     1       2.753   3.017  -2.553  1.00  0.00     0.261 C 
BRANCH  73  74
ATOM     74  O   UNL     1       3.231   1.729  -3.046  1.00  0.00    -0.463 OA
BRANCH  74  75
ATOM     75  C   UNL     1       4.518   1.682  -3.501  1.00  0.00     0.310 C 
ATOM     76  O   UNL     1       5.317   2.600  -3.343  1.00  0.00    -0.252 OA
BRANCH  75  77
ATOM     77  C   UNL     1       4.848   0.455  -4.371  1.00  0.00     0.119 C 
ATOM     78  C   UNL     1       4.459  -1.019  -4.061  1.00  0.00     0.100 C 
ATOM     79  C   UNL     1       6.333   0.465  -4.929  1.00  0.00     0.026 C 
ATOM     80  C   UNL     1       5.481  -1.986  -4.753  1.00  0.00     0.025 C 
ATOM     81  C   UNL     1       7.263  -0.495  -4.201  1.00  0.00    -0.027 C 
ATOM     82  C   UNL     1       6.275  -0.155  -6.344  1.00  0.00     0.009 C 
ATOM     83  C   UNL     1       6.834  -1.765  -4.129  1.00  0.00    -0.027 C 
ATOM     84  C   UNL     1       5.657  -1.578  -6.243  1.00  0.00     0.009 C 
BRANCH  78  85
ATOM     85  C   UNL     1       4.021  -1.617  -2.709  1.00  0.00     0.228 C 
ATOM     86  O   UNL     1       2.859  -2.045  -2.634  1.00  0.00    -0.274 OA
ATOM     87  N   UNL     1       4.823  -1.914  -1.642  1.00  0.00    -0.326 N 
ATOM     88  H   UNL     1       4.484  -2.675  -1.118  1.00  0.00     0.169 HD
BRANCH  87  89
ATOM     89  C   UNL     1       6.019  -1.389  -1.115  1.00  0.00     0.041 A 
ATOM     90  C   UNL     1       6.714  -2.104  -0.143  1.00  0.00     0.026 A 
ATOM     91  C   UNL     1       6.489  -0.120  -1.423  1.00  0.00     0.026 A 
ATOM     92  C   UNL     1       7.938  -1.619   0.351  1.00  0.00     0.008 A 
ATOM     93  C   UNL     1       7.673   0.396  -0.916  1.00  0.00     0.008 A 
ATOM     94  C   UNL     1       8.456  -0.390  -0.087  1.00  0.00    -0.026 A 
BRANCH  94  95
ATOM     95  C   UNL     1       9.850   0.074   0.227  1.00  0.00     0.181 C 
BRANCH  95  96
ATOM     96  N   UNL     1       9.945   0.856   1.439  1.00  0.00    -0.249 N 
ATOM     97  C   UNL     1       9.765   0.428   2.717  1.00  0.00     0.220 A 
ATOM     98  N   UNL     1      10.467   2.102   1.414  1.00  0.00    -0.160 NA
ATOM     99  N   UNL     1      10.152   1.365   3.550  1.00  0.00    -0.224 NA
ATOM    100  C   UNL     1      10.563   2.367   2.720  1.00  0.00     0.246 A 
ENDBRANCH  95  96
ENDBRANCH  94  95
ENDBRANCH  87  89
ENDBRANCH  78  85
ENDBRANCH  75  77
ENDBRANCH  74  75
ENDBRANCH  73  74
ENDBRANCH   1  73
TORSDOF 21
