REMARK SMILES C[C@@H](C(=O)OCCOCCOC(=O)c1ccc(-c2c3nc(c(-c4cc(S(=O)(=O)[O-])ccc4F)c4ccc([nH]4)c(-c4cc(S(=O)(=O)[O-])ccc4F)c4nc(c(-c5cc(S(=O)(=O)[O-])ccc5F)c5ccc2[nH]5)C=C4)C=C3)cc1)[C@H](C)n1ncc2ccc([N+](=O)[O-])cc21
REMARK SMILES IDX 8 1 7 2 6 3 5 4 3 5 4 6 2 7 1 8 77 9 78 10 79 11 80 12 90 13
REMARK SMILES IDX 81 14 82 15 89 16 83 17 85 18 84 19 86 20 87 21 88 22 9 23
REMARK SMILES IDX 10 24 11 25 12 26 13 27 14 28 15 29 76 30 16 31 75 32 17 33
REMARK SMILES IDX 18 34 19 35 69 36 20 37 74 38 68 39 70 40 21 41 73 42 67 43
REMARK SMILES IDX 66 44 22 46 54 47 34 48 53 49 35 50 38 51 52 52 71 53 36 54
REMARK SMILES IDX 37 55 51 57 72 58 39 59 23 60 24 61 32 62 25 63 31 64 33 65
REMARK SMILES IDX 30 66 26 67 27 68 28 69 29 70 55 71 56 72 64 73 57 74 63 75
REMARK SMILES IDX 65 76 62 77 58 78 59 79 60 80 61 81 40 82 41 83 49 84 42 85
REMARK SMILES IDX 48 86 50 87 47 88 43 89 44 90 45 91 46 92
REMARK H PARENT 70 45 38 56
REMARK Flexibility Score: inf
ROOT
ATOM      1  O   UNL     1      -4.694   4.487  -0.403  1.00  0.00    -0.374 OA
ENDROOT
BRANCH   1   2
ATOM      2  C   UNL     1      -5.032   3.950   0.879  1.00  0.00     0.202 C 
BRANCH   2   3
ATOM      3  C   UNL     1      -5.036   2.421   0.997  1.00  0.00     0.261 C 
BRANCH   3   4
ATOM      4  O   UNL     1      -3.687   1.921   0.982  1.00  0.00    -0.463 OA
BRANCH   4   5
ATOM      5  C   UNL     1      -3.305   1.197  -0.099  1.00  0.00     0.310 C 
ATOM      6  O   UNL     1      -4.063   0.759  -0.954  1.00  0.00    -0.252 OA
BRANCH   5   7
ATOM      7  C   UNL     1      -1.800   0.965  -0.134  1.00  0.00     0.120 C 
ATOM      8  C   UNL     1      -0.973   1.877   0.789  1.00  0.00     0.022 C 
BRANCH   7   9
ATOM      9  C   UNL     1      -1.316   0.909  -1.616  1.00  0.00     0.119 C 
ATOM     10  C   UNL     1       0.117   0.360  -1.704  1.00  0.00     0.034 C 
BRANCH   9  11
ATOM     11  N   UNL     1      -1.408   2.155  -2.391  1.00  0.00    -0.261 N 
ATOM     12  N   UNL     1      -0.511   3.136  -2.134  1.00  0.00    -0.180 NA
ATOM     13  C   UNL     1      -2.156   2.401  -3.535  1.00  0.00     0.075 A 
ATOM     14  C   UNL     1      -0.628   3.972  -3.163  1.00  0.00     0.143 A 
ATOM     15  C   UNL     1      -1.620   3.573  -4.077  1.00  0.00     0.020 A 
ATOM     16  C   UNL     1      -3.225   1.727  -4.158  1.00  0.00     0.114 A 
ATOM     17  C   UNL     1      -2.116   4.091  -5.287  1.00  0.00     0.019 A 
ATOM     18  C   UNL     1      -3.713   2.272  -5.365  1.00  0.00     0.271 A 
ATOM     19  C   UNL     1      -3.163   3.428  -5.932  1.00  0.00     0.086 A 
BRANCH  18  20
ATOM     20  N   UNL     1      -4.824   1.610  -6.065  1.00  0.00     0.062 N 
ATOM     21  O   UNL     1      -5.037   1.935  -7.244  1.00  0.00    -0.258 OA
ATOM     22  O   UNL     1      -5.472   0.754  -5.447  1.00  0.00    -0.258 OA
ENDBRANCH  18  20
ENDBRANCH   9  11
ENDBRANCH   7   9
ENDBRANCH   5   7
ENDBRANCH   4   5
ENDBRANCH   3   4
ENDBRANCH   2   3
ENDBRANCH   1   2
BRANCH   1  23
ATOM     23  C   UNL     1      -3.319   4.461  -0.774  1.00  0.00     0.202 C 
BRANCH  23  24
ATOM     24  C   UNL     1      -2.403   5.590  -0.293  1.00  0.00     0.261 C 
BRANCH  24  25
ATOM     25  O   UNL     1      -2.543   5.849   1.102  1.00  0.00    -0.460 OA
BRANCH  25  26
ATOM     26  C   UNL     1      -3.427   6.840   1.363  1.00  0.00     0.338 C 
ATOM     27  O   UNL     1      -3.986   7.567   0.555  1.00  0.00    -0.246 OA
BRANCH  26  28
ATOM     28  C   UNL     1      -3.778   6.799   2.787  1.00  0.00     0.060 A 
ATOM     29  C   UNL     1      -5.141   6.787   3.100  1.00  0.00     0.016 A 
ATOM     30  C   UNL     1      -2.804   6.801   3.788  1.00  0.00     0.016 A 
ATOM     31  C   UNL     1      -5.541   6.847   4.426  1.00  0.00     0.010 A 
ATOM     32  C   UNL     1      -3.207   6.866   5.121  1.00  0.00     0.010 A 
ATOM     33  C   UNL     1      -4.575   6.934   5.437  1.00  0.00    -0.014 A 
BRANCH  33  34
ATOM     34  C   UNL     1      -5.011   7.280   6.806  1.00  0.00     0.031 A 
ATOM     35  C   UNL     1      -4.861   8.702   7.266  1.00  0.00     0.074 A 
ATOM     36  C   UNL     1      -5.586   6.351   7.589  1.00  0.00     0.049 A 
ATOM     37  N   UNL     1      -5.154   9.235   8.422  1.00  0.00    -0.248 NA
ATOM     38  C   UNL     1      -4.301   9.649   6.289  1.00  0.00     0.031 C 
ATOM     39  C   UNL     1      -5.827   4.960   7.206  1.00  0.00     0.029 A 
ATOM     40  N   UNL     1      -6.075   6.440   8.865  1.00  0.00    -0.354 N 
ATOM     41  C   UNL     1      -4.811  10.579   8.314  1.00  0.00     0.074 A 
ATOM     42  C   UNL     1      -4.246  10.767   6.995  1.00  0.00     0.031 C 
ATOM     43  C   UNL     1      -6.418   4.324   8.230  1.00  0.00     0.029 A 
ATOM     44  C   UNL     1      -6.554   5.248   9.353  1.00  0.00     0.049 A 
ATOM     45  H   UNL     1      -6.083   7.278   9.382  1.00  0.00     0.167 HD
ATOM     46  C   UNL     1      -4.968  11.564   9.231  1.00  0.00     0.034 A 
ATOM     47  C   UNL     1      -7.021   4.939  10.579  1.00  0.00     0.034 A 
ATOM     48  C   UNL     1      -5.524  11.341  10.543  1.00  0.00     0.049 A 
ATOM     49  C   UNL     1      -7.095   6.032  11.617  1.00  0.00     0.074 A 
ATOM     50  C   UNL     1      -5.734  12.258  11.557  1.00  0.00     0.029 A 
ATOM     51  N   UNL     1      -5.947  10.109  11.028  1.00  0.00    -0.354 N 
ATOM     52  N   UNL     1      -6.768   7.301  11.508  1.00  0.00    -0.248 NA
ATOM     53  C   UNL     1      -7.611   5.656  12.938  1.00  0.00     0.031 C 
ATOM     54  C   UNL     1      -6.203  11.568  12.679  1.00  0.00     0.029 A 
ATOM     55  C   UNL     1      -6.380  10.235  12.338  1.00  0.00     0.049 A 
ATOM     56  H   UNL     1      -5.940   9.268  10.515  1.00  0.00     0.167 HD
ATOM     57  C   UNL     1      -7.070   7.879  12.738  1.00  0.00     0.074 A 
ATOM     58  C   UNL     1      -7.620   6.823  13.565  1.00  0.00     0.031 C 
ATOM     59  C   UNL     1      -6.915   9.165  13.149  1.00  0.00     0.034 A 
BRANCH  46  60
ATOM     60  C   UNL     1      -4.477  12.943   8.862  1.00  0.00     0.023 A 
ATOM     61  C   UNL     1      -5.031  13.669   7.792  1.00  0.00     0.031 A 
ATOM     62  C   UNL     1      -3.414  13.530   9.572  1.00  0.00     0.131 A 
ATOM     63  C   UNL     1      -4.475  14.903   7.420  1.00  0.00     0.055 A 
ATOM     64  C   UNL     1      -2.922  14.796   9.251  1.00  0.00     0.041 A 
ATOM     65  F   UNL     1      -2.824  12.874  10.584  1.00  0.00    -0.206 F 
ATOM     66  C   UNL     1      -3.443  15.484   8.160  1.00  0.00     0.022 A 
BRANCH  63  67
ATOM     67  S   UNL     1      -5.019  15.668   5.868  1.00  0.00     0.124 S 
ATOM     68  O   UNL     1      -4.699  14.624   4.897  1.00  0.00    -0.237 OA
ATOM     69  O   UNL     1      -6.437  15.902   6.111  1.00  0.00    -0.237 OA
ATOM     70  O   UNL     1      -4.195  16.871   5.771  1.00  0.00    -0.744 OA
ENDBRANCH  63  67
ENDBRANCH  46  60
BRANCH  47  71
ATOM     71  C   UNL     1      -7.411   3.538  10.906  1.00  0.00     0.023 A 
ATOM     72  C   UNL     1      -8.724   3.216  11.281  1.00  0.00     0.031 A 
ATOM     73  C   UNL     1      -6.457   2.503  10.895  1.00  0.00     0.131 A 
ATOM     74  C   UNL     1      -9.037   1.906  11.676  1.00  0.00     0.055 A 
ATOM     75  C   UNL     1      -6.787   1.190  11.229  1.00  0.00     0.041 A 
ATOM     76  F   UNL     1      -5.185   2.755  10.546  1.00  0.00    -0.206 F 
ATOM     77  C   UNL     1      -8.082   0.887  11.637  1.00  0.00     0.022 A 
BRANCH  74  78
ATOM     78  S   UNL     1     -10.692   1.572  12.339  1.00  0.00     0.124 S 
ATOM     79  O   UNL     1     -10.757   2.507  13.456  1.00  0.00    -0.237 OA
ATOM     80  O   UNL     1     -11.543   1.878  11.194  1.00  0.00    -0.237 OA
ATOM     81  O   UNL     1     -10.631   0.160  12.709  1.00  0.00    -0.744 OA
ENDBRANCH  74  78
ENDBRANCH  47  71
BRANCH  59  82
ATOM     82  C   UNL     1      -7.394   9.504  14.540  1.00  0.00     0.023 A 
ATOM     83  C   UNL     1      -6.790   8.961  15.687  1.00  0.00     0.031 A 
ATOM     84  C   UNL     1      -8.479  10.382  14.717  1.00  0.00     0.131 A 
ATOM     85  C   UNL     1      -7.314   9.252  16.956  1.00  0.00     0.055 A 
ATOM     86  C   UNL     1      -8.949  10.725  15.986  1.00  0.00     0.041 A 
ATOM     87  F   UNL     1      -9.097  10.928  13.658  1.00  0.00    -0.206 F 
ATOM     88  C   UNL     1      -8.375  10.146  17.114  1.00  0.00     0.022 A 
BRANCH  85  89
ATOM     89  S   UNL     1      -6.658   8.359  18.392  1.00  0.00     0.124 S 
ATOM     90  O   UNL     1      -6.900   6.969  18.021  1.00  0.00    -0.237 OA
ATOM     91  O   UNL     1      -5.260   8.780  18.410  1.00  0.00    -0.237 OA
ATOM     92  O   UNL     1      -7.468   8.855  19.503  1.00  0.00    -0.744 OA
ENDBRANCH  85  89
ENDBRANCH  59  82
ENDBRANCH  33  34
ENDBRANCH  26  28
ENDBRANCH  25  26
ENDBRANCH  24  25
ENDBRANCH  23  24
ENDBRANCH   1  23
TORSDOF 20
