REMARK SMILES COCC[C@H](NC(=O)N1CC[C@H](C(=O)OC)C1)C(=O)OCCOCCOC(=O)c1ccc(-c2c3nc(c(-c4cc(S(=O)(=O)[O-])ccc4F)c4ccc([nH]4)c(-c4cc(S(=O)(=O)[O-])ccc4F)c4nc(c(-c5cc(S(=O)(=O)[O-])ccc5F)c5ccc2[nH]5)C=C4)C=C3)cc1
REMARK SMILES IDX 22 1 21 2 20 3 18 4 19 5 5 6 4 7 3 8 2 9 1 10 6 11 7 12 8 14
REMARK SMILES IDX 9 15 10 16 17 17 11 18 12 19 13 20 14 21 15 22 16 23 23 24
REMARK SMILES IDX 24 25 25 26 26 27 27 28 28 29 29 30 30 31 91 32 31 33 90 34
REMARK SMILES IDX 32 35 33 36 34 37 84 38 35 39 89 40 83 41 85 42 36 43 88 44
REMARK SMILES IDX 82 45 81 46 37 48 69 49 49 50 68 51 50 52 53 53 67 54 86 55
REMARK SMILES IDX 51 56 52 57 66 59 87 60 54 61 38 62 39 63 47 64 40 65 46 66
REMARK SMILES IDX 48 67 45 68 41 69 42 70 43 71 44 72 70 73 71 74 79 75 72 76
REMARK SMILES IDX 78 77 80 78 77 79 73 80 74 81 75 82 76 83 55 84 56 85 64 86
REMARK SMILES IDX 57 87 63 88 65 89 62 90 58 91 59 92 60 93 61 94
REMARK H PARENT 6 13 85 47 53 58
REMARK Flexibility Score: inf
ROOT
ATOM      1  C   UNL     1      -1.106  -6.051   0.960  1.00  0.00     0.202 C 
ENDROOT
BRANCH   1   2
ATOM      2  C   UNL     1       0.390  -5.839   0.721  1.00  0.00     0.261 C 
BRANCH   2   3
ATOM      3  O   UNL     1       0.869  -4.544   1.111  1.00  0.00    -0.462 OA
BRANCH   3   4
ATOM      4  C   UNL     1       0.895  -3.649   0.085  1.00  0.00     0.328 C 
ATOM      5  O   UNL     1       0.449  -3.860  -1.037  1.00  0.00    -0.250 OA
BRANCH   4   6
ATOM      6  C   UNL     1       1.585  -2.348   0.470  1.00  0.00     0.196 C 
BRANCH   6   7
ATOM      7  C   UNL     1       3.074  -2.545   0.774  1.00  0.00     0.065 C 
BRANCH   7   8
ATOM      8  C   UNL     1       3.819  -3.439  -0.216  1.00  0.00     0.162 C 
BRANCH   8   9
ATOM      9  O   UNL     1       3.852  -2.880  -1.527  1.00  0.00    -0.385 OA
ATOM     10  C   UNL     1       2.961  -3.485  -2.458  1.00  0.00     0.194 C 
ENDBRANCH   8   9
ENDBRANCH   7   8
ENDBRANCH   6   7
BRANCH   6  11
ATOM     11  N   UNL     1       0.904  -1.711   1.609  1.00  0.00    -0.324 N 
ATOM     12  C   UNL     1       0.956  -0.396   1.940  1.00  0.00     0.318 C 
ATOM     13  H   UNL     1       0.359  -2.295   2.186  1.00  0.00     0.166 HD
ATOM     14  O   UNL     1       0.953  -0.076   3.126  1.00  0.00    -0.249 OA
BRANCH  12  15
ATOM     15  N   UNL     1       1.100   0.510   0.939  1.00  0.00    -0.324 N 
ATOM     16  C   UNL     1       0.424   0.540  -0.342  1.00  0.00     0.122 C 
ATOM     17  C   UNL     1       1.876   1.722   1.115  1.00  0.00     0.136 C 
ATOM     18  C   UNL     1       1.476   1.170  -1.231  1.00  0.00     0.039 C 
ATOM     19  C   UNL     1       2.097   2.237  -0.312  1.00  0.00     0.120 C 
BRANCH  19  20
ATOM     20  C   UNL     1       3.551   2.483  -0.627  1.00  0.00     0.310 C 
ATOM     21  O   UNL     1       3.955   3.511  -1.157  1.00  0.00    -0.252 OA
BRANCH  20  22
ATOM     22  O   UNL     1       4.333   1.423  -0.290  1.00  0.00    -0.469 OA
ATOM     23  C   UNL     1       5.721   1.601  -0.576  1.00  0.00     0.282 C 
ENDBRANCH  20  22
ENDBRANCH  19  20
ENDBRANCH  12  15
ENDBRANCH   6  11
ENDBRANCH   4   6
ENDBRANCH   3   4
ENDBRANCH   2   3
ENDBRANCH   1   2
BRANCH   1  24
ATOM     24  O   UNL     1      -2.025  -5.141   0.365  1.00  0.00    -0.374 OA
BRANCH  24  25
ATOM     25  C   UNL     1      -2.194  -3.853   0.955  1.00  0.00     0.202 C 
BRANCH  25  26
ATOM     26  C   UNL     1      -2.922  -3.753   2.300  1.00  0.00     0.261 C 
BRANCH  26  27
ATOM     27  O   UNL     1      -2.232  -4.444   3.354  1.00  0.00    -0.460 OA
BRANCH  27  28
ATOM     28  C   UNL     1      -2.852  -5.574   3.764  1.00  0.00     0.338 C 
ATOM     29  O   UNL     1      -3.939  -5.995   3.374  1.00  0.00    -0.246 OA
BRANCH  28  30
ATOM     30  C   UNL     1      -1.953  -6.388   4.599  1.00  0.00     0.060 A 
ATOM     31  C   UNL     1      -1.843  -7.745   4.270  1.00  0.00     0.016 A 
ATOM     32  C   UNL     1      -1.295  -5.869   5.718  1.00  0.00     0.016 A 
ATOM     33  C   UNL     1      -1.153  -8.609   5.109  1.00  0.00     0.010 A 
ATOM     34  C   UNL     1      -0.605  -6.743   6.566  1.00  0.00     0.010 A 
ATOM     35  C   UNL     1      -0.583  -8.123   6.293  1.00  0.00    -0.014 A 
BRANCH  35  36
ATOM     36  C   UNL     1      -0.167  -9.111   7.317  1.00  0.00     0.031 A 
ATOM     37  C   UNL     1      -1.121  -9.429   8.438  1.00  0.00     0.074 A 
ATOM     38  C   UNL     1       0.982  -9.795   7.179  1.00  0.00     0.049 A 
ATOM     39  N   UNL     1      -1.024 -10.324   9.386  1.00  0.00    -0.248 NA
ATOM     40  C   UNL     1      -2.356  -8.629   8.491  1.00  0.00     0.031 C 
ATOM     41  C   UNL     1       1.953  -9.600   6.102  1.00  0.00     0.029 A 
ATOM     42  N   UNL     1       1.515 -10.807   7.934  1.00  0.00    -0.354 N 
ATOM     43  C   UNL     1      -2.184 -10.200  10.144  1.00  0.00     0.074 A 
ATOM     44  C   UNL     1      -2.945  -9.110   9.574  1.00  0.00     0.031 C 
ATOM     45  C   UNL     1       2.960 -10.475   6.261  1.00  0.00     0.029 A 
ATOM     46  C   UNL     1       2.719 -11.272   7.463  1.00  0.00     0.049 A 
ATOM     47  H   UNL     1       1.077 -11.166   8.739  1.00  0.00     0.167 HD
ATOM     48  C   UNL     1      -2.584 -10.940  11.208  1.00  0.00     0.034 A 
ATOM     49  C   UNL     1       3.534 -12.229   7.950  1.00  0.00     0.034 A 
ATOM     50  C   UNL     1      -1.801 -12.014  11.771  1.00  0.00     0.049 A 
ATOM     51  C   UNL     1       3.099 -12.994   9.176  1.00  0.00     0.074 A 
ATOM     52  C   UNL     1      -2.098 -12.825  12.852  1.00  0.00     0.029 A 
ATOM     53  N   UNL     1      -0.557 -12.420  11.302  1.00  0.00    -0.354 N 
ATOM     54  N   UNL     1       1.996 -12.872   9.882  1.00  0.00    -0.248 NA
ATOM     55  C   UNL     1       4.009 -14.040   9.657  1.00  0.00     0.031 C 
ATOM     56  C   UNL     1      -1.006 -13.671  13.079  1.00  0.00     0.029 A 
ATOM     57  C   UNL     1      -0.062 -13.449  12.088  1.00  0.00     0.049 A 
ATOM     58  H   UNL     1      -0.095 -12.033  10.523  1.00  0.00     0.167 HD
ATOM     59  C   UNL     1       2.068 -13.851  10.871  1.00  0.00     0.074 A 
ATOM     60  C   UNL     1       3.311 -14.564  10.653  1.00  0.00     0.031 C 
ATOM     61  C   UNL     1       1.189 -14.139  11.866  1.00  0.00     0.034 A 
BRANCH  48  62
ATOM     62  C   UNL     1      -3.897 -10.565  11.857  1.00  0.00     0.023 A 
ATOM     63  C   UNL     1      -5.121 -10.657  11.170  1.00  0.00     0.031 A 
ATOM     64  C   UNL     1      -3.919 -10.066  13.172  1.00  0.00     0.131 A 
ATOM     65  C   UNL     1      -6.301 -10.190  11.772  1.00  0.00     0.055 A 
ATOM     66  C   UNL     1      -5.108  -9.679  13.794  1.00  0.00     0.041 A 
ATOM     67  F   UNL     1      -2.781  -9.928  13.870  1.00  0.00    -0.206 F 
ATOM     68  C   UNL     1      -6.306  -9.725  13.088  1.00  0.00     0.022 A 
BRANCH  65  69
ATOM     69  S   UNL     1      -7.801 -10.058  10.759  1.00  0.00     0.124 S 
ATOM     70  O   UNL     1      -7.359  -9.165   9.691  1.00  0.00    -0.237 OA
ATOM     71  O   UNL     1      -8.045 -11.443  10.375  1.00  0.00    -0.237 OA
ATOM     72  O   UNL     1      -8.783  -9.482  11.675  1.00  0.00    -0.744 OA
ENDBRANCH  65  69
ENDBRANCH  48  62
BRANCH  49  73
ATOM     73  C   UNL     1       4.845 -12.509   7.297  1.00  0.00     0.023 A 
ATOM     74  C   UNL     1       5.125 -13.759   6.721  1.00  0.00     0.031 A 
ATOM     75  C   UNL     1       5.861 -11.536   7.284  1.00  0.00     0.131 A 
ATOM     76  C   UNL     1       6.402 -14.018   6.199  1.00  0.00     0.055 A 
ATOM     77  C   UNL     1       7.111 -11.780   6.716  1.00  0.00     0.041 A 
ATOM     78  F   UNL     1       5.646 -10.323   7.819  1.00  0.00    -0.206 F 
ATOM     79  C   UNL     1       7.393 -13.033   6.181  1.00  0.00     0.022 A 
BRANCH  76  80
ATOM     80  S   UNL     1       6.781 -15.693   5.614  1.00  0.00     0.124 S 
ATOM     81  O   UNL     1       6.524 -16.490   6.808  1.00  0.00    -0.237 OA
ATOM     82  O   UNL     1       5.830 -15.852   4.519  1.00  0.00    -0.237 OA
ATOM     83  O   UNL     1       8.182 -15.603   5.211  1.00  0.00    -0.744 OA
ENDBRANCH  76  80
ENDBRANCH  49  73
BRANCH  61  84
ATOM     84  C   UNL     1       1.531 -15.309  12.760  1.00  0.00     0.023 A 
ATOM     85  C   UNL     1       2.665 -15.300  13.591  1.00  0.00     0.031 A 
ATOM     86  C   UNL     1       0.731 -16.466  12.748  1.00  0.00     0.131 A 
ATOM     87  C   UNL     1       3.014 -16.453  14.310  1.00  0.00     0.055 A 
ATOM     88  C   UNL     1       1.043 -17.584  13.523  1.00  0.00     0.041 A 
ATOM     89  F   UNL     1      -0.364 -16.533  11.974  1.00  0.00    -0.206 F 
ATOM     90  C   UNL     1       2.201 -17.589  14.295  1.00  0.00     0.022 A 
BRANCH  87  91
ATOM     91  S   UNL     1       4.618 -16.495  15.156  1.00  0.00     0.124 S 
ATOM     92  O   UNL     1       5.542 -16.174  14.073  1.00  0.00    -0.237 OA
ATOM     93  O   UNL     1       4.456 -15.469  16.181  1.00  0.00    -0.237 OA
ATOM     94  O   UNL     1       4.704 -17.865  15.659  1.00  0.00    -0.744 OA
ENDBRANCH  87  91
ENDBRANCH  61  84
ENDBRANCH  35  36
ENDBRANCH  28  30
ENDBRANCH  27  28
ENDBRANCH  26  27
ENDBRANCH  25  26
ENDBRANCH  24  25
ENDBRANCH   1  24
TORSDOF 24
