REMARK SMILES CCOC[C@@H](O)C[C@]1(C(=O)OCCOCCOC(=O)c2ccc(-c3c4nc(c(-c5cc(S(=O)(=O)[O-])ccc5F)c5ccc([nH]5)c(-c5cc(S(=O)(=O)[O-])ccc5F)c5nc(c(-c6cc(S(=O)(=O)[O-])ccc6F)c6ccc3[nH]6)C=C5)C=C4)cc2)CCc2ccccc21
REMARK SMILES IDX 13 1 12 2 11 3 9 4 10 5 8 6 83 7 90 8 84 9 85 10 89 11 86 12
REMARK SMILES IDX 88 13 87 14 7 15 5 16 4 17 3 18 2 19 1 20 6 21 14 23 15 24
REMARK SMILES IDX 16 25 17 26 18 27 19 28 20 29 21 30 82 31 22 32 81 33 23 34
REMARK SMILES IDX 24 35 25 36 75 37 26 38 80 39 74 40 76 41 27 42 79 43 73 44
REMARK SMILES IDX 72 45 28 47 60 48 40 49 59 50 41 51 44 52 58 53 77 54 42 55
REMARK SMILES IDX 43 56 57 58 78 59 45 60 29 61 30 62 38 63 31 64 37 65 39 66
REMARK SMILES IDX 36 67 32 68 33 69 34 70 35 71 61 72 62 73 70 74 63 75 69 76
REMARK SMILES IDX 71 77 68 78 64 79 65 80 66 81 67 82 46 83 47 84 55 85 48 86
REMARK SMILES IDX 54 87 56 88 53 89 49 90 50 91 51 92 52 93
REMARK H PARENT 6 22 76 46 44 57
REMARK Flexibility Score: inf
ROOT
ATOM      1  C   UNL     1       3.381   0.504   7.702  1.00  0.00     0.202 C 
ENDROOT
BRANCH   1   2
ATOM      2  C   UNL     1       4.791   0.188   7.196  1.00  0.00     0.261 C 
BRANCH   2   3
ATOM      3  O   UNL     1       5.038   0.798   5.913  1.00  0.00    -0.463 OA
BRANCH   3   4
ATOM      4  C   UNL     1       5.240  -0.052   4.870  1.00  0.00     0.316 C 
ATOM      5  O   UNL     1       5.250  -1.275   4.966  1.00  0.00    -0.251 OA
BRANCH   4   6
ATOM      6  C   UNL     1       5.452   0.684   3.535  1.00  0.00     0.096 C 
ATOM      7  C   UNL     1       4.945   2.152   3.484  1.00  0.00     0.028 C 
ATOM      8  C   UNL     1       6.943   0.914   3.349  1.00  0.00    -0.027 A 
ATOM      9  C   UNL     1       6.093   3.080   3.899  1.00  0.00     0.037 C 
ATOM     10  C   UNL     1       7.281   2.261   3.521  1.00  0.00    -0.044 A 
ATOM     11  C   UNL     1       7.930  -0.035   3.117  1.00  0.00     0.005 A 
ATOM     12  C   UNL     1       8.594   2.691   3.422  1.00  0.00     0.004 A 
ATOM     13  C   UNL     1       9.256   0.387   3.026  1.00  0.00     0.000 A 
ATOM     14  C   UNL     1       9.585   1.743   3.165  1.00  0.00     0.000 A 
BRANCH   6  15
ATOM     15  C   UNL     1       4.862  -0.174   2.375  1.00  0.00     0.057 C 
BRANCH  15  16
ATOM     16  C   UNL     1       3.340  -0.434   2.353  1.00  0.00     0.141 C 
BRANCH  16  17
ATOM     17  C   UNL     1       2.498   0.745   1.830  1.00  0.00     0.191 C 
BRANCH  17  18
ATOM     18  O   UNL     1       1.087   0.586   2.011  1.00  0.00    -0.379 OA
BRANCH  18  19
ATOM     19  C   UNL     1       0.412  -0.327   1.152  1.00  0.00     0.157 C 
ATOM     20  C   UNL     1       0.653  -0.105  -0.332  1.00  0.00     0.035 C 
ENDBRANCH  18  19
ENDBRANCH  17  18
ENDBRANCH  16  17
BRANCH  16  21
ATOM     21  O   UNL     1       3.144  -1.549   1.465  1.00  0.00    -0.391 OA
ATOM     22  H   UNL     1       3.461  -1.315   0.578  1.00  0.00     0.211 HD
ENDBRANCH  16  21
ENDBRANCH  15  16
ENDBRANCH   6  15
ENDBRANCH   4   6
ENDBRANCH   3   4
ENDBRANCH   2   3
ENDBRANCH   1   2
BRANCH   1  23
ATOM     23  O   UNL     1       2.302  -0.154   7.031  1.00  0.00    -0.374 OA
BRANCH  23  24
ATOM     24  C   UNL     1       1.971   0.300   5.722  1.00  0.00     0.202 C 
BRANCH  24  25
ATOM     25  C   UNL     1       1.092   1.547   5.601  1.00  0.00     0.261 C 
BRANCH  25  26
ATOM     26  O   UNL     1       1.655   2.672   6.288  1.00  0.00    -0.460 OA
BRANCH  26  27
ATOM     27  C   UNL     1       1.047   2.933   7.469  1.00  0.00     0.338 C 
ATOM     28  O   UNL     1       0.041   2.390   7.910  1.00  0.00    -0.246 OA
BRANCH  27  29
ATOM     29  C   UNL     1       1.863   3.851   8.280  1.00  0.00     0.060 A 
ATOM     30  C   UNL     1       2.032   3.508   9.626  1.00  0.00     0.016 A 
ATOM     31  C   UNL     1       2.386   5.045   7.775  1.00  0.00     0.016 A 
ATOM     32  C   UNL     1       2.635   4.403  10.498  1.00  0.00     0.010 A 
ATOM     33  C   UNL     1       2.994   5.948   8.656  1.00  0.00     0.010 A 
ATOM     34  C   UNL     1       3.063   5.652  10.030  1.00  0.00    -0.014 A 
BRANCH  34  35
ATOM     35  C   UNL     1       3.358   6.699  11.037  1.00  0.00     0.031 A 
ATOM     36  C   UNL     1       2.273   7.686  11.381  1.00  0.00     0.074 A 
ATOM     37  C   UNL     1       4.516   6.685  11.720  1.00  0.00     0.049 A 
ATOM     38  N   UNL     1       2.252   8.612  12.303  1.00  0.00    -0.248 NA
ATOM     39  C   UNL     1       1.043   7.612  10.576  1.00  0.00     0.031 C 
ATOM     40  C   UNL     1       5.612   5.742  11.498  1.00  0.00     0.029 A 
ATOM     41  N   UNL     1       4.952   7.472  12.754  1.00  0.00    -0.354 N 
ATOM     42  C   UNL     1       1.007   9.224  12.197  1.00  0.00     0.074 A 
ATOM     43  C   UNL     1       0.324   8.600  11.085  1.00  0.00     0.031 C 
ATOM     44  C   UNL     1       6.592   5.999  12.382  1.00  0.00     0.029 A 
ATOM     45  C   UNL     1       6.203   7.136  13.213  1.00  0.00     0.049 A 
ATOM     46  H   UNL     1       4.419   8.208  13.132  1.00  0.00     0.167 HD
ATOM     47  C   UNL     1       0.475  10.204  12.967  1.00  0.00     0.034 A 
ATOM     48  C   UNL     1       6.947   7.689  14.192  1.00  0.00     0.034 A 
ATOM     49  C   UNL     1       1.177  10.823  14.065  1.00  0.00     0.049 A 
ATOM     50  C   UNL     1       6.362   8.830  14.989  1.00  0.00     0.074 A 
ATOM     51  C   UNL     1       0.742  11.825  14.915  1.00  0.00     0.029 A 
ATOM     52  N   UNL     1       2.472  10.504  14.458  1.00  0.00    -0.354 N 
ATOM     53  N   UNL     1       5.178   9.391  14.886  1.00  0.00    -0.248 NA
ATOM     54  C   UNL     1       7.210   9.399  16.043  1.00  0.00     0.031 C 
ATOM     55  C   UNL     1       1.796  12.158  15.774  1.00  0.00     0.029 A 
ATOM     56  C   UNL     1       2.863  11.313  15.514  1.00  0.00     0.049 A 
ATOM     57  H   UNL     1       3.030   9.806  14.046  1.00  0.00     0.167 HD
ATOM     58  C   UNL     1       5.132  10.365  15.881  1.00  0.00     0.074 A 
ATOM     59  C   UNL     1       6.396  10.293  16.586  1.00  0.00     0.031 C 
ATOM     60  C   UNL     1       4.139  11.241  16.187  1.00  0.00     0.034 A 
BRANCH  47  61
ATOM     61  C   UNL     1      -0.907  10.695  12.604  1.00  0.00     0.023 A 
ATOM     62  C   UNL     1      -2.036   9.858  12.677  1.00  0.00     0.031 A 
ATOM     63  C   UNL     1      -1.091  12.006  12.132  1.00  0.00     0.131 A 
ATOM     64  C   UNL     1      -3.280  10.317  12.216  1.00  0.00     0.055 A 
ATOM     65  C   UNL     1      -2.347  12.483  11.749  1.00  0.00     0.041 A 
ATOM     66  F   UNL     1      -0.048  12.843  12.016  1.00  0.00    -0.206 F 
ATOM     67  C   UNL     1      -3.448  11.632  11.775  1.00  0.00     0.022 A 
BRANCH  64  68
ATOM     68  S   UNL     1      -4.643   9.130  12.061  1.00  0.00     0.124 S 
ATOM     69  O   UNL     1      -4.076   8.149  11.139  1.00  0.00    -0.237 OA
ATOM     70  O   UNL     1      -4.830   8.683  13.436  1.00  0.00    -0.237 OA
ATOM     71  O   UNL     1      -5.735   9.931  11.511  1.00  0.00    -0.744 OA
ENDBRANCH  64  68
ENDBRANCH  47  61
BRANCH  48  72
ATOM     72  C   UNL     1       8.330   7.199  14.460  1.00  0.00     0.023 A 
ATOM     73  C   UNL     1       8.680   6.627  15.693  1.00  0.00     0.031 A 
ATOM     74  C   UNL     1       9.342   7.352  13.494  1.00  0.00     0.131 A 
ATOM     75  C   UNL     1      10.014   6.270  15.945  1.00  0.00     0.055 A 
ATOM     76  C   UNL     1      10.657   6.949  13.731  1.00  0.00     0.041 A 
ATOM     77  F   UNL     1       9.063   7.894  12.298  1.00  0.00    -0.206 F 
ATOM     78  C   UNL     1      11.002   6.416  14.969  1.00  0.00     0.022 A 
BRANCH  75  79
ATOM     79  S   UNL     1      10.461   5.688  17.605  1.00  0.00     0.124 S 
ATOM     80  O   UNL     1      10.041   6.810  18.437  1.00  0.00    -0.237 OA
ATOM     81  O   UNL     1       9.668   4.469  17.721  1.00  0.00    -0.237 OA
ATOM     82  O   UNL     1      11.905   5.483  17.516  1.00  0.00    -0.744 OA
ENDBRANCH  75  79
ENDBRANCH  48  72
BRANCH  60  83
ATOM     83  C   UNL     1       4.388  12.167  17.353  1.00  0.00     0.023 A 
ATOM     84  C   UNL     1       5.394  13.148  17.312  1.00  0.00     0.031 A 
ATOM     85  C   UNL     1       3.631  12.046  18.532  1.00  0.00     0.131 A 
ATOM     86  C   UNL     1       5.666  13.919  18.452  1.00  0.00     0.055 A 
ATOM     87  C   UNL     1       3.860  12.863  19.640  1.00  0.00     0.041 A 
ATOM     88  F   UNL     1       2.657  11.127  18.628  1.00  0.00    -0.206 F 
ATOM     89  C   UNL     1       4.895  13.794  19.610  1.00  0.00     0.022 A 
BRANCH  86  90
ATOM     90  S   UNL     1       7.119  15.005  18.439  1.00  0.00     0.124 S 
ATOM     91  O   UNL     1       8.195  14.068  18.130  1.00  0.00    -0.237 OA
ATOM     92  O   UNL     1       6.785  15.961  17.389  1.00  0.00    -0.237 OA
ATOM     93  O   UNL     1       7.147  15.556  19.793  1.00  0.00    -0.744 OA
ENDBRANCH  86  90
ENDBRANCH  60  83
ENDBRANCH  34  35
ENDBRANCH  27  29
ENDBRANCH  26  27
ENDBRANCH  25  26
ENDBRANCH  24  25
ENDBRANCH  23  24
ENDBRANCH   1  23
TORSDOF 23
