REMARK SMILES COc1ccc2c(CC(=O)OCCOCCOC(=O)c3ccc(-c4c5nc(c(-c6cc(S(=O)(=O)[O-])ccc6F)c6ccc([nH]6)c(-c6cc(S(=O)(=O)[O-])ccc6F)c6nc(c(-c7cc(S(=O)(=O)[O-])ccc7F)c7ccc4[nH]7)C=C6)C=C5)cc3)c(C(=O)c3cc(C)ccn3)[nH]c2c1
REMARK SMILES IDX 14 1 13 2 12 3 11 4 9 5 10 6 8 7 7 8 3 9 4 10 95 11 5 12
REMARK SMILES IDX 94 13 6 14 93 15 83 16 2 18 1 19 84 20 85 21 86 22 87 23
REMARK SMILES IDX 92 24 88 25 91 26 89 27 90 28 15 29 16 30 17 31 18 32 19 33
REMARK SMILES IDX 20 34 21 35 82 36 22 37 81 38 23 39 24 40 25 41 75 42 26 43
REMARK SMILES IDX 80 44 74 45 76 46 27 47 79 48 73 49 72 50 28 52 60 53 40 54
REMARK SMILES IDX 59 55 41 56 44 57 58 58 77 59 42 60 43 61 57 63 78 64 45 65
REMARK SMILES IDX 29 66 30 67 38 68 31 69 37 70 39 71 36 72 32 73 33 74 34 75
REMARK SMILES IDX 35 76 61 77 62 78 70 79 63 80 69 81 71 82 68 83 64 84 65 85
REMARK SMILES IDX 66 86 67 87 46 88 47 89 55 90 48 91 54 92 56 93 53 94 49 95
REMARK SMILES IDX 50 96 51 97 52 98
REMARK H PARENT 93 17 76 51 44 62
REMARK Flexibility Score: inf
ROOT
ATOM      1  O   UNL     1       3.265   7.377   8.227  1.00  0.00    -0.374 OA
ENDROOT
BRANCH   1   2
ATOM      2  C   UNL     1       3.942   7.608   6.994  1.00  0.00     0.202 C 
BRANCH   2   3
ATOM      3  C   UNL     1       4.527   6.398   6.248  1.00  0.00     0.261 C 
BRANCH   3   4
ATOM      4  O   UNL     1       3.616   5.289   6.080  1.00  0.00    -0.463 OA
BRANCH   4   5
ATOM      5  C   UNL     1       4.056   4.096   6.566  1.00  0.00     0.310 C 
ATOM      6  O   UNL     1       5.176   3.922   7.048  1.00  0.00    -0.252 OA
BRANCH   5   7
ATOM      7  C   UNL     1       3.050   2.963   6.564  1.00  0.00     0.161 C 
BRANCH   7   8
ATOM      8  C   UNL     1       1.800   3.077   5.731  1.00  0.00     0.000 A 
ATOM      9  C   UNL     1       0.863   1.890   1.795  1.00  0.00     0.120 A 
ATOM     10  C   UNL     1       2.210   1.805   2.137  1.00  0.00     0.047 A 
ATOM     11  C   UNL     1      -0.060   2.461   2.679  1.00  0.00     0.073 A 
ATOM     12  C   UNL     1       2.653   2.223   3.401  1.00  0.00     0.014 A 
ATOM     13  C   UNL     1       0.395   2.836   3.950  1.00  0.00     0.050 A 
ATOM     14  C   UNL     1       1.722   2.711   4.343  1.00  0.00     0.004 A 
ATOM     15  N   UNL     1      -0.291   3.356   5.021  1.00  0.00    -0.351 N 
ATOM     16  C   UNL     1       0.487   3.326   6.163  1.00  0.00     0.093 A 
ATOM     17  H   UNL     1      -1.211   3.703   4.981  1.00  0.00     0.167 HD
BRANCH   9  18
ATOM     18  O   UNL     1       0.348   1.478   0.593  1.00  0.00    -0.497 OA
ATOM     19  C   UNL     1       0.901   0.259   0.101  1.00  0.00     0.278 C 
ENDBRANCH   9  18
BRANCH  16  20
ATOM     20  C   UNL     1      -0.023   3.509   7.525  1.00  0.00     0.227 C 
ATOM     21  O   UNL     1       0.644   3.269   8.530  1.00  0.00    -0.285 OA
BRANCH  20  22
ATOM     22  C   UNL     1      -1.405   4.043   7.737  1.00  0.00     0.113 A 
ATOM     23  C   UNL     1      -2.534   3.272   7.505  1.00  0.00     0.036 A 
ATOM     24  N   UNL     1      -1.461   5.328   8.171  1.00  0.00    -0.253 NA
ATOM     25  C   UNL     1      -3.787   3.868   7.699  1.00  0.00    -0.047 A 
ATOM     26  C   UNL     1      -2.672   5.892   8.318  1.00  0.00     0.112 A 
ATOM     27  C   UNL     1      -5.063   3.105   7.511  1.00  0.00     0.044 C 
ATOM     28  C   UNL     1      -3.851   5.210   8.094  1.00  0.00     0.023 A 
ENDBRANCH  20  22
ENDBRANCH  16  20
ENDBRANCH   7   8
ENDBRANCH   5   7
ENDBRANCH   4   5
ENDBRANCH   3   4
ENDBRANCH   2   3
ENDBRANCH   1   2
BRANCH   1  29
ATOM     29  C   UNL     1       2.111   6.546   8.191  1.00  0.00     0.202 C 
BRANCH  29  30
ATOM     30  C   UNL     1       0.934   6.984   7.317  1.00  0.00     0.261 C 
BRANCH  30  31
ATOM     31  O   UNL     1       1.261   7.457   6.014  1.00  0.00    -0.460 OA
BRANCH  31  32
ATOM     32  C   UNL     1       0.742   8.663   5.709  1.00  0.00     0.338 C 
ATOM     33  O   UNL     1       0.045   9.391   6.405  1.00  0.00    -0.246 OA
BRANCH  32  34
ATOM     34  C   UNL     1       1.206   9.021   4.373  1.00  0.00     0.060 A 
ATOM     35  C   UNL     1       2.189  10.005   4.250  1.00  0.00     0.016 A 
ATOM     36  C   UNL     1       0.619   8.425   3.255  1.00  0.00     0.016 A 
ATOM     37  C   UNL     1       2.563  10.436   2.982  1.00  0.00     0.010 A 
ATOM     38  C   UNL     1       0.997   8.856   1.987  1.00  0.00     0.010 A 
ATOM     39  C   UNL     1       1.944   9.886   1.850  1.00  0.00    -0.014 A 
BRANCH  39  40
ATOM     40  C   UNL     1       2.180  10.486   0.521  1.00  0.00     0.031 A 
ATOM     41  C   UNL     1       1.138  11.406  -0.046  1.00  0.00     0.074 A 
ATOM     42  C   UNL     1       3.307  10.204  -0.153  1.00  0.00     0.049 A 
ATOM     43  N   UNL     1       1.085  11.979  -1.218  1.00  0.00    -0.248 NA
ATOM     44  C   UNL     1      -0.006  11.714   0.829  1.00  0.00     0.031 C 
ATOM     45  C   UNL     1       4.390   9.353   0.339  1.00  0.00     0.029 A 
ATOM     46  N   UNL     1       3.723  10.593  -1.399  1.00  0.00    -0.354 N 
ATOM     47  C   UNL     1      -0.099  12.709  -1.228  1.00  0.00     0.074 A 
ATOM     48  C   UNL     1      -0.752  12.473   0.042  1.00  0.00     0.031 C 
ATOM     49  C   UNL     1       5.345   9.276  -0.602  1.00  0.00     0.029 A 
ATOM     50  C   UNL     1       4.918  10.030  -1.778  1.00  0.00     0.049 A 
ATOM     51  H   UNL     1       3.214  11.215  -1.968  1.00  0.00     0.167 HD
ATOM     52  C   UNL     1      -0.587  13.505  -2.210  1.00  0.00     0.034 A 
ATOM     53  C   UNL     1       5.571  10.094  -2.955  1.00  0.00     0.034 A 
ATOM     54  C   UNL     1       0.085  13.704  -3.471  1.00  0.00     0.049 A 
ATOM     55  C   UNL     1       4.968  10.920  -4.065  1.00  0.00     0.074 A 
ATOM     56  C   UNL     1      -0.300  14.490  -4.542  1.00  0.00     0.029 A 
ATOM     57  N   UNL     1       1.282  13.095  -3.835  1.00  0.00    -0.354 N 
ATOM     58  N   UNL     1       3.849  11.611  -4.066  1.00  0.00    -0.248 NA
ATOM     59  C   UNL     1       5.714  10.982  -5.327  1.00  0.00     0.031 C 
ATOM     60  C   UNL     1       0.621  14.299  -5.577  1.00  0.00     0.029 A 
ATOM     61  C   UNL     1       1.630  13.462  -5.125  1.00  0.00     0.049 A 
ATOM     62  H   UNL     1       1.805  12.491  -3.260  1.00  0.00     0.167 HD
ATOM     63  C   UNL     1       3.778  12.219  -5.317  1.00  0.00     0.074 A 
ATOM     64  C   UNL     1       4.969  11.815  -6.039  1.00  0.00     0.031 C 
ATOM     65  C   UNL     1       2.824  13.042  -5.822  1.00  0.00     0.034 A 
BRANCH  52  66
ATOM     66  C   UNL     1      -1.927  14.161  -1.975  1.00  0.00     0.023 A 
ATOM     67  C   UNL     1      -2.128  15.091  -0.939  1.00  0.00     0.031 A 
ATOM     68  C   UNL     1      -3.031  13.823  -2.776  1.00  0.00     0.131 A 
ATOM     69  C   UNL     1      -3.414  15.594  -0.688  1.00  0.00     0.055 A 
ATOM     70  C   UNL     1      -4.292  14.389  -2.573  1.00  0.00     0.041 A 
ATOM     71  F   UNL     1      -2.910  12.921  -3.763  1.00  0.00    -0.206 F 
ATOM     72  C   UNL     1      -4.492  15.269  -1.514  1.00  0.00     0.022 A 
BRANCH  69  73
ATOM     73  S   UNL     1      -3.690  16.562   0.822  1.00  0.00     0.124 S 
ATOM     74  O   UNL     1      -3.284  15.616   1.858  1.00  0.00    -0.237 OA
ATOM     75  O   UNL     1      -2.813  17.710   0.625  1.00  0.00    -0.237 OA
ATOM     76  O   UNL     1      -5.121  16.856   0.784  1.00  0.00    -0.744 OA
ENDBRANCH  69  73
ENDBRANCH  52  66
BRANCH  53  77
ATOM     77  C   UNL     1       6.836   9.334  -3.158  1.00  0.00     0.023 A 
ATOM     78  C   UNL     1       8.047   9.994  -3.416  1.00  0.00     0.031 A 
ATOM     79  C   UNL     1       6.846   7.927  -3.130  1.00  0.00     0.131 A 
ATOM     80  C   UNL     1       9.208   9.249  -3.679  1.00  0.00     0.055 A 
ATOM     81  C   UNL     1       8.015   7.192  -3.337  1.00  0.00     0.041 A 
ATOM     82  F   UNL     1       5.716   7.244  -2.887  1.00  0.00    -0.206 F 
ATOM     83  C   UNL     1       9.203   7.853  -3.626  1.00  0.00     0.022 A 
BRANCH  80  84
ATOM     84  S   UNL     1      10.711  10.133  -4.180  1.00  0.00     0.124 S 
ATOM     85  O   UNL     1      10.250  10.857  -5.359  1.00  0.00    -0.237 OA
ATOM     86  O   UNL     1      10.994  10.941  -2.998  1.00  0.00    -0.237 OA
ATOM     87  O   UNL     1      11.666   9.058  -4.441  1.00  0.00    -0.744 OA
ENDBRANCH  80  84
ENDBRANCH  53  77
BRANCH  65  88
ATOM     88  C   UNL     1       3.064  13.606  -7.200  1.00  0.00     0.023 A 
ATOM     89  C   UNL     1       3.040  12.798  -8.349  1.00  0.00     0.031 A 
ATOM     90  C   UNL     1       3.304  14.983  -7.360  1.00  0.00     0.131 A 
ATOM     91  C   UNL     1       3.298  13.367  -9.605  1.00  0.00     0.055 A 
ATOM     92  C   UNL     1       3.501  15.553  -8.618  1.00  0.00     0.041 A 
ATOM     93  F   UNL     1       3.339  15.799  -6.294  1.00  0.00    -0.206 F 
ATOM     94  C   UNL     1       3.509  14.742  -9.749  1.00  0.00     0.022 A 
BRANCH  91  95
ATOM     95  S   UNL     1       3.430  12.275 -11.047  1.00  0.00     0.124 S 
ATOM     96  O   UNL     1       4.537  11.404 -10.666  1.00  0.00    -0.237 OA
ATOM     97  O   UNL     1       2.112  11.649 -11.087  1.00  0.00    -0.237 OA
ATOM     98  O   UNL     1       3.713  13.193 -12.149  1.00  0.00    -0.744 OA
ENDBRANCH  91  95
ENDBRANCH  65  88
ENDBRANCH  39  40
ENDBRANCH  32  34
ENDBRANCH  31  32
ENDBRANCH  30  31
ENDBRANCH  29  30
ENDBRANCH   1  29
TORSDOF 21
