REMARK SMILES Cc1c(CC(=O)OCCOCCOC(=O)c2ccc(-c3c4nc(c(-c5cc(S(=O)(=O)[O-])ccc5F)c5ccc([nH]5)c(-c5cc(S(=O)(=O)[O-])ccc5F)c5nc(c(-c6cc(S(=O)(=O)[O-])ccc6F)c6ccc3[nH]6)C=C5)C=C4)cc2)cc(-c2ccc(S(C)(=O)=O)cc2)n1-c1cccc(F)c1
REMARK SMILES IDX 10 1 9 2 8 3 7 4 5 5 6 6 4 7 3 8 1 9 2 10 91 11 79 12 80 13
REMARK SMILES IDX 92 14 93 15 98 16 94 17 96 18 95 19 97 20 81 21 82 22 90 23
REMARK SMILES IDX 83 24 89 25 84 26 85 27 86 28 87 29 88 30 11 31 12 32 13 33
REMARK SMILES IDX 14 34 15 35 16 36 17 37 78 38 18 39 77 40 19 41 20 42 21 43
REMARK SMILES IDX 71 44 22 45 76 46 70 47 72 48 23 49 75 50 69 51 68 52 24 54
REMARK SMILES IDX 56 55 36 56 55 57 37 58 40 59 54 60 73 61 38 62 39 63 53 65
REMARK SMILES IDX 74 66 41 67 25 68 26 69 34 70 27 71 33 72 35 73 32 74 28 75
REMARK SMILES IDX 29 76 30 77 31 78 57 79 58 80 66 81 59 82 65 83 67 84 64 85
REMARK SMILES IDX 60 86 61 87 62 88 63 89 42 90 43 91 51 92 44 93 50 94 52 95
REMARK SMILES IDX 49 96 45 97 46 98 47 99 48 100
REMARK H PARENT 72 53 40 64
REMARK Flexibility Score: inf
ROOT
ATOM      1  O   UNL     1       4.962   0.297  -0.862  1.00  0.00    -0.374 OA
ENDROOT
BRANCH   1   2
ATOM      2  C   UNL     1       5.664  -0.935  -0.985  1.00  0.00     0.202 C 
BRANCH   2   3
ATOM      3  C   UNL     1       5.108  -2.125  -0.172  1.00  0.00     0.261 C 
BRANCH   3   4
ATOM      4  O   UNL     1       3.689  -2.341  -0.318  1.00  0.00    -0.463 OA
BRANCH   4   5
ATOM      5  C   UNL     1       3.006  -2.620   0.826  1.00  0.00     0.310 C 
ATOM      6  O   UNL     1       3.526  -2.721   1.937  1.00  0.00    -0.252 OA
BRANCH   5   7
ATOM      7  C   UNL     1       1.539  -2.936   0.632  1.00  0.00     0.160 C 
BRANCH   7   8
ATOM      8  C   UNL     1       0.829  -2.350  -0.553  1.00  0.00    -0.015 A 
ATOM      9  C   UNL     1       0.149  -0.022   0.369  1.00  0.00     0.065 C 
ATOM     10  C   UNL     1       0.248  -1.090  -0.671  1.00  0.00     0.024 A 
ATOM     11  N   UNL     1      -0.387  -1.014  -1.909  1.00  0.00    -0.313 N 
ATOM     12  C   UNL     1       0.458  -3.071  -1.718  1.00  0.00     0.033 A 
ATOM     13  C   UNL     1      -0.347  -2.269  -2.506  1.00  0.00     0.053 A 
BRANCH  11  14
ATOM     14  C   UNL     1      -0.990   0.142  -2.468  1.00  0.00     0.049 A 
ATOM     15  C   UNL     1      -2.345   0.135  -2.822  1.00  0.00     0.027 A 
ATOM     16  C   UNL     1      -0.190   1.254  -2.741  1.00  0.00     0.065 A 
ATOM     17  C   UNL     1      -2.899   1.250  -3.456  1.00  0.00     0.005 A 
ATOM     18  C   UNL     1      -0.750   2.338  -3.406  1.00  0.00     0.125 A 
ATOM     19  C   UNL     1      -2.094   2.348  -3.763  1.00  0.00     0.039 A 
ATOM     20  F   UNL     1       0.023   3.385  -3.720  1.00  0.00    -0.207 F 
ENDBRANCH  11  14
BRANCH  13  21
ATOM     21  C   UNL     1      -1.002  -2.629  -3.765  1.00  0.00    -0.001 A 
ATOM     22  C   UNL     1      -0.565  -2.108  -4.990  1.00  0.00     0.011 A 
ATOM     23  C   UNL     1      -2.079  -3.526  -3.743  1.00  0.00     0.011 A 
ATOM     24  C   UNL     1      -1.200  -2.473  -6.182  1.00  0.00     0.021 A 
ATOM     25  C   UNL     1      -2.724  -3.887  -4.927  1.00  0.00     0.021 A 
ATOM     26  C   UNL     1      -2.283  -3.357  -6.141  1.00  0.00     0.067 A 
BRANCH  26  27
ATOM     27  S   UNL     1      -3.058  -3.856  -7.662  1.00  0.00     0.175 S 
ATOM     28  C   UNL     1      -3.699  -2.353  -8.355  1.00  0.00     0.163 C 
ATOM     29  O   UNL     1      -2.037  -4.383  -8.511  1.00  0.00    -0.224 OA
ATOM     30  O   UNL     1      -4.222  -4.678  -7.292  1.00  0.00    -0.224 OA
ENDBRANCH  26  27
ENDBRANCH  13  21
ENDBRANCH   7   8
ENDBRANCH   5   7
ENDBRANCH   4   5
ENDBRANCH   3   4
ENDBRANCH   2   3
ENDBRANCH   1   2
BRANCH   1  31
ATOM     31  C   UNL     1       3.822   0.399  -1.712  1.00  0.00     0.202 C 
BRANCH  31  32
ATOM     32  C   UNL     1       3.978   0.953  -3.181  1.00  0.00     0.261 C 
BRANCH  32  33
ATOM     33  O   UNL     1       4.729   0.293  -4.282  1.00  0.00    -0.460 OA
BRANCH  33  34
ATOM     34  C   UNL     1       5.790   0.983  -4.899  1.00  0.00     0.338 C 
ATOM     35  O   UNL     1       6.495   1.749  -4.255  1.00  0.00    -0.246 OA
BRANCH  34  36
ATOM     36  C   UNL     1       5.976   0.777  -6.454  1.00  0.00     0.060 A 
ATOM     37  C   UNL     1       7.136   0.732  -7.301  1.00  0.00     0.016 A 
ATOM     38  C   UNL     1       4.867   0.724  -7.219  1.00  0.00     0.016 A 
ATOM     39  C   UNL     1       7.174   0.566  -8.894  1.00  0.00     0.010 A 
ATOM     40  C   UNL     1       4.986   0.574  -8.674  1.00  0.00     0.010 A 
ATOM     41  C   UNL     1       6.041   0.507  -9.739  1.00  0.00    -0.014 A 
BRANCH  41  42
ATOM     42  C   UNL     1       5.756  -0.277 -11.419  1.00  0.00     0.031 A 
ATOM     43  C   UNL     1       5.447  -1.646 -10.895  1.00  0.00     0.074 A 
ATOM     44  C   UNL     1       5.254  -0.195 -12.890  1.00  0.00     0.049 A 
ATOM     45  N   UNL     1       4.791  -1.604  -9.758  1.00  0.00    -0.248 NA
ATOM     46  C   UNL     1       4.953  -2.765 -11.659  1.00  0.00     0.031 C 
ATOM     47  C   UNL     1       4.867   0.991 -13.710  1.00  0.00     0.029 A 
ATOM     48  N   UNL     1       4.810  -1.273 -14.048  1.00  0.00    -0.354 N 
ATOM     49  C   UNL     1       3.525  -1.520 -10.275  1.00  0.00     0.074 A 
ATOM     50  C   UNL     1       3.703  -2.728 -11.152  1.00  0.00     0.031 C 
ATOM     51  C   UNL     1       4.241   0.715 -14.909  1.00  0.00     0.029 A 
ATOM     52  C   UNL     1       4.053  -0.741 -15.289  1.00  0.00     0.049 A 
ATOM     53  H   UNL     1       5.019  -2.231 -13.955  1.00  0.00     0.167 HD
ATOM     54  C   UNL     1       2.692  -0.368 -10.451  1.00  0.00     0.034 A 
ATOM     55  C   UNL     1       3.260  -1.117 -16.536  1.00  0.00     0.034 A 
ATOM     56  C   UNL     1       1.364  -0.766 -10.852  1.00  0.00     0.049 A 
ATOM     57  C   UNL     1       1.960  -0.829 -15.858  1.00  0.00     0.074 A 
ATOM     58  C   UNL     1       0.960  -1.925 -11.474  1.00  0.00     0.029 A 
ATOM     59  N   UNL     1       0.543   0.164 -11.480  1.00  0.00    -0.354 N 
ATOM     60  N   UNL     1       1.330   0.301 -15.863  1.00  0.00    -0.248 NA
ATOM     61  C   UNL     1       1.174  -2.013 -15.372  1.00  0.00     0.031 C 
ATOM     62  C   UNL     1       1.357  -1.390 -12.701  1.00  0.00     0.029 A 
ATOM     63  C   UNL     1       0.713  -0.149 -12.792  1.00  0.00     0.049 A 
ATOM     64  H   UNL     1      -0.016   0.867 -11.079  1.00  0.00     0.167 HD
ATOM     65  C   UNL     1       0.268   0.039 -15.022  1.00  0.00     0.074 A 
ATOM     66  C   UNL     1       0.034  -1.407 -15.033  1.00  0.00     0.031 C 
ATOM     67  C   UNL     1       0.351   0.731 -13.859  1.00  0.00     0.034 A 
BRANCH  54  68
ATOM     68  C   UNL     1       2.855   1.333 -10.246  1.00  0.00     0.023 A 
ATOM     69  C   UNL     1       3.950   2.228 -10.558  1.00  0.00     0.031 A 
ATOM     70  C   UNL     1       1.819   2.005  -9.563  1.00  0.00     0.131 A 
ATOM     71  C   UNL     1       4.083   3.527  -9.973  1.00  0.00     0.055 A 
ATOM     72  C   UNL     1       1.853   3.366  -9.200  1.00  0.00     0.041 A 
ATOM     73  F   UNL     1       0.706   1.346  -9.208  1.00  0.00    -0.206 F 
ATOM     74  C   UNL     1       3.007   4.117  -9.340  1.00  0.00     0.022 A 
BRANCH  71  75
ATOM     75  S   UNL     1       5.721   4.374  -9.788  1.00  0.00     0.124 S 
ATOM     76  O   UNL     1       6.293   3.703  -8.625  1.00  0.00    -0.237 OA
ATOM     77  O   UNL     1       6.389   4.120 -11.059  1.00  0.00    -0.237 OA
ATOM     78  O   UNL     1       5.358   5.771  -9.544  1.00  0.00    -0.744 OA
ENDBRANCH  71  75
ENDBRANCH  54  68
BRANCH  55  79
ATOM     79  C   UNL     1       2.448  -1.954 -17.927  1.00  0.00     0.023 A 
ATOM     80  C   UNL     1       2.846  -2.294 -19.260  1.00  0.00     0.031 A 
ATOM     81  C   UNL     1       0.975  -2.109 -17.958  1.00  0.00     0.131 A 
ATOM     82  C   UNL     1       1.892  -2.943 -20.235  1.00  0.00     0.055 A 
ATOM     83  C   UNL     1       0.143  -2.965 -18.707  1.00  0.00     0.041 A 
ATOM     84  F   UNL     1       0.184  -1.127 -17.498  1.00  0.00    -0.206 F 
ATOM     85  C   UNL     1       0.615  -3.397 -19.895  1.00  0.00     0.022 A 
BRANCH  82  86
ATOM     86  S   UNL     1       2.112  -3.049 -22.077  1.00  0.00     0.124 S 
ATOM     87  O   UNL     1       1.414  -1.855 -22.546  1.00  0.00    -0.237 OA
ATOM     88  O   UNL     1       3.557  -3.065 -22.241  1.00  0.00    -0.237 OA
ATOM     89  O   UNL     1       1.439  -4.307 -22.420  1.00  0.00    -0.744 OA
ENDBRANCH  82  86
ENDBRANCH  55  79
BRANCH  67  90
ATOM     90  C   UNL     1       0.623   2.187 -14.101  1.00  0.00     0.023 A 
ATOM     91  C   UNL     1      -0.216   2.885 -14.989  1.00  0.00     0.031 A 
ATOM     92  C   UNL     1       1.775   2.852 -13.680  1.00  0.00     0.131 A 
ATOM     93  C   UNL     1       0.123   4.164 -15.454  1.00  0.00     0.055 A 
ATOM     94  C   UNL     1       2.134   4.121 -14.154  1.00  0.00     0.041 A 
ATOM     95  F   UNL     1       2.610   2.252 -12.836  1.00  0.00    -0.206 F 
ATOM     96  C   UNL     1       1.308   4.782 -15.058  1.00  0.00     0.022 A 
BRANCH  93  97
ATOM     97  S   UNL     1      -1.054   5.011 -16.534  1.00  0.00     0.124 S 
ATOM     98  O   UNL     1      -1.053   4.185 -17.735  1.00  0.00    -0.237 OA
ATOM     99  O   UNL     1      -2.280   4.963 -15.738  1.00  0.00    -0.237 OA
ATOM    100  O   UNL     1      -0.481   6.346 -16.694  1.00  0.00    -0.744 OA
ENDBRANCH  93  97
ENDBRANCH  67  90
ENDBRANCH  41  42
ENDBRANCH  34  36
ENDBRANCH  33  34
ENDBRANCH  32  33
ENDBRANCH  31  32
ENDBRANCH   1  31
TORSDOF 21
