REMARK SMILES COCC[C@@]1(C(=O)OCCOCCOC(=O)c2ccc(-c3c4nc(c(-c5cc(S(=O)(=O)[O-])ccc5F)c5ccc([nH]5)c(-c5cc(S(=O)(=O)[O-])ccc5F)c5nc(c(-c6cc(S(=O)(=O)[O-])ccc6F)c6ccc3[nH]6)C=C5)C=C4)cc2)CCCN(C(=O)NCc2ccc(OC)cc2)C1
REMARK SMILES IDX 10 1 9 2 8 3 6 4 7 5 5 6 80 7 96 8 81 9 83 10 82 11 4 12
REMARK SMILES IDX 3 13 2 14 1 15 84 16 85 17 86 18 87 20 88 21 89 22 95 23
REMARK SMILES IDX 90 24 94 25 91 26 92 27 93 28 11 29 12 30 13 31 14 32 15 33
REMARK SMILES IDX 16 34 17 35 18 36 79 37 19 38 78 39 20 40 21 41 22 42 72 43
REMARK SMILES IDX 23 44 77 45 71 46 73 47 24 48 76 49 70 50 69 51 25 53 57 54
REMARK SMILES IDX 37 55 56 56 38 57 41 58 55 59 74 60 39 61 40 62 54 64 75 65
REMARK SMILES IDX 42 66 26 67 27 68 35 69 28 70 34 71 36 72 33 73 29 74 30 75
REMARK SMILES IDX 31 76 32 77 58 78 59 79 67 80 60 81 66 82 68 83 65 84 61 85
REMARK SMILES IDX 62 86 63 87 64 88 43 89 44 90 52 91 45 92 51 93 53 94 50 95
REMARK SMILES IDX 46 96 47 97 48 98 49 99
REMARK H PARENT 86 19 73 52 41 63
REMARK Flexibility Score: inf
ROOT
ATOM      1  C   UNL     1      -1.550  -3.914  -0.519  1.00  0.00     0.202 C 
ENDROOT
BRANCH   1   2
ATOM      2  C   UNL     1      -0.141  -3.343  -0.324  1.00  0.00     0.261 C 
BRANCH   2   3
ATOM      3  O   UNL     1       0.077  -2.039  -0.900  1.00  0.00    -0.463 OA
BRANCH   3   4
ATOM      4  C   UNL     1       1.032  -1.968  -1.864  1.00  0.00     0.314 C 
ATOM      5  O   UNL     1       1.542  -2.955  -2.390  1.00  0.00    -0.252 OA
BRANCH   4   6
ATOM      6  C   UNL     1       1.500  -0.544  -2.192  1.00  0.00     0.088 C 
ATOM      7  C   UNL     1       2.859  -0.366  -1.481  1.00  0.00     0.022 C 
ATOM      8  C   UNL     1       0.531   0.563  -1.762  1.00  0.00     0.140 C 
ATOM      9  C   UNL     1       2.684  -0.141   0.022  1.00  0.00     0.023 C 
ATOM     10  N   UNL     1       0.476   0.904  -0.343  1.00  0.00    -0.324 N 
ATOM     11  C   UNL     1       1.772   1.050   0.303  1.00  0.00     0.121 C 
BRANCH   6  12
ATOM     12  C   UNL     1       1.696  -0.470  -3.751  1.00  0.00     0.049 C 
BRANCH  12  13
ATOM     13  C   UNL     1       0.391  -0.331  -4.558  1.00  0.00     0.161 C 
BRANCH  13  14
ATOM     14  O   UNL     1      -0.003   1.041  -4.565  1.00  0.00    -0.385 OA
ATOM     15  C   UNL     1      -1.414   1.225  -4.633  1.00  0.00     0.194 C 
ENDBRANCH  13  14
ENDBRANCH  12  13
ENDBRANCH   6  12
BRANCH  10  16
ATOM     16  C   UNL     1      -0.731   1.407   0.052  1.00  0.00     0.317 C 
ATOM     17  O   UNL     1      -1.661   1.561  -0.753  1.00  0.00    -0.249 OA
ATOM     18  N   UNL     1      -1.042   1.775   1.288  1.00  0.00    -0.334 N 
ATOM     19  H   UNL     1      -1.969   2.107   1.303  1.00  0.00     0.165 HD
BRANCH  18  20
ATOM     20  C   UNL     1      -0.485   1.855   2.619  1.00  0.00     0.153 C 
BRANCH  20  21
ATOM     21  C   UNL     1      -0.431   3.313   2.993  1.00  0.00    -0.028 A 
ATOM     22  C   UNL     1      -1.604   3.978   3.383  1.00  0.00     0.009 A 
ATOM     23  C   UNL     1       0.739   4.056   2.814  1.00  0.00     0.009 A 
ATOM     24  C   UNL     1      -1.604   5.358   3.579  1.00  0.00     0.047 A 
ATOM     25  C   UNL     1       0.740   5.438   3.026  1.00  0.00     0.047 A 
ATOM     26  C   UNL     1      -0.432   6.092   3.410  1.00  0.00     0.118 A 
BRANCH  26  27
ATOM     27  O   UNL     1      -0.562   7.438   3.614  1.00  0.00    -0.497 OA
ATOM     28  C   UNL     1       0.645   8.145   3.865  1.00  0.00     0.278 C 
ENDBRANCH  26  27
ENDBRANCH  20  21
ENDBRANCH  18  20
ENDBRANCH  10  16
ENDBRANCH   4   6
ENDBRANCH   3   4
ENDBRANCH   2   3
ENDBRANCH   1   2
BRANCH   1  29
ATOM     29  O   UNL     1      -1.982  -4.223  -1.841  1.00  0.00    -0.374 OA
BRANCH  29  30
ATOM     30  C   UNL     1      -2.022  -3.164  -2.789  1.00  0.00     0.202 C 
BRANCH  30  31
ATOM     31  C   UNL     1      -3.018  -2.018  -2.562  1.00  0.00     0.261 C 
BRANCH  31  32
ATOM     32  O   UNL     1      -3.008  -1.491  -1.230  1.00  0.00    -0.460 OA
BRANCH  32  33
ATOM     33  C   UNL     1      -4.197  -1.541  -0.590  1.00  0.00     0.338 C 
ATOM     34  O   UNL     1      -5.273  -1.926  -1.051  1.00  0.00    -0.246 OA
BRANCH  33  35
ATOM     35  C   UNL     1      -4.037  -1.183   0.824  1.00  0.00     0.060 A 
ATOM     36  C   UNL     1      -4.109  -2.190   1.793  1.00  0.00     0.016 A 
ATOM     37  C   UNL     1      -3.947   0.154   1.202  1.00  0.00     0.016 A 
ATOM     38  C   UNL     1      -4.109  -1.857   3.150  1.00  0.00     0.010 A 
ATOM     39  C   UNL     1      -3.935   0.483   2.562  1.00  0.00     0.010 A 
ATOM     40  C   UNL     1      -4.047  -0.515   3.548  1.00  0.00    -0.014 A 
BRANCH  40  41
ATOM     41  C   UNL     1      -4.289  -0.138   4.970  1.00  0.00     0.031 A 
ATOM     42  C   UNL     1      -5.582   0.556   5.322  1.00  0.00     0.074 A 
ATOM     43  C   UNL     1      -3.398  -0.423   5.939  1.00  0.00     0.049 A 
ATOM     44  N   UNL     1      -5.983   1.042   6.468  1.00  0.00    -0.248 NA
ATOM     45  C   UNL     1      -6.539   0.745   4.221  1.00  0.00     0.031 C 
ATOM     46  C   UNL     1      -2.123  -1.113   5.742  1.00  0.00     0.029 A 
ATOM     47  N   UNL     1      -3.432  -0.169   7.290  1.00  0.00    -0.354 N 
ATOM     48  C   UNL     1      -7.227   1.616   6.220  1.00  0.00     0.074 A 
ATOM     49  C   UNL     1      -7.483   1.466   4.804  1.00  0.00     0.031 C 
ATOM     50  C   UNL     1      -1.506  -1.240   6.930  1.00  0.00     0.029 A 
ATOM     51  C   UNL     1      -2.318  -0.607   7.968  1.00  0.00     0.049 A 
ATOM     52  H   UNL     1      -4.186   0.286   7.731  1.00  0.00     0.167 HD
ATOM     53  C   UNL     1      -8.091   2.193   7.093  1.00  0.00     0.034 A 
ATOM     54  C   UNL     1      -1.987  -0.500   9.273  1.00  0.00     0.034 A 
ATOM     55  C   UNL     1      -7.843   2.310   8.508  1.00  0.00     0.049 A 
ATOM     56  C   UNL     1      -2.945   0.183  10.223  1.00  0.00     0.074 A 
ATOM     57  C   UNL     1      -8.657   2.858   9.484  1.00  0.00     0.029 A 
ATOM     58  N   UNL     1      -6.695   1.867   9.152  1.00  0.00    -0.354 N 
ATOM     59  N   UNL     1      -4.116   0.723   9.971  1.00  0.00    -0.248 NA
ATOM     60  C   UNL     1      -2.540   0.263  11.634  1.00  0.00     0.031 C 
ATOM     61  C   UNL     1      -7.979   2.799  10.706  1.00  0.00     0.029 A 
ATOM     62  C   UNL     1      -6.772   2.147  10.507  1.00  0.00     0.049 A 
ATOM     63  H   UNL     1      -5.938   1.420   8.710  1.00  0.00     0.167 HD
ATOM     64  C   UNL     1      -4.600   1.170  11.199  1.00  0.00     0.074 A 
ATOM     65  C   UNL     1      -3.600   0.832  12.190  1.00  0.00     0.031 C 
ATOM     66  C   UNL     1      -5.770   1.797  11.485  1.00  0.00     0.034 A 
BRANCH  53  67
ATOM     67  C   UNL     1      -9.364   2.770   6.522  1.00  0.00     0.023 A 
ATOM     68  C   UNL     1     -10.325   1.961   5.890  1.00  0.00     0.031 A 
ATOM     69  C   UNL     1      -9.597   4.156   6.564  1.00  0.00     0.131 A 
ATOM     70  C   UNL     1     -11.424   2.551   5.248  1.00  0.00     0.055 A 
ATOM     71  C   UNL     1     -10.739   4.728   6.000  1.00  0.00     0.041 A 
ATOM     72  F   UNL     1      -8.706   4.981   7.136  1.00  0.00    -0.206 F 
ATOM     73  C   UNL     1     -11.651   3.926   5.321  1.00  0.00     0.022 A 
BRANCH  70  74
ATOM     74  S   UNL     1     -12.461   1.513   4.182  1.00  0.00     0.124 S 
ATOM     75  O   UNL     1     -11.487   1.032   3.204  1.00  0.00    -0.237 OA
ATOM     76  O   UNL     1     -12.975   0.517   5.114  1.00  0.00    -0.237 OA
ATOM     77  O   UNL     1     -13.453   2.447   3.655  1.00  0.00    -0.744 OA
ENDBRANCH  70  74
ENDBRANCH  53  67
BRANCH  54  78
ATOM     78  C   UNL     1      -0.681  -1.024   9.773  1.00  0.00     0.023 A 
ATOM     79  C   UNL     1      -0.626  -2.062  10.718  1.00  0.00     0.031 A 
ATOM     80  C   UNL     1       0.533  -0.446   9.362  1.00  0.00     0.131 A 
ATOM     81  C   UNL     1       0.610  -2.454  11.258  1.00  0.00     0.055 A 
ATOM     82  C   UNL     1       1.764  -0.875   9.863  1.00  0.00     0.041 A 
ATOM     83  F   UNL     1       0.541   0.549   8.460  1.00  0.00    -0.206 F 
ATOM     84  C   UNL     1       1.806  -1.875  10.829  1.00  0.00     0.022 A 
BRANCH  81  85
ATOM     85  S   UNL     1       0.625  -3.673  12.603  1.00  0.00     0.124 S 
ATOM     86  O   UNL     1      -0.201  -3.016  13.608  1.00  0.00    -0.237 OA
ATOM     87  O   UNL     1       0.043  -4.844  11.955  1.00  0.00    -0.237 OA
ATOM     88  O   UNL     1       2.043  -3.790  12.938  1.00  0.00    -0.744 OA
ENDBRANCH  81  85
ENDBRANCH  54  78
BRANCH  66  89
ATOM     89  C   UNL     1      -6.062   2.097  12.935  1.00  0.00     0.023 A 
ATOM     90  C   UNL     1      -5.332   3.053  13.661  1.00  0.00     0.031 A 
ATOM     91  C   UNL     1      -7.104   1.418  13.594  1.00  0.00     0.131 A 
ATOM     92  C   UNL     1      -5.625   3.273  15.016  1.00  0.00     0.055 A 
ATOM     93  C   UNL     1      -7.425   1.679  14.926  1.00  0.00     0.041 A 
ATOM     94  F   UNL     1      -7.834   0.495  12.947  1.00  0.00    -0.206 F 
ATOM     95  C   UNL     1      -6.677   2.604  15.648  1.00  0.00     0.022 A 
BRANCH  92  96
ATOM     96  S   UNL     1      -4.564   4.395  15.968  1.00  0.00     0.124 S 
ATOM     97  O   UNL     1      -3.255   3.767  15.830  1.00  0.00    -0.237 OA
ATOM     98  O   UNL     1      -4.740   5.662  15.266  1.00  0.00    -0.237 OA
ATOM     99  O   UNL     1      -5.135   4.349  17.314  1.00  0.00    -0.744 OA
ENDBRANCH  92  96
ENDBRANCH  66  89
ENDBRANCH  40  41
ENDBRANCH  33  35
ENDBRANCH  32  33
ENDBRANCH  31  32
ENDBRANCH  30  31
ENDBRANCH  29  30
ENDBRANCH   1  29
TORSDOF 24
