REMARK SMILES CC(C)CCOc1ccccc1-c1cc(C(=O)OCCOCCOC(=O)c2ccc(-c3c4nc(c(-c5cc(S(=O)(=O)[O-])ccc5F)c5ccc([nH]5)c(-c5cc(S(=O)(=O)[O-])ccc5F)c5nc(c(-c6cc(S(=O)(=O)[O-])ccc6F)c6ccc3[nH]6)C=C5)C=C4)cc2)no1
REMARK SMILES IDX 20 1 19 2 18 3 16 4 17 5 15 6 13 7 14 8 91 9 90 10 12 11
REMARK SMILES IDX 7 12 8 13 9 14 11 15 10 16 6 17 5 18 4 19 2 20 1 21 3 22
REMARK SMILES IDX 21 23 22 24 23 25 24 26 25 27 26 28 27 29 28 30 89 31 29 32
REMARK SMILES IDX 88 33 30 34 31 35 32 36 82 37 33 38 87 39 81 40 83 41 34 42
REMARK SMILES IDX 86 43 80 44 79 45 35 47 67 48 47 49 66 50 48 51 51 52 65 53
REMARK SMILES IDX 84 54 49 55 50 56 64 58 85 59 52 60 36 61 37 62 45 63 38 64
REMARK SMILES IDX 44 65 46 66 43 67 39 68 40 69 41 70 42 71 68 72 69 73 77 74
REMARK SMILES IDX 70 75 76 76 78 77 75 78 71 79 72 80 73 81 74 82 53 83 54 84
REMARK SMILES IDX 62 85 55 86 61 87 63 88 60 89 56 90 57 91 58 92 59 93
REMARK H PARENT 83 46 51 57
REMARK Flexibility Score: inf
ROOT
ATOM      1  C   UNL     1      -2.995   4.167  -4.854  1.00  0.00     0.202 C 
ENDROOT
BRANCH   1   2
ATOM      2  C   UNL     1      -3.553   3.245  -3.759  1.00  0.00     0.261 C 
BRANCH   2   3
ATOM      3  O   UNL     1      -2.577   2.963  -2.747  1.00  0.00    -0.458 OA
BRANCH   3   4
ATOM      4  C   UNL     1      -1.974   1.740  -2.826  1.00  0.00     0.360 C 
ATOM      5  O   UNL     1      -2.335   0.819  -3.545  1.00  0.00    -0.244 OA
BRANCH   4   6
ATOM      6  C   UNL     1      -0.765   1.716  -2.007  1.00  0.00     0.192 A 
ATOM      7  C   UNL     1       1.063   2.564   0.093  1.00  0.00     0.171 A 
ATOM      8  C   UNL     1      -0.381   2.924  -0.634  1.00  0.00     0.090 A 
ATOM      9  O   UNL     1       1.816   1.116  -0.858  1.00  0.00    -0.355 OA
ATOM     10  N   UNL     1       0.482   0.624  -2.263  1.00  0.00    -0.072 NA
BRANCH   7  11
ATOM     11  C   UNL     1       1.526   2.705   1.464  1.00  0.00     0.062 A 
ATOM     12  C   UNL     1       0.583   2.507   2.493  1.00  0.00     0.130 A 
ATOM     13  C   UNL     1       0.998   2.415   3.816  1.00  0.00     0.047 A 
ATOM     14  C   UNL     1       2.359   2.505   4.114  1.00  0.00     0.004 A 
ATOM     15  C   UNL     1       2.882   2.811   1.767  1.00  0.00     0.016 A 
ATOM     16  C   UNL     1       3.295   2.716   3.096  1.00  0.00     0.001 A 
BRANCH  12  17
ATOM     17  O   UNL     1      -0.765   2.432   2.223  1.00  0.00    -0.493 OA
BRANCH  17  18
ATOM     18  C   UNL     1      -1.220   1.106   1.894  1.00  0.00     0.230 C 
BRANCH  18  19
ATOM     19  C   UNL     1      -1.377   0.890   0.367  1.00  0.00     0.044 C 
BRANCH  19  20
ATOM     20  C   UNL     1       0.146   0.869  -0.426  1.00  0.00    -0.014 C 
ATOM     21  C   UNL     1       0.383  -0.862  -0.530  1.00  0.00     0.007 C 
ATOM     22  C   UNL     1       1.129   2.320  -1.861  1.00  0.00     0.007 C 
ENDBRANCH  19  20
ENDBRANCH  18  19
ENDBRANCH  17  18
ENDBRANCH  12  17
ENDBRANCH   7  11
ENDBRANCH   4   6
ENDBRANCH   3   4
ENDBRANCH   2   3
ENDBRANCH   1   2
BRANCH   1  23
ATOM     23  O   UNL     1      -1.881   3.705  -5.615  1.00  0.00    -0.374 OA
BRANCH  23  24
ATOM     24  C   UNL     1      -0.588   3.760  -5.018  1.00  0.00     0.202 C 
BRANCH  24  25
ATOM     25  C   UNL     1       0.104   5.119  -4.846  1.00  0.00     0.261 C 
BRANCH  25  26
ATOM     26  O   UNL     1      -0.646   6.045  -4.042  1.00  0.00    -0.460 OA
BRANCH  26  27
ATOM     27  C   UNL     1      -1.218   7.045  -4.758  1.00  0.00     0.338 C 
ATOM     28  O   UNL     1      -1.114   7.235  -5.959  1.00  0.00    -0.246 OA
BRANCH  27  29
ATOM     29  C   UNL     1      -2.172   7.803  -3.929  1.00  0.00     0.060 A 
ATOM     30  C   UNL     1      -3.493   7.867  -4.387  1.00  0.00     0.016 A 
ATOM     31  C   UNL     1      -1.772   8.527  -2.805  1.00  0.00     0.016 A 
ATOM     32  C   UNL     1      -4.407   8.706  -3.760  1.00  0.00     0.010 A 
ATOM     33  C   UNL     1      -2.696   9.372  -2.175  1.00  0.00     0.010 A 
ATOM     34  C   UNL     1      -4.006   9.495  -2.672  1.00  0.00    -0.014 A 
BRANCH  34  35
ATOM     35  C   UNL     1      -4.949  10.513  -2.141  1.00  0.00     0.031 A 
ATOM     36  C   UNL     1      -4.729  11.969  -2.459  1.00  0.00     0.074 A 
ATOM     37  C   UNL     1      -6.029  10.127  -1.436  1.00  0.00     0.049 A 
ATOM     38  N   UNL     1      -5.439  13.009  -2.106  1.00  0.00    -0.248 NA
ATOM     39  C   UNL     1      -3.554  12.296  -3.282  1.00  0.00     0.031 C 
ATOM     40  C   UNL     1      -6.361   8.741  -1.103  1.00  0.00     0.029 A 
ATOM     41  N   UNL     1      -7.046  10.858  -0.877  1.00  0.00    -0.354 N 
ATOM     42  C   UNL     1      -4.793  14.115  -2.649  1.00  0.00     0.074 A 
ATOM     43  C   UNL     1      -3.618  13.619  -3.333  1.00  0.00     0.031 C 
ATOM     44  C   UNL     1      -7.504   8.723  -0.398  1.00  0.00     0.029 A 
ATOM     45  C   UNL     1      -7.957  10.095  -0.184  1.00  0.00     0.049 A 
ATOM     46  H   UNL     1      -7.117  11.836  -0.963  1.00  0.00     0.167 HD
ATOM     47  C   UNL     1      -5.152  15.421  -2.582  1.00  0.00     0.034 A 
ATOM     48  C   UNL     1      -9.017  10.461   0.565  1.00  0.00     0.034 A 
ATOM     49  C   UNL     1      -6.333  15.894  -1.897  1.00  0.00     0.049 A 
ATOM     50  C   UNL     1      -9.356  11.929   0.676  1.00  0.00     0.074 A 
ATOM     51  C   UNL     1      -6.813  17.189  -1.810  1.00  0.00     0.029 A 
ATOM     52  N   UNL     1      -7.207  15.099  -1.166  1.00  0.00    -0.354 N 
ATOM     53  N   UNL     1      -8.755  12.960   0.126  1.00  0.00    -0.248 NA
ATOM     54  C   UNL     1     -10.521  12.280   1.497  1.00  0.00     0.031 C 
ATOM     55  C   UNL     1      -7.913  17.192  -0.947  1.00  0.00     0.029 A 
ATOM     56  C   UNL     1      -8.189  15.885  -0.581  1.00  0.00     0.049 A 
ATOM     57  H   UNL     1      -7.139  14.121  -1.077  1.00  0.00     0.167 HD
ATOM     58  C   UNL     1      -9.489  14.078   0.515  1.00  0.00     0.074 A 
ATOM     59  C   UNL     1     -10.590  13.590   1.319  1.00  0.00     0.031 C 
ATOM     60  C   UNL     1      -9.273  15.390   0.235  1.00  0.00     0.034 A 
BRANCH  47  61
ATOM     61  C   UNL     1      -4.233  16.444  -3.207  1.00  0.00     0.023 A 
ATOM     62  C   UNL     1      -3.996  16.499  -4.592  1.00  0.00     0.031 A 
ATOM     63  C   UNL     1      -3.597  17.401  -2.394  1.00  0.00     0.131 A 
ATOM     64  C   UNL     1      -3.113  17.459  -5.113  1.00  0.00     0.055 A 
ATOM     65  C   UNL     1      -2.781  18.400  -2.927  1.00  0.00     0.041 A 
ATOM     66  F   UNL     1      -3.762  17.382  -1.062  1.00  0.00    -0.206 F 
ATOM     67  C   UNL     1      -2.528  18.427  -4.294  1.00  0.00     0.022 A 
BRANCH  64  68
ATOM     68  S   UNL     1      -2.644  17.353  -6.862  1.00  0.00     0.124 S 
ATOM     69  O   UNL     1      -2.074  16.010  -6.934  1.00  0.00    -0.237 OA
ATOM     70  O   UNL     1      -3.918  17.544  -7.543  1.00  0.00    -0.237 OA
ATOM     71  O   UNL     1      -1.679  18.439  -7.025  1.00  0.00    -0.744 OA
ENDBRANCH  64  68
ENDBRANCH  47  61
BRANCH  48  72
ATOM     72  C   UNL     1      -9.801   9.439   1.321  1.00  0.00     0.023 A 
ATOM     73  C   UNL     1     -11.176   9.259   1.102  1.00  0.00     0.031 A 
ATOM     74  C   UNL     1      -9.193   8.676   2.336  1.00  0.00     0.131 A 
ATOM     75  C   UNL     1     -11.906   8.387   1.926  1.00  0.00     0.055 A 
ATOM     76  C   UNL     1      -9.910   7.758   3.103  1.00  0.00     0.041 A 
ATOM     77  F   UNL     1      -7.882   8.811   2.595  1.00  0.00    -0.206 F 
ATOM     78  C   UNL     1     -11.280   7.623   2.912  1.00  0.00     0.022 A 
BRANCH  75  79
ATOM     79  S   UNL     1     -13.714   8.362   1.774  1.00  0.00     0.124 S 
ATOM     80  O   UNL     1     -14.048   9.765   1.988  1.00  0.00    -0.237 OA
ATOM     81  O   UNL     1     -13.896   7.858   0.417  1.00  0.00    -0.237 OA
ATOM     82  O   UNL     1     -14.131   7.450   2.837  1.00  0.00    -0.744 OA
ENDBRANCH  75  79
ENDBRANCH  48  72
BRANCH  60  83
ATOM     83  C   UNL     1     -10.279  16.382   0.775  1.00  0.00     0.023 A 
ATOM     84  C   UNL     1     -10.470  16.566   2.155  1.00  0.00     0.031 A 
ATOM     85  C   UNL     1     -11.078  17.134  -0.106  1.00  0.00     0.131 A 
ATOM     86  C   UNL     1     -11.488  17.416   2.614  1.00  0.00     0.055 A 
ATOM     87  C   UNL     1     -12.032  18.041   0.357  1.00  0.00     0.041 A 
ATOM     88  F   UNL     1     -10.946  16.999  -1.435  1.00  0.00    -0.206 F 
ATOM     89  C   UNL     1     -12.255  18.172   1.725  1.00  0.00     0.022 A 
BRANCH  86  90
ATOM     90  S   UNL     1     -11.885  17.419   4.384  1.00  0.00     0.124 S 
ATOM     91  O   UNL     1     -12.187  16.012   4.627  1.00  0.00    -0.237 OA
ATOM     92  O   UNL     1     -10.650  17.918   4.980  1.00  0.00    -0.237 OA
ATOM     93  O   UNL     1     -13.029  18.324   4.478  1.00  0.00    -0.744 OA
ENDBRANCH  86  90
ENDBRANCH  60  83
ENDBRANCH  34  35
ENDBRANCH  27  29
ENDBRANCH  26  27
ENDBRANCH  25  26
ENDBRANCH  24  25
ENDBRANCH  23  24
ENDBRANCH   1  23
TORSDOF 22
