REMARK SMILES Cc1[nH]c2ccccc2c1/C=C1/SC(=S)N(c2cccc(C(=O)OCCOCCOC(=O)c3ccc(-c4c5nc(c(-c6cc(S(=O)(=O)[O-])ccc6F)c6ccc([nH]6)c(-c6cc(S(=O)(=O)[O-])ccc6F)c6nc(c(-c7cc(S(=O)(=O)[O-])ccc7F)c7ccc4[nH]7)C=C6)C=C5)cc3)c2)C1=O
REMARK SMILES IDX 28 1 27 2 26 3 25 4 24 5 22 6 23 7 21 8 17 9 18 10 96 11
REMARK SMILES IDX 19 12 20 13 16 14 11 15 12 16 13 17 97 18 14 19 98 20 15 21
REMARK SMILES IDX 10 22 1 23 2 24 3 25 4 26 9 28 5 29 8 30 6 31 7 32 29 33
REMARK SMILES IDX 30 34 31 35 32 36 33 37 34 38 95 39 35 40 94 41 36 42 37 43
REMARK SMILES IDX 38 44 88 45 39 46 93 47 87 48 89 49 40 50 92 51 86 52 85 53
REMARK SMILES IDX 41 55 73 56 53 57 72 58 54 59 57 60 71 61 90 62 55 63 56 64
REMARK SMILES IDX 70 66 91 67 58 68 42 69 43 70 51 71 44 72 50 73 52 74 49 75
REMARK SMILES IDX 45 76 46 77 47 78 48 79 74 80 75 81 83 82 76 83 82 84 84 85
REMARK SMILES IDX 81 86 77 87 78 88 79 89 80 90 59 91 60 92 68 93 61 94 67 95
REMARK SMILES IDX 69 96 66 97 62 98 63 99 64 100 65 101
REMARK H PARENT 3 27 89 54 57 65
REMARK Flexibility Score: inf
ROOT
ATOM      1  C   UNL     1      -7.862   0.591  -5.996  1.00  0.00     0.202 C 
ENDROOT
BRANCH   1   2
ATOM      2  O   UNL     1      -9.111   0.168  -6.544  1.00  0.00    -0.374 OA
BRANCH   2   3
ATOM      3  C   UNL     1      -9.824  -0.849  -5.839  1.00  0.00     0.202 C 
BRANCH   3   4
ATOM      4  C   UNL     1      -9.364  -2.294  -6.061  1.00  0.00     0.261 C 
BRANCH   4   5
ATOM      5  O   UNL     1      -8.009  -2.491  -5.621  1.00  0.00    -0.460 OA
BRANCH   5   6
ATOM      6  C   UNL     1      -7.107  -2.687  -6.611  1.00  0.00     0.338 C 
ATOM      7  O   UNL     1      -7.338  -2.841  -7.801  1.00  0.00    -0.246 OA
BRANCH   6   8
ATOM      8  C   UNL     1      -5.737  -2.487  -6.087  1.00  0.00     0.062 A 
ATOM      9  C   UNL     1      -4.028  -2.701  -4.367  1.00  0.00     0.051 A 
ATOM     10  C   UNL     1      -3.156  -1.978  -5.204  1.00  0.00     0.027 A 
ATOM     11  C   UNL     1      -5.340  -2.926  -4.815  1.00  0.00     0.042 A 
ATOM     12  C   UNL     1      -3.557  -1.522  -6.460  1.00  0.00     0.003 A 
ATOM     13  C   UNL     1      -4.843  -1.789  -6.907  1.00  0.00     0.016 A 
BRANCH   9  14
ATOM     14  N   UNL     1      -3.570  -3.166  -3.087  1.00  0.00    -0.261 N 
ATOM     15  C   UNL     1      -1.715  -2.483   0.004  1.00  0.00     0.032 C 
ATOM     16  C   UNL     1      -2.414  -3.005  -1.017  1.00  0.00     0.081 C 
ATOM     17  S   UNL     1      -3.073  -4.591  -0.980  1.00  0.00    -0.054 SA
ATOM     18  C   UNL     1      -2.759  -2.337  -2.307  1.00  0.00     0.270 C 
ATOM     19  C   UNL     1      -3.824  -4.430  -2.569  1.00  0.00     0.152 C 
ATOM     20  O   UNL     1      -2.372  -1.214  -2.608  1.00  0.00    -0.268 OA
ATOM     21  S   UNL     1      -4.572  -5.754  -3.269  1.00  0.00    -0.051 S 
BRANCH  15  22
ATOM     22  C   UNL     1      -1.213  -1.151   0.087  1.00  0.00     0.004 A 
ATOM     23  C   UNL     1      -3.473   0.179   0.207  1.00  0.00     0.065 C 
ATOM     24  C   UNL     1      -2.000  -0.018   0.174  1.00  0.00     0.020 A 
ATOM     25  N   UNL     1      -1.148   1.060   0.175  1.00  0.00    -0.358 N 
ATOM     26  C   UNL     1       0.163   0.646   0.123  1.00  0.00     0.046 A 
ATOM     27  H   UNL     1      -1.436   2.001   0.208  1.00  0.00     0.166 HD
ATOM     28  C   UNL     1       0.155  -0.749   0.091  1.00  0.00     0.007 A 
ATOM     29  C   UNL     1       1.343   1.400   0.090  1.00  0.00     0.027 A 
ATOM     30  C   UNL     1       1.391  -1.426   0.040  1.00  0.00     0.011 A 
ATOM     31  C   UNL     1       2.554   0.705   0.033  1.00  0.00     0.002 A 
ATOM     32  C   UNL     1       2.581  -0.688   0.013  1.00  0.00     0.001 A 
ENDBRANCH  15  22
ENDBRANCH   9  14
ENDBRANCH   6   8
ENDBRANCH   5   6
ENDBRANCH   4   5
ENDBRANCH   3   4
ENDBRANCH   2   3
ENDBRANCH   1   2
BRANCH   1  33
ATOM     33  C   UNL     1      -7.902   1.546  -4.796  1.00  0.00     0.261 C 
BRANCH  33  34
ATOM     34  O   UNL     1      -8.489   0.946  -3.629  1.00  0.00    -0.460 OA
BRANCH  34  35
ATOM     35  C   UNL     1      -9.741   1.384  -3.349  1.00  0.00     0.338 C 
ATOM     36  O   UNL     1     -10.362   2.253  -3.943  1.00  0.00    -0.246 OA
BRANCH  35  37
ATOM     37  C   UNL     1     -10.361   0.532  -2.317  1.00  0.00     0.060 A 
ATOM     38  C   UNL     1     -11.639   0.026  -2.586  1.00  0.00     0.016 A 
ATOM     39  C   UNL     1      -9.749   0.297  -1.084  1.00  0.00     0.016 A 
ATOM     40  C   UNL     1     -12.340  -0.659  -1.598  1.00  0.00     0.010 A 
ATOM     41  C   UNL     1     -10.457  -0.391  -0.091  1.00  0.00     0.010 A 
ATOM     42  C   UNL     1     -11.772  -0.832  -0.329  1.00  0.00    -0.014 A 
BRANCH  42  43
ATOM     43  C   UNL     1     -12.624  -1.320   0.786  1.00  0.00     0.031 A 
ATOM     44  C   UNL     1     -13.158  -0.325   1.782  1.00  0.00     0.074 A 
ATOM     45  C   UNL     1     -12.959  -2.620   0.880  1.00  0.00     0.049 A 
ATOM     46  N   UNL     1     -13.911  -0.521   2.833  1.00  0.00    -0.248 NA
ATOM     47  C   UNL     1     -12.785   1.081   1.562  1.00  0.00     0.031 C 
ATOM     48  C   UNL     1     -12.544  -3.666  -0.054  1.00  0.00     0.029 A 
ATOM     49  N   UNL     1     -13.731  -3.279   1.803  1.00  0.00    -0.354 N 
ATOM     50  C   UNL     1     -14.094   0.734   3.408  1.00  0.00     0.074 A 
ATOM     51  C   UNL     1     -13.337   1.674   2.610  1.00  0.00     0.031 C 
ATOM     52  C   UNL     1     -13.073  -4.837   0.342  1.00  0.00     0.029 A 
ATOM     53  C   UNL     1     -13.827  -4.632   1.577  1.00  0.00     0.049 A 
ATOM     54  H   UNL     1     -14.174  -2.826   2.557  1.00  0.00     0.167 HD
ATOM     55  C   UNL     1     -14.833   1.069   4.495  1.00  0.00     0.034 A 
ATOM     56  C   UNL     1     -14.439  -5.595   2.295  1.00  0.00     0.034 A 
ATOM     57  C   UNL     1     -15.582   0.116   5.279  1.00  0.00     0.049 A 
ATOM     58  C   UNL     1     -15.186  -5.208   3.550  1.00  0.00     0.074 A 
ATOM     59  C   UNL     1     -16.386   0.350   6.381  1.00  0.00     0.029 A 
ATOM     60  N   UNL     1     -15.608  -1.255   5.056  1.00  0.00    -0.354 N 
ATOM     61  N   UNL     1     -15.365  -4.018   4.076  1.00  0.00    -0.248 NA
ATOM     62  C   UNL     1     -15.823  -6.298   4.302  1.00  0.00     0.031 C 
ATOM     63  C   UNL     1     -16.826  -0.883   6.873  1.00  0.00     0.029 A 
ATOM     64  C   UNL     1     -16.378  -1.882   6.024  1.00  0.00     0.049 A 
ATOM     65  H   UNL     1     -15.147  -1.715   4.317  1.00  0.00     0.167 HD
ATOM     66  C   UNL     1     -16.169  -4.213   5.197  1.00  0.00     0.074 A 
ATOM     67  C   UNL     1     -16.448  -5.633   5.262  1.00  0.00     0.031 C 
ATOM     68  C   UNL     1     -16.642  -3.302   6.087  1.00  0.00     0.034 A 
BRANCH  55  69
ATOM     69  C   UNL     1     -14.813   2.517   4.930  1.00  0.00     0.023 A 
ATOM     70  C   UNL     1     -15.301   3.551   4.111  1.00  0.00     0.031 A 
ATOM     71  C   UNL     1     -14.263   2.871   6.176  1.00  0.00     0.131 A 
ATOM     72  C   UNL     1     -15.158   4.889   4.512  1.00  0.00     0.055 A 
ATOM     73  C   UNL     1     -14.204   4.198   6.606  1.00  0.00     0.041 A 
ATOM     74  F   UNL     1     -13.758   1.933   6.992  1.00  0.00    -0.206 F 
ATOM     75  C   UNL     1     -14.638   5.218   5.766  1.00  0.00     0.022 A 
BRANCH  72  76
ATOM     76  S   UNL     1     -15.512   6.198   3.307  1.00  0.00     0.124 S 
ATOM     77  O   UNL     1     -14.608   5.845   2.214  1.00  0.00    -0.237 OA
ATOM     78  O   UNL     1     -16.934   6.011   3.046  1.00  0.00    -0.237 OA
ATOM     79  O   UNL     1     -15.163   7.425   4.021  1.00  0.00    -0.744 OA
ENDBRANCH  72  76
ENDBRANCH  55  69
BRANCH  56  80
ATOM     80  C   UNL     1     -14.360  -7.023   1.872  1.00  0.00     0.023 A 
ATOM     81  C   UNL     1     -15.515  -7.744   1.531  1.00  0.00     0.031 A 
ATOM     82  C   UNL     1     -13.130  -7.707   1.860  1.00  0.00     0.131 A 
ATOM     83  C   UNL     1     -15.426  -9.115   1.243  1.00  0.00     0.055 A 
ATOM     84  C   UNL     1     -13.039  -9.056   1.515  1.00  0.00     0.041 A 
ATOM     85  F   UNL     1     -11.994  -7.067   2.180  1.00  0.00    -0.206 F 
ATOM     86  C   UNL     1     -14.194  -9.772   1.218  1.00  0.00     0.022 A 
BRANCH  83  87
ATOM     87  S   UNL     1     -16.960 -10.050   0.994  1.00  0.00     0.124 S 
ATOM     88  O   UNL     1     -17.653  -9.824   2.257  1.00  0.00    -0.237 OA
ATOM     89  O   UNL     1     -17.528  -9.393  -0.178  1.00  0.00    -0.237 OA
ATOM     90  O   UNL     1     -16.492 -11.417   0.774  1.00  0.00    -0.744 OA
ENDBRANCH  83  87
ENDBRANCH  56  80
BRANCH  68  91
ATOM     91  C   UNL     1     -17.560  -3.812   7.175  1.00  0.00     0.023 A 
ATOM     92  C   UNL     1     -17.117  -4.708   8.164  1.00  0.00     0.031 A 
ATOM     93  C   UNL     1     -18.907  -3.409   7.207  1.00  0.00     0.131 A 
ATOM     94  C   UNL     1     -18.028  -5.222   9.101  1.00  0.00     0.055 A 
ATOM     95  C   UNL     1     -19.791  -3.868   8.185  1.00  0.00     0.041 A 
ATOM     96  F   UNL     1     -19.389  -2.558   6.287  1.00  0.00    -0.206 F 
ATOM     97  C   UNL     1     -19.357  -4.793   9.130  1.00  0.00     0.022 A 
BRANCH  94  98
ATOM     98  S   UNL     1     -17.480  -6.547  10.213  1.00  0.00     0.124 S 
ATOM     99  O   UNL     1     -17.026  -7.565   9.270  1.00  0.00    -0.237 OA
ATOM    100  O   UNL     1     -16.436  -5.889  10.991  1.00  0.00    -0.237 OA
ATOM    101  O   UNL     1     -18.688  -6.889  10.961  1.00  0.00    -0.744 OA
ENDBRANCH  94  98
ENDBRANCH  68  91
ENDBRANCH  42  43
ENDBRANCH  35  37
ENDBRANCH  34  35
ENDBRANCH  33  34
ENDBRANCH   1  33
TORSDOF 19
