REMARK SMILES CC1(C)[C@H](C(=O)N(Cc2ccccc2)Cc2ccccc2)CC[C@@]1(C)C(=O)OCCOCCOC(=O)c1ccc(-c2c3nc(c(-c4cc(S(=O)(=O)[O-])ccc4F)c4ccc([nH]4)c(-c4cc(S(=O)(=O)[O-])ccc4F)c4nc(c(-c5cc(S(=O)(=O)[O-])ccc5F)c5ccc2[nH]5)C=C4)C=C3)cc1
REMARK SMILES IDX 31 1 30 2 29 3 28 4 26 5 27 6 24 7 1 8 2 9 3 10 4 11 22 12
REMARK SMILES IDX 23 13 25 14 5 15 6 16 7 17 8 18 9 19 10 20 14 21 11 22 13 23
REMARK SMILES IDX 12 24 15 25 16 26 17 27 21 28 18 29 20 30 19 31 32 32 33 33
REMARK SMILES IDX 34 34 35 35 36 36 37 37 38 38 99 39 39 40 98 41 40 42 41 43
REMARK SMILES IDX 42 44 92 45 43 46 97 47 91 48 93 49 44 50 96 51 90 52 89 53
REMARK SMILES IDX 45 55 77 56 57 57 76 58 58 59 61 60 75 61 94 62 59 63 60 64
REMARK SMILES IDX 74 66 95 67 62 68 46 69 47 70 55 71 48 72 54 73 56 74 53 75
REMARK SMILES IDX 49 76 50 77 51 78 52 79 78 80 79 81 87 82 80 83 86 84 88 85
REMARK SMILES IDX 85 86 81 87 82 88 83 89 84 90 63 91 64 92 72 93 65 94 71 95
REMARK SMILES IDX 73 96 70 97 66 98 67 99 68 100 69 101
REMARK H PARENT 93 54 61 65
REMARK Flexibility Score: inf
ROOT
ATOM      1  O   UNL     1       2.357   2.620   2.983  1.00  0.00    -0.374 OA
ENDROOT
BRANCH   1   2
ATOM      2  C   UNL     1       1.023   3.091   3.156  1.00  0.00     0.202 C 
BRANCH   2   3
ATOM      3  C   UNL     1       0.371   3.860   2.002  1.00  0.00     0.261 C 
BRANCH   3   4
ATOM      4  O   UNL     1       0.178   3.084   0.803  1.00  0.00    -0.463 OA
BRANCH   4   5
ATOM      5  C   UNL     1       1.118   3.275  -0.156  1.00  0.00     0.312 C 
ATOM      6  O   UNL     1       2.091   4.009  -0.004  1.00  0.00    -0.252 OA
BRANCH   5   7
ATOM      7  C   UNL     1       0.815   2.554  -1.487  1.00  0.00     0.071 C 
ATOM      8  C   UNL     1       0.213   0.293  -0.107  1.00  0.00     0.013 C 
ATOM      9  C   UNL     1       0.328   1.016  -1.461  1.00  0.00    -0.008 C 
ATOM     10  C   UNL     1       1.293   0.127  -2.239  1.00  0.00     0.013 C 
ATOM     11  C   UNL     1      -1.103   1.079  -2.070  1.00  0.00     0.085 C 
ATOM     12  C   UNL     1      -1.157   2.302  -2.961  1.00  0.00     0.015 C 
ATOM     13  C   UNL     1      -0.334   3.330  -2.194  1.00  0.00     0.020 C 
ATOM     14  C   UNL     1       2.098   2.782  -2.346  1.00  0.00     0.024 C 
BRANCH  11  15
ATOM     15  C   UNL     1      -1.869  -0.174  -2.553  1.00  0.00     0.226 C 
ATOM     16  O   UNL     1      -2.952  -0.371  -1.976  1.00  0.00    -0.275 OA
ATOM     17  N   UNL     1      -1.456  -1.069  -3.539  1.00  0.00    -0.334 N 
BRANCH  17  18
ATOM     18  C   UNL     1      -0.597  -0.745  -4.702  1.00  0.00     0.155 C 
BRANCH  18  19
ATOM     19  C   UNL     1       0.704  -1.520  -4.884  1.00  0.00    -0.029 A 
ATOM     20  C   UNL     1       0.809  -2.902  -4.710  1.00  0.00     0.005 A 
ATOM     21  C   UNL     1       1.882  -0.834  -5.239  1.00  0.00     0.005 A 
ATOM     22  C   UNL     1       2.047  -3.551  -4.727  1.00  0.00     0.000 A 
ATOM     23  C   UNL     1       3.128  -1.471  -5.235  1.00  0.00     0.000 A 
ATOM     24  C   UNL     1       3.212  -2.829  -4.955  1.00  0.00     0.000 A 
ENDBRANCH  18  19
ENDBRANCH  17  18
BRANCH  17  25
ATOM     25  C   UNL     1      -2.302  -2.278  -3.674  1.00  0.00     0.155 C 
BRANCH  25  26
ATOM     26  C   UNL     1      -1.989  -3.433  -2.730  1.00  0.00    -0.029 A 
ATOM     27  C   UNL     1      -1.939  -4.746  -3.235  1.00  0.00     0.005 A 
ATOM     28  C   UNL     1      -1.841  -3.263  -1.347  1.00  0.00     0.005 A 
ATOM     29  C   UNL     1      -1.694  -5.837  -2.396  1.00  0.00     0.000 A 
ATOM     30  C   UNL     1      -1.609  -4.354  -0.504  1.00  0.00     0.000 A 
ATOM     31  C   UNL     1      -1.528  -5.639  -1.029  1.00  0.00     0.000 A 
ENDBRANCH  25  26
ENDBRANCH  17  25
ENDBRANCH  11  15
ENDBRANCH   5   7
ENDBRANCH   4   5
ENDBRANCH   3   4
ENDBRANCH   2   3
ENDBRANCH   1   2
BRANCH   1  32
ATOM     32  C   UNL     1       2.532   1.411   2.248  1.00  0.00     0.202 C 
BRANCH  32  33
ATOM     33  C   UNL     1       2.062   0.111   2.923  1.00  0.00     0.261 C 
BRANCH  33  34
ATOM     34  O   UNL     1       0.629   0.066   3.083  1.00  0.00    -0.460 OA
BRANCH  34  35
ATOM     35  C   UNL     1       0.211  -0.077   4.367  1.00  0.00     0.338 C 
ATOM     36  O   UNL     1       0.909  -0.332   5.332  1.00  0.00    -0.246 OA
BRANCH  35  37
ATOM     37  C   UNL     1      -1.198   0.353   4.508  1.00  0.00     0.060 A 
ATOM     38  C   UNL     1      -1.447   1.379   5.428  1.00  0.00     0.016 A 
ATOM     39  C   UNL     1      -2.257  -0.271   3.845  1.00  0.00     0.016 A 
ATOM     40  C   UNL     1      -2.755   1.732   5.749  1.00  0.00     0.010 A 
ATOM     41  C   UNL     1      -3.577   0.083   4.175  1.00  0.00     0.010 A 
ATOM     42  C   UNL     1      -3.832   1.051   5.165  1.00  0.00    -0.014 A 
BRANCH  42  43
ATOM     43  C   UNL     1      -5.188   1.258   5.745  1.00  0.00     0.031 A 
ATOM     44  C   UNL     1      -5.737   0.234   6.707  1.00  0.00     0.074 A 
ATOM     45  C   UNL     1      -5.870   2.398   5.519  1.00  0.00     0.049 A 
ATOM     46  N   UNL     1      -6.843   0.257   7.406  1.00  0.00    -0.248 NA
ATOM     47  C   UNL     1      -4.922  -0.974   6.916  1.00  0.00     0.031 C 
ATOM     48  C   UNL     1      -5.420   3.490   4.657  1.00  0.00     0.029 A 
ATOM     49  N   UNL     1      -7.073   2.838   6.014  1.00  0.00    -0.354 N 
ATOM     50  C   UNL     1      -6.861  -0.930   8.133  1.00  0.00     0.074 A 
ATOM     51  C   UNL     1      -5.670  -1.665   7.763  1.00  0.00     0.031 C 
ATOM     52  C   UNL     1      -6.326   4.482   4.699  1.00  0.00     0.029 A 
ATOM     53  C   UNL     1      -7.440   4.083   5.559  1.00  0.00     0.049 A 
ATOM     54  H   UNL     1      -7.623   2.310   6.638  1.00  0.00     0.167 HD
ATOM     55  C   UNL     1      -7.779  -1.363   9.034  1.00  0.00     0.034 A 
ATOM     56  C   UNL     1      -8.550   4.813   5.797  1.00  0.00     0.034 A 
ATOM     57  C   UNL     1      -8.962  -0.620   9.398  1.00  0.00     0.049 A 
ATOM     58  C   UNL     1      -9.601   4.264   6.734  1.00  0.00     0.074 A 
ATOM     59  C   UNL     1      -9.936  -0.956  10.323  1.00  0.00     0.029 A 
ATOM     60  N   UNL     1      -9.344   0.595   8.846  1.00  0.00    -0.354 N 
ATOM     61  N   UNL     1      -9.590   3.152   7.433  1.00  0.00    -0.248 NA
ATOM     62  C   UNL     1     -10.812   5.075   6.920  1.00  0.00     0.031 C 
ATOM     63  C   UNL     1     -10.947   0.010  10.267  1.00  0.00     0.029 A 
ATOM     64  C   UNL     1     -10.562   0.998   9.375  1.00  0.00     0.049 A 
ATOM     65  H   UNL     1      -8.826   1.099   8.177  1.00  0.00     0.167 HD
ATOM     66  C   UNL     1     -10.775   3.151   8.166  1.00  0.00     0.074 A 
ATOM     67  C   UNL     1     -11.464   4.382   7.840  1.00  0.00     0.031 C 
ATOM     68  C   UNL     1     -11.251   2.220   9.034  1.00  0.00     0.034 A 
BRANCH  55  69
ATOM     69  C   UNL     1      -7.573  -2.730   9.643  1.00  0.00     0.023 A 
ATOM     70  C   UNL     1      -6.486  -3.020  10.487  1.00  0.00     0.031 A 
ATOM     71  C   UNL     1      -8.487  -3.764   9.369  1.00  0.00     0.131 A 
ATOM     72  C   UNL     1      -6.313  -4.322  10.982  1.00  0.00     0.055 A 
ATOM     73  C   UNL     1      -8.350  -5.037   9.924  1.00  0.00     0.041 A 
ATOM     74  F   UNL     1      -9.531  -3.553   8.552  1.00  0.00    -0.206 F 
ATOM     75  C   UNL     1      -7.251  -5.325  10.727  1.00  0.00     0.022 A 
BRANCH  72  76
ATOM     76  S   UNL     1      -4.778  -4.724  11.862  1.00  0.00     0.124 S 
ATOM     77  O   UNL     1      -3.768  -4.401  10.859  1.00  0.00    -0.237 OA
ATOM     78  O   UNL     1      -4.837  -3.839  13.020  1.00  0.00    -0.237 OA
ATOM     79  O   UNL     1      -4.916  -6.149  12.159  1.00  0.00    -0.744 OA
ENDBRANCH  72  76
ENDBRANCH  55  69
BRANCH  56  80
ATOM     80  C   UNL     1      -8.762   6.127   5.119  1.00  0.00     0.023 A 
ATOM     81  C   UNL     1      -8.920   7.313   5.856  1.00  0.00     0.031 A 
ATOM     82  C   UNL     1      -8.900   6.201   3.720  1.00  0.00     0.131 A 
ATOM     83  C   UNL     1      -9.263   8.506   5.199  1.00  0.00     0.055 A 
ATOM     84  C   UNL     1      -9.178   7.403   3.067  1.00  0.00     0.041 A 
ATOM     85  F   UNL     1      -8.769   5.099   2.965  1.00  0.00    -0.206 F 
ATOM     86  C   UNL     1      -9.378   8.562   3.809  1.00  0.00     0.022 A 
BRANCH  83  87
ATOM     87  S   UNL     1      -9.671   9.964   6.200  1.00  0.00     0.124 S 
ATOM     88  O   UNL     1     -10.760   9.459   7.029  1.00  0.00    -0.237 OA
ATOM     89  O   UNL     1      -8.409  10.223   6.885  1.00  0.00    -0.237 OA
ATOM     90  O   UNL     1     -10.055  10.963   5.205  1.00  0.00    -0.744 OA
ENDBRANCH  83  87
ENDBRANCH  56  80
BRANCH  68  91
ATOM     91  C   UNL     1     -12.562   2.525   9.721  1.00  0.00     0.023 A 
ATOM     92  C   UNL     1     -13.767   2.636   9.005  1.00  0.00     0.031 A 
ATOM     93  C   UNL     1     -12.602   2.732  11.112  1.00  0.00     0.131 A 
ATOM     94  C   UNL     1     -14.945   3.012   9.669  1.00  0.00     0.055 A 
ATOM     95  C   UNL     1     -13.791   3.037  11.778  1.00  0.00     0.041 A 
ATOM     96  F   UNL     1     -11.484   2.643  11.850  1.00  0.00    -0.206 F 
ATOM     97  C   UNL     1     -14.968   3.195  11.054  1.00  0.00     0.022 A 
BRANCH  94  98
ATOM     98  S   UNL     1     -16.425   3.370   8.683  1.00  0.00     0.124 S 
ATOM     99  O   UNL     1     -15.948   4.421   7.790  1.00  0.00    -0.237 OA
ATOM    100  O   UNL     1     -16.704   2.081   8.058  1.00  0.00    -0.237 OA
ATOM    101  O   UNL     1     -17.406   3.800   9.678  1.00  0.00    -0.744 OA
ENDBRANCH  94  98
ENDBRANCH  68  91
ENDBRANCH  42  43
ENDBRANCH  35  37
ENDBRANCH  34  35
ENDBRANCH  33  34
ENDBRANCH  32  33
ENDBRANCH   1  32
TORSDOF 22
