REMARK SMILES C[C@]1(C(=O)OCCOCCOC(=O)c2ccc(-c3c4nc(c(-c5cc(S(=O)(=O)[O-])ccc5F)c5ccc([nH]5)c(-c5cc(S(=O)(=O)[O-])ccc5F)c5nc(c(-c6cc(S(=O)(=O)[O-])ccc6F)c6ccc3[nH]6)C=C5)C=C4)cc2)[NH2+]C2(C(=O)c3ccccc3C2=O)[C@@H]2C(=O)N(c3ccccc3)C(=O)[C@H]21
REMARK SMILES IDX 9 1 8 2 7 3 6 4 5 5 3 6 4 7 2 8 1 9 77 10 101 11 78 12 89 15
REMARK SMILES IDX 99 16 79 17 87 18 90 19 92 20 100 21 80 22 81 23 86 24 88 25
REMARK SMILES IDX 91 26 82 27 85 28 83 29 84 30 93 31 94 32 98 33 95 34 97 35
REMARK SMILES IDX 96 36 10 37 11 38 12 39 13 40 14 41 15 42 76 43 16 44 75 45
REMARK SMILES IDX 17 46 18 47 19 48 69 49 20 50 74 51 68 52 70 53 21 54 73 55
REMARK SMILES IDX 67 56 66 57 22 59 54 60 34 61 53 62 35 63 38 64 52 65 71 66
REMARK SMILES IDX 36 67 37 68 51 70 72 71 39 72 23 73 24 74 32 75 25 76 31 77
REMARK SMILES IDX 33 78 30 79 26 80 27 81 28 82 29 83 55 84 56 85 64 86 57 87
REMARK SMILES IDX 63 88 65 89 62 90 58 91 59 92 60 93 61 94 40 95 41 96 49 97
REMARK SMILES IDX 42 98 48 99 50 100 47 101 43 102 44 103 45 104 46 105
REMARK H PARENT 77 13 77 14 70 58 38 69
REMARK Flexibility Score: inf
ROOT
ATOM      1  C   UNL     1      -0.003  -1.406   3.346  1.00  0.00     0.202 C 
ENDROOT
BRANCH   1   2
ATOM      2  O   UNL     1       1.047  -1.303   4.306  1.00  0.00    -0.374 OA
BRANCH   2   3
ATOM      3  C   UNL     1       1.241  -0.050   4.959  1.00  0.00     0.202 C 
BRANCH   3   4
ATOM      4  C   UNL     1       1.912   1.071   4.165  1.00  0.00     0.261 C 
BRANCH   4   5
ATOM      5  O   UNL     1       1.165   1.419   2.992  1.00  0.00    -0.459 OA
BRANCH   5   6
ATOM      6  C   UNL     1       1.647   0.935   1.816  1.00  0.00     0.368 C 
ATOM      7  O   UNL     1       2.685   0.293   1.708  1.00  0.00    -0.245 OA
BRANCH   6   8
ATOM      8  C   UNL     1       0.731   1.297   0.612  1.00  0.00     0.205 C 
ATOM      9  C   UNL     1       1.024   0.290  -0.504  1.00  0.00     0.093 C 
ATOM     10  N   UNL     1      -0.767   1.266   0.920  1.00  0.00    -0.313 N 
ATOM     11  C   UNL     1       0.934   2.727   0.203  1.00  0.00     0.172 C 
ATOM     12  C   UNL     1      -1.268   2.709   0.940  1.00  0.00     0.237 C 
ATOM     13  H   UNL     1      -0.926   0.830   1.828  1.00  0.00     0.348 HD
ATOM     14  H   UNL     1      -1.266   0.725   0.213  1.00  0.00     0.348 HD
ATOM     15  C   UNL     1       0.001   3.457   1.154  1.00  0.00     0.177 C 
ATOM     16  C   UNL     1       2.188   3.499   0.396  1.00  0.00     0.244 C 
ATOM     17  C   UNL     1      -2.063   3.035  -0.324  1.00  0.00     0.232 C 
ATOM     18  C   UNL     1      -2.300   2.901   2.047  1.00  0.00     0.232 C 
ATOM     19  C   UNL     1       0.389   4.861   0.869  1.00  0.00     0.245 C 
ATOM     20  N   UNL     1       1.773   4.790   0.705  1.00  0.00    -0.250 N 
ATOM     21  O   UNL     1       3.306   3.041   0.238  1.00  0.00    -0.273 OA
ATOM     22  O   UNL     1      -1.681   2.947  -1.480  1.00  0.00    -0.286 OA
ATOM     23  C   UNL     1      -3.434   3.370   0.058  1.00  0.00     0.036 A 
ATOM     24  C   UNL     1      -3.578   3.273   1.436  1.00  0.00     0.036 A 
ATOM     25  O   UNL     1      -2.136   2.785   3.250  1.00  0.00    -0.286 OA
ATOM     26  O   UNL     1      -0.369   5.812   0.886  1.00  0.00    -0.273 OA
ATOM     27  C   UNL     1      -4.496   3.702  -0.765  1.00  0.00     0.013 A 
ATOM     28  C   UNL     1      -4.796   3.501   2.051  1.00  0.00     0.013 A 
ATOM     29  C   UNL     1      -5.733   3.942  -0.160  1.00  0.00     0.001 A 
ATOM     30  C   UNL     1      -5.883   3.840   1.237  1.00  0.00     0.001 A 
BRANCH  20  31
ATOM     31  C   UNL     1       2.688   5.824   0.986  1.00  0.00     0.052 A 
ATOM     32  C   UNL     1       3.891   5.918   0.272  1.00  0.00     0.027 A 
ATOM     33  C   UNL     1       2.481   6.667   2.084  1.00  0.00     0.027 A 
ATOM     34  C   UNL     1       4.879   6.822   0.657  1.00  0.00     0.002 A 
ATOM     35  C   UNL     1       3.492   7.540   2.496  1.00  0.00     0.002 A 
ATOM     36  C   UNL     1       4.688   7.618   1.782  1.00  0.00     0.000 A 
ENDBRANCH  20  31
ENDBRANCH   6   8
ENDBRANCH   5   6
ENDBRANCH   4   5
ENDBRANCH   3   4
ENDBRANCH   2   3
ENDBRANCH   1   2
BRANCH   1  37
ATOM     37  C   UNL     1      -1.454  -1.442   3.841  1.00  0.00     0.261 C 
BRANCH  37  38
ATOM     38  O   UNL     1      -1.848  -0.247   4.529  1.00  0.00    -0.460 OA
BRANCH  38  39
ATOM     39  C   UNL     1      -1.935  -0.370   5.877  1.00  0.00     0.338 C 
ATOM     40  O   UNL     1      -1.779  -1.391   6.526  1.00  0.00    -0.246 OA
BRANCH  39  41
ATOM     41  C   UNL     1      -2.047   0.966   6.499  1.00  0.00     0.060 A 
ATOM     42  C   UNL     1      -2.994   1.897   6.075  1.00  0.00     0.016 A 
ATOM     43  C   UNL     1      -1.192   1.265   7.568  1.00  0.00     0.016 A 
ATOM     44  C   UNL     1      -3.106   3.117   6.749  1.00  0.00     0.010 A 
ATOM     45  C   UNL     1      -1.313   2.477   8.249  1.00  0.00     0.010 A 
ATOM     46  C   UNL     1      -2.292   3.401   7.864  1.00  0.00    -0.014 A 
BRANCH  46  47
ATOM     47  C   UNL     1      -2.611   4.566   8.730  1.00  0.00     0.031 A 
ATOM     48  C   UNL     1      -1.722   5.769   8.826  1.00  0.00     0.074 A 
ATOM     49  C   UNL     1      -3.732   4.499   9.476  1.00  0.00     0.049 A 
ATOM     50  N   UNL     1      -1.941   6.896   9.454  1.00  0.00    -0.248 NA
ATOM     51  C   UNL     1      -0.419   5.699   8.152  1.00  0.00     0.031 C 
ATOM     52  C   UNL     1      -4.622   3.338   9.531  1.00  0.00     0.029 A 
ATOM     53  N   UNL     1      -4.320   5.411  10.316  1.00  0.00    -0.354 N 
ATOM     54  C   UNL     1      -0.815   7.680   9.239  1.00  0.00     0.074 A 
ATOM     55  C   UNL     1       0.111   6.875   8.470  1.00  0.00     0.031 C 
ATOM     56  C   UNL     1      -5.666   3.624  10.319  1.00  0.00     0.029 A 
ATOM     57  C   UNL     1      -5.505   4.972  10.859  1.00  0.00     0.049 A 
ATOM     58  H   UNL     1      -3.931   6.294  10.511  1.00  0.00     0.167 HD
ATOM     59  C   UNL     1      -0.593   8.960   9.631  1.00  0.00     0.034 A 
ATOM     60  C   UNL     1      -6.375   5.583  11.689  1.00  0.00     0.034 A 
ATOM     61  C   UNL     1      -1.530   9.739  10.408  1.00  0.00     0.049 A 
ATOM     62  C   UNL     1      -6.111   7.008  12.097  1.00  0.00     0.074 A 
ATOM     63  C   UNL     1      -1.428  11.068  10.785  1.00  0.00     0.029 A 
ATOM     64  N   UNL     1      -2.723   9.270  10.943  1.00  0.00    -0.354 N 
ATOM     65  N   UNL     1      -5.117   7.793  11.755  1.00  0.00    -0.248 NA
ATOM     66  C   UNL     1      -7.095   7.641  12.985  1.00  0.00     0.031 C 
ATOM     67  C   UNL     1      -2.509  11.376  11.612  1.00  0.00     0.029 A 
ATOM     68  C   UNL     1      -3.340  10.270  11.682  1.00  0.00     0.049 A 
ATOM     69  H   UNL     1      -3.079   8.361  10.816  1.00  0.00     0.167 HD
ATOM     70  C   UNL     1      -5.359   9.014  12.378  1.00  0.00     0.074 A 
ATOM     71  C   UNL     1      -6.623   8.878  13.073  1.00  0.00     0.031 C 
ATOM     72  C   UNL     1      -4.596  10.137  12.386  1.00  0.00     0.034 A 
BRANCH  59  73
ATOM     73  C   UNL     1       0.688   9.642   9.208  1.00  0.00     0.023 A 
ATOM     74  C   UNL     1       1.571  10.155  10.178  1.00  0.00     0.031 A 
ATOM     75  C   UNL     1       0.943   9.941   7.857  1.00  0.00     0.131 A 
ATOM     76  C   UNL     1       2.634  10.980   9.787  1.00  0.00     0.055 A 
ATOM     77  C   UNL     1       2.033  10.723   7.469  1.00  0.00     0.041 A 
ATOM     78  F   UNL     1       0.128   9.487   6.891  1.00  0.00    -0.206 F 
ATOM     79  C   UNL     1       2.874  11.260   8.438  1.00  0.00     0.022 A 
BRANCH  76  80
ATOM     80  S   UNL     1       3.691  11.797  11.015  1.00  0.00     0.124 S 
ATOM     81  O   UNL     1       5.017  11.308  10.641  1.00  0.00    -0.237 OA
ATOM     82  O   UNL     1       3.446  13.209  10.734  1.00  0.00    -0.237 OA
ATOM     83  O   UNL     1       3.187  11.309  12.293  1.00  0.00    -0.744 OA
ENDBRANCH  76  80
ENDBRANCH  59  73
BRANCH  60  84
ATOM     84  C   UNL     1      -7.608   4.853  12.109  1.00  0.00     0.023 A 
ATOM     85  C   UNL     1      -7.521   3.642  12.821  1.00  0.00     0.031 A 
ATOM     86  C   UNL     1      -8.880   5.289  11.701  1.00  0.00     0.131 A 
ATOM     87  C   UNL     1      -8.673   2.874  13.033  1.00  0.00     0.055 A 
ATOM     88  C   UNL     1     -10.036   4.561  11.989  1.00  0.00     0.041 A 
ATOM     89  F   UNL     1      -9.013   6.426  11.002  1.00  0.00    -0.206 F 
ATOM     90  C   UNL     1      -9.933   3.337  12.641  1.00  0.00     0.022 A 
BRANCH  87  91
ATOM     91  S   UNL     1      -8.555   1.185  13.685  1.00  0.00     0.124 S 
ATOM     92  O   UNL     1      -9.374   1.266  14.890  1.00  0.00    -0.237 OA
ATOM     93  O   UNL     1      -9.121   0.405  12.587  1.00  0.00    -0.237 OA
ATOM     94  O   UNL     1      -7.125   1.000  13.904  1.00  0.00    -0.744 OA
ENDBRANCH  87  91
ENDBRANCH  60  84
BRANCH  72  95
ATOM     95  C   UNL     1      -5.074  11.325  13.194  1.00  0.00     0.023 A 
ATOM     96  C   UNL     1      -5.308  12.567  12.571  1.00  0.00     0.031 A 
ATOM     97  C   UNL     1      -5.181  11.263  14.596  1.00  0.00     0.131 A 
ATOM     98  C   UNL     1      -5.600  13.697  13.347  1.00  0.00     0.055 A 
ATOM     99  C   UNL     1      -5.533  12.377  15.359  1.00  0.00     0.041 A 
ATOM    100  F   UNL     1      -4.953  10.110  15.246  1.00  0.00    -0.206 F 
ATOM    101  C   UNL     1      -5.730  13.605  14.736  1.00  0.00     0.022 A 
BRANCH  98 102
ATOM    102  S   UNL     1      -5.732  15.344  12.598  1.00  0.00     0.124 S 
ATOM    103  O   UNL     1      -7.114  15.706  12.905  1.00  0.00    -0.237 OA
ATOM    104  O   UNL     1      -4.715  16.096  13.328  1.00  0.00    -0.237 OA
ATOM    105  O   UNL     1      -5.448  15.113  11.185  1.00  0.00    -0.744 OA
ENDBRANCH  98 102
ENDBRANCH  72  95
ENDBRANCH  46  47
ENDBRANCH  39  41
ENDBRANCH  38  39
ENDBRANCH  37  38
ENDBRANCH   1  37
TORSDOF 18
