REMARK SMILES CCC[C@]1(C(=O)OCCOCCOC(=O)c2ccc(-c3c4nc(c(-c5cc(S(=O)(=O)[O-])ccc5F)c5ccc([nH]5)c(-c5cc(S(=O)(=O)[O-])ccc5F)c5nc(c(-c6cc(S(=O)(=O)[O-])ccc6F)c6ccc3[nH]6)C=C5)C=C4)cc2)CCN(C(=O)N[C@H]2CCOC2)C1
REMARK SMILES IDX 11 1 10 2 9 3 8 4 7 5 5 6 6 7 4 8 79 9 90 10 80 11 81 12
REMARK SMILES IDX 3 13 2 14 1 15 82 16 83 17 84 18 85 20 86 21 89 22 87 23
REMARK SMILES IDX 88 24 12 25 13 26 14 27 15 28 16 29 17 30 78 31 18 32 77 33
REMARK SMILES IDX 19 34 20 35 21 36 71 37 22 38 76 39 70 40 72 41 23 42 75 43
REMARK SMILES IDX 69 44 68 45 24 47 56 48 36 49 55 50 37 51 40 52 54 53 73 54
REMARK SMILES IDX 38 55 39 56 53 58 74 59 41 60 25 61 26 62 34 63 27 64 33 65
REMARK SMILES IDX 35 66 32 67 28 68 29 69 30 70 31 71 57 72 58 73 66 74 59 75
REMARK SMILES IDX 65 76 67 77 64 78 60 79 61 80 62 81 63 82 42 83 43 84 51 85
REMARK SMILES IDX 44 86 50 87 52 88 49 89 45 90 46 91 47 92 48 93
REMARK H PARENT 84 19 72 46 40 57
REMARK Flexibility Score: inf
ROOT
ATOM      1  C   UNL     1       2.744  -2.640   4.354  1.00  0.00     0.202 C 
ENDROOT
BRANCH   1   2
ATOM      2  O   UNL     1       3.777  -3.383   3.712  1.00  0.00    -0.374 OA
BRANCH   2   3
ATOM      3  C   UNL     1       4.089  -3.051   2.355  1.00  0.00     0.202 C 
BRANCH   3   4
ATOM      4  C   UNL     1       3.071  -3.500   1.305  1.00  0.00     0.261 C 
BRANCH   4   5
ATOM      5  O   UNL     1       1.852  -2.758   1.474  1.00  0.00    -0.463 OA
BRANCH   5   6
ATOM      6  C   UNL     1       0.706  -3.479   1.518  1.00  0.00     0.314 C 
ATOM      7  O   UNL     1       0.621  -4.661   1.205  1.00  0.00    -0.252 OA
BRANCH   6   8
ATOM      8  C   UNL     1      -0.483  -2.660   2.032  1.00  0.00     0.087 C 
ATOM      9  C   UNL     1      -0.124  -1.265   2.595  1.00  0.00     0.042 C 
ATOM     10  C   UNL     1      -1.292  -2.287   0.793  1.00  0.00     0.140 C 
ATOM     11  C   UNL     1      -1.299  -0.378   2.233  1.00  0.00     0.122 C 
ATOM     12  N   UNL     1      -1.938  -1.016   1.100  1.00  0.00    -0.324 N 
BRANCH   8  13
ATOM     13  C   UNL     1      -1.186  -3.536   3.115  1.00  0.00     0.020 C 
BRANCH  13  14
ATOM     14  C   UNL     1      -2.629  -3.257   3.546  1.00  0.00    -0.002 C 
ATOM     15  C   UNL     1      -3.683  -3.730   2.557  1.00  0.00     0.004 C 
ENDBRANCH  13  14
ENDBRANCH   8  13
BRANCH  12  16
ATOM     16  C   UNL     1      -2.794  -0.462   0.197  1.00  0.00     0.317 C 
ATOM     17  O   UNL     1      -2.965  -0.945  -0.923  1.00  0.00    -0.249 OA
ATOM     18  N   UNL     1      -3.523   0.634   0.515  1.00  0.00    -0.333 N 
ATOM     19  H   UNL     1      -3.862   1.148  -0.253  1.00  0.00     0.165 HD
BRANCH  18  20
ATOM     20  C   UNL     1      -3.879   1.164   1.813  1.00  0.00     0.112 C 
ATOM     21  C   UNL     1      -4.716   2.425   1.768  1.00  0.00     0.056 C 
ATOM     22  C   UNL     1      -4.795   0.253   2.625  1.00  0.00     0.185 C 
ATOM     23  C   UNL     1      -5.242   2.459   3.190  1.00  0.00     0.162 C 
ATOM     24  O   UNL     1      -5.466   1.094   3.578  1.00  0.00    -0.379 OA
ENDBRANCH  18  20
ENDBRANCH  12  16
ENDBRANCH   6   8
ENDBRANCH   5   6
ENDBRANCH   4   5
ENDBRANCH   3   4
ENDBRANCH   2   3
ENDBRANCH   1   2
BRANCH   1  25
ATOM     25  C   UNL     1       3.084  -1.217   4.817  1.00  0.00     0.261 C 
BRANCH  25  26
ATOM     26  O   UNL     1       3.447  -0.344   3.733  1.00  0.00    -0.460 OA
BRANCH  26  27
ATOM     27  C   UNL     1       4.754   0.018   3.731  1.00  0.00     0.338 C 
ATOM     28  O   UNL     1       5.588  -0.257   4.588  1.00  0.00    -0.246 OA
BRANCH  27  29
ATOM     29  C   UNL     1       5.129   0.646   2.452  1.00  0.00     0.060 A 
ATOM     30  C   UNL     1       6.216   0.086   1.770  1.00  0.00     0.016 A 
ATOM     31  C   UNL     1       4.516   1.808   1.978  1.00  0.00     0.016 A 
ATOM     32  C   UNL     1       6.738   0.723   0.649  1.00  0.00     0.010 A 
ATOM     33  C   UNL     1       5.047   2.450   0.849  1.00  0.00     0.010 A 
ATOM     34  C   UNL     1       6.189   1.934   0.208  1.00  0.00    -0.014 A 
BRANCH  34  35
ATOM     35  C   UNL     1       6.934   2.711  -0.816  1.00  0.00     0.031 A 
ATOM     36  C   UNL     1       7.820   3.846  -0.372  1.00  0.00     0.074 A 
ATOM     37  C   UNL     1       6.905   2.342  -2.110  1.00  0.00     0.049 A 
ATOM     38  N   UNL     1       8.638   4.586  -1.074  1.00  0.00    -0.248 NA
ATOM     39  C   UNL     1       7.774   4.189   1.057  1.00  0.00     0.031 C 
ATOM     40  C   UNL     1       6.108   1.242  -2.653  1.00  0.00     0.029 A 
ATOM     41  N   UNL     1       7.574   2.843  -3.198  1.00  0.00    -0.354 N 
ATOM     42  C   UNL     1       9.211   5.480  -0.174  1.00  0.00     0.074 A 
ATOM     43  C   UNL     1       8.607   5.218   1.115  1.00  0.00     0.031 C 
ATOM     44  C   UNL     1       6.342   1.146  -3.973  1.00  0.00     0.029 A 
ATOM     45  C   UNL     1       7.285   2.189  -4.373  1.00  0.00     0.049 A 
ATOM     46  H   UNL     1       8.202   3.599  -3.143  1.00  0.00     0.167 HD
ATOM     47  C   UNL     1      10.162   6.420  -0.398  1.00  0.00     0.034 A 
ATOM     48  C   UNL     1       7.728   2.409  -5.627  1.00  0.00     0.034 A 
ATOM     49  C   UNL     1      10.748   6.677  -1.693  1.00  0.00     0.049 A 
ATOM     50  C   UNL     1       8.749   3.494  -5.863  1.00  0.00     0.074 A 
ATOM     51  C   UNL     1      11.730   7.594  -2.030  1.00  0.00     0.029 A 
ATOM     52  N   UNL     1      10.398   6.025  -2.869  1.00  0.00    -0.354 N 
ATOM     53  N   UNL     1       9.303   4.313  -4.997  1.00  0.00    -0.248 NA
ATOM     54  C   UNL     1       9.220   3.670  -7.242  1.00  0.00     0.031 C 
ATOM     55  C   UNL     1      11.919   7.546  -3.416  1.00  0.00     0.029 A 
ATOM     56  C   UNL     1      11.118   6.543  -3.937  1.00  0.00     0.049 A 
ATOM     57  H   UNL     1       9.735   5.301  -2.936  1.00  0.00     0.167 HD
ATOM     58  C   UNL     1      10.210   5.080  -5.725  1.00  0.00     0.074 A 
ATOM     59  C   UNL     1      10.141   4.610  -7.094  1.00  0.00     0.031 C 
ATOM     60  C   UNL     1      11.027   6.080  -5.303  1.00  0.00     0.034 A 
BRANCH  47  61
ATOM     61  C   UNL     1      10.583   7.274   0.776  1.00  0.00     0.023 A 
ATOM     62  C   UNL     1      11.218   6.725   1.906  1.00  0.00     0.031 A 
ATOM     63  C   UNL     1      10.312   8.654   0.782  1.00  0.00     0.131 A 
ATOM     64  C   UNL     1      11.494   7.536   3.018  1.00  0.00     0.055 A 
ATOM     65  C   UNL     1      10.662   9.470   1.859  1.00  0.00     0.041 A 
ATOM     66  F   UNL     1       9.687   9.231  -0.256  1.00  0.00    -0.206 F 
ATOM     67  C   UNL     1      11.243   8.909   2.993  1.00  0.00     0.022 A 
BRANCH  64  68
ATOM     68  S   UNL     1      12.048   6.746   4.554  1.00  0.00     0.124 S 
ATOM     69  O   UNL     1      10.953   5.817   4.821  1.00  0.00    -0.237 OA
ATOM     70  O   UNL     1      13.316   6.144   4.160  1.00  0.00    -0.237 OA
ATOM     71  O   UNL     1      12.152   7.860   5.495  1.00  0.00    -0.744 OA
ENDBRANCH  64  68
ENDBRANCH  47  61
BRANCH  48  72
ATOM     72  C   UNL     1       7.194   1.605  -6.765  1.00  0.00     0.023 A 
ATOM     73  C   UNL     1       8.022   0.758  -7.518  1.00  0.00     0.031 A 
ATOM     74  C   UNL     1       5.844   1.717  -7.145  1.00  0.00     0.131 A 
ATOM     75  C   UNL     1       7.503   0.089  -8.639  1.00  0.00     0.055 A 
ATOM     76  C   UNL     1       5.321   1.010  -8.228  1.00  0.00     0.041 A 
ATOM     77  F   UNL     1       5.009   2.513  -6.458  1.00  0.00    -0.206 F 
ATOM     78  C   UNL     1       6.156   0.199  -8.991  1.00  0.00     0.022 A 
BRANCH  75  79
ATOM     79  S   UNL     1       8.636  -0.870  -9.682  1.00  0.00     0.124 S 
ATOM     80  O   UNL     1       9.604   0.145 -10.082  1.00  0.00    -0.237 OA
ATOM     81  O   UNL     1       9.118  -1.885  -8.751  1.00  0.00    -0.237 OA
ATOM     82  O   UNL     1       7.774  -1.368 -10.752  1.00  0.00    -0.744 OA
ENDBRANCH  75  79
ENDBRANCH  48  72
BRANCH  60  83
ATOM     83  C   UNL     1      11.938   6.701  -6.337  1.00  0.00     0.023 A 
ATOM     84  C   UNL     1      11.431   7.420  -7.434  1.00  0.00     0.031 A 
ATOM     85  C   UNL     1      13.332   6.539  -6.242  1.00  0.00     0.131 A 
ATOM     86  C   UNL     1      12.304   7.885  -8.430  1.00  0.00     0.055 A 
ATOM     87  C   UNL     1      14.200   7.063  -7.201  1.00  0.00     0.041 A 
ATOM     88  F   UNL     1      13.874   5.862  -5.218  1.00  0.00    -0.206 F 
ATOM     89  C   UNL     1      13.686   7.724  -8.313  1.00  0.00     0.022 A 
BRANCH  86  90
ATOM     90  S   UNL     1      11.598   8.592  -9.945  1.00  0.00     0.124 S 
ATOM     91  O   UNL     1      10.717   7.521 -10.398  1.00  0.00    -0.237 OA
ATOM     92  O   UNL     1      10.937   9.794  -9.448  1.00  0.00    -0.237 OA
ATOM     93  O   UNL     1      12.767   8.832 -10.789  1.00  0.00    -0.744 OA
ENDBRANCH  86  90
ENDBRANCH  60  83
ENDBRANCH  34  35
ENDBRANCH  27  29
ENDBRANCH  26  27
ENDBRANCH  25  26
ENDBRANCH   1  25
TORSDOF 21
