REMARK SMILES O=C(OCCOCCOC(=O)c1ccc(-c2c3nc(c(-c4cc(S(=O)(=O)[O-])ccc4F)c4ccc([nH]4)c(-c4cc(S(=O)(=O)[O-])ccc4F)c4nc(c(-c5cc(S(=O)(=O)[O-])ccc5F)c5ccc2[nH]5)C=C4)C=C3)cc1)/C(=C/c1ccccc1Cl)NC(=O)c1ccccc1
REMARK SMILES IDX 7 1 6 2 5 3 4 4 3 5 2 6 1 7 75 8 76 9 84 10 85 11 86 13
REMARK SMILES IDX 87 14 88 15 92 16 89 17 91 18 90 19 77 20 78 21 82 22 79 23
REMARK SMILES IDX 81 24 83 25 80 26 8 27 9 28 10 29 11 30 12 31 13 32 74 33
REMARK SMILES IDX 14 34 73 35 15 36 16 37 17 38 67 39 18 40 72 41 66 42 68 43
REMARK SMILES IDX 19 44 71 45 65 46 64 47 20 49 52 50 32 51 51 52 33 53 36 54
REMARK SMILES IDX 50 55 69 56 34 57 35 58 49 60 70 61 37 62 21 63 22 64 30 65
REMARK SMILES IDX 23 66 29 67 31 68 28 69 24 70 25 71 26 72 27 73 53 74 54 75
REMARK SMILES IDX 62 76 55 77 61 78 63 79 60 80 56 81 57 82 58 83 59 84 38 85
REMARK SMILES IDX 39 86 47 87 40 88 46 89 48 90 45 91 41 92 42 93 43 94 44 95
REMARK H PARENT 84 12 68 48 36 59
REMARK Flexibility Score: inf
ROOT
ATOM      1  C   UNL     1       1.482  -1.873  -2.966  1.00  0.00     0.202 C 
ENDROOT
BRANCH   1   2
ATOM      2  O   UNL     1       2.213  -0.725  -2.537  1.00  0.00    -0.374 OA
BRANCH   2   3
ATOM      3  C   UNL     1       2.865  -0.905  -1.289  1.00  0.00     0.202 C 
BRANCH   3   4
ATOM      4  C   UNL     1       1.934  -0.731  -0.088  1.00  0.00     0.261 C 
BRANCH   4   5
ATOM      5  O   UNL     1       1.525   0.622   0.121  1.00  0.00    -0.459 OA
BRANCH   5   6
ATOM      6  C   UNL     1       2.386   1.353   0.888  1.00  0.00     0.354 C 
ATOM      7  O   UNL     1       2.051   1.895   1.932  1.00  0.00    -0.244 OA
BRANCH   6   8
ATOM      8  C   UNL     1       3.589   1.781   0.111  1.00  0.00     0.128 C 
ATOM      9  C   UNL     1       3.228   2.638  -0.875  1.00  0.00     0.043 C 
BRANCH   8  10
ATOM     10  N   UNL     1       4.888   1.441   0.426  1.00  0.00    -0.316 N 
ATOM     11  C   UNL     1       5.547   0.586   1.298  1.00  0.00     0.255 C 
ATOM     12  H   UNL     1       5.529   1.949  -0.122  1.00  0.00     0.170 HD
ATOM     13  O   UNL     1       6.763   0.754   1.430  1.00  0.00    -0.269 OA
BRANCH  11  14
ATOM     14  C   UNL     1       4.976  -0.576   2.026  1.00  0.00     0.040 A 
ATOM     15  C   UNL     1       5.095  -0.653   3.420  1.00  0.00     0.014 A 
ATOM     16  C   UNL     1       4.646  -1.754   1.349  1.00  0.00     0.014 A 
ATOM     17  C   UNL     1       4.729  -1.819   4.114  1.00  0.00     0.001 A 
ATOM     18  C   UNL     1       4.194  -2.891   2.038  1.00  0.00     0.001 A 
ATOM     19  C   UNL     1       4.221  -2.918   3.427  1.00  0.00     0.000 A 
ENDBRANCH  11  14
ENDBRANCH   8  10
BRANCH   9  20
ATOM     20  C   UNL     1       3.931   3.429  -1.913  1.00  0.00    -0.005 A 
ATOM     21  C   UNL     1       3.493   4.767  -2.032  1.00  0.00     0.010 A 
ATOM     22  C   UNL     1       4.815   2.949  -2.892  1.00  0.00     0.048 A 
ATOM     23  C   UNL     1       3.910   5.592  -3.081  1.00  0.00     0.001 A 
ATOM     24  C   UNL     1       5.232   3.781  -3.947  1.00  0.00     0.021 A 
ATOM     25  Cl  UNL     1       5.395   1.327  -2.914  1.00  0.00    -0.084 Cl
ATOM     26  C   UNL     1       4.778   5.096  -4.045  1.00  0.00     0.002 A 
ENDBRANCH   9  20
ENDBRANCH   6   8
ENDBRANCH   5   6
ENDBRANCH   4   5
ENDBRANCH   3   4
ENDBRANCH   2   3
ENDBRANCH   1   2
BRANCH   1  27
ATOM     27  C   UNL     1       2.362  -3.019  -3.495  1.00  0.00     0.261 C 
BRANCH  27  28
ATOM     28  O   UNL     1       2.979  -3.801  -2.439  1.00  0.00    -0.460 OA
BRANCH  28  29
ATOM     29  C   UNL     1       4.342  -3.804  -2.412  1.00  0.00     0.338 C 
ATOM     30  O   UNL     1       5.067  -3.151  -3.149  1.00  0.00    -0.246 OA
BRANCH  29  31
ATOM     31  C   UNL     1       4.880  -4.626  -1.289  1.00  0.00     0.060 A 
ATOM     32  C   UNL     1       6.169  -4.337  -0.811  1.00  0.00     0.016 A 
ATOM     33  C   UNL     1       4.172  -5.693  -0.726  1.00  0.00     0.016 A 
ATOM     34  C   UNL     1       6.761  -5.127   0.185  1.00  0.00     0.010 A 
ATOM     35  C   UNL     1       4.766  -6.482   0.275  1.00  0.00     0.010 A 
ATOM     36  C   UNL     1       6.078  -6.229   0.717  1.00  0.00    -0.014 A 
BRANCH  36  37
ATOM     37  C   UNL     1       6.788  -7.201   1.603  1.00  0.00     0.031 A 
ATOM     38  C   UNL     1       7.265  -8.507   1.017  1.00  0.00     0.074 A 
ATOM     39  C   UNL     1       7.035  -6.938   2.902  1.00  0.00     0.049 A 
ATOM     40  N   UNL     1       7.897  -9.498   1.592  1.00  0.00    -0.248 NA
ATOM     41  C   UNL     1       6.989  -8.718  -0.412  1.00  0.00     0.031 C 
ATOM     42  C   UNL     1       6.672  -5.706   3.595  1.00  0.00     0.029 A 
ATOM     43  N   UNL     1       7.644  -7.695   3.877  1.00  0.00    -0.354 N 
ATOM     44  C   UNL     1       8.119 -10.439   0.592  1.00  0.00     0.074 A 
ATOM     45  C   UNL     1       7.488  -9.929  -0.608  1.00  0.00     0.031 C 
ATOM     46  C   UNL     1       7.030  -5.801   4.887  1.00  0.00     0.029 A 
ATOM     47  C   UNL     1       7.650  -7.104   5.121  1.00  0.00     0.049 A 
ATOM     48  H   UNL     1       8.039  -8.580   3.701  1.00  0.00     0.167 HD
ATOM     49  C   UNL     1       8.809 -11.605   0.654  1.00  0.00     0.034 A 
ATOM     50  C   UNL     1       8.097  -7.557   6.312  1.00  0.00     0.034 A 
ATOM     51  C   UNL     1       9.415 -12.127   1.855  1.00  0.00     0.049 A 
ATOM     52  C   UNL     1       8.780  -8.905   6.378  1.00  0.00     0.074 A 
ATOM     53  C   UNL     1      10.130 -13.302   2.019  1.00  0.00     0.029 A 
ATOM     54  N   UNL     1       9.371 -11.517   3.101  1.00  0.00    -0.354 N 
ATOM     55  N   UNL     1       9.010  -9.766   5.412  1.00  0.00    -0.248 NA
ATOM     56  C   UNL     1       9.291  -9.327   7.690  1.00  0.00     0.031 C 
ATOM     57  C   UNL     1      10.457 -13.435   3.374  1.00  0.00     0.029 A 
ATOM     58  C   UNL     1      10.018 -12.304   4.043  1.00  0.00     0.049 A 
ATOM     59  H   UNL     1       8.943 -10.650   3.289  1.00  0.00     0.167 HD
ATOM     60  C   UNL     1       9.723 -10.811   5.997  1.00  0.00     0.074 A 
ATOM     61  C   UNL     1       9.908 -10.459   7.389  1.00  0.00     0.031 C 
ATOM     62  C   UNL     1      10.186 -11.958   5.435  1.00  0.00     0.034 A 
BRANCH  49  63
ATOM     63  C   UNL     1       8.918 -12.407  -0.622  1.00  0.00     0.023 A 
ATOM     64  C   UNL     1       9.607 -11.909  -1.743  1.00  0.00     0.031 A 
ATOM     65  C   UNL     1       8.311 -13.670  -0.729  1.00  0.00     0.131 A 
ATOM     66  C   UNL     1       9.613 -12.638  -2.941  1.00  0.00     0.055 A 
ATOM     67  C   UNL     1       8.389 -14.426  -1.900  1.00  0.00     0.041 A 
ATOM     68  F   UNL     1       7.620 -14.186   0.300  1.00  0.00    -0.206 F 
ATOM     69  C   UNL     1       9.031 -13.905  -3.020  1.00  0.00     0.022 A 
BRANCH  66  70
ATOM     70  S   UNL     1      10.274 -11.847  -4.433  1.00  0.00     0.124 S 
ATOM     71  O   UNL     1       9.402 -10.682  -4.559  1.00  0.00    -0.237 OA
ATOM     72  O   UNL     1      11.657 -11.574  -4.061  1.00  0.00    -0.237 OA
ATOM     73  O   UNL     1      10.095 -12.864  -5.468  1.00  0.00    -0.744 OA
ENDBRANCH  66  70
ENDBRANCH  49  63
BRANCH  50  74
ATOM     74  C   UNL     1       7.899  -6.758   7.561  1.00  0.00     0.023 A 
ATOM     75  C   UNL     1       8.988  -6.299   8.321  1.00  0.00     0.031 A 
ATOM     76  C   UNL     1       6.605  -6.525   8.063  1.00  0.00     0.131 A 
ATOM     77  C   UNL     1       8.767  -5.694   9.570  1.00  0.00     0.055 A 
ATOM     78  C   UNL     1       6.389  -5.870   9.277  1.00  0.00     0.041 A 
ATOM     79  F   UNL     1       5.527  -6.943   7.381  1.00  0.00    -0.206 F 
ATOM     80  C   UNL     1       7.475  -5.465  10.047  1.00  0.00     0.022 A 
BRANCH  77  81
ATOM     81  S   UNL     1      10.199  -5.313  10.619  1.00  0.00     0.124 S 
ATOM     82  O   UNL     1      10.839  -6.618  10.734  1.00  0.00    -0.237 OA
ATOM     83  O   UNL     1      10.905  -4.319   9.817  1.00  0.00    -0.237 OA
ATOM     84  O   UNL     1       9.594  -4.803  11.848  1.00  0.00    -0.744 OA
ENDBRANCH  77  81
ENDBRANCH  50  74
BRANCH  62  85
ATOM     85  C   UNL     1      10.969 -12.895   6.328  1.00  0.00     0.023 A 
ATOM     86  C   UNL     1      10.381 -13.518   7.443  1.00  0.00     0.031 A 
ATOM     87  C   UNL     1      12.334 -13.136   6.085  1.00  0.00     0.131 A 
ATOM     88  C   UNL     1      11.170 -14.283   8.317  1.00  0.00     0.055 A 
ATOM     89  C   UNL     1      13.097 -13.958   6.917  1.00  0.00     0.041 A 
ATOM     90  F   UNL     1      12.953 -12.570   5.036  1.00  0.00    -0.206 F 
ATOM     91  C   UNL     1      12.520 -14.521   8.051  1.00  0.00     0.022 A 
BRANCH  88  92
ATOM     92  S   UNL     1      10.437 -14.855   9.875  1.00  0.00     0.124 S 
ATOM     93  O   UNL     1       9.975 -13.605  10.470  1.00  0.00    -0.237 OA
ATOM     94  O   UNL     1       9.393 -15.764   9.412  1.00  0.00    -0.237 OA
ATOM     95  O   UNL     1      11.554 -15.495  10.566  1.00  0.00    -0.744 OA
ENDBRANCH  88  92
ENDBRANCH  62  85
ENDBRANCH  36  37
ENDBRANCH  29  31
ENDBRANCH  28  29
ENDBRANCH  27  28
ENDBRANCH   1  27
TORSDOF 20
