REMARK SMILES O=C(OCCOCCOC(=O)c1nccnc1C(=O)Nc1ccc2c(c1)OCO2)c1ccc(-c2c3nc(c(-c4cc(S(=O)(=O)[O-])ccc4F)c4ccc([nH]4)c(-c4cc(S(=O)(=O)[O-])ccc4F)c4nc(c(-c5cc(S(=O)(=O)[O-])ccc5F)c5ccc2[nH]5)C=C4)C=C3)cc1
REMARK SMILES IDX 5 1 4 2 3 3 2 4 1 5 30 6 31 7 92 8 32 9 91 10 33 11 34 12
REMARK SMILES IDX 35 13 85 14 36 15 90 16 84 17 86 18 37 19 89 20 83 21 82 22
REMARK SMILES IDX 38 24 70 25 50 26 69 27 51 28 54 29 68 30 87 31 52 32 53 33
REMARK SMILES IDX 67 35 88 36 55 37 39 38 40 39 48 40 41 41 47 42 49 43 46 44
REMARK SMILES IDX 42 45 43 46 44 47 45 48 71 49 72 50 80 51 73 52 79 53 81 54
REMARK SMILES IDX 78 55 74 56 75 57 76 58 77 59 56 60 57 61 65 62 58 63 64 64
REMARK SMILES IDX 66 65 63 66 59 67 60 68 61 69 62 70 6 71 7 72 8 73 9 74
REMARK SMILES IDX 10 75 11 76 12 77 13 78 17 79 14 80 16 81 15 82 18 83 19 84
REMARK SMILES IDX 20 85 21 87 22 88 26 89 23 90 25 91 24 92 27 93 29 94 28 95
REMARK H PARENT 86 23 54 34 20 86
REMARK Flexibility Score: inf
ROOT
ATOM      1  C   UNL     1       4.168  -1.404  -0.978  1.00  0.00     0.202 C 
ENDROOT
BRANCH   1   2
ATOM      2  C   UNL     1       3.493  -2.260   0.091  1.00  0.00     0.261 C 
BRANCH   2   3
ATOM      3  O   UNL     1       2.131  -1.839   0.313  1.00  0.00    -0.460 OA
BRANCH   3   4
ATOM      4  C   UNL     1       1.642  -1.347   1.481  1.00  0.00     0.338 C 
ATOM      5  O   UNL     1       0.430  -1.315   1.673  1.00  0.00    -0.246 OA
BRANCH   4   6
ATOM      6  C   UNL     1       2.541  -0.785   2.525  1.00  0.00     0.060 A 
ATOM      7  C   UNL     1       3.563   0.113   2.227  1.00  0.00     0.016 A 
ATOM      8  C   UNL     1       2.277  -1.054   3.868  1.00  0.00     0.016 A 
ATOM      9  C   UNL     1       4.392   0.647   3.192  1.00  0.00     0.010 A 
ATOM     10  C   UNL     1       3.063  -0.462   4.867  1.00  0.00     0.010 A 
ATOM     11  C   UNL     1       4.143   0.373   4.526  1.00  0.00    -0.014 A 
BRANCH  11  12
ATOM     12  C   UNL     1       5.142   0.821   5.517  1.00  0.00     0.031 A 
ATOM     13  C   UNL     1       5.958  -0.241   6.186  1.00  0.00     0.074 A 
ATOM     14  C   UNL     1       5.410   2.128   5.699  1.00  0.00     0.049 A 
ATOM     15  N   UNL     1       6.729  -0.164   7.232  1.00  0.00    -0.248 NA
ATOM     16  C   UNL     1       5.875  -1.585   5.589  1.00  0.00     0.031 C 
ATOM     17  C   UNL     1       4.809   3.233   4.943  1.00  0.00     0.029 A 
ATOM     18  N   UNL     1       6.280   2.751   6.553  1.00  0.00    -0.354 N 
ATOM     19  C   UNL     1       7.162  -1.464   7.468  1.00  0.00     0.074 A 
ATOM     20  C   UNL     1       6.567  -2.305   6.454  1.00  0.00     0.031 C 
ATOM     21  C   UNL     1       5.353   4.391   5.350  1.00  0.00     0.029 A 
ATOM     22  C   UNL     1       6.246   4.125   6.470  1.00  0.00     0.049 A 
ATOM     23  H   UNL     1       6.874   2.263   7.168  1.00  0.00     0.167 HD
ATOM     24  C   UNL     1       7.971  -1.900   8.462  1.00  0.00     0.034 A 
ATOM     25  C   UNL     1       6.824   5.052   7.260  1.00  0.00     0.034 A 
ATOM     26  C   UNL     1       8.550  -1.001   9.427  1.00  0.00     0.049 A 
ATOM     27  C   UNL     1       7.632   4.544   8.432  1.00  0.00     0.074 A 
ATOM     28  C   UNL     1       9.310  -1.289  10.544  1.00  0.00     0.029 A 
ATOM     29  N   UNL     1       8.434   0.387   9.370  1.00  0.00    -0.354 N 
ATOM     30  N   UNL     1       7.914   3.302   8.763  1.00  0.00    -0.248 NA
ATOM     31  C   UNL     1       8.175   5.551   9.347  1.00  0.00     0.031 C 
ATOM     32  C   UNL     1       9.601  -0.082  11.192  1.00  0.00     0.029 A 
ATOM     33  C   UNL     1       9.093   0.967  10.438  1.00  0.00     0.049 A 
ATOM     34  H   UNL     1       7.952   0.883   8.669  1.00  0.00     0.167 HD
ATOM     35  C   UNL     1       8.688   3.381   9.916  1.00  0.00     0.074 A 
ATOM     36  C   UNL     1       8.844   4.795  10.205  1.00  0.00     0.031 C 
ATOM     37  C   UNL     1       9.219   2.388  10.677  1.00  0.00     0.034 A 
BRANCH  24  38
ATOM     38  C   UNL     1       8.138  -3.394   8.595  1.00  0.00     0.023 A 
ATOM     39  C   UNL     1       8.719  -4.178   7.581  1.00  0.00     0.031 A 
ATOM     40  C   UNL     1       7.576  -4.062   9.698  1.00  0.00     0.131 A 
ATOM     41  C   UNL     1       8.621  -5.578   7.638  1.00  0.00     0.055 A 
ATOM     42  C   UNL     1       7.572  -5.455   9.795  1.00  0.00     0.041 A 
ATOM     43  F   UNL     1       6.974  -3.373  10.681  1.00  0.00    -0.206 F 
ATOM     44  C   UNL     1       8.076  -6.223   8.750  1.00  0.00     0.022 A 
BRANCH  41  45
ATOM     45  S   UNL     1       9.031  -6.536   6.150  1.00  0.00     0.124 S 
ATOM     46  O   UNL     1       8.069  -6.004   5.186  1.00  0.00    -0.237 OA
ATOM     47  O   UNL     1      10.427  -6.183   5.920  1.00  0.00    -0.237 OA
ATOM     48  O   UNL     1       8.794  -7.919   6.556  1.00  0.00    -0.744 OA
ENDBRANCH  41  45
ENDBRANCH  24  38
BRANCH  25  49
ATOM     49  C   UNL     1       6.586   6.514   7.051  1.00  0.00     0.023 A 
ATOM     50  C   UNL     1       7.651   7.407   6.847  1.00  0.00     0.031 A 
ATOM     51  C   UNL     1       5.287   7.057   7.113  1.00  0.00     0.131 A 
ATOM     52  C   UNL     1       7.404   8.789   6.756  1.00  0.00     0.055 A 
ATOM     53  C   UNL     1       5.041   8.423   6.958  1.00  0.00     0.041 A 
ATOM     54  F   UNL     1       4.226   6.261   7.322  1.00  0.00    -0.206 F 
ATOM     55  C   UNL     1       6.106   9.300   6.793  1.00  0.00     0.022 A 
BRANCH  52  56
ATOM     56  S   UNL     1       8.818   9.926   6.691  1.00  0.00     0.124 S 
ATOM     57  O   UNL     1       9.540   9.571   7.908  1.00  0.00    -0.237 OA
ATOM     58  O   UNL     1       9.453   9.549   5.434  1.00  0.00    -0.237 OA
ATOM     59  O   UNL     1       8.193  11.248   6.700  1.00  0.00    -0.744 OA
ENDBRANCH  52  56
ENDBRANCH  25  49
BRANCH  37  60
ATOM     60  C   UNL     1      10.058   2.819  11.850  1.00  0.00     0.023 A 
ATOM     61  C   UNL     1       9.496   3.467  12.962  1.00  0.00     0.031 A 
ATOM     62  C   UNL     1      11.443   2.579  11.846  1.00  0.00     0.131 A 
ATOM     63  C   UNL     1      10.326   3.910  13.999  1.00  0.00     0.055 A 
ATOM     64  C   UNL     1      12.255   2.961  12.913  1.00  0.00     0.041 A 
ATOM     65  F   UNL     1      12.027   1.963  10.805  1.00  0.00    -0.206 F 
ATOM     66  C   UNL     1      11.699   3.644  13.991  1.00  0.00     0.022 A 
BRANCH  63  67
ATOM     67  S   UNL     1       9.604   4.930  15.311  1.00  0.00     0.124 S 
ATOM     68  O   UNL     1       9.061   6.055  14.555  1.00  0.00    -0.237 OA
ATOM     69  O   UNL     1       8.622   4.028  15.903  1.00  0.00    -0.237 OA
ATOM     70  O   UNL     1      10.746   5.250  16.165  1.00  0.00    -0.744 OA
ENDBRANCH  63  67
ENDBRANCH  37  60
ENDBRANCH  11  12
ENDBRANCH   4   6
ENDBRANCH   3   4
ENDBRANCH   2   3
ENDBRANCH   1   2
BRANCH   1  71
ATOM     71  O   UNL     1       4.136  -0.018  -0.697  1.00  0.00    -0.374 OA
BRANCH  71  72
ATOM     72  C   UNL     1       2.949   0.710  -1.029  1.00  0.00     0.202 C 
BRANCH  72  73
ATOM     73  C   UNL     1       3.232   2.355  -0.971  1.00  0.00     0.261 C 
BRANCH  73  74
ATOM     74  O   UNL     1       4.343   3.502  -2.222  1.00  0.00    -0.458 OA
BRANCH  74  75
ATOM     75  C   UNL     1       5.239   3.920  -3.278  1.00  0.00     0.359 C 
ATOM     76  O   UNL     1       5.622   5.088  -3.340  1.00  0.00    -0.244 OA
BRANCH  75  77
ATOM     77  C   UNL     1       5.661   2.966  -4.397  1.00  0.00     0.179 A 
ATOM     78  N   UNL     1       5.002   3.230  -5.579  1.00  0.00    -0.245 NA
ATOM     79  C   UNL     1       6.456   1.812  -4.273  1.00  0.00     0.161 A 
ATOM     80  C   UNL     1       5.138   2.320  -6.570  1.00  0.00     0.132 A 
ATOM     81  N   UNL     1       6.576   0.908  -5.304  1.00  0.00    -0.247 NA
ATOM     82  C   UNL     1       5.901   1.179  -6.434  1.00  0.00     0.132 A 
BRANCH  79  83
ATOM     83  C   UNL     1       7.139   1.312  -3.040  1.00  0.00     0.276 C 
ATOM     84  O   UNL     1       8.251   0.792  -3.116  1.00  0.00    -0.267 OA
ATOM     85  N   UNL     1       6.529   1.420  -1.822  1.00  0.00    -0.320 N 
ATOM     86  H   UNL     1       7.005   1.083  -1.029  1.00  0.00     0.170 HD
BRANCH  85  87
ATOM     87  C   UNL     1       5.277   1.980  -1.646  1.00  0.00     0.045 A 
ATOM     88  C   UNL     1       3.946   1.782  -2.913  1.00  0.00     0.030 A 
ATOM     89  C   UNL     1       5.240   3.365  -0.495  1.00  0.00     0.076 A 
ATOM     90  C   UNL     1       2.623   3.025  -2.995  1.00  0.00     0.053 A 
ATOM     91  C   UNL     1       3.905   4.520  -0.625  1.00  0.00     0.167 A 
ATOM     92  C   UNL     1       2.663   4.386  -1.839  1.00  0.00     0.165 A 
ATOM     93  O   UNL     1       3.553   5.525   0.211  1.00  0.00    -0.454 OA
ATOM     94  O   UNL     1       1.711   5.306  -1.533  1.00  0.00    -0.454 OA
ATOM     95  C   UNL     1       2.190   5.832  -0.237  1.00  0.00     0.468 C 
ENDBRANCH  85  87
ENDBRANCH  79  83
ENDBRANCH  75  77
ENDBRANCH  74  75
ENDBRANCH  73  74
ENDBRANCH  72  73
ENDBRANCH  71  72
ENDBRANCH   1  71
TORSDOF 19
