REMARK SMILES O=C(OCCOCCOC(=O)c1c(C(=O)N2CCc3ccccc32)cccc1[N+](=O)[O-])c1ccc(-c2c3nc(c(-c4cc(S(=O)(=O)[O-])ccc4F)c4ccc([nH]4)c(-c4cc(S(=O)(=O)[O-])ccc4F)c4nc(c(-c5cc(S(=O)(=O)[O-])ccc5F)c5ccc2[nH]5)C=C4)C=C3)cc1
REMARK SMILES IDX 5 1 4 2 3 3 2 4 1 5 32 6 33 7 94 8 34 9 93 10 35 11 36 12
REMARK SMILES IDX 37 13 87 14 38 15 92 16 86 17 88 18 39 19 91 20 85 21 84 22
REMARK SMILES IDX 40 24 72 25 52 26 71 27 53 28 56 29 70 30 89 31 54 32 55 33
REMARK SMILES IDX 69 35 90 36 57 37 41 38 42 39 50 40 43 41 49 42 51 43 48 44
REMARK SMILES IDX 44 45 45 46 46 47 47 48 73 49 74 50 82 51 75 52 81 53 83 54
REMARK SMILES IDX 80 55 76 56 77 57 78 58 79 59 58 60 59 61 67 62 60 63 66 64
REMARK SMILES IDX 68 65 65 66 61 67 62 68 63 69 64 70 6 71 7 72 8 73 9 74
REMARK SMILES IDX 10 75 11 76 12 77 13 78 28 79 25 80 27 81 26 82 14 83 15 84
REMARK SMILES IDX 16 85 17 86 24 87 18 88 19 89 23 90 20 91 22 92 21 93 29 94
REMARK SMILES IDX 30 95 31 96
REMARK H PARENT 88 23 56 34
REMARK Flexibility Score: inf
ROOT
ATOM      1  C   UNL     1       3.476  -1.275   1.005  1.00  0.00     0.202 C 
ENDROOT
BRANCH   1   2
ATOM      2  C   UNL     1       3.076   0.178   1.200  1.00  0.00     0.261 C 
BRANCH   2   3
ATOM      3  O   UNL     1       1.746   0.376   0.721  1.00  0.00    -0.460 OA
BRANCH   3   4
ATOM      4  C   UNL     1       1.400   1.061  -0.393  1.00  0.00     0.338 C 
ATOM      5  O   UNL     1       0.205   1.269  -0.596  1.00  0.00    -0.246 OA
BRANCH   4   6
ATOM      6  C   UNL     1       2.379   1.593  -1.394  1.00  0.00     0.060 A 
ATOM      7  C   UNL     1       3.575   0.974  -1.772  1.00  0.00     0.016 A 
ATOM      8  C   UNL     1       1.980   2.729  -2.109  1.00  0.00     0.016 A 
ATOM      9  C   UNL     1       4.329   1.417  -2.846  1.00  0.00     0.010 A 
ATOM     10  C   UNL     1       2.715   3.171  -3.210  1.00  0.00     0.010 A 
ATOM     11  C   UNL     1       3.874   2.487  -3.598  1.00  0.00    -0.014 A 
BRANCH  11  12
ATOM     12  C   UNL     1       4.669   2.922  -4.754  1.00  0.00     0.031 A 
ATOM     13  C   UNL     1       5.443   4.186  -4.625  1.00  0.00     0.074 A 
ATOM     14  C   UNL     1       4.714   2.156  -5.858  1.00  0.00     0.049 A 
ATOM     15  N   UNL     1       6.027   4.898  -5.544  1.00  0.00    -0.248 NA
ATOM     16  C   UNL     1       5.558   4.726  -3.262  1.00  0.00     0.031 C 
ATOM     17  C   UNL     1       4.098   0.832  -5.990  1.00  0.00     0.029 A 
ATOM     18  N   UNL     1       5.297   2.375  -7.076  1.00  0.00    -0.354 N 
ATOM     19  C   UNL     1       6.537   6.006  -4.880  1.00  0.00     0.074 A 
ATOM     20  C   UNL     1       6.184   5.868  -3.484  1.00  0.00     0.031 C 
ATOM     21  C   UNL     1       4.325   0.365  -7.227  1.00  0.00     0.029 A 
ATOM     22  C   UNL     1       5.010   1.395  -7.997  1.00  0.00     0.049 A 
ATOM     23  H   UNL     1       5.864   3.156  -7.273  1.00  0.00     0.167 HD
ATOM     24  C   UNL     1       7.217   7.046  -5.418  1.00  0.00     0.034 A 
ATOM     25  C   UNL     1       5.212   1.381  -9.329  1.00  0.00     0.034 A 
ATOM     26  C   UNL     1       7.507   7.120  -6.828  1.00  0.00     0.049 A 
ATOM     27  C   UNL     1       5.867   2.596  -9.935  1.00  0.00     0.074 A 
ATOM     28  C   UNL     1       8.129   8.127  -7.538  1.00  0.00     0.029 A 
ATOM     29  N   UNL     1       7.170   6.129  -7.751  1.00  0.00    -0.354 N 
ATOM     30  N   UNL     1       6.276   3.694  -9.334  1.00  0.00    -0.248 NA
ATOM     31  C   UNL     1       6.077   2.588 -11.385  1.00  0.00     0.031 C 
ATOM     32  C   UNL     1       8.093   7.783  -8.895  1.00  0.00     0.029 A 
ATOM     33  C   UNL     1       7.539   6.516  -9.026  1.00  0.00     0.049 A 
ATOM     34  H   UNL     1       6.731   5.276  -7.526  1.00  0.00     0.167 HD
ATOM     35  C   UNL     1       6.816   4.498 -10.329  1.00  0.00     0.074 A 
ATOM     36  C   UNL     1       6.681   3.755 -11.570  1.00  0.00     0.031 C 
ATOM     37  C   UNL     1       7.380   5.731 -10.233  1.00  0.00     0.034 A 
BRANCH  24  38
ATOM     38  C   UNL     1       7.539   8.194  -4.491  1.00  0.00     0.023 A 
ATOM     39  C   UNL     1       8.322   8.020  -3.334  1.00  0.00     0.031 A 
ATOM     40  C   UNL     1       6.917   9.441  -4.679  1.00  0.00     0.131 A 
ATOM     41  C   UNL     1       8.348   9.023  -2.351  1.00  0.00     0.055 A 
ATOM     42  C   UNL     1       7.040  10.475  -3.748  1.00  0.00     0.041 A 
ATOM     43  F   UNL     1       6.130   9.660  -5.743  1.00  0.00    -0.206 F 
ATOM     44  C   UNL     1       7.736  10.259  -2.562  1.00  0.00     0.022 A 
BRANCH  41  45
ATOM     45  S   UNL     1       8.984   8.598  -0.703  1.00  0.00     0.124 S 
ATOM     46  O   UNL     1       8.120   7.478  -0.333  1.00  0.00    -0.237 OA
ATOM     47  O   UNL     1      10.377   8.265  -0.976  1.00  0.00    -0.237 OA
ATOM     48  O   UNL     1       8.773   9.819   0.072  1.00  0.00    -0.744 OA
ENDBRANCH  41  45
ENDBRANCH  24  38
BRANCH  25  49
ATOM     49  C   UNL     1       4.700   0.249 -10.157  1.00  0.00     0.023 A 
ATOM     50  C   UNL     1       5.561  -0.583 -10.889  1.00  0.00     0.031 A 
ATOM     51  C   UNL     1       3.318  -0.024 -10.220  1.00  0.00     0.131 A 
ATOM     52  C   UNL     1       5.033  -1.632 -11.663  1.00  0.00     0.055 A 
ATOM     53  C   UNL     1       2.803  -1.098 -10.948  1.00  0.00     0.041 A 
ATOM     54  F   UNL     1       2.443   0.741  -9.547  1.00  0.00    -0.206 F 
ATOM     55  C   UNL     1       3.663  -1.906 -11.682  1.00  0.00     0.022 A 
BRANCH  52  56
ATOM     56  S   UNL     1       6.157  -2.604 -12.704  1.00  0.00     0.124 S 
ATOM     57  O   UNL     1       6.737  -1.573 -13.558  1.00  0.00    -0.237 OA
ATOM     58  O   UNL     1       7.051  -3.198 -11.716  1.00  0.00    -0.237 OA
ATOM     59  O   UNL     1       5.267  -3.545 -13.382  1.00  0.00    -0.744 OA
ENDBRANCH  52  56
ENDBRANCH  25  49
BRANCH  37  60
ATOM     60  C   UNL     1       7.950   6.317 -11.497  1.00  0.00     0.023 A 
ATOM     61  C   UNL     1       7.131   6.763 -12.546  1.00  0.00     0.031 A 
ATOM     62  C   UNL     1       9.342   6.483 -11.616  1.00  0.00     0.131 A 
ATOM     63  C   UNL     1       7.716   7.333 -13.685  1.00  0.00     0.055 A 
ATOM     64  C   UNL     1       9.912   7.106 -12.723  1.00  0.00     0.041 A 
ATOM     65  F   UNL     1      10.165   6.068 -10.638  1.00  0.00    -0.206 F 
ATOM     66  C   UNL     1       9.098   7.529 -13.769  1.00  0.00     0.022 A 
BRANCH  63  67
ATOM     67  S   UNL     1       6.652   7.766 -15.087  1.00  0.00     0.124 S 
ATOM     68  O   UNL     1       6.087   6.470 -15.448  1.00  0.00    -0.237 OA
ATOM     69  O   UNL     1       5.725   8.724 -14.495  1.00  0.00    -0.237 OA
ATOM     70  O   UNL     1       7.584   8.329 -16.063  1.00  0.00    -0.744 OA
ENDBRANCH  63  67
ENDBRANCH  37  60
ENDBRANCH  11  12
ENDBRANCH   4   6
ENDBRANCH   3   4
ENDBRANCH   2   3
ENDBRANCH   1   2
BRANCH   1  71
ATOM     71  O   UNL     1       3.480  -1.608  -0.373  1.00  0.00    -0.374 OA
BRANCH  71  72
ATOM     72  C   UNL     1       2.377  -2.367  -0.860  1.00  0.00     0.202 C 
BRANCH  72  73
ATOM     73  C   UNL     1       2.932  -3.692  -1.375  1.00  0.00     0.261 C 
BRANCH  73  74
ATOM     74  O   UNL     1       3.736  -4.266  -0.327  1.00  0.00    -0.459 OA
BRANCH  74  75
ATOM     75  C   UNL     1       5.029  -3.852  -0.237  1.00  0.00     0.346 C 
ATOM     76  O   UNL     1       5.642  -3.329  -1.131  1.00  0.00    -0.246 OA
BRANCH  75  77
ATOM     77  C   UNL     1       5.528  -4.075   1.165  1.00  0.00     0.150 A 
ATOM     78  C   UNL     1       6.691  -3.421   1.664  1.00  0.00     0.061 A 
ATOM     79  C   UNL     1       4.860  -4.973   2.043  1.00  0.00     0.284 A 
ATOM     80  C   UNL     1       7.195  -3.858   2.904  1.00  0.00     0.015 A 
ATOM     81  C   UNL     1       5.332  -5.293   3.323  1.00  0.00     0.086 A 
ATOM     82  C   UNL     1       6.522  -4.746   3.743  1.00  0.00     0.008 A 
BRANCH  78  83
ATOM     83  C   UNL     1       7.455  -2.295   0.961  1.00  0.00     0.259 C 
ATOM     84  O   UNL     1       7.931  -2.509  -0.146  1.00  0.00    -0.269 OA
BRANCH  83  85
ATOM     85  N   UNL     1       7.540  -1.022   1.569  1.00  0.00    -0.308 N 
ATOM     86  C   UNL     1       6.928   0.177   0.950  1.00  0.00     0.131 C 
ATOM     87  C   UNL     1       7.656  -0.751   2.934  1.00  0.00     0.047 A 
ATOM     88  C   UNL     1       6.330   1.004   2.122  1.00  0.00     0.059 C 
ATOM     89  C   UNL     1       6.716   0.188   3.310  1.00  0.00    -0.022 A 
ATOM     90  C   UNL     1       8.512  -1.307   3.857  1.00  0.00     0.026 A 
ATOM     91  C   UNL     1       6.295   0.236   4.625  1.00  0.00     0.006 A 
ATOM     92  C   UNL     1       8.161  -1.214   5.198  1.00  0.00     0.002 A 
ATOM     93  C   UNL     1       6.993  -0.531   5.566  1.00  0.00     0.000 A 
ENDBRANCH  83  85
ENDBRANCH  78  83
BRANCH  79  94
ATOM     94  N   UNL     1       3.600  -5.617   1.726  1.00  0.00     0.063 N 
ATOM     95  O   UNL     1       3.657  -6.767   1.271  1.00  0.00    -0.258 OA
ATOM     96  O   UNL     1       2.569  -5.013   2.058  1.00  0.00    -0.258 OA
ENDBRANCH  79  94
ENDBRANCH  75  77
ENDBRANCH  74  75
ENDBRANCH  73  74
ENDBRANCH  72  73
ENDBRANCH  71  72
ENDBRANCH   1  71
TORSDOF 20
