REMARK SMILES Cc1ccc(NC(=O)NC2CCCC2)cc1/C=C/C(=O)OCCOCCOC(=O)c1ccc(-c2c3nc(c(-c4cc(S(=O)(=O)[O-])ccc4F)c4ccc([nH]4)c(-c4cc(S(=O)(=O)[O-])ccc4F)c4nc(c(-c5cc(S(=O)(=O)[O-])ccc5F)c5ccc2[nH]5)C=C4)C=C3)cc1
REMARK SMILES IDX 24 1 23 2 22 3 21 4 19 5 20 6 18 7 17 8 16 9 1 10 2 11 3 12
REMARK SMILES IDX 4 13 15 14 5 15 6 16 7 17 8 19 9 20 10 22 11 23 14 24 12 25
REMARK SMILES IDX 13 26 25 27 26 28 27 29 28 30 29 31 30 32 31 33 92 34 32 35
REMARK SMILES IDX 91 36 33 37 34 38 35 39 85 40 36 41 90 42 84 43 86 44 37 45
REMARK SMILES IDX 89 46 83 47 82 48 38 50 70 51 50 52 69 53 51 54 54 55 68 56
REMARK SMILES IDX 87 57 52 58 53 59 67 61 88 62 55 63 39 64 40 65 48 66 41 67
REMARK SMILES IDX 47 68 49 69 46 70 42 71 43 72 44 73 45 74 71 75 72 76 80 77
REMARK SMILES IDX 73 78 79 79 81 80 78 81 74 82 75 83 76 84 77 85 56 86 57 87
REMARK SMILES IDX 65 88 58 89 64 90 66 91 63 92 59 93 60 94 61 95 62 96
REMARK H PARENT 6 18 9 21 86 49 54 60
REMARK Flexibility Score: inf
ROOT
ATOM      1  O   UNL     1       1.142   5.649  -2.435  1.00  0.00    -0.374 OA
ENDROOT
BRANCH   1   2
ATOM      2  C   UNL     1       2.292   4.816  -2.474  1.00  0.00     0.202 C 
BRANCH   2   3
ATOM      3  C   UNL     1       2.771   4.833  -1.069  1.00  0.00     0.261 C 
BRANCH   3   4
ATOM      4  O   UNL     1       1.897   4.072  -0.234  1.00  0.00    -0.460 OA
BRANCH   4   5
ATOM      5  C   UNL     1       0.652   4.518   0.075  1.00  0.00     0.330 C 
ATOM      6  O   UNL     1       0.213   5.643   0.138  1.00  0.00    -0.247 OA
BRANCH   5   7
ATOM      7  C   UNL     1      -0.130   3.327   0.407  1.00  0.00     0.094 C 
ATOM      8  C   UNL     1       0.235   2.164  -0.149  1.00  0.00     0.016 C 
BRANCH   8   9
ATOM      9  C   UNL     1      -0.278   0.943   0.420  1.00  0.00    -0.020 A 
ATOM     10  C   UNL     1       2.088   0.046   0.707  1.00  0.00     0.045 C 
ATOM     11  C   UNL     1       0.601  -0.011   0.962  1.00  0.00    -0.044 A 
ATOM     12  C   UNL     1       0.050  -1.062   1.693  1.00  0.00     0.006 A 
ATOM     13  C   UNL     1      -1.339  -1.232   1.738  1.00  0.00     0.026 A 
ATOM     14  C   UNL     1      -1.659   0.760   0.440  1.00  0.00     0.034 A 
ATOM     15  C   UNL     1      -2.169  -0.398   0.990  1.00  0.00     0.043 A 
BRANCH  15  16
ATOM     16  N   UNL     1      -3.490  -0.710   0.677  1.00  0.00    -0.308 N 
ATOM     17  C   UNL     1      -4.023  -1.823   0.123  1.00  0.00     0.319 C 
ATOM     18  H   UNL     1      -4.143  -0.006   0.894  1.00  0.00     0.171 HD
ATOM     19  O   UNL     1      -5.253  -1.928   0.071  1.00  0.00    -0.248 OA
ATOM     20  N   UNL     1      -3.290  -2.779  -0.493  1.00  0.00    -0.335 N 
ATOM     21  H   UNL     1      -3.819  -3.557  -0.783  1.00  0.00     0.165 HD
BRANCH  20  22
ATOM     22  C   UNL     1      -1.880  -2.882  -0.809  1.00  0.00     0.083 C 
ATOM     23  C   UNL     1      -1.440  -4.238  -1.350  1.00  0.00     0.025 C 
ATOM     24  C   UNL     1      -1.367  -1.952  -1.905  1.00  0.00     0.025 C 
ATOM     25  C   UNL     1       0.011  -3.956  -1.746  1.00  0.00     0.002 C 
ATOM     26  C   UNL     1       0.036  -2.489  -2.190  1.00  0.00     0.002 C 
ENDBRANCH  20  22
ENDBRANCH  15  16
ENDBRANCH   8   9
ENDBRANCH   5   7
ENDBRANCH   4   5
ENDBRANCH   3   4
ENDBRANCH   2   3
ENDBRANCH   1   2
BRANCH   1  27
ATOM     27  C   UNL     1       0.469   5.820  -3.652  1.00  0.00     0.202 C 
BRANCH  27  28
ATOM     28  C   UNL     1       1.364   6.512  -4.681  1.00  0.00     0.261 C 
BRANCH  28  29
ATOM     29  O   UNL     1       1.748   7.818  -4.187  1.00  0.00    -0.460 OA
BRANCH  29  30
ATOM     30  C   UNL     1       3.024   7.938  -3.714  1.00  0.00     0.338 C 
ATOM     31  O   UNL     1       4.030   7.672  -4.350  1.00  0.00    -0.246 OA
BRANCH  30  32
ATOM     32  C   UNL     1       3.012   8.295  -2.262  1.00  0.00     0.060 A 
ATOM     33  C   UNL     1       4.178   8.168  -1.476  1.00  0.00     0.016 A 
ATOM     34  C   UNL     1       1.780   8.471  -1.641  1.00  0.00     0.016 A 
ATOM     35  C   UNL     1       4.083   8.045  -0.075  1.00  0.00     0.010 A 
ATOM     36  C   UNL     1       1.686   8.256  -0.282  1.00  0.00     0.010 A 
ATOM     37  C   UNL     1       2.820   7.995   0.509  1.00  0.00    -0.014 A 
BRANCH  37  38
ATOM     38  C   UNL     1       2.492   7.542   1.870  1.00  0.00     0.031 A 
ATOM     39  C   UNL     1       1.717   8.470   2.723  1.00  0.00     0.074 A 
ATOM     40  C   UNL     1       2.584   6.231   2.219  1.00  0.00     0.049 A 
ATOM     41  N   UNL     1       1.424   8.229   3.947  1.00  0.00    -0.248 NA
ATOM     42  C   UNL     1       1.227   9.780   2.289  1.00  0.00     0.031 C 
ATOM     43  C   UNL     1       1.832   5.485   3.235  1.00  0.00     0.029 A 
ATOM     44  N   UNL     1       3.416   5.244   1.690  1.00  0.00    -0.354 N 
ATOM     45  C   UNL     1       0.459   9.121   4.340  1.00  0.00     0.074 A 
ATOM     46  C   UNL     1       0.472  10.143   3.330  1.00  0.00     0.031 C 
ATOM     47  C   UNL     1       2.413   4.288   3.449  1.00  0.00     0.029 A 
ATOM     48  C   UNL     1       3.629   4.248   2.653  1.00  0.00     0.049 A 
ATOM     49  H   UNL     1       3.796   5.247   0.781  1.00  0.00     0.167 HD
ATOM     50  C   UNL     1      -0.302   8.790   5.418  1.00  0.00     0.034 A 
ATOM     51  C   UNL     1       4.896   3.961   3.047  1.00  0.00     0.034 A 
ATOM     52  C   UNL     1       0.254   7.596   6.078  1.00  0.00     0.049 A 
ATOM     53  C   UNL     1       5.008   4.471   4.462  1.00  0.00     0.074 A 
ATOM     54  C   UNL     1      -0.152   6.278   6.190  1.00  0.00     0.029 A 
ATOM     55  N   UNL     1       1.592   7.622   6.474  1.00  0.00    -0.354 N 
ATOM     56  N   UNL     1       4.200   5.383   4.944  1.00  0.00    -0.248 NA
ATOM     57  C   UNL     1       5.872   3.895   5.483  1.00  0.00     0.031 C 
ATOM     58  C   UNL     1       1.001   5.501   6.531  1.00  0.00     0.029 A 
ATOM     59  C   UNL     1       2.092   6.350   6.671  1.00  0.00     0.049 A 
ATOM     60  H   UNL     1       2.116   8.446   6.597  1.00  0.00     0.167 HD
ATOM     61  C   UNL     1       4.307   5.419   6.297  1.00  0.00     0.074 A 
ATOM     62  C   UNL     1       5.410   4.512   6.587  1.00  0.00     0.031 C 
ATOM     63  C   UNL     1       3.478   6.159   7.093  1.00  0.00     0.034 A 
BRANCH  50  64
ATOM     64  C   UNL     1      -1.618   9.425   5.814  1.00  0.00     0.023 A 
ATOM     65  C   UNL     1      -2.260   8.956   6.979  1.00  0.00     0.031 A 
ATOM     66  C   UNL     1      -2.338  10.404   5.091  1.00  0.00     0.131 A 
ATOM     67  C   UNL     1      -3.520   9.445   7.378  1.00  0.00     0.055 A 
ATOM     68  C   UNL     1      -3.569  10.925   5.514  1.00  0.00     0.041 A 
ATOM     69  F   UNL     1      -1.930  10.880   3.911  1.00  0.00    -0.206 F 
ATOM     70  C   UNL     1      -4.171  10.444   6.662  1.00  0.00     0.022 A 
BRANCH  67  71
ATOM     71  S   UNL     1      -4.321   8.723   8.834  1.00  0.00     0.124 S 
ATOM     72  O   UNL     1      -4.526   7.340   8.416  1.00  0.00    -0.237 OA
ATOM     73  O   UNL     1      -3.327   8.946   9.877  1.00  0.00    -0.237 OA
ATOM     74  O   UNL     1      -5.546   9.511   8.972  1.00  0.00    -0.744 OA
ENDBRANCH  67  71
ENDBRANCH  50  64
BRANCH  51  75
ATOM     75  C   UNL     1       5.847   4.031   1.880  1.00  0.00     0.023 A 
ATOM     76  C   UNL     1       5.684   3.044   0.863  1.00  0.00     0.031 A 
ATOM     77  C   UNL     1       6.474   5.230   1.506  1.00  0.00     0.131 A 
ATOM     78  C   UNL     1       6.007   3.322  -0.483  1.00  0.00     0.055 A 
ATOM     79  C   UNL     1       6.809   5.496   0.165  1.00  0.00     0.041 A 
ATOM     80  F   UNL     1       6.622   6.226   2.390  1.00  0.00    -0.206 F 
ATOM     81  C   UNL     1       6.544   4.561  -0.839  1.00  0.00     0.022 A 
BRANCH  78  82
ATOM     82  S   UNL     1       5.372   2.220  -1.810  1.00  0.00     0.124 S 
ATOM     83  O   UNL     1       6.392   1.181  -1.871  1.00  0.00    -0.237 OA
ATOM     84  O   UNL     1       4.069   1.802  -1.298  1.00  0.00    -0.237 OA
ATOM     85  O   UNL     1       5.292   3.101  -2.975  1.00  0.00    -0.744 OA
ENDBRANCH  78  82
ENDBRANCH  51  75
BRANCH  63  86
ATOM     86  C   UNL     1       3.955   6.726   8.399  1.00  0.00     0.023 A 
ATOM     87  C   UNL     1       5.313   6.726   8.731  1.00  0.00     0.031 A 
ATOM     88  C   UNL     1       3.099   7.400   9.296  1.00  0.00     0.131 A 
ATOM     89  C   UNL     1       5.759   7.216   9.958  1.00  0.00     0.055 A 
ATOM     90  C   UNL     1       3.567   8.014  10.459  1.00  0.00     0.041 A 
ATOM     91  F   UNL     1       1.781   7.511   9.077  1.00  0.00    -0.206 F 
ATOM     92  C   UNL     1       4.903   7.894  10.816  1.00  0.00     0.022 A 
BRANCH  89  93
ATOM     93  S   UNL     1       7.448   6.794  10.436  1.00  0.00     0.124 S 
ATOM     94  O   UNL     1       7.399   5.333  10.433  1.00  0.00    -0.237 OA
ATOM     95  O   UNL     1       8.241   7.399   9.370  1.00  0.00    -0.237 OA
ATOM     96  O   UNL     1       7.595   7.409  11.752  1.00  0.00    -0.744 OA
ENDBRANCH  89  93
ENDBRANCH  63  86
ENDBRANCH  37  38
ENDBRANCH  30  32
ENDBRANCH  29  30
ENDBRANCH  28  29
ENDBRANCH  27  28
ENDBRANCH   1  27
TORSDOF 20
