REMARK SMILES CS(=O)(=O)CCSCc1cc(F)cc(/C=C/C(=O)OCCOCCOC(=O)c2ccc(-c3c4nc(c(-c5cc(S(=O)(=O)[O-])ccc5F)c5ccc([nH]5)c(-c5cc(S(=O)(=O)[O-])ccc5F)c5nc(c(-c6cc(S(=O)(=O)[O-])ccc6F)c6ccc3[nH]6)C=C5)C=C4)cc2)c1
REMARK SMILES IDX 20 1 19 2 17 3 18 4 16 5 15 6 14 7 9 8 10 9 91 10 11 11
REMARK SMILES IDX 12 12 13 13 8 14 7 15 6 16 5 17 2 18 1 19 3 20 4 21 21 22
REMARK SMILES IDX 22 23 23 24 24 25 25 26 26 27 27 28 28 29 29 30 90 31 30 32
REMARK SMILES IDX 89 33 31 34 32 35 33 36 83 37 34 38 88 39 82 40 84 41 35 42
REMARK SMILES IDX 87 43 81 44 80 45 36 47 68 48 48 49 67 50 49 51 52 52 66 53
REMARK SMILES IDX 85 54 50 55 51 56 65 58 86 59 53 60 37 61 38 62 46 63 39 64
REMARK SMILES IDX 45 65 47 66 44 67 40 68 41 69 42 70 43 71 69 72 70 73 78 74
REMARK SMILES IDX 71 75 77 76 79 77 76 78 72 79 73 80 74 81 75 82 54 83 55 84
REMARK SMILES IDX 63 85 56 86 62 87 64 88 61 89 57 90 58 91 59 92 60 93
REMARK H PARENT 84 46 52 57
REMARK Flexibility Score: inf
ROOT
ATOM      1  C   UNL     1      -6.743   7.363   0.591  1.00  0.00     0.261 C 
ENDROOT
BRANCH   1   2
ATOM      2  O   UNL     1      -5.814   6.269   0.608  1.00  0.00    -0.460 OA
BRANCH   2   3
ATOM      3  C   UNL     1      -6.225   5.172   1.281  1.00  0.00     0.330 C 
ATOM      4  O   UNL     1      -7.218   5.068   1.985  1.00  0.00    -0.247 OA
BRANCH   3   5
ATOM      5  C   UNL     1      -5.350   4.012   1.026  1.00  0.00     0.094 C 
ATOM      6  C   UNL     1      -4.307   3.973   0.180  1.00  0.00     0.016 C 
BRANCH   6   7
ATOM      7  C   UNL     1      -3.513   2.749   0.006  1.00  0.00    -0.022 A 
ATOM      8  C   UNL     1      -1.318   1.690  -0.154  1.00  0.00    -0.035 A 
ATOM      9  C   UNL     1      -1.940   0.439  -0.056  1.00  0.00     0.043 A 
ATOM     10  C   UNL     1      -2.121   2.844  -0.139  1.00  0.00     0.013 A 
ATOM     11  C   UNL     1      -3.322   0.345   0.000  1.00  0.00     0.124 A 
ATOM     12  F   UNL     1      -3.901  -0.860   0.078  1.00  0.00    -0.207 F 
ATOM     13  C   UNL     1      -4.112   1.484   0.019  1.00  0.00     0.047 A 
BRANCH   8  14
ATOM     14  C   UNL     1       0.181   1.792  -0.196  1.00  0.00     0.105 C 
BRANCH  14  15
ATOM     15  S   UNL     1       0.904   2.119  -1.827  1.00  0.00    -0.156 SA
BRANCH  15  16
ATOM     16  C   UNL     1       0.382   0.666  -2.808  1.00  0.00     0.086 C 
BRANCH  16  17
ATOM     17  C   UNL     1       1.429  -0.433  -2.912  1.00  0.00     0.147 C 
BRANCH  17  18
ATOM     18  S   UNL     1       1.189  -1.823  -1.822  1.00  0.00     0.148 S 
ATOM     19  C   UNL     1       1.975  -1.366  -0.291  1.00  0.00     0.158 C 
ATOM     20  O   UNL     1       1.954  -2.929  -2.371  1.00  0.00    -0.229 OA
ATOM     21  O   UNL     1      -0.230  -1.984  -1.573  1.00  0.00    -0.229 OA
ENDBRANCH  17  18
ENDBRANCH  16  17
ENDBRANCH  15  16
ENDBRANCH  14  15
ENDBRANCH   8  14
ENDBRANCH   6   7
ENDBRANCH   3   5
ENDBRANCH   2   3
ENDBRANCH   1   2
BRANCH   1  22
ATOM     22  C   UNL     1      -7.269   7.596  -0.827  1.00  0.00     0.202 C 
BRANCH  22  23
ATOM     23  O   UNL     1      -8.001   6.513  -1.402  1.00  0.00    -0.374 OA
BRANCH  23  24
ATOM     24  C   UNL     1      -7.239   5.470  -2.014  1.00  0.00     0.202 C 
BRANCH  24  25
ATOM     25  C   UNL     1      -6.672   5.765  -3.409  1.00  0.00     0.261 C 
BRANCH  25  26
ATOM     26  O   UNL     1      -5.606   6.731  -3.366  1.00  0.00    -0.460 OA
BRANCH  26  27
ATOM     27  C   UNL     1      -5.915   7.939  -3.905  1.00  0.00     0.338 C 
ATOM     28  O   UNL     1      -6.951   8.248  -4.464  1.00  0.00    -0.246 OA
BRANCH  27  29
ATOM     29  C   UNL     1      -4.874   8.924  -3.549  1.00  0.00     0.060 A 
ATOM     30  C   UNL     1      -5.289  10.101  -2.913  1.00  0.00     0.016 A 
ATOM     31  C   UNL     1      -3.534   8.736  -3.892  1.00  0.00     0.016 A 
ATOM     32  C   UNL     1      -4.370  11.115  -2.655  1.00  0.00     0.010 A 
ATOM     33  C   UNL     1      -2.615   9.762  -3.642  1.00  0.00     0.010 A 
ATOM     34  C   UNL     1      -3.035  10.967  -3.051  1.00  0.00    -0.014 A 
BRANCH  34  35
ATOM     35  C   UNL     1      -2.116  12.129  -2.972  1.00  0.00     0.031 A 
ATOM     36  C   UNL     1      -1.845  12.932  -4.214  1.00  0.00     0.074 A 
ATOM     37  C   UNL     1      -1.565  12.489  -1.799  1.00  0.00     0.049 A 
ATOM     38  N   UNL     1      -1.046  13.954  -4.382  1.00  0.00    -0.248 NA
ATOM     39  C   UNL     1      -2.573  12.529  -5.428  1.00  0.00     0.031 C 
ATOM     40  C   UNL     1      -1.803  11.826  -0.517  1.00  0.00     0.029 A 
ATOM     41  N   UNL     1      -0.695  13.506  -1.495  1.00  0.00    -0.354 N 
ATOM     42  C   UNL     1      -1.171  14.315  -5.719  1.00  0.00     0.074 A 
ATOM     43  C   UNL     1      -2.100  13.384  -6.323  1.00  0.00     0.031 C 
ATOM     44  C   UNL     1      -1.097  12.456   0.437  1.00  0.00     0.029 A 
ATOM     45  C   UNL     1      -0.327  13.540  -0.172  1.00  0.00     0.049 A 
ATOM     46  H   UNL     1      -0.366  14.150  -2.163  1.00  0.00     0.167 HD
ATOM     47  C   UNL     1      -0.572  15.336  -6.378  1.00  0.00     0.034 A 
ATOM     48  C   UNL     1       0.548  14.339   0.472  1.00  0.00     0.034 A 
ATOM     49  C   UNL     1       0.351  16.258  -5.765  1.00  0.00     0.049 A 
ATOM     50  C   UNL     1       1.276  15.408  -0.300  1.00  0.00     0.074 A 
ATOM     51  C   UNL     1       1.004  17.332  -6.343  1.00  0.00     0.029 A 
ATOM     52  N   UNL     1       0.758  16.211  -4.439  1.00  0.00    -0.354 N 
ATOM     53  N   UNL     1       1.177  15.716  -1.572  1.00  0.00    -0.248 NA
ATOM     54  C   UNL     1       2.237  16.232   0.447  1.00  0.00     0.031 C 
ATOM     55  C   UNL     1       1.856  17.893  -5.386  1.00  0.00     0.029 A 
ATOM     56  C   UNL     1       1.680  17.215  -4.190  1.00  0.00     0.049 A 
ATOM     57  H   UNL     1       0.440  15.559  -3.773  1.00  0.00     0.167 HD
ATOM     58  C   UNL     1       2.048  16.783  -1.774  1.00  0.00     0.074 A 
ATOM     59  C   UNL     1       2.664  17.066  -0.493  1.00  0.00     0.031 C 
ATOM     60  C   UNL     1       2.304  17.473  -2.914  1.00  0.00     0.034 A 
BRANCH  47  61
ATOM     61  C   UNL     1      -0.862  15.481  -7.849  1.00  0.00     0.023 A 
ATOM     62  C   UNL     1      -2.128  15.866  -8.320  1.00  0.00     0.031 A 
ATOM     63  C   UNL     1       0.151  15.237  -8.794  1.00  0.00     0.131 A 
ATOM     64  C   UNL     1      -2.362  15.952  -9.701  1.00  0.00     0.055 A 
ATOM     65  C   UNL     1      -0.070  15.387 -10.164  1.00  0.00     0.041 A 
ATOM     66  F   UNL     1       1.373  14.846  -8.399  1.00  0.00    -0.206 F 
ATOM     67  C   UNL     1      -1.335  15.739 -10.624  1.00  0.00     0.022 A 
BRANCH  64  68
ATOM     68  S   UNL     1      -4.052  16.263 -10.280  1.00  0.00     0.124 S 
ATOM     69  O   UNL     1      -4.750  15.073  -9.801  1.00  0.00    -0.237 OA
ATOM     70  O   UNL     1      -4.391  17.515  -9.613  1.00  0.00    -0.237 OA
ATOM     71  O   UNL     1      -3.906  16.351 -11.732  1.00  0.00    -0.744 OA
ENDBRANCH  64  68
ENDBRANCH  47  61
BRANCH  48  72
ATOM     72  C   UNL     1       0.807  14.129   1.922  1.00  0.00     0.023 A 
ATOM     73  C   UNL     1       0.367  15.054   2.880  1.00  0.00     0.031 A 
ATOM     74  C   UNL     1       1.488  12.981   2.369  1.00  0.00     0.131 A 
ATOM     75  C   UNL     1       0.623  14.821   4.241  1.00  0.00     0.055 A 
ATOM     76  C   UNL     1       1.710  12.738   3.724  1.00  0.00     0.041 A 
ATOM     77  F   UNL     1       1.921  12.065   1.489  1.00  0.00    -0.206 F 
ATOM     78  C   UNL     1       1.278  13.663   4.670  1.00  0.00     0.022 A 
BRANCH  75  79
ATOM     79  S   UNL     1       0.090  16.059   5.454  1.00  0.00     0.124 S 
ATOM     80  O   UNL     1       0.946  17.191   5.118  1.00  0.00    -0.237 OA
ATOM     81  O   UNL     1      -1.327  16.207   5.138  1.00  0.00    -0.237 OA
ATOM     82  O   UNL     1       0.373  15.420   6.738  1.00  0.00    -0.744 OA
ENDBRANCH  75  79
ENDBRANCH  48  72
BRANCH  60  83
ATOM     83  C   UNL     1       3.275  18.621  -2.832  1.00  0.00     0.023 A 
ATOM     84  C   UNL     1       4.656  18.409  -2.683  1.00  0.00     0.031 A 
ATOM     85  C   UNL     1       2.814  19.944  -2.963  1.00  0.00     0.131 A 
ATOM     86  C   UNL     1       5.528  19.508  -2.646  1.00  0.00     0.055 A 
ATOM     87  C   UNL     1       3.691  21.029  -2.971  1.00  0.00     0.041 A 
ATOM     88  F   UNL     1       1.504  20.198  -3.111  1.00  0.00    -0.206 F 
ATOM     89  C   UNL     1       5.056  20.814  -2.807  1.00  0.00     0.022 A 
BRANCH  86  90
ATOM     90  S   UNL     1       7.294  19.212  -2.357  1.00  0.00     0.124 S 
ATOM     91  O   UNL     1       7.291  18.673  -1.000  1.00  0.00    -0.237 OA
ATOM     92  O   UNL     1       7.636  18.270  -3.417  1.00  0.00    -0.237 OA
ATOM     93  O   UNL     1       7.891  20.540  -2.494  1.00  0.00    -0.744 OA
ENDBRANCH  86  90
ENDBRANCH  60  83
ENDBRANCH  34  35
ENDBRANCH  27  29
ENDBRANCH  26  27
ENDBRANCH  25  26
ENDBRANCH  24  25
ENDBRANCH  23  24
ENDBRANCH  22  23
ENDBRANCH   1  22
TORSDOF 23
