REMARK SMILES O=C(/C=C/C(=O)OCCOCCOC(=O)c1ccc(-c2c3nc(c(-c4cc(S(=O)(=O)[O-])ccc4F)c4ccc([nH]4)c(-c4cc(S(=O)(=O)[O-])ccc4F)c4nc(c(-c5cc(S(=O)(=O)[O-])ccc5F)c5ccc2[nH]5)C=C4)C=C3)cc1)NNC(=O)CSc1ccc2ccccc2n1
REMARK SMILES IDX 9 1 8 2 7 3 5 4 6 5 4 6 3 7 2 8 1 9 79 10 80 12 81 13 82 15
REMARK SMILES IDX 83 16 84 17 85 18 86 19 94 20 87 21 93 22 88 23 92 24 89 25
REMARK SMILES IDX 91 26 90 27 10 28 11 29 12 30 13 31 14 32 15 33 16 34 17 35
REMARK SMILES IDX 78 36 18 37 77 38 19 39 20 40 21 41 71 42 22 43 76 44 70 45
REMARK SMILES IDX 72 46 23 47 75 48 69 49 68 50 24 52 56 53 36 54 55 55 37 56
REMARK SMILES IDX 40 57 54 58 73 59 38 60 39 61 53 63 74 64 41 65 25 66 26 67
REMARK SMILES IDX 34 68 27 69 33 70 35 71 32 72 28 73 29 74 30 75 31 76 57 77
REMARK SMILES IDX 58 78 66 79 59 80 65 81 67 82 64 83 60 84 61 85 62 86 63 87
REMARK SMILES IDX 42 88 43 89 51 90 44 91 50 92 52 93 49 94 45 95 46 96 47 97
REMARK SMILES IDX 48 98
REMARK H PARENT 79 11 80 14 72 51 40 62
REMARK Flexibility Score: inf
ROOT
ATOM      1  C   UNL     1       6.186   4.510  -2.163  1.00  0.00     0.202 C 
ENDROOT
BRANCH   1   2
ATOM      2  C   UNL     1       5.488   3.515  -3.095  1.00  0.00     0.261 C 
BRANCH   2   3
ATOM      3  O   UNL     1       4.584   2.647  -2.389  1.00  0.00    -0.460 OA
BRANCH   3   4
ATOM      4  C   UNL     1       4.994   1.362  -2.287  1.00  0.00     0.331 C 
ATOM      5  O   UNL     1       6.005   0.873  -2.769  1.00  0.00    -0.247 OA
BRANCH   4   6
ATOM      6  C   UNL     1       4.152   0.571  -1.370  1.00  0.00     0.099 C 
ATOM      7  C   UNL     1       2.969   0.938  -0.856  1.00  0.00     0.080 C 
BRANCH   7   8
ATOM      8  C   UNL     1       2.210   0.057   0.071  1.00  0.00     0.262 C 
ATOM      9  O   UNL     1       0.990   0.139   0.158  1.00  0.00    -0.268 OA
ATOM     10  N   UNL     1       2.983  -0.776   0.855  1.00  0.00    -0.264 N 
ATOM     11  H   UNL     1       3.966  -0.716   0.827  1.00  0.00     0.191 HD
BRANCH  10  12
ATOM     12  N   UNL     1       2.356  -1.705   1.685  1.00  0.00    -0.267 N 
ATOM     13  C   UNL     1       2.724  -3.028   1.781  1.00  0.00     0.248 C 
ATOM     14  H   UNL     1       1.602  -1.395   2.237  1.00  0.00     0.191 HD
ATOM     15  O   UNL     1       2.114  -3.787   2.537  1.00  0.00    -0.272 OA
BRANCH  13  16
ATOM     16  C   UNL     1       3.889  -3.527   0.939  1.00  0.00     0.178 C 
BRANCH  16  17
ATOM     17  S   UNL     1       3.222  -3.979  -0.693  1.00  0.00    -0.096 SA
BRANCH  17  18
ATOM     18  C   UNL     1       4.646  -4.440  -1.640  1.00  0.00     0.097 A 
ATOM     19  C   UNL     1       5.923  -4.627  -1.136  1.00  0.00     0.036 A 
ATOM     20  N   UNL     1       4.382  -4.513  -2.962  1.00  0.00    -0.241 NA
ATOM     21  C   UNL     1       6.985  -4.692  -2.037  1.00  0.00     0.013 A 
ATOM     22  C   UNL     1       5.396  -4.595  -3.830  1.00  0.00     0.072 A 
ATOM     23  C   UNL     1       6.737  -4.601  -3.413  1.00  0.00     0.000 A 
ATOM     24  C   UNL     1       5.118  -4.628  -5.188  1.00  0.00     0.029 A 
ATOM     25  C   UNL     1       7.765  -4.491  -4.365  1.00  0.00     0.010 A 
ATOM     26  C   UNL     1       6.136  -4.553  -6.139  1.00  0.00     0.002 A 
ATOM     27  C   UNL     1       7.459  -4.442  -5.725  1.00  0.00     0.001 A 
ENDBRANCH  17  18
ENDBRANCH  16  17
ENDBRANCH  13  16
ENDBRANCH  10  12
ENDBRANCH   7   8
ENDBRANCH   4   6
ENDBRANCH   3   4
ENDBRANCH   2   3
ENDBRANCH   1   2
BRANCH   1  28
ATOM     28  O   UNL     1       6.968   3.966  -1.101  1.00  0.00    -0.374 OA
BRANCH  28  29
ATOM     29  C   UNL     1       6.276   3.499   0.056  1.00  0.00     0.202 C 
BRANCH  29  30
ATOM     30  C   UNL     1       5.698   4.547   1.018  1.00  0.00     0.261 C 
BRANCH  30  31
ATOM     31  O   UNL     1       4.660   5.343   0.424  1.00  0.00    -0.460 OA
BRANCH  31  32
ATOM     32  C   UNL     1       5.006   6.638   0.192  1.00  0.00     0.338 C 
ATOM     33  O   UNL     1       6.059   7.175   0.480  1.00  0.00    -0.246 OA
BRANCH  32  34
ATOM     34  C   UNL     1       3.983   7.279  -0.658  1.00  0.00     0.060 A 
ATOM     35  C   UNL     1       4.405   7.846  -1.867  1.00  0.00     0.016 A 
ATOM     36  C   UNL     1       2.648   7.365  -0.262  1.00  0.00     0.016 A 
ATOM     37  C   UNL     1       3.495   8.524  -2.676  1.00  0.00     0.010 A 
ATOM     38  C   UNL     1       1.738   8.054  -1.071  1.00  0.00     0.010 A 
ATOM     39  C   UNL     1       2.160   8.654  -2.272  1.00  0.00    -0.014 A 
BRANCH  39  40
ATOM     40  C   UNL     1       1.227   9.497  -3.060  1.00  0.00     0.031 A 
ATOM     41  C   UNL     1       0.866  10.867  -2.559  1.00  0.00     0.074 A 
ATOM     42  C   UNL     1       0.712   9.043  -4.217  1.00  0.00     0.049 A 
ATOM     43  N   UNL     1       0.020  11.736  -3.049  1.00  0.00    -0.248 NA
ATOM     44  C   UNL     1       1.549  11.309  -1.336  1.00  0.00     0.031 C 
ATOM     45  C   UNL     1       1.015   7.746  -4.820  1.00  0.00     0.029 A 
ATOM     46  N   UNL     1      -0.186   9.616  -5.082  1.00  0.00    -0.354 N 
ATOM     47  C   UNL     1       0.066  12.832  -2.194  1.00  0.00     0.074 A 
ATOM     48  C   UNL     1       0.988  12.490  -1.129  1.00  0.00     0.031 C 
ATOM     49  C   UNL     1       0.299   7.614  -5.949  1.00  0.00     0.029 A 
ATOM     50  C   UNL     1      -0.547   8.793  -6.123  1.00  0.00     0.049 A 
ATOM     51  H   UNL     1      -0.538  10.528  -4.969  1.00  0.00     0.167 HD
ATOM     52  C   UNL     1      -0.590  14.016  -2.297  1.00  0.00     0.034 A 
ATOM     53  C   UNL     1      -1.481   8.952  -7.082  1.00  0.00     0.034 A 
ATOM     54  C   UNL     1      -1.526  14.323  -3.353  1.00  0.00     0.049 A 
ATOM     55  C   UNL     1      -2.281  10.230  -7.120  1.00  0.00     0.074 A 
ATOM     56  C   UNL     1      -2.236  15.493  -3.564  1.00  0.00     0.029 A 
ATOM     57  N   UNL     1      -1.904  13.447  -4.364  1.00  0.00    -0.354 N 
ATOM     58  N   UNL     1      -2.217  11.270  -6.319  1.00  0.00    -0.248 NA
ATOM     59  C   UNL     1      -3.274  10.359  -8.194  1.00  0.00     0.031 C 
ATOM     60  C   UNL     1      -3.101  15.294  -4.646  1.00  0.00     0.029 A 
ATOM     61  C   UNL     1      -2.869  14.033  -5.171  1.00  0.00     0.049 A 
ATOM     62  H   UNL     1      -1.539  12.541  -4.489  1.00  0.00     0.167 HD
ATOM     63  C   UNL     1      -3.151  12.183  -6.804  1.00  0.00     0.074 A 
ATOM     64  C   UNL     1      -3.747  11.578  -7.979  1.00  0.00     0.031 C 
ATOM     65  C   UNL     1      -3.480  13.411  -6.325  1.00  0.00     0.034 A 
BRANCH  52  66
ATOM     66  C   UNL     1      -0.351  15.033  -1.204  1.00  0.00     0.023 A 
ATOM     67  C   UNL     1       0.928  15.562  -0.955  1.00  0.00     0.031 A 
ATOM     68  C   UNL     1      -1.401  15.437  -0.362  1.00  0.00     0.131 A 
ATOM     69  C   UNL     1       1.142  16.385   0.161  1.00  0.00     0.055 A 
ATOM     70  C   UNL     1      -1.200  16.332   0.692  1.00  0.00     0.041 A 
ATOM     71  F   UNL     1      -2.641  14.951  -0.532  1.00  0.00    -0.206 F 
ATOM     72  C   UNL     1       0.082  16.796   0.971  1.00  0.00     0.022 A 
BRANCH  69  73
ATOM     73  S   UNL     1       2.851  16.757   0.645  1.00  0.00     0.124 S 
ATOM     74  O   UNL     1       3.415  15.416   0.791  1.00  0.00    -0.237 OA
ATOM     75  O   UNL     1       3.337  17.535  -0.489  1.00  0.00    -0.237 OA
ATOM     76  O   UNL     1       2.700  17.499   1.895  1.00  0.00    -0.744 OA
ENDBRANCH  69  73
ENDBRANCH  52  66
BRANCH  53  77
ATOM     77  C   UNL     1      -1.753   7.846  -8.044  1.00  0.00     0.023 A 
ATOM     78  C   UNL     1      -1.505   7.990  -9.417  1.00  0.00     0.031 A 
ATOM     79  C   UNL     1      -2.287   6.624  -7.593  1.00  0.00     0.131 A 
ATOM     80  C   UNL     1      -1.817   6.940 -10.296  1.00  0.00     0.055 A 
ATOM     81  C   UNL     1      -2.546   5.565  -8.464  1.00  0.00     0.041 A 
ATOM     82  F   UNL     1      -2.545   6.435  -6.289  1.00  0.00    -0.206 F 
ATOM     83  C   UNL     1      -2.319   5.724  -9.827  1.00  0.00     0.022 A 
BRANCH  80  84
ATOM     84  S   UNL     1      -1.615   7.209 -12.078  1.00  0.00     0.124 S 
ATOM     85  O   UNL     1      -2.513   8.334 -12.313  1.00  0.00    -0.237 OA
ATOM     86  O   UNL     1      -0.188   7.494 -12.182  1.00  0.00    -0.237 OA
ATOM     87  O   UNL     1      -2.038   5.939 -12.664  1.00  0.00    -0.744 OA
ENDBRANCH  80  84
ENDBRANCH  53  77
BRANCH  65  88
ATOM     88  C   UNL     1      -4.522  14.193  -7.092  1.00  0.00     0.023 A 
ATOM     89  C   UNL     1      -5.859  13.765  -7.173  1.00  0.00     0.031 A 
ATOM     90  C   UNL     1      -4.170  15.383  -7.756  1.00  0.00     0.131 A 
ATOM     91  C   UNL     1      -6.781  14.492  -7.943  1.00  0.00     0.055 A 
ATOM     92  C   UNL     1      -5.106  16.136  -8.465  1.00  0.00     0.041 A 
ATOM     93  F   UNL     1      -2.907  15.838  -7.719  1.00  0.00    -0.206 F 
ATOM     94  C   UNL     1      -6.418  15.685  -8.573  1.00  0.00     0.022 A 
BRANCH  91  95
ATOM     95  S   UNL     1      -8.442  13.806  -8.192  1.00  0.00     0.124 S 
ATOM     96  O   UNL     1      -8.148  12.523  -8.822  1.00  0.00    -0.237 OA
ATOM     97  O   UNL     1      -8.962  13.744  -6.830  1.00  0.00    -0.237 OA
ATOM     98  O   UNL     1      -9.092  14.787  -9.059  1.00  0.00    -0.744 OA
ENDBRANCH  91  95
ENDBRANCH  65  88
ENDBRANCH  39  40
ENDBRANCH  32  34
ENDBRANCH  31  32
ENDBRANCH  30  31
ENDBRANCH  29  30
ENDBRANCH  28  29
ENDBRANCH   1  28
TORSDOF 22
