REMARK SMILES CC[C@@H]1CCCN(S(=O)(=O)c2cc(C(=O)OCCOCCOC(=O)c3ccc(-c4c5nc(c(-c6cc(S(=O)(=O)[O-])ccc6F)c6ccc([nH]6)c(-c6cc(S(=O)(=O)[O-])ccc6F)c6nc(c(-c7cc(S(=O)(=O)[O-])ccc7F)c7ccc4[nH]7)C=C6)C=C5)cc3)ccc2F)C1
REMARK SMILES IDX 19 1 18 2 17 3 16 4 14 5 15 6 13 7 11 8 12 9 90 10 89 11
REMARK SMILES IDX 91 12 88 13 8 14 9 15 10 16 7 17 3 18 4 19 92 20 5 21 6 22
REMARK SMILES IDX 2 23 1 24 20 25 21 26 22 27 23 28 24 29 25 30 26 31 87 32
REMARK SMILES IDX 27 33 86 34 28 35 29 36 30 37 80 38 31 39 85 40 79 41 81 42
REMARK SMILES IDX 32 43 84 44 78 45 77 46 33 48 65 49 45 50 64 51 46 52 49 53
REMARK SMILES IDX 63 54 82 55 47 56 48 57 62 59 83 60 50 61 34 62 35 63 43 64
REMARK SMILES IDX 36 65 42 66 44 67 41 68 37 69 38 70 39 71 40 72 66 73 67 74
REMARK SMILES IDX 75 75 68 76 74 77 76 78 73 79 69 80 70 81 71 82 72 83 51 84
REMARK SMILES IDX 52 85 60 86 53 87 59 88 61 89 58 90 54 91 55 92 56 93 57 94
REMARK H PARENT 81 47 49 58
REMARK Flexibility Score: inf
ROOT
ATOM      1  O   UNL     1      -6.760   7.566   4.006  1.00  0.00    -0.374 OA
ENDROOT
BRANCH   1   2
ATOM      2  C   UNL     1      -6.601   7.561   5.424  1.00  0.00     0.202 C 
BRANCH   2   3
ATOM      3  C   UNL     1      -5.595   6.568   6.017  1.00  0.00     0.261 C 
BRANCH   3   4
ATOM      4  O   UNL     1      -4.268   6.801   5.521  1.00  0.00    -0.460 OA
BRANCH   4   5
ATOM      5  C   UNL     1      -3.779   5.831   4.713  1.00  0.00     0.338 C 
ATOM      6  O   UNL     1      -4.277   4.743   4.478  1.00  0.00    -0.246 OA
BRANCH   5   7
ATOM      7  C   UNL     1      -2.601   6.346   3.974  1.00  0.00     0.061 A 
ATOM      8  C   UNL     1      -1.321   6.332   1.922  1.00  0.00     0.119 A 
ATOM      9  C   UNL     1      -2.389   5.851   2.681  1.00  0.00     0.040 A 
ATOM     10  C   UNL     1      -0.488   7.319   2.435  1.00  0.00     0.143 A 
ATOM     11  C   UNL     1      -0.689   7.809   3.724  1.00  0.00     0.041 A 
ATOM     12  F   UNL     1       0.557   7.785   1.739  1.00  0.00    -0.206 F 
ATOM     13  C   UNL     1      -1.749   7.327   4.498  1.00  0.00     0.019 A 
BRANCH   8  14
ATOM     14  S   UNL     1      -1.078   5.717   0.290  1.00  0.00     0.246 S 
ATOM     15  O   UNL     1      -0.433   6.726  -0.520  1.00  0.00    -0.207 OA
ATOM     16  O   UNL     1      -2.336   5.139  -0.144  1.00  0.00    -0.207 OA
BRANCH  14  17
ATOM     17  N   UNL     1       0.039   4.413   0.510  1.00  0.00    -0.197 NA
ATOM     18  C   UNL     1       1.048   2.366  -0.540  1.00  0.00     0.004 C 
ATOM     19  C   UNL     1       2.418   2.795   0.005  1.00  0.00     0.006 C 
ATOM     20  C   UNL     1       0.155   3.601  -0.740  1.00  0.00     0.106 C 
ATOM     21  C   UNL     1       2.284   3.657   1.255  1.00  0.00     0.017 C 
ATOM     22  C   UNL     1       1.376   4.853   1.007  1.00  0.00     0.102 C 
BRANCH  18  23
ATOM     23  C   UNL     1       0.361   1.295   0.334  1.00  0.00     0.001 C 
ATOM     24  C   UNL     1       0.968  -0.089   0.131  1.00  0.00     0.004 C 
ENDBRANCH  18  23
ENDBRANCH  14  17
ENDBRANCH   8  14
ENDBRANCH   5   7
ENDBRANCH   4   5
ENDBRANCH   3   4
ENDBRANCH   2   3
ENDBRANCH   1   2
BRANCH   1  25
ATOM     25  C   UNL     1      -5.759   8.213   3.222  1.00  0.00     0.202 C 
BRANCH  25  26
ATOM     26  C   UNL     1      -5.718   9.747   3.217  1.00  0.00     0.261 C 
BRANCH  26  27
ATOM     27  O   UNL     1      -5.465  10.315   4.513  1.00  0.00    -0.460 OA
BRANCH  27  28
ATOM     28  C   UNL     1      -6.548  10.906   5.079  1.00  0.00     0.338 C 
ATOM     29  O   UNL     1      -7.655  11.035   4.584  1.00  0.00    -0.246 OA
BRANCH  28  30
ATOM     30  C   UNL     1      -6.272  11.225   6.492  1.00  0.00     0.060 A 
ATOM     31  C   UNL     1      -7.151  10.709   7.452  1.00  0.00     0.016 A 
ATOM     32  C   UNL     1      -5.231  12.077   6.864  1.00  0.00     0.016 A 
ATOM     33  C   UNL     1      -7.025  11.087   8.786  1.00  0.00     0.010 A 
ATOM     34  C   UNL     1      -5.110  12.460   8.205  1.00  0.00     0.010 A 
ATOM     35  C   UNL     1      -6.029  11.996   9.165  1.00  0.00    -0.014 A 
BRANCH  35  36
ATOM     36  C   UNL     1      -6.040  12.555  10.539  1.00  0.00     0.031 A 
ATOM     37  C   UNL     1      -6.560  13.949  10.760  1.00  0.00     0.074 A 
ATOM     38  C   UNL     1      -5.633  11.810  11.583  1.00  0.00     0.049 A 
ATOM     39  N   UNL     1      -6.636  14.637  11.870  1.00  0.00    -0.248 NA
ATOM     40  C   UNL     1      -7.060  14.663   9.574  1.00  0.00     0.031 C 
ATOM     41  C   UNL     1      -5.154  10.431  11.495  1.00  0.00     0.029 A 
ATOM     42  N   UNL     1      -5.559  12.108  12.920  1.00  0.00    -0.354 N 
ATOM     43  C   UNL     1      -7.176  15.869  11.516  1.00  0.00     0.074 A 
ATOM     44  C   UNL     1      -7.385  15.842  10.084  1.00  0.00     0.031 C 
ATOM     45  C   UNL     1      -4.838  10.001  12.728  1.00  0.00     0.029 A 
ATOM     46  C   UNL     1      -5.050  11.086  13.685  1.00  0.00     0.049 A 
ATOM     47  H   UNL     1      -5.845  12.972  13.296  1.00  0.00     0.167 HD
ATOM     48  C   UNL     1      -7.473  16.921  12.316  1.00  0.00     0.034 A 
ATOM     49  C   UNL     1      -4.759  11.036  15.001  1.00  0.00     0.034 A 
ATOM     50  C   UNL     1      -7.270  16.926  13.743  1.00  0.00     0.049 A 
ATOM     51  C   UNL     1      -5.031  12.241  15.861  1.00  0.00     0.074 A 
ATOM     52  C   UNL     1      -7.582  17.925  14.649  1.00  0.00     0.029 A 
ATOM     53  N   UNL     1      -6.692  15.895  14.471  1.00  0.00    -0.354 N 
ATOM     54  N   UNL     1      -5.538  13.401  15.514  1.00  0.00    -0.248 NA
ATOM     55  C   UNL     1      -4.693  12.134  17.287  1.00  0.00     0.031 C 
ATOM     56  C   UNL     1      -7.116  17.535  15.907  1.00  0.00     0.029 A 
ATOM     57  C   UNL     1      -6.593  16.255  15.806  1.00  0.00     0.049 A 
ATOM     58  H   UNL     1      -6.396  15.035  14.095  1.00  0.00     0.167 HD
ATOM     59  C   UNL     1      -5.595  14.158  16.682  1.00  0.00     0.074 A 
ATOM     60  C   UNL     1      -5.073  13.321  17.744  1.00  0.00     0.031 C 
ATOM     61  C   UNL     1      -6.049  15.425  16.855  1.00  0.00     0.034 A 
BRANCH  48  62
ATOM     62  C   UNL     1      -7.998  18.175  11.665  1.00  0.00     0.023 A 
ATOM     63  C   UNL     1      -9.261  18.229  11.053  1.00  0.00     0.031 A 
ATOM     64  C   UNL     1      -7.221  19.348  11.681  1.00  0.00     0.131 A 
ATOM     65  C   UNL     1      -9.694  19.419  10.448  1.00  0.00     0.055 A 
ATOM     66  C   UNL     1      -7.683  20.546  11.136  1.00  0.00     0.041 A 
ATOM     67  F   UNL     1      -5.997  19.348  12.233  1.00  0.00    -0.206 F 
ATOM     68  C   UNL     1      -8.924  20.584  10.508  1.00  0.00     0.022 A 
BRANCH  65  69
ATOM     69  S   UNL     1     -11.243  19.406   9.505  1.00  0.00     0.124 S 
ATOM     70  O   UNL     1     -10.935  18.446   8.448  1.00  0.00    -0.237 OA
ATOM     71  O   UNL     1     -12.216  18.970  10.500  1.00  0.00    -0.237 OA
ATOM     72  O   UNL     1     -11.385  20.791   9.059  1.00  0.00    -0.744 OA
ENDBRANCH  65  69
ENDBRANCH  48  62
BRANCH  49  73
ATOM     73  C   UNL     1      -4.134   9.806  15.560  1.00  0.00     0.023 A 
ATOM     74  C   UNL     1      -4.845   8.947  16.410  1.00  0.00     0.031 A 
ATOM     75  C   UNL     1      -2.820   9.453  15.205  1.00  0.00     0.131 A 
ATOM     76  C   UNL     1      -4.235   7.771  16.878  1.00  0.00     0.055 A 
ATOM     77  C   UNL     1      -2.231   8.267  15.645  1.00  0.00     0.041 A 
ATOM     78  F   UNL     1      -2.104  10.240  14.386  1.00  0.00    -0.206 F 
ATOM     79  C   UNL     1      -2.940   7.419  16.488  1.00  0.00     0.022 A 
BRANCH  76  80
ATOM     80  S   UNL     1      -5.161   6.694  18.006  1.00  0.00     0.124 S 
ATOM     81  O   UNL     1      -5.274   7.534  19.193  1.00  0.00    -0.237 OA
ATOM     82  O   UNL     1      -6.395   6.461  17.263  1.00  0.00    -0.237 OA
ATOM     83  O   UNL     1      -4.295   5.525  18.147  1.00  0.00    -0.744 OA
ENDBRANCH  76  80
ENDBRANCH  49  73
BRANCH  61  84
ATOM     84  C   UNL     1      -6.027  15.994  18.251  1.00  0.00     0.023 A 
ATOM     85  C   UNL     1      -4.824  16.348  18.884  1.00  0.00     0.031 A 
ATOM     86  C   UNL     1      -7.234  16.250  18.927  1.00  0.00     0.131 A 
ATOM     87  C   UNL     1      -4.854  16.922  20.165  1.00  0.00     0.055 A 
ATOM     88  C   UNL     1      -7.260  16.866  20.178  1.00  0.00     0.041 A 
ATOM     89  F   UNL     1      -8.412  15.933  18.364  1.00  0.00    -0.206 F 
ATOM     90  C   UNL     1      -6.065  17.202  20.806  1.00  0.00     0.022 A 
BRANCH  87  91
ATOM     91  S   UNL     1      -3.284  17.274  21.002  1.00  0.00     0.124 S 
ATOM     92  O   UNL     1      -2.723  15.936  21.164  1.00  0.00    -0.237 OA
ATOM     93  O   UNL     1      -2.603  18.140  20.046  1.00  0.00    -0.237 OA
ATOM     94  O   UNL     1      -3.696  17.927  22.244  1.00  0.00    -0.744 OA
ENDBRANCH  87  91
ENDBRANCH  61  84
ENDBRANCH  35  36
ENDBRANCH  28  30
ENDBRANCH  27  28
ENDBRANCH  26  27
ENDBRANCH  25  26
ENDBRANCH   1  25
TORSDOF 20
