REMARK SMILES C[C@@H](C(=O)OCCOCCOC(=O)c1ccc(-c2c3nc(c(-c4cc(S(=O)(=O)[O-])ccc4F)c4ccc([nH]4)c(-c4cc(S(=O)(=O)[O-])ccc4F)c4nc(c(-c5cc(S(=O)(=O)[O-])ccc5F)c5ccc2[nH]5)C=C4)C=C3)cc1)c1ccc(N[C@H]2CCC[C@@H]2O)cc1F
REMARK SMILES IDX 7 1 6 2 5 3 3 4 4 5 2 6 1 7 77 8 78 9 89 10 79 11 88 12
REMARK SMILES IDX 90 13 80 14 81 15 82 17 83 18 86 19 84 20 85 21 87 22 8 24
REMARK SMILES IDX 9 25 10 26 11 27 12 28 13 29 14 30 15 31 76 32 16 33 75 34
REMARK SMILES IDX 17 35 18 36 19 37 69 38 20 39 74 40 68 41 70 42 21 43 73 44
REMARK SMILES IDX 67 45 66 46 22 48 54 49 34 50 53 51 35 52 38 53 52 54 71 55
REMARK SMILES IDX 36 56 37 57 51 59 72 60 39 61 23 62 24 63 32 64 25 65 31 66
REMARK SMILES IDX 33 67 30 68 26 69 27 70 28 71 29 72 55 73 56 74 64 75 57 76
REMARK SMILES IDX 63 77 65 78 62 79 58 80 59 81 60 82 61 83 40 84 41 85 49 86
REMARK SMILES IDX 42 87 48 88 50 89 47 90 43 91 44 92 45 93 46 94
REMARK H PARENT 81 16 87 23 70 47 38 58
REMARK Flexibility Score: inf
ROOT
ATOM      1  C   UNL     1       2.134  -3.768   2.885  1.00  0.00     0.202 C 
ENDROOT
BRANCH   1   2
ATOM      2  C   UNL     1       2.501  -3.910   1.405  1.00  0.00     0.261 C 
BRANCH   2   3
ATOM      3  O   UNL     1       2.083  -2.771   0.637  1.00  0.00    -0.463 OA
BRANCH   3   4
ATOM      4  C   UNL     1       1.210  -3.030  -0.379  1.00  0.00     0.313 C 
ATOM      5  O   UNL     1       0.925  -4.161  -0.753  1.00  0.00    -0.252 OA
BRANCH   4   6
ATOM      6  C   UNL     1       0.615  -1.748  -0.990  1.00  0.00     0.129 C 
ATOM      7  C   UNL     1       1.481  -0.516  -0.671  1.00  0.00     0.025 C 
BRANCH   6   8
ATOM      8  C   UNL     1      -0.880  -1.564  -0.702  1.00  0.00     0.002 A 
ATOM      9  C   UNL     1      -1.433  -0.366  -0.222  1.00  0.00     0.010 A 
ATOM     10  C   UNL     1      -1.792  -2.584  -0.989  1.00  0.00     0.129 A 
ATOM     11  C   UNL     1      -2.823  -0.218  -0.032  1.00  0.00     0.026 A 
ATOM     12  C   UNL     1      -3.164  -2.450  -0.758  1.00  0.00     0.065 A 
ATOM     13  F   UNL     1      -1.386  -3.722  -1.564  1.00  0.00    -0.207 F 
ATOM     14  C   UNL     1      -3.715  -1.260  -0.280  1.00  0.00     0.037 A 
BRANCH  14  15
ATOM     15  N   UNL     1      -5.085  -1.177  -0.169  1.00  0.00    -0.380 N 
ATOM     16  H   UNL     1      -5.553  -2.043  -0.160  1.00  0.00     0.160 HD
BRANCH  15  17
ATOM     17  C   UNL     1      -5.953  -0.011  -0.063  1.00  0.00     0.107 C 
ATOM     18  C   UNL     1      -5.825   0.768   1.249  1.00  0.00     0.027 C 
ATOM     19  C   UNL     1      -5.778   1.019  -1.192  1.00  0.00     0.136 C 
ATOM     20  C   UNL     1      -5.821   2.247   0.849  1.00  0.00     0.005 C 
ATOM     21  C   UNL     1      -6.359   2.281  -0.574  1.00  0.00     0.034 C 
BRANCH  19  22
ATOM     22  O   UNL     1      -6.489   0.664  -2.370  1.00  0.00    -0.391 OA
ATOM     23  H   UNL     1      -7.431   0.562  -2.161  1.00  0.00     0.211 HD
ENDBRANCH  19  22
ENDBRANCH  15  17
ENDBRANCH  14  15
ENDBRANCH   6   8
ENDBRANCH   4   6
ENDBRANCH   3   4
ENDBRANCH   2   3
ENDBRANCH   1   2
BRANCH   1  24
ATOM     24  O   UNL     1       0.805  -3.351   3.189  1.00  0.00    -0.374 OA
BRANCH  24  25
ATOM     25  C   UNL     1       0.466  -1.981   2.964  1.00  0.00     0.202 C 
BRANCH  25  26
ATOM     26  C   UNL     1       1.160  -0.921   3.830  1.00  0.00     0.261 C 
BRANCH  26  27
ATOM     27  O   UNL     1       2.570  -0.810   3.552  1.00  0.00    -0.460 OA
BRANCH  27  28
ATOM     28  C   UNL     1       3.376  -1.063   4.614  1.00  0.00     0.338 C 
ATOM     29  O   UNL     1       3.022  -1.298   5.763  1.00  0.00    -0.246 OA
BRANCH  28  30
ATOM     30  C   UNL     1       4.774  -1.221   4.174  1.00  0.00     0.060 A 
ATOM     31  C   UNL     1       5.412  -2.434   4.464  1.00  0.00     0.016 A 
ATOM     32  C   UNL     1       5.479  -0.172   3.580  1.00  0.00     0.016 A 
ATOM     33  C   UNL     1       6.772  -2.589   4.200  1.00  0.00     0.010 A 
ATOM     34  C   UNL     1       6.848  -0.327   3.327  1.00  0.00     0.010 A 
ATOM     35  C   UNL     1       7.508  -1.522   3.668  1.00  0.00    -0.014 A 
BRANCH  35  36
ATOM     36  C   UNL     1       8.989  -1.611   3.622  1.00  0.00     0.031 A 
ATOM     37  C   UNL     1       9.790  -0.951   4.712  1.00  0.00     0.074 A 
ATOM     38  C   UNL     1       9.610  -2.305   2.652  1.00  0.00     0.049 A 
ATOM     39  N   UNL     1      11.087  -0.871   4.860  1.00  0.00    -0.248 NA
ATOM     40  C   UNL     1       9.020  -0.291   5.777  1.00  0.00     0.031 C 
ATOM     41  C   UNL     1       8.939  -3.029   1.573  1.00  0.00     0.029 A 
ATOM     42  N   UNL     1      10.946  -2.511   2.415  1.00  0.00    -0.354 N 
ATOM     43  C   UNL     1      11.291  -0.153   6.035  1.00  0.00     0.074 A 
ATOM     44  C   UNL     1       9.982   0.215   6.533  1.00  0.00     0.031 C 
ATOM     45  C   UNL     1       9.869  -3.590   0.781  1.00  0.00     0.029 A 
ATOM     46  C   UNL     1      11.199  -3.235   1.274  1.00  0.00     0.049 A 
ATOM     47  H   UNL     1      11.657  -2.172   3.007  1.00  0.00     0.167 HD
ATOM     48  C   UNL     1      12.461   0.160   6.646  1.00  0.00     0.034 A 
ATOM     49  C   UNL     1      12.369  -3.551   0.681  1.00  0.00     0.034 A 
ATOM     50  C   UNL     1      13.759  -0.199   6.127  1.00  0.00     0.049 A 
ATOM     51  C   UNL     1      13.661  -3.111   1.328  1.00  0.00     0.074 A 
ATOM     52  C   UNL     1      15.007   0.065   6.664  1.00  0.00     0.029 A 
ATOM     53  N   UNL     1      13.977  -0.891   4.942  1.00  0.00    -0.354 N 
ATOM     54  N   UNL     1      13.841  -2.432   2.438  1.00  0.00    -0.248 NA
ATOM     55  C   UNL     1      14.906  -3.489   0.646  1.00  0.00     0.031 C 
ATOM     56  C   UNL     1      15.978  -0.402   5.771  1.00  0.00     0.029 A 
ATOM     57  C   UNL     1      15.338  -1.032   4.715  1.00  0.00     0.049 A 
ATOM     58  H   UNL     1      13.269  -1.232   4.349  1.00  0.00     0.167 HD
ATOM     59  C   UNL     1      15.221  -2.328   2.601  1.00  0.00     0.074 A 
ATOM     60  C   UNL     1      15.823  -3.025   1.483  1.00  0.00     0.031 C 
ATOM     61  C   UNL     1      15.927  -1.718   3.587  1.00  0.00     0.034 A 
BRANCH  48  62
ATOM     62  C   UNL     1      12.380   0.978   7.914  1.00  0.00     0.023 A 
ATOM     63  C   UNL     1      11.761   0.484   9.075  1.00  0.00     0.031 A 
ATOM     64  C   UNL     1      12.897   2.285   7.950  1.00  0.00     0.131 A 
ATOM     65  C   UNL     1      11.607   1.316  10.195  1.00  0.00     0.055 A 
ATOM     66  C   UNL     1      12.814   3.079   9.095  1.00  0.00     0.041 A 
ATOM     67  F   UNL     1      13.479   2.820   6.865  1.00  0.00    -0.206 F 
ATOM     68  C   UNL     1      12.152   2.602  10.222  1.00  0.00     0.022 A 
BRANCH  65  69
ATOM     69  S   UNL     1      10.557   0.748  11.561  1.00  0.00     0.124 S 
ATOM     70  O   UNL     1       9.284   0.523  10.880  1.00  0.00    -0.237 OA
ATOM     71  O   UNL     1      11.256  -0.446  12.021  1.00  0.00    -0.237 OA
ATOM     72  O   UNL     1      10.565   1.874  12.492  1.00  0.00    -0.744 OA
ENDBRANCH  65  69
ENDBRANCH  48  62
BRANCH  49  73
ATOM     73  C   UNL     1      12.380  -4.280  -0.620  1.00  0.00     0.023 A 
ATOM     74  C   UNL     1      12.948  -5.558  -0.738  1.00  0.00     0.031 A 
ATOM     75  C   UNL     1      11.865  -3.679  -1.783  1.00  0.00     0.131 A 
ATOM     76  C   UNL     1      13.026  -6.176  -1.996  1.00  0.00     0.055 A 
ATOM     77  C   UNL     1      11.897  -4.319  -3.023  1.00  0.00     0.041 A 
ATOM     78  F   UNL     1      11.312  -2.456  -1.727  1.00  0.00    -0.206 F 
ATOM     79  C   UNL     1      12.492  -5.570  -3.137  1.00  0.00     0.022 A 
BRANCH  76  80
ATOM     80  S   UNL     1      13.913  -7.752  -2.139  1.00  0.00     0.124 S 
ATOM     81  O   UNL     1      15.240  -7.390  -1.654  1.00  0.00    -0.237 OA
ATOM     82  O   UNL     1      13.127  -8.621  -1.270  1.00  0.00    -0.237 OA
ATOM     83  O   UNL     1      13.832  -8.060  -3.565  1.00  0.00    -0.744 OA
ENDBRANCH  76  80
ENDBRANCH  49  73
BRANCH  61  84
ATOM     84  C   UNL     1      17.432  -1.820   3.521  1.00  0.00     0.023 A 
ATOM     85  C   UNL     1      18.175  -1.194   2.504  1.00  0.00     0.031 A 
ATOM     86  C   UNL     1      18.133  -2.563   4.489  1.00  0.00     0.131 A 
ATOM     87  C   UNL     1      19.567  -1.368   2.447  1.00  0.00     0.055 A 
ATOM     88  C   UNL     1      19.523  -2.682   4.461  1.00  0.00     0.041 A 
ATOM     89  F   UNL     1      17.475  -3.183   5.481  1.00  0.00    -0.206 F 
ATOM     90  C   UNL     1      20.247  -2.093   3.429  1.00  0.00     0.022 A 
BRANCH  87  91
ATOM     91  S   UNL     1      20.471  -0.706   1.020  1.00  0.00     0.124 S 
ATOM     92  O   UNL     1      19.816  -1.384  -0.095  1.00  0.00    -0.237 OA
ATOM     93  O   UNL     1      20.221   0.728   1.129  1.00  0.00    -0.237 OA
ATOM     94  O   UNL     1      21.852  -1.115   1.269  1.00  0.00    -0.744 OA
ENDBRANCH  87  91
ENDBRANCH  61  84
ENDBRANCH  35  36
ENDBRANCH  28  30
ENDBRANCH  27  28
ENDBRANCH  26  27
ENDBRANCH  25  26
ENDBRANCH  24  25
ENDBRANCH   1  24
TORSDOF 21
