REMARK SMILES C[C@@](CC(=O)Nc1ccc(NC(=O)c2ccco2)cc1)(C(=O)OCCOCCOC(=O)c1ccc(-c2c3nc(c(-c4cc(S(=O)(=O)[O-])ccc4F)c4ccc([nH]4)c(-c4cc(S(=O)(=O)[O-])ccc4F)c4nc(c(-c5cc(S(=O)(=O)[O-])ccc5F)c5ccc2[nH]5)C=C4)C=C3)cc1)c1ccccc1
REMARK SMILES IDX 25 1 24 2 23 3 21 4 22 5 2 6 1 7 3 8 4 9 5 10 6 11 7 13 8 14
REMARK SMILES IDX 20 15 9 16 19 17 10 18 11 19 12 20 13 22 14 23 15 24 18 25
REMARK SMILES IDX 16 26 17 27 95 28 96 29 100 30 97 31 99 32 98 33 26 34 27 35
REMARK SMILES IDX 28 36 29 37 30 38 31 39 32 40 33 41 94 42 34 43 93 44 35 45
REMARK SMILES IDX 36 46 37 47 87 48 38 49 92 50 86 51 88 52 39 53 91 54 85 55
REMARK SMILES IDX 84 56 40 58 72 59 52 60 71 61 53 62 56 63 70 64 89 65 54 66
REMARK SMILES IDX 55 67 69 69 90 70 57 71 41 72 42 73 50 74 43 75 49 76 51 77
REMARK SMILES IDX 48 78 44 79 45 80 46 81 47 82 73 83 74 84 82 85 75 86 81 87
REMARK SMILES IDX 83 88 80 89 76 90 77 91 78 92 79 93 58 94 59 95 67 96 60 97
REMARK SMILES IDX 66 98 68 99 65 100 61 101 62 102 63 103 64 104
REMARK H PARENT 6 12 11 21 88 57 56 68
REMARK Flexibility Score: inf
ROOT
ATOM      1  C   UNL     1      -4.033  -0.802   0.217  1.00  0.00     0.202 C 
ENDROOT
BRANCH   1   2
ATOM      2  C   UNL     1      -3.168  -1.855   0.916  1.00  0.00     0.261 C 
BRANCH   2   3
ATOM      3  O   UNL     1      -1.782  -1.528   0.717  1.00  0.00    -0.463 OA
BRANCH   3   4
ATOM      4  C   UNL     1      -0.911  -2.576   0.676  1.00  0.00     0.316 C 
ATOM      5  O   UNL     1      -1.222  -3.709   1.017  1.00  0.00    -0.251 OA
BRANCH   4   6
ATOM      6  C   UNL     1       0.499  -2.120   0.185  1.00  0.00     0.099 C 
ATOM      7  C   UNL     1       0.353  -0.870  -0.723  1.00  0.00     0.029 C 
BRANCH   6   8
ATOM      8  C   UNL     1       1.353  -1.755   1.425  1.00  0.00     0.123 C 
BRANCH   8   9
ATOM      9  C   UNL     1       0.631  -1.085   2.609  1.00  0.00     0.225 C 
ATOM     10  O   UNL     1      -0.109  -1.746   3.341  1.00  0.00    -0.275 OA
ATOM     11  N   UNL     1       0.921   0.207   2.977  1.00  0.00    -0.326 N 
ATOM     12  H   UNL     1       0.659   0.465   3.890  1.00  0.00     0.169 HD
BRANCH  11  13
ATOM     13  C   UNL     1       1.542   1.197   2.216  1.00  0.00     0.041 A 
ATOM     14  C   UNL     1       2.704   1.799   2.665  1.00  0.00     0.028 A 
ATOM     15  C   UNL     1       0.986   1.626   1.022  1.00  0.00     0.028 A 
ATOM     16  C   UNL     1       3.438   2.609   1.788  1.00  0.00     0.028 A 
ATOM     17  C   UNL     1       1.734   2.394   0.130  1.00  0.00     0.028 A 
ATOM     18  C   UNL     1       3.024   2.804   0.470  1.00  0.00     0.041 A 
BRANCH  18  19
ATOM     19  N   UNL     1       3.814   3.294  -0.587  1.00  0.00    -0.319 N 
ATOM     20  C   UNL     1       5.148   3.630  -0.697  1.00  0.00     0.291 C 
ATOM     21  H   UNL     1       3.310   3.423  -1.423  1.00  0.00     0.170 HD
ATOM     22  O   UNL     1       5.601   3.783  -1.834  1.00  0.00    -0.265 OA
BRANCH  20  23
ATOM     23  C   UNL     1       5.953   3.795   0.481  1.00  0.00     0.191 A 
ATOM     24  C   UNL     1       6.720   2.916   1.224  1.00  0.00     0.056 A 
ATOM     25  O   UNL     1       6.006   5.040   1.044  1.00  0.00    -0.459 OA
ATOM     26  C   UNL     1       7.212   3.653   2.331  1.00  0.00     0.043 A 
ATOM     27  C   UNL     1       6.769   4.944   2.160  1.00  0.00     0.196 A 
ENDBRANCH  20  23
ENDBRANCH  18  19
ENDBRANCH  11  13
ENDBRANCH   8   9
ENDBRANCH   6   8
BRANCH   6  28
ATOM     28  C   UNL     1       1.224  -3.158  -0.747  1.00  0.00    -0.030 A 
ATOM     29  C   UNL     1       0.801  -4.489  -0.892  1.00  0.00     0.005 A 
ATOM     30  C   UNL     1       2.255  -2.732  -1.621  1.00  0.00     0.005 A 
ATOM     31  C   UNL     1       1.267  -5.298  -1.937  1.00  0.00     0.000 A 
ATOM     32  C   UNL     1       2.704  -3.530  -2.679  1.00  0.00     0.000 A 
ATOM     33  C   UNL     1       2.189  -4.806  -2.853  1.00  0.00     0.000 A 
ENDBRANCH   6  28
ENDBRANCH   4   6
ENDBRANCH   3   4
ENDBRANCH   2   3
ENDBRANCH   1   2
BRANCH   1  34
ATOM     34  O   UNL     1      -4.085  -0.870  -1.215  1.00  0.00    -0.374 OA
BRANCH  34  35
ATOM     35  C   UNL     1      -2.879  -0.619  -1.928  1.00  0.00     0.202 C 
BRANCH  35  36
ATOM     36  C   UNL     1      -2.455   0.851  -2.106  1.00  0.00     0.261 C 
BRANCH  36  37
ATOM     37  O   UNL     1      -2.610   1.648  -0.922  1.00  0.00    -0.460 OA
BRANCH  37  38
ATOM     38  C   UNL     1      -3.714   2.438  -0.953  1.00  0.00     0.338 C 
ATOM     39  O   UNL     1      -4.454   2.621  -1.911  1.00  0.00    -0.246 OA
BRANCH  38  40
ATOM     40  C   UNL     1      -4.040   2.949   0.389  1.00  0.00     0.060 A 
ATOM     41  C   UNL     1      -5.319   2.656   0.875  1.00  0.00     0.016 A 
ATOM     42  C   UNL     1      -3.179   3.780   1.112  1.00  0.00     0.016 A 
ATOM     43  C   UNL     1      -5.768   3.243   2.053  1.00  0.00     0.010 A 
ATOM     44  C   UNL     1      -3.636   4.374   2.299  1.00  0.00     0.010 A 
ATOM     45  C   UNL     1      -4.949   4.142   2.751  1.00  0.00    -0.014 A 
BRANCH  45  46
ATOM     46  C   UNL     1      -5.559   4.928   3.855  1.00  0.00     0.031 A 
ATOM     47  C   UNL     1      -6.037   6.330   3.582  1.00  0.00     0.074 A 
ATOM     48  C   UNL     1      -5.797   4.354   5.049  1.00  0.00     0.049 A 
ATOM     49  N   UNL     1      -6.711   7.144   4.355  1.00  0.00    -0.248 NA
ATOM     50  C   UNL     1      -5.716   6.886   2.259  1.00  0.00     0.031 C 
ATOM     51  C   UNL     1      -5.407   2.994   5.421  1.00  0.00     0.029 A 
ATOM     52  N   UNL     1      -6.443   4.834   6.160  1.00  0.00    -0.354 N 
ATOM     53  C   UNL     1      -6.916   8.298   3.606  1.00  0.00     0.074 A 
ATOM     54  C   UNL     1      -6.242   8.099   2.340  1.00  0.00     0.031 C 
ATOM     55  C   UNL     1      -5.830   2.747   6.673  1.00  0.00     0.029 A 
ATOM     56  C   UNL     1      -6.504   3.933   7.197  1.00  0.00     0.049 A 
ATOM     57  H   UNL     1      -6.827   5.740   6.211  1.00  0.00     0.167 HD
ATOM     58  C   UNL     1      -7.620   9.411   3.932  1.00  0.00     0.034 A 
ATOM     59  C   UNL     1      -7.040   4.051   8.429  1.00  0.00     0.034 A 
ATOM     60  C   UNL     1      -8.268   9.610   5.206  1.00  0.00     0.049 A 
ATOM     61  C   UNL     1      -7.765   5.324   8.793  1.00  0.00     0.074 A 
ATOM     62  C   UNL     1      -8.992  10.705   5.647  1.00  0.00     0.029 A 
ATOM     63  N   UNL     1      -8.266   8.694   6.251  1.00  0.00    -0.354 N 
ATOM     64  N   UNL     1      -7.963   6.401   8.066  1.00  0.00    -0.248 NA
ATOM     65  C   UNL     1      -8.359   5.387  10.134  1.00  0.00     0.031 C 
ATOM     66  C   UNL     1      -9.372  10.478   6.975  1.00  0.00     0.029 A 
ATOM     67  C   UNL     1      -8.951   9.210   7.342  1.00  0.00     0.049 A 
ATOM     68  H   UNL     1      -7.839   7.807   6.222  1.00  0.00     0.167 HD
ATOM     69  C   UNL     1      -8.721   7.259   8.859  1.00  0.00     0.074 A 
ATOM     70  C   UNL     1      -8.971   6.560  10.103  1.00  0.00     0.031 C 
ATOM     71  C   UNL     1      -9.170   8.513   8.588  1.00  0.00     0.034 A 
BRANCH  58  72
ATOM     72  C   UNL     1      -7.685  10.513   2.901  1.00  0.00     0.023 A 
ATOM     73  C   UNL     1      -8.333  10.330   1.666  1.00  0.00     0.031 A 
ATOM     74  C   UNL     1      -7.069  11.754   3.142  1.00  0.00     0.131 A 
ATOM     75  C   UNL     1      -8.296  11.345   0.697  1.00  0.00     0.055 A 
ATOM     76  C   UNL     1      -7.099  12.786   2.202  1.00  0.00     0.041 A 
ATOM     77  F   UNL     1      -6.415  11.979   4.292  1.00  0.00    -0.206 F 
ATOM     78  C   UNL     1      -7.703  12.581   0.966  1.00  0.00     0.022 A 
BRANCH  75  79
ATOM     79  S   UNL     1      -8.917  10.981  -0.968  1.00  0.00     0.124 S 
ATOM     80  O   UNL     1      -8.058   9.869  -1.367  1.00  0.00    -0.237 OA
ATOM     81  O   UNL     1     -10.316  10.652  -0.719  1.00  0.00    -0.237 OA
ATOM     82  O   UNL     1      -8.690  12.227  -1.698  1.00  0.00    -0.744 OA
ENDBRANCH  75  79
ENDBRANCH  58  72
BRANCH  59  83
ATOM     83  C   UNL     1      -6.889   2.952   9.426  1.00  0.00     0.023 A 
ATOM     84  C   UNL     1      -8.000   2.267   9.943  1.00  0.00     0.031 A 
ATOM     85  C   UNL     1      -5.617   2.615   9.925  1.00  0.00     0.131 A 
ATOM     86  C   UNL     1      -7.824   1.318  10.963  1.00  0.00     0.055 A 
ATOM     87  C   UNL     1      -5.442   1.633  10.900  1.00  0.00     0.041 A 
ATOM     88  F   UNL     1      -4.521   3.240   9.466  1.00  0.00    -0.206 F 
ATOM     89  C   UNL     1      -6.551   0.988  11.436  1.00  0.00     0.022 A 
BRANCH  86  90
ATOM     90  S   UNL     1      -9.293   0.585  11.735  1.00  0.00     0.124 S 
ATOM     91  O   UNL     1     -10.010   1.768  12.196  1.00  0.00    -0.237 OA
ATOM     92  O   UNL     1      -9.894  -0.134  10.617  1.00  0.00    -0.237 OA
ATOM     93  O   UNL     1      -8.738  -0.260  12.790  1.00  0.00    -0.744 OA
ENDBRANCH  86  90
ENDBRANCH  59  83
BRANCH  71  94
ATOM     94  C   UNL     1      -9.994   9.188   9.660  1.00  0.00     0.023 A 
ATOM     95  C   UNL     1      -9.441   9.526  10.909  1.00  0.00     0.031 A 
ATOM     96  C   UNL     1     -11.357   9.457   9.447  1.00  0.00     0.131 A 
ATOM     97  C   UNL     1     -10.263  10.043  11.921  1.00  0.00     0.055 A 
ATOM     98  C   UNL     1     -12.156  10.034  10.437  1.00  0.00     0.041 A 
ATOM     99  F   UNL     1     -11.939   9.157   8.275  1.00  0.00    -0.206 F 
ATOM    100  C   UNL     1     -11.614  10.312  11.689  1.00  0.00     0.022 A 
BRANCH  97 101
ATOM    101  S   UNL     1      -9.570  10.244  13.586  1.00  0.00     0.124 S 
ATOM    102  O   UNL     1      -9.080   8.900  13.875  1.00  0.00    -0.237 OA
ATOM    103  O   UNL     1      -8.547  11.263  13.376  1.00  0.00    -0.237 OA
ATOM    104  O   UNL     1     -10.716  10.671  14.386  1.00  0.00    -0.744 OA
ENDBRANCH  97 101
ENDBRANCH  71  94
ENDBRANCH  45  46
ENDBRANCH  38  40
ENDBRANCH  37  38
ENDBRANCH  36  37
ENDBRANCH  35  36
ENDBRANCH  34  35
ENDBRANCH   1  34
TORSDOF 23
