REMARK SMILES Cc1cc(/C=C2\C(=O)N(Cc3ccco3)C(=O)N=C2OCCOCCOC(=O)c2ccc(-c3c4nc(c(-c5cc(S(=O)(=O)[O-])ccc5F)c5ccc([nH]5)c(-c5cc(S(=O)(=O)[O-])ccc5F)c5nc(c(-c6cc(S(=O)(=O)[O-])ccc6F)c6ccc3[nH]6)C=C5)C=C4)cc2)c(C)n1-c1ccc(Cl)c(C(=O)[O-])c1
REMARK SMILES IDX 24 1 23 2 22 3 21 4 20 5 19 6 5 7 6 8 7 9 8 10 9 11 18 12
REMARK SMILES IDX 16 13 17 14 4 15 1 16 2 17 3 18 94 19 92 20 93 21 95 22
REMARK SMILES IDX 96 23 104 24 97 25 100 26 98 27 99 28 101 29 102 30 103 31
REMARK SMILES IDX 10 32 11 33 12 34 15 35 13 36 14 37 25 38 26 39 27 40 28 41
REMARK SMILES IDX 29 42 30 43 91 44 31 45 90 46 32 47 33 48 34 49 84 50 35 51
REMARK SMILES IDX 89 52 83 53 85 54 36 55 88 56 82 57 81 58 37 60 69 61 49 62
REMARK SMILES IDX 68 63 50 64 53 65 67 66 86 67 51 68 52 69 66 71 87 72 54 73
REMARK SMILES IDX 38 74 39 75 47 76 40 77 46 78 48 79 45 80 41 81 42 82 43 83
REMARK SMILES IDX 44 84 70 85 71 86 79 87 72 88 78 89 80 90 77 91 73 92 74 93
REMARK SMILES IDX 75 94 76 95 55 96 56 97 64 98 57 99 63 100 65 101 62 102
REMARK SMILES IDX 58 103 59 104 60 105 61 106
REMARK H PARENT 85 59 53 70
REMARK Flexibility Score: inf
ROOT
ATOM      1  C   UNL     1      -4.190  -0.117  -5.967  1.00  0.00     0.202 C 
ENDROOT
BRANCH   1   2
ATOM      2  O   UNL     1      -4.236  -0.255  -7.397  1.00  0.00    -0.374 OA
BRANCH   2   3
ATOM      3  C   UNL     1      -3.710  -1.476  -7.918  1.00  0.00     0.202 C 
BRANCH   3   4
ATOM      4  C   UNL     1      -2.209  -1.444  -8.272  1.00  0.00     0.260 C 
BRANCH   4   5
ATOM      5  O   UNL     1      -1.369  -0.990  -7.187  1.00  0.00    -0.475 OA
BRANCH   5   6
ATOM      6  C   UNL     1      -1.120   0.341  -7.135  1.00  0.00     0.231 C 
ATOM      7  C   UNL     1      -0.509   0.147  -4.748  1.00  0.00     0.029 C 
ATOM      8  C   UNL     1      -0.388   0.774  -5.936  1.00  0.00     0.103 C 
ATOM      9  C   UNL     1       0.308   2.070  -6.149  1.00  0.00     0.267 C 
ATOM     10  O   UNL     1       1.398   2.315  -5.704  1.00  0.00    -0.268 OA
ATOM     11  N   UNL     1      -0.477   2.934  -6.904  1.00  0.00    -0.250 N 
ATOM     12  N   UNL     1      -1.506   1.146  -8.065  1.00  0.00    -0.156 NA
ATOM     13  C   UNL     1      -1.373   2.487  -7.857  1.00  0.00     0.354 C 
ATOM     14  O   UNL     1      -2.055   3.285  -8.510  1.00  0.00    -0.245 OA
BRANCH   7  15
ATOM     15  C   UNL     1      -0.086   0.528  -3.424  1.00  0.00    -0.003 A 
ATOM     16  C   UNL     1       1.013  -0.232   0.061  1.00  0.00     0.065 C 
ATOM     17  C   UNL     1       0.625   0.300  -1.276  1.00  0.00     0.020 A 
ATOM     18  C   UNL     1       0.246  -0.402  -2.405  1.00  0.00     0.031 A 
ATOM     19  N   UNL     1       0.528   1.650  -1.566  1.00  0.00    -0.318 N 
ATOM     20  C   UNL     1      -0.029   1.790  -2.841  1.00  0.00     0.027 A 
ATOM     21  C   UNL     1      -0.340   3.127  -3.413  1.00  0.00     0.065 C 
BRANCH  19  22
ATOM     22  C   UNL     1       1.046   2.721  -0.781  1.00  0.00     0.046 A 
ATOM     23  C   UNL     1       0.253   3.829  -0.485  1.00  0.00     0.028 A 
ATOM     24  C   UNL     1       2.411   2.733  -0.465  1.00  0.00     0.038 A 
ATOM     25  C   UNL     1       0.842   4.991   0.008  1.00  0.00     0.023 A 
ATOM     26  C   UNL     1       3.012   3.898   0.056  1.00  0.00     0.018 A 
ATOM     27  C   UNL     1       2.220   5.042   0.256  1.00  0.00     0.050 A 
ATOM     28  Cl  UNL     1       2.833   6.571   0.780  1.00  0.00    -0.084 Cl
BRANCH  26  29
ATOM     29  C   UNL     1       4.474   3.899   0.332  1.00  0.00     0.073 C 
ATOM     30  O   UNL     1       5.189   4.843   0.636  1.00  0.00    -0.545 OA
ATOM     31  O   UNL     1       5.013   2.670   0.232  1.00  0.00    -0.545 OA
ENDBRANCH  26  29
ENDBRANCH  19  22
ENDBRANCH   7  15
BRANCH  11  32
ATOM     32  C   UNL     1      -0.371   4.360  -6.667  1.00  0.00     0.206 C 
BRANCH  32  33
ATOM     33  C   UNL     1       0.497   5.020  -7.664  1.00  0.00     0.123 A 
ATOM     34  C   UNL     1       0.309   5.413  -8.971  1.00  0.00     0.047 A 
ATOM     35  O   UNL     1       1.740   5.378  -7.238  1.00  0.00    -0.467 OA
ATOM     36  C   UNL     1       1.518   6.023  -9.376  1.00  0.00     0.042 A 
ATOM     37  C   UNL     1       2.355   5.978  -8.286  1.00  0.00     0.195 A 
ENDBRANCH  32  33
ENDBRANCH  11  32
ENDBRANCH   5   6
ENDBRANCH   4   5
ENDBRANCH   3   4
ENDBRANCH   2   3
ENDBRANCH   1   2
BRANCH   1  38
ATOM     38  C   UNL     1      -5.408  -0.687  -5.192  1.00  0.00     0.261 C 
BRANCH  38  39
ATOM     39  O   UNL     1      -5.127  -1.703  -4.155  1.00  0.00    -0.460 OA
BRANCH  39  40
ATOM     40  C   UNL     1      -5.773  -2.908  -4.296  1.00  0.00     0.338 C 
ATOM     41  O   UNL     1      -6.257  -3.262  -5.364  1.00  0.00    -0.246 OA
BRANCH  40  42
ATOM     42  C   UNL     1      -5.777  -3.856  -3.085  1.00  0.00     0.060 A 
ATOM     43  C   UNL     1      -5.439  -5.178  -3.322  1.00  0.00     0.016 A 
ATOM     44  C   UNL     1      -6.280  -3.613  -1.786  1.00  0.00     0.016 A 
ATOM     45  C   UNL     1      -5.568  -6.184  -2.306  1.00  0.00     0.010 A 
ATOM     46  C   UNL     1      -6.500  -4.684  -0.773  1.00  0.00     0.010 A 
ATOM     47  C   UNL     1      -6.172  -6.034  -0.998  1.00  0.00    -0.014 A 
BRANCH  47  48
ATOM     48  C   UNL     1      -6.675  -7.432  -0.231  1.00  0.00     0.031 A 
ATOM     49  C   UNL     1      -7.036  -8.305  -1.390  1.00  0.00     0.074 A 
ATOM     50  C   UNL     1      -6.995  -8.044   1.001  1.00  0.00     0.049 A 
ATOM     51  N   UNL     1      -7.899  -7.872  -2.266  1.00  0.00    -0.248 NA
ATOM     52  C   UNL     1      -6.195  -9.407  -1.864  1.00  0.00     0.031 C 
ATOM     53  C   UNL     1      -7.012  -7.435   2.344  1.00  0.00     0.029 A 
ATOM     54  N   UNL     1      -7.407  -9.391   1.370  1.00  0.00    -0.354 N 
ATOM     55  C   UNL     1      -7.947  -8.806  -3.266  1.00  0.00     0.074 A 
ATOM     56  C   UNL     1      -6.730  -9.589  -3.079  1.00  0.00     0.031 C 
ATOM     57  C   UNL     1      -7.245  -8.354   3.334  1.00  0.00     0.029 A 
ATOM     58  C   UNL     1      -7.479  -9.698   2.796  1.00  0.00     0.049 A 
ATOM     59  H   UNL     1      -7.627 -10.066   0.688  1.00  0.00     0.167 HD
ATOM     60  C   UNL     1      -9.194  -9.242  -3.604  1.00  0.00     0.034 A 
ATOM     61  C   UNL     1      -7.776 -10.877   3.511  1.00  0.00     0.034 A 
ATOM     62  C   UNL     1      -9.478 -10.515  -2.997  1.00  0.00     0.049 A 
ATOM     63  C   UNL     1      -8.610 -11.714   2.649  1.00  0.00     0.074 A 
ATOM     64  C   UNL     1      -8.751 -11.682  -2.874  1.00  0.00     0.029 A 
ATOM     65  N   UNL     1     -10.418 -10.525  -1.988  1.00  0.00    -0.354 N 
ATOM     66  N   UNL     1      -9.871 -11.473   2.483  1.00  0.00    -0.248 NA
ATOM     67  C   UNL     1      -8.102 -12.903   1.976  1.00  0.00     0.031 C 
ATOM     68  C   UNL     1      -8.931 -12.071  -1.527  1.00  0.00     0.029 A 
ATOM     69  C   UNL     1     -10.026 -11.398  -0.996  1.00  0.00     0.049 A 
ATOM     70  H   UNL     1     -11.244  -9.989  -1.978  1.00  0.00     0.167 HD
ATOM     71  C   UNL     1     -10.129 -12.077   1.294  1.00  0.00     0.074 A 
ATOM     72  C   UNL     1      -9.155 -13.150   1.194  1.00  0.00     0.031 C 
ATOM     73  C   UNL     1     -10.641 -11.290   0.314  1.00  0.00     0.034 A 
BRANCH  60  74
ATOM     74  C   UNL     1     -10.205  -8.133  -3.766  1.00  0.00     0.023 A 
ATOM     75  C   UNL     1     -10.677  -7.820  -5.046  1.00  0.00     0.031 A 
ATOM     76  C   UNL     1     -10.609  -7.299  -2.698  1.00  0.00     0.131 A 
ATOM     77  C   UNL     1     -11.457  -6.667  -5.240  1.00  0.00     0.055 A 
ATOM     78  C   UNL     1     -11.321  -6.119  -2.904  1.00  0.00     0.041 A 
ATOM     79  F   UNL     1     -10.315  -7.620  -1.428  1.00  0.00    -0.206 F 
ATOM     80  C   UNL     1     -11.742  -5.791  -4.186  1.00  0.00     0.022 A 
BRANCH  77  81
ATOM     81  S   UNL     1     -12.130  -6.340  -6.890  1.00  0.00     0.124 S 
ATOM     82  O   UNL     1     -10.924  -6.141  -7.688  1.00  0.00    -0.237 OA
ATOM     83  O   UNL     1     -12.874  -7.566  -7.168  1.00  0.00    -0.237 OA
ATOM     84  O   UNL     1     -12.955  -5.148  -6.702  1.00  0.00    -0.744 OA
ENDBRANCH  77  81
ENDBRANCH  60  74
BRANCH  61  85
ATOM     85  C   UNL     1      -7.697 -11.571   4.925  1.00  0.00     0.023 A 
ATOM     86  C   UNL     1      -8.614 -12.624   5.360  1.00  0.00     0.031 A 
ATOM     87  C   UNL     1      -6.514 -11.510   5.673  1.00  0.00     0.131 A 
ATOM     88  C   UNL     1      -8.309 -13.536   6.424  1.00  0.00     0.055 A 
ATOM     89  C   UNL     1      -6.223 -12.411   6.730  1.00  0.00     0.041 A 
ATOM     90  F   UNL     1      -5.547 -10.647   5.331  1.00  0.00    -0.206 F 
ATOM     91  C   UNL     1      -7.102 -13.428   7.099  1.00  0.00     0.022 A 
BRANCH  88  92
ATOM     92  S   UNL     1      -9.380 -14.989   6.859  1.00  0.00     0.124 S 
ATOM     93  O   UNL     1     -10.561 -14.369   7.447  1.00  0.00    -0.237 OA
ATOM     94  O   UNL     1      -9.562 -15.655   5.573  1.00  0.00    -0.237 OA
ATOM     95  O   UNL     1      -8.563 -15.749   7.810  1.00  0.00    -0.744 OA
ENDBRANCH  88  92
ENDBRANCH  61  85
BRANCH  73  96
ATOM     96  C   UNL     1     -11.674 -10.233   0.726  1.00  0.00     0.023 A 
ATOM     97  C   UNL     1     -11.603  -9.378   1.860  1.00  0.00     0.031 A 
ATOM     98  C   UNL     1     -12.844 -10.135  -0.045  1.00  0.00     0.131 A 
ATOM     99  C   UNL     1     -12.671  -8.520   2.199  1.00  0.00     0.055 A 
ATOM    100  C   UNL     1     -13.879  -9.247   0.258  1.00  0.00     0.041 A 
ATOM    101  F   UNL     1     -13.006 -10.914  -1.127  1.00  0.00    -0.206 F 
ATOM    102  C   UNL     1     -13.804  -8.448   1.392  1.00  0.00     0.022 A 
BRANCH  99 103
ATOM    103  S   UNL     1     -12.630  -7.548   3.746  1.00  0.00     0.124 S 
ATOM    104  O   UNL     1     -12.250  -8.531   4.753  1.00  0.00    -0.237 OA
ATOM    105  O   UNL     1     -11.635  -6.520   3.453  1.00  0.00    -0.237 OA
ATOM    106  O   UNL     1     -14.002  -7.051   3.872  1.00  0.00    -0.744 OA
ENDBRANCH  99 103
ENDBRANCH  73  96
ENDBRANCH  47  48
ENDBRANCH  40  42
ENDBRANCH  39  40
ENDBRANCH  38  39
ENDBRANCH   1  38
TORSDOF 21
