REMARK SMILES O=C(OCCOCCOC(=O)[C@H]1CS[C@]2(c3ccccc3)CCC(=O)N12)c1ccc(-c2c3nc(c(-c4cc(S(=O)(=O)[O-])ccc4F)c4ccc([nH]4)c(-c4cc(S(=O)(=O)[O-])ccc4F)c4nc(c(-c5cc(S(=O)(=O)[O-])ccc5F)c5ccc2[nH]5)C=C4)C=C3)cc1
REMARK SMILES IDX 5 1 4 2 3 3 2 4 1 5 27 6 28 7 89 8 29 9 88 10 30 11 31 12
REMARK SMILES IDX 32 13 82 14 33 15 87 16 81 17 83 18 34 19 86 20 80 21 79 22
REMARK SMILES IDX 35 24 67 25 47 26 66 27 48 28 51 29 65 30 84 31 49 32 50 33
REMARK SMILES IDX 64 35 85 36 52 37 36 38 37 39 45 40 38 41 44 42 46 43 43 44
REMARK SMILES IDX 39 45 40 46 41 47 42 48 68 49 69 50 77 51 70 52 76 53 78 54
REMARK SMILES IDX 75 55 71 56 72 57 73 58 74 59 53 60 54 61 62 62 55 63 61 64
REMARK SMILES IDX 63 65 60 66 56 67 57 68 58 69 59 70 6 71 7 72 8 73 9 74
REMARK SMILES IDX 10 75 11 76 12 77 13 78 26 79 14 80 15 81 24 82 22 83 23 84
REMARK SMILES IDX 25 85 16 86 17 87 21 88 18 89 20 90 19 91
REMARK H PARENT 83 23 51 34
REMARK Flexibility Score: inf
ROOT
ATOM      1  C   UNL     1       5.146  -3.127   2.293  1.00  0.00     0.202 C 
ENDROOT
BRANCH   1   2
ATOM      2  C   UNL     1       4.346  -2.879   3.577  1.00  0.00     0.261 C 
BRANCH   2   3
ATOM      3  O   UNL     1       4.457  -1.518   4.005  1.00  0.00    -0.460 OA
BRANCH   3   4
ATOM      4  C   UNL     1       5.352  -1.029   4.894  1.00  0.00     0.338 C 
ATOM      5  O   UNL     1       5.340   0.175   5.144  1.00  0.00    -0.246 OA
BRANCH   4   6
ATOM      6  C   UNL     1       6.337  -1.890   5.614  1.00  0.00     0.060 A 
ATOM      7  C   UNL     1       6.929  -3.043   5.090  1.00  0.00     0.016 A 
ATOM      8  C   UNL     1       6.755  -1.448   6.876  1.00  0.00     0.016 A 
ATOM      9  C   UNL     1       7.893  -3.751   5.776  1.00  0.00     0.010 A 
ATOM     10  C   UNL     1       7.747  -2.139   7.570  1.00  0.00     0.010 A 
ATOM     11  C   UNL     1       8.317  -3.287   7.008  1.00  0.00    -0.014 A 
BRANCH  11  12
ATOM     12  C   UNL     1       9.274  -4.110   7.747  1.00  0.00     0.031 A 
ATOM     13  C   UNL     1       8.743  -4.926   8.872  1.00  0.00     0.074 A 
ATOM     14  C   UNL     1      10.552  -4.164   7.341  1.00  0.00     0.049 A 
ATOM     15  N   UNL     1       9.384  -5.553   9.812  1.00  0.00    -0.248 NA
ATOM     16  C   UNL     1       7.278  -5.038   8.946  1.00  0.00     0.031 C 
ATOM     17  C   UNL     1      11.082  -3.520   6.135  1.00  0.00     0.029 A 
ATOM     18  N   UNL     1      11.634  -4.784   7.896  1.00  0.00    -0.354 N 
ATOM     19  C   UNL     1       8.400  -6.088  10.633  1.00  0.00     0.074 A 
ATOM     20  C   UNL     1       7.121  -5.710  10.073  1.00  0.00     0.031 C 
ATOM     21  C   UNL     1      12.400  -3.762   6.057  1.00  0.00     0.029 A 
ATOM     22  C   UNL     1      12.811  -4.489   7.251  1.00  0.00     0.049 A 
ATOM     23  H   UNL     1      11.577  -5.381   8.676  1.00  0.00     0.167 HD
ATOM     24  C   UNL     1       8.579  -6.806  11.765  1.00  0.00     0.034 A 
ATOM     25  C   UNL     1      14.078  -4.716   7.643  1.00  0.00     0.034 A 
ATOM     26  C   UNL     1       9.895  -7.113  12.267  1.00  0.00     0.049 A 
ATOM     27  C   UNL     1      14.268  -5.410   8.967  1.00  0.00     0.074 A 
ATOM     28  C   UNL     1      10.256  -7.762  13.430  1.00  0.00     0.029 A 
ATOM     29  N   UNL     1      11.080  -6.766  11.617  1.00  0.00    -0.354 N 
ATOM     30  N   UNL     1      13.351  -5.830   9.814  1.00  0.00    -0.248 NA
ATOM     31  C   UNL     1      15.646  -5.655   9.398  1.00  0.00     0.031 C 
ATOM     32  C   UNL     1      11.653  -7.740  13.518  1.00  0.00     0.029 A 
ATOM     33  C   UNL     1      12.171  -7.166  12.364  1.00  0.00     0.049 A 
ATOM     34  H   UNL     1      11.131  -6.303  10.749  1.00  0.00     0.167 HD
ATOM     35  C   UNL     1      14.041  -6.420  10.865  1.00  0.00     0.074 A 
ATOM     36  C   UNL     1      15.453  -6.296  10.543  1.00  0.00     0.031 C 
ATOM     37  C   UNL     1      13.562  -7.020  11.986  1.00  0.00     0.034 A 
BRANCH  24  38
ATOM     38  C   UNL     1       7.336  -7.151  12.551  1.00  0.00     0.023 A 
ATOM     39  C   UNL     1       6.293  -7.916  11.997  1.00  0.00     0.031 A 
ATOM     40  C   UNL     1       7.123  -6.572  13.815  1.00  0.00     0.131 A 
ATOM     41  C   UNL     1       5.047  -7.971  12.643  1.00  0.00     0.055 A 
ATOM     42  C   UNL     1       5.917  -6.723  14.502  1.00  0.00     0.041 A 
ATOM     43  F   UNL     1       8.064  -5.801  14.382  1.00  0.00    -0.206 F 
ATOM     44  C   UNL     1       4.860  -7.403  13.905  1.00  0.00     0.022 A 
BRANCH  41  45
ATOM     45  S   UNL     1       3.618  -8.593  11.710  1.00  0.00     0.124 S 
ATOM     46  O   UNL     1       3.598  -7.688  10.563  1.00  0.00    -0.237 OA
ATOM     47  O   UNL     1       3.999  -9.972  11.428  1.00  0.00    -0.237 OA
ATOM     48  O   UNL     1       2.503  -8.431  12.640  1.00  0.00    -0.744 OA
ENDBRANCH  41  45
ENDBRANCH  24  38
BRANCH  25  49
ATOM     49  C   UNL     1      15.219  -4.208   6.830  1.00  0.00     0.023 A 
ATOM     50  C   UNL     1      16.140  -5.082   6.235  1.00  0.00     0.031 A 
ATOM     51  C   UNL     1      15.396  -2.825   6.620  1.00  0.00     0.131 A 
ATOM     52  C   UNL     1      17.205  -4.567   5.476  1.00  0.00     0.055 A 
ATOM     53  C   UNL     1      16.426  -2.321   5.825  1.00  0.00     0.041 A 
ATOM     54  F   UNL     1      14.545  -1.941   7.165  1.00  0.00    -0.206 F 
ATOM     55  C   UNL     1      17.344  -3.194   5.254  1.00  0.00     0.022 A 
BRANCH  52  56
ATOM     56  S   UNL     1      18.448  -5.717   4.827  1.00  0.00     0.124 S 
ATOM     57  O   UNL     1      18.941  -6.342   6.049  1.00  0.00    -0.237 OA
ATOM     58  O   UNL     1      17.648  -6.565   3.950  1.00  0.00    -0.237 OA
ATOM     59  O   UNL     1      19.399  -4.842   4.146  1.00  0.00    -0.744 OA
ENDBRANCH  52  56
ENDBRANCH  25  49
BRANCH  37  60
ATOM     60  C   UNL     1      14.575  -7.659  12.898  1.00  0.00     0.023 A 
ATOM     61  C   UNL     1      15.465  -6.899  13.673  1.00  0.00     0.031 A 
ATOM     62  C   UNL     1      14.601  -9.059  13.024  1.00  0.00     0.131 A 
ATOM     63  C   UNL     1      16.370  -7.551  14.522  1.00  0.00     0.055 A 
ATOM     64  C   UNL     1      15.460  -9.697  13.916  1.00  0.00     0.041 A 
ATOM     65  F   UNL     1      13.770  -9.826  12.300  1.00  0.00    -0.206 F 
ATOM     66  C   UNL     1      16.356  -8.942  14.666  1.00  0.00     0.022 A 
BRANCH  63  67
ATOM     67  S   UNL     1      17.613  -6.561  15.393  1.00  0.00     0.124 S 
ATOM     68  O   UNL     1      18.344  -5.952  14.285  1.00  0.00    -0.237 OA
ATOM     69  O   UNL     1      16.792  -5.656  16.190  1.00  0.00    -0.237 OA
ATOM     70  O   UNL     1      18.364  -7.554  16.160  1.00  0.00    -0.744 OA
ENDBRANCH  63  67
ENDBRANCH  37  60
ENDBRANCH  11  12
ENDBRANCH   4   6
ENDBRANCH   3   4
ENDBRANCH   2   3
ENDBRANCH   1   2
BRANCH   1  71
ATOM     71  O   UNL     1       6.458  -2.561   2.253  1.00  0.00    -0.374 OA
BRANCH  71  72
ATOM     72  C   UNL     1       6.521  -1.238   1.734  1.00  0.00     0.202 C 
BRANCH  72  73
ATOM     73  C   UNL     1       6.683  -1.260   0.217  1.00  0.00     0.261 C 
BRANCH  73  74
ATOM     74  O   UNL     1       5.758  -2.214  -0.357  1.00  0.00    -0.462 OA
BRANCH  74  75
ATOM     75  C   UNL     1       6.316  -3.404  -0.699  1.00  0.00     0.329 C 
ATOM     76  O   UNL     1       7.522  -3.552  -0.888  1.00  0.00    -0.250 OA
BRANCH  75  77
ATOM     77  C   UNL     1       5.305  -4.528  -1.024  1.00  0.00     0.206 C 
ATOM     78  C   UNL     1       5.992  -5.894  -0.949  1.00  0.00     0.109 C 
ATOM     79  N   UNL     1       3.884  -4.658  -0.574  1.00  0.00    -0.309 N 
ATOM     80  S   UNL     1       4.996  -6.954   0.108  1.00  0.00    -0.126 SA
ATOM     81  C   UNL     1       3.442  -6.003  -0.143  1.00  0.00     0.116 C 
ATOM     82  C   UNL     1       2.995  -4.186  -1.554  1.00  0.00     0.224 C 
ATOM     83  C   UNL     1       2.734  -6.565  -1.403  1.00  0.00     0.055 C 
ATOM     84  C   UNL     1       2.583  -5.392  -2.358  1.00  0.00     0.104 C 
ATOM     85  O   UNL     1       2.862  -3.034  -1.921  1.00  0.00    -0.275 OA
BRANCH  81  86
ATOM     86  C   UNL     1       2.567  -6.070   1.150  1.00  0.00    -0.012 A 
ATOM     87  C   UNL     1       3.137  -5.901   2.430  1.00  0.00     0.007 A 
ATOM     88  C   UNL     1       1.203  -6.440   1.167  1.00  0.00     0.007 A 
ATOM     89  C   UNL     1       2.416  -6.052   3.627  1.00  0.00     0.000 A 
ATOM     90  C   UNL     1       0.486  -6.650   2.362  1.00  0.00     0.000 A 
ATOM     91  C   UNL     1       1.088  -6.442   3.594  1.00  0.00     0.000 A 
ENDBRANCH  81  86
ENDBRANCH  75  77
ENDBRANCH  74  75
ENDBRANCH  73  74
ENDBRANCH  72  73
ENDBRANCH  71  72
ENDBRANCH   1  71
TORSDOF 18
