REMARK SMILES C[C@H](C(=O)OCCOCCOC(=O)c1ccc(-c2c3nc(c(-c4cc(S(=O)(=O)[O-])ccc4F)c4ccc([nH]4)c(-c4cc(S(=O)(=O)[O-])ccc4F)c4nc(c(-c5cc(S(=O)(=O)[O-])ccc5F)c5ccc2[nH]5)C=C4)C=C3)cc1)[C@H](C)[N@@H+]1CC[C@H]([NH+]2CCCCC2)C1
REMARK SMILES IDX 8 1 7 2 6 3 5 4 3 5 4 6 2 7 1 8 77 9 78 10 79 11 80 12 89 13
REMARK SMILES IDX 81 15 82 16 83 17 84 18 88 19 85 21 87 22 86 23 9 24 10 25
REMARK SMILES IDX 11 26 12 27 13 28 14 29 15 30 76 31 16 32 75 33 17 34 18 35
REMARK SMILES IDX 19 36 69 37 20 38 74 39 68 40 70 41 21 42 73 43 67 44 66 45
REMARK SMILES IDX 22 47 54 48 34 49 53 50 35 51 38 52 52 53 71 54 36 55 37 56
REMARK SMILES IDX 51 58 72 59 39 60 23 61 24 62 32 63 25 64 31 65 33 66 30 67
REMARK SMILES IDX 26 68 27 69 28 70 29 71 55 72 56 73 64 74 57 75 63 76 65 77
REMARK SMILES IDX 62 78 58 79 59 80 60 81 61 82 40 83 41 84 49 85 42 86 48 87
REMARK SMILES IDX 50 88 47 89 43 90 44 91 45 92 46 93
REMARK H PARENT 79 14 83 20 70 46 38 57
REMARK Flexibility Score: inf
ROOT
ATOM      1  O   UNL     1       3.287   0.959   1.565  1.00  0.00    -0.374 OA
ENDROOT
BRANCH   1   2
ATOM      2  C   UNL     1       2.560   1.825   2.433  1.00  0.00     0.202 C 
BRANCH   2   3
ATOM      3  C   UNL     1       1.628   2.871   1.833  1.00  0.00     0.261 C 
BRANCH   3   4
ATOM      4  O   UNL     1       0.481   2.266   1.218  1.00  0.00    -0.463 OA
BRANCH   4   5
ATOM      5  C   UNL     1       0.371   2.455  -0.124  1.00  0.00     0.314 C 
ATOM      6  O   UNL     1       1.212   2.989  -0.835  1.00  0.00    -0.252 OA
BRANCH   5   7
ATOM      7  C   UNL     1      -1.006   2.052  -0.592  1.00  0.00     0.154 C 
ATOM      8  C   UNL     1      -1.686   3.409  -0.716  1.00  0.00     0.026 C 
BRANCH   7   9
ATOM      9  C   UNL     1      -1.040   1.031  -1.784  1.00  0.00     0.195 C 
ATOM     10  C   UNL     1       0.319   0.523  -2.295  1.00  0.00     0.076 C 
BRANCH   9  11
ATOM     11  N   UNL     1      -1.863   1.245  -2.976  1.00  0.00    -0.327 N 
ATOM     12  C   UNL     1      -1.715   2.458  -3.747  1.00  0.00     0.269 C 
ATOM     13  C   UNL     1      -3.267   0.875  -2.921  1.00  0.00     0.328 C 
ATOM     14  H   UNL     1      -1.367   0.523  -3.498  1.00  0.00     0.348 HD
ATOM     15  C   UNL     1      -3.056   3.182  -3.663  1.00  0.00     0.132 C 
ATOM     16  C   UNL     1      -4.095   2.164  -3.125  1.00  0.00     0.245 C 
BRANCH  16  17
ATOM     17  N   UNL     1      -5.067   2.572  -2.073  1.00  0.00    -0.328 N 
ATOM     18  C   UNL     1      -4.989   1.847  -0.799  1.00  0.00     0.262 C 
ATOM     19  C   UNL     1      -5.264   4.018  -1.947  1.00  0.00     0.262 C 
ATOM     20  H   UNL     1      -5.949   2.233  -2.457  1.00  0.00     0.348 HD
ATOM     21  C   UNL     1      -6.008   2.272   0.259  1.00  0.00     0.062 C 
ATOM     22  C   UNL     1      -6.367   4.393  -0.960  1.00  0.00     0.062 C 
ATOM     23  C   UNL     1      -6.090   3.781   0.404  1.00  0.00     0.012 C 
ENDBRANCH  16  17
ENDBRANCH   9  11
ENDBRANCH   7   9
ENDBRANCH   5   7
ENDBRANCH   4   5
ENDBRANCH   3   4
ENDBRANCH   2   3
ENDBRANCH   1   2
BRANCH   1  24
ATOM     24  C   UNL     1       2.570   0.111   0.680  1.00  0.00     0.202 C 
BRANCH  24  25
ATOM     25  C   UNL     1       1.754  -1.073   1.229  1.00  0.00     0.261 C 
BRANCH  25  26
ATOM     26  O   UNL     1       1.198  -0.878   2.527  1.00  0.00    -0.460 OA
BRANCH  26  27
ATOM     27  C   UNL     1       2.030  -1.271   3.526  1.00  0.00     0.338 C 
ATOM     28  O   UNL     1       3.118  -1.804   3.415  1.00  0.00    -0.246 OA
BRANCH  27  29
ATOM     29  C   UNL     1       1.482  -0.784   4.800  1.00  0.00     0.060 A 
ATOM     30  C   UNL     1       2.262   0.113   5.540  1.00  0.00     0.016 A 
ATOM     31  C   UNL     1       0.239  -1.218   5.264  1.00  0.00     0.016 A 
ATOM     32  C   UNL     1       1.811   0.561   6.773  1.00  0.00     0.010 A 
ATOM     33  C   UNL     1      -0.201  -0.788   6.516  1.00  0.00     0.010 A 
ATOM     34  C   UNL     1       0.602   0.074   7.285  1.00  0.00    -0.014 A 
BRANCH  34  35
ATOM     35  C   UNL     1       0.297   0.300   8.713  1.00  0.00     0.031 A 
ATOM     36  C   UNL     1       0.696  -0.767   9.692  1.00  0.00     0.074 A 
ATOM     37  C   UNL     1      -0.263   1.451   9.119  1.00  0.00     0.049 A 
ATOM     38  N   UNL     1       0.542  -0.805  10.988  1.00  0.00    -0.248 NA
ATOM     39  C   UNL     1       1.359  -1.954   9.127  1.00  0.00     0.031 C 
ATOM     40  C   UNL     1      -0.629   2.565   8.245  1.00  0.00     0.029 A 
ATOM     41  N   UNL     1      -0.618   1.875  10.372  1.00  0.00    -0.354 N 
ATOM     42  C   UNL     1       1.087  -2.018  11.395  1.00  0.00     0.074 A 
ATOM     43  C   UNL     1       1.539  -2.702  10.204  1.00  0.00     0.031 C 
ATOM     44  C   UNL     1      -1.161   3.548   8.992  1.00  0.00     0.029 A 
ATOM     45  C   UNL     1      -1.206   3.117  10.388  1.00  0.00     0.049 A 
ATOM     46  H   UNL     1      -0.465   1.341  11.185  1.00  0.00     0.167 HD
ATOM     47  C   UNL     1       1.202  -2.509  12.653  1.00  0.00     0.034 A 
ATOM     48  C   UNL     1      -1.737   3.809  11.415  1.00  0.00     0.034 A 
ATOM     49  C   UNL     1       0.724  -1.809  13.819  1.00  0.00     0.049 A 
ATOM     50  C   UNL     1      -1.678   3.201  12.796  1.00  0.00     0.074 A 
ATOM     51  C   UNL     1       0.785  -2.198  15.144  1.00  0.00     0.029 A 
ATOM     52  N   UNL     1       0.079  -0.578  13.794  1.00  0.00    -0.354 N 
ATOM     53  N   UNL     1      -1.155   2.056  13.175  1.00  0.00    -0.248 NA
ATOM     54  C   UNL     1      -2.273   3.980  13.888  1.00  0.00     0.031 C 
ATOM     55  C   UNL     1       0.111  -1.240  15.910  1.00  0.00     0.029 A 
ATOM     56  C   UNL     1      -0.297  -0.210  15.076  1.00  0.00     0.049 A 
ATOM     57  H   UNL     1      -0.087  -0.044  12.983  1.00  0.00     0.167 HD
ATOM     58  C   UNL     1      -1.329   1.995  14.555  1.00  0.00     0.074 A 
ATOM     59  C   UNL     1      -1.994   3.224  14.940  1.00  0.00     0.031 C 
ATOM     60  C   UNL     1      -0.971   1.018  15.429  1.00  0.00     0.034 A 
BRANCH  47  61
ATOM     61  C   UNL     1       1.806  -3.884  12.807  1.00  0.00     0.023 A 
ATOM     62  C   UNL     1       3.137  -4.159  12.445  1.00  0.00     0.031 A 
ATOM     63  C   UNL     1       1.020  -4.950  13.280  1.00  0.00     0.131 A 
ATOM     64  C   UNL     1       3.618  -5.476  12.494  1.00  0.00     0.055 A 
ATOM     65  C   UNL     1       1.530  -6.244  13.402  1.00  0.00     0.041 A 
ATOM     66  F   UNL     1      -0.266  -4.755  13.613  1.00  0.00    -0.206 F 
ATOM     67  C   UNL     1       2.832  -6.516  12.994  1.00  0.00     0.022 A 
BRANCH  64  68
ATOM     68  S   UNL     1       5.237  -5.839  11.758  1.00  0.00     0.124 S 
ATOM     69  O   UNL     1       5.037  -5.404  10.378  1.00  0.00    -0.237 OA
ATOM     70  O   UNL     1       6.139  -5.023  12.562  1.00  0.00    -0.237 OA
ATOM     71  O   UNL     1       5.378  -7.283  11.934  1.00  0.00    -0.744 OA
ENDBRANCH  64  68
ENDBRANCH  47  61
BRANCH  48  72
ATOM     72  C   UNL     1      -2.396   5.127  11.183  1.00  0.00     0.023 A 
ATOM     73  C   UNL     1      -1.902   6.301  11.771  1.00  0.00     0.031 A 
ATOM     74  C   UNL     1      -3.563   5.222  10.404  1.00  0.00     0.131 A 
ATOM     75  C   UNL     1      -2.596   7.511  11.608  1.00  0.00     0.055 A 
ATOM     76  C   UNL     1      -4.221   6.436  10.201  1.00  0.00     0.041 A 
ATOM     77  F   UNL     1      -4.081   4.130   9.818  1.00  0.00    -0.206 F 
ATOM     78  C   UNL     1      -3.744   7.589  10.817  1.00  0.00     0.022 A 
BRANCH  75  79
ATOM     79  S   UNL     1      -2.024   8.971  12.520  1.00  0.00     0.124 S 
ATOM     80  O   UNL     1      -2.079   8.501  13.899  1.00  0.00    -0.237 OA
ATOM     81  O   UNL     1      -0.690   9.171  11.962  1.00  0.00    -0.237 OA
ATOM     82  O   UNL     1      -3.004   9.997  12.169  1.00  0.00    -0.744 OA
ENDBRANCH  75  79
ENDBRANCH  48  72
BRANCH  60  83
ATOM     83  C   UNL     1      -1.254   1.272  16.889  1.00  0.00     0.023 A 
ATOM     84  C   UNL     1      -2.566   1.347  17.386  1.00  0.00     0.031 A 
ATOM     85  C   UNL     1      -0.191   1.447  17.794  1.00  0.00     0.131 A 
ATOM     86  C   UNL     1      -2.783   1.649  18.739  1.00  0.00     0.055 A 
ATOM     87  C   UNL     1      -0.413   1.681  19.151  1.00  0.00     0.041 A 
ATOM     88  F   UNL     1       1.082   1.386  17.372  1.00  0.00    -0.206 F 
ATOM     89  C   UNL     1      -1.715   1.798  19.627  1.00  0.00     0.022 A 
BRANCH  86  90
ATOM     90  S   UNL     1      -4.481   1.943  19.302  1.00  0.00     0.124 S 
ATOM     91  O   UNL     1      -4.898   3.049  18.445  1.00  0.00    -0.237 OA
ATOM     92  O   UNL     1      -5.124   0.659  19.042  1.00  0.00    -0.237 OA
ATOM     93  O   UNL     1      -4.321   2.280  20.715  1.00  0.00    -0.744 OA
ENDBRANCH  86  90
ENDBRANCH  60  83
ENDBRANCH  34  35
ENDBRANCH  27  29
ENDBRANCH  26  27
ENDBRANCH  25  26
ENDBRANCH  24  25
ENDBRANCH   1  24
TORSDOF 20
