REMARK SMILES C[C@H](C(=O)OCCOCCOC(=O)c1ccc(-c2c3nc(c(-c4cc(S(=O)(=O)[O-])ccc4F)c4ccc([nH]4)c(-c4cc(S(=O)(=O)[O-])ccc4F)c4nc(c(-c5cc(S(=O)(=O)[O-])ccc5F)c5ccc2[nH]5)C=C4)C=C3)cc1)c1ccc2c3cc(Cl)ccc3n(C(=O)c3ccc(Cl)cc3)c2c1
REMARK SMILES IDX 8 1 7 2 6 3 5 4 3 5 4 6 2 7 1 8 77 9 78 10 99 11 79 12 98 13
REMARK SMILES IDX 80 14 88 15 81 16 87 17 82 18 86 19 83 20 85 21 84 22 89 23
REMARK SMILES IDX 90 24 91 25 92 26 97 27 93 28 96 29 94 30 95 31 9 32 10 33
REMARK SMILES IDX 11 34 12 35 13 36 14 37 15 38 76 39 16 40 75 41 17 42 18 43
REMARK SMILES IDX 19 44 69 45 20 46 74 47 68 48 70 49 21 50 73 51 67 52 66 53
REMARK SMILES IDX 22 55 54 56 34 57 53 58 35 59 38 60 52 61 71 62 36 63 37 64
REMARK SMILES IDX 51 66 72 67 39 68 23 69 24 70 32 71 25 72 31 73 33 74 30 75
REMARK SMILES IDX 26 76 27 77 28 78 29 79 55 80 56 81 64 82 57 83 63 84 65 85
REMARK SMILES IDX 62 86 58 87 59 88 60 89 61 90 40 91 41 92 49 93 42 94 48 95
REMARK SMILES IDX 50 96 47 97 43 98 44 99 45 100 46 101
REMARK H PARENT 70 54 38 65
REMARK Flexibility Score: inf
ROOT
ATOM      1  O   UNL     1       0.953   0.028   2.732  1.00  0.00    -0.374 OA
ENDROOT
BRANCH   1   2
ATOM      2  C   UNL     1       1.074   1.385   2.306  1.00  0.00     0.202 C 
BRANCH   2   3
ATOM      3  C   UNL     1       1.725   1.618   0.940  1.00  0.00     0.261 C 
BRANCH   3   4
ATOM      4  O   UNL     1       0.999   0.951  -0.106  1.00  0.00    -0.463 OA
BRANCH   4   5
ATOM      5  C   UNL     1       1.728   0.120  -0.893  1.00  0.00     0.313 C 
ATOM      6  O   UNL     1       2.956   0.069  -0.879  1.00  0.00    -0.252 OA
BRANCH   5   7
ATOM      7  C   UNL     1       0.894  -0.784  -1.804  1.00  0.00     0.126 C 
ATOM      8  C   UNL     1       1.474  -2.205  -1.663  1.00  0.00     0.025 C 
BRANCH   7   9
ATOM      9  C   UNL     1      -0.635  -0.729  -1.666  1.00  0.00    -0.032 A 
ATOM     10  C   UNL     1      -1.323   0.450  -1.972  1.00  0.00     0.005 A 
ATOM     11  C   UNL     1      -1.394  -1.857  -1.295  1.00  0.00     0.032 A 
ATOM     12  C   UNL     1      -2.726   0.508  -1.948  1.00  0.00     0.011 A 
ATOM     13  C   UNL     1      -2.805  -1.788  -1.227  1.00  0.00     0.057 A 
ATOM     14  C   UNL     1      -3.479  -0.631  -1.592  1.00  0.00     0.008 A 
ATOM     15  N   UNL     1      -3.751  -2.759  -0.855  1.00  0.00    -0.276 N 
ATOM     16  C   UNL     1      -4.873  -0.906  -1.503  1.00  0.00     0.009 A 
ATOM     17  C   UNL     1      -5.029  -2.202  -0.987  1.00  0.00     0.057 A 
ATOM     18  C   UNL     1      -6.017  -0.126  -1.787  1.00  0.00     0.031 A 
ATOM     19  C   UNL     1      -6.309  -2.677  -0.633  1.00  0.00     0.029 A 
ATOM     20  C   UNL     1      -7.283  -0.634  -1.506  1.00  0.00     0.041 A 
ATOM     21  C   UNL     1      -7.428  -1.882  -0.916  1.00  0.00     0.023 A 
ATOM     22  Cl  UNL     1      -8.676   0.308  -1.869  1.00  0.00    -0.084 Cl
BRANCH  15  23
ATOM     23  C   UNL     1      -3.385  -4.043  -0.368  1.00  0.00     0.262 C 
ATOM     24  O   UNL     1      -2.321  -4.092   0.255  1.00  0.00    -0.268 OA
BRANCH  23  25
ATOM     25  C   UNL     1      -4.080  -5.355  -0.551  1.00  0.00     0.040 A 
ATOM     26  C   UNL     1      -3.570  -6.450   0.179  1.00  0.00     0.015 A 
ATOM     27  C   UNL     1      -5.091  -5.595  -1.486  1.00  0.00     0.015 A 
ATOM     28  C   UNL     1      -4.066  -7.744  -0.004  1.00  0.00     0.021 A 
ATOM     29  C   UNL     1      -5.614  -6.890  -1.645  1.00  0.00     0.021 A 
ATOM     30  C   UNL     1      -5.094  -7.957  -0.911  1.00  0.00     0.041 A 
ATOM     31  Cl  UNL     1      -5.704  -9.548  -1.149  1.00  0.00    -0.084 Cl
ENDBRANCH  23  25
ENDBRANCH  15  23
ENDBRANCH   7   9
ENDBRANCH   5   7
ENDBRANCH   4   5
ENDBRANCH   3   4
ENDBRANCH   2   3
ENDBRANCH   1   2
BRANCH   1  32
ATOM     32  C   UNL     1      -0.026  -0.787   2.083  1.00  0.00     0.202 C 
BRANCH  32  33
ATOM     33  C   UNL     1      -1.503  -0.475   2.358  1.00  0.00     0.261 C 
BRANCH  33  34
ATOM     34  O   UNL     1      -1.914   0.811   1.857  1.00  0.00    -0.460 OA
BRANCH  34  35
ATOM     35  C   UNL     1      -2.301   1.694   2.806  1.00  0.00     0.338 C 
ATOM     36  O   UNL     1      -2.384   1.485   4.015  1.00  0.00    -0.246 OA
BRANCH  35  37
ATOM     37  C   UNL     1      -2.437   3.045   2.236  1.00  0.00     0.060 A 
ATOM     38  C   UNL     1      -1.687   4.073   2.823  1.00  0.00     0.016 A 
ATOM     39  C   UNL     1      -3.351   3.328   1.218  1.00  0.00     0.016 A 
ATOM     40  C   UNL     1      -1.884   5.396   2.430  1.00  0.00     0.010 A 
ATOM     41  C   UNL     1      -3.552   4.660   0.831  1.00  0.00     0.010 A 
ATOM     42  C   UNL     1      -2.847   5.704   1.460  1.00  0.00    -0.014 A 
BRANCH  42  43
ATOM     43  C   UNL     1      -3.213   7.126   1.228  1.00  0.00     0.031 A 
ATOM     44  C   UNL     1      -4.468   7.670   1.859  1.00  0.00     0.074 A 
ATOM     45  C   UNL     1      -2.414   7.938   0.512  1.00  0.00     0.049 A 
ATOM     46  N   UNL     1      -4.986   8.868   1.782  1.00  0.00    -0.248 NA
ATOM     47  C   UNL     1      -5.241   6.731   2.687  1.00  0.00     0.031 C 
ATOM     48  C   UNL     1      -1.146   7.544  -0.101  1.00  0.00     0.029 A 
ATOM     49  N   UNL     1      -2.549   9.264   0.183  1.00  0.00    -0.354 N 
ATOM     50  C   UNL     1      -6.149   8.829   2.546  1.00  0.00     0.074 A 
ATOM     51  C   UNL     1      -6.277   7.475   3.043  1.00  0.00     0.031 C 
ATOM     52  C   UNL     1      -0.620   8.607  -0.734  1.00  0.00     0.029 A 
ATOM     53  C   UNL     1      -1.530   9.744  -0.607  1.00  0.00     0.049 A 
ATOM     54  H   UNL     1      -3.304   9.819   0.484  1.00  0.00     0.167 HD
ATOM     55  C   UNL     1      -7.023   9.832   2.815  1.00  0.00     0.034 A 
ATOM     56  C   UNL     1      -1.363  10.953  -1.180  1.00  0.00     0.034 A 
ATOM     57  C   UNL     1      -6.886  11.176   2.308  1.00  0.00     0.049 A 
ATOM     58  C   UNL     1      -2.398  12.028  -0.944  1.00  0.00     0.074 A 
ATOM     59  C   UNL     1      -7.702  12.271   2.535  1.00  0.00     0.029 A 
ATOM     60  N   UNL     1      -5.875  11.608   1.458  1.00  0.00    -0.354 N 
ATOM     61  N   UNL     1      -3.490  11.980  -0.215  1.00  0.00    -0.248 NA
ATOM     62  C   UNL     1      -2.174  13.321  -1.604  1.00  0.00     0.031 C 
ATOM     63  C   UNL     1      -7.232  13.338   1.762  1.00  0.00     0.029 A 
ATOM     64  C   UNL     1      -6.071  12.939   1.120  1.00  0.00     0.049 A 
ATOM     65  H   UNL     1      -5.128  11.050   1.142  1.00  0.00     0.167 HD
ATOM     66  C   UNL     1      -4.062  13.247  -0.303  1.00  0.00     0.074 A 
ATOM     67  C   UNL     1      -3.189  14.038  -1.145  1.00  0.00     0.031 C 
ATOM     68  C   UNL     1      -5.202  13.717   0.267  1.00  0.00     0.034 A 
BRANCH  55  69
ATOM     69  C   UNL     1      -8.235   9.490   3.651  1.00  0.00     0.023 A 
ATOM     70  C   UNL     1      -8.124   9.066   4.987  1.00  0.00     0.031 A 
ATOM     71  C   UNL     1      -9.523   9.562   3.090  1.00  0.00     0.131 A 
ATOM     72  C   UNL     1      -9.269   8.662   5.691  1.00  0.00     0.055 A 
ATOM     73  C   UNL     1     -10.666   9.237   3.822  1.00  0.00     0.041 A 
ATOM     74  F   UNL     1      -9.692   9.938   1.812  1.00  0.00    -0.206 F 
ATOM     75  C   UNL     1     -10.542   8.768   5.126  1.00  0.00     0.022 A 
BRANCH  72  76
ATOM     76  S   UNL     1      -9.057   7.854   7.302  1.00  0.00     0.124 S 
ATOM     77  O   UNL     1      -8.200   6.723   6.955  1.00  0.00    -0.237 OA
ATOM     78  O   UNL     1      -8.438   8.904   8.102  1.00  0.00    -0.237 OA
ATOM     79  O   UNL     1     -10.421   7.497   7.688  1.00  0.00    -0.744 OA
ENDBRANCH  72  76
ENDBRANCH  55  69
BRANCH  56  80
ATOM     80  C   UNL     1      -0.193  11.213  -2.069  1.00  0.00     0.023 A 
ATOM     81  C   UNL     1       0.768  12.184  -1.745  1.00  0.00     0.031 A 
ATOM     82  C   UNL     1      -0.052  10.528  -3.290  1.00  0.00     0.131 A 
ATOM     83  C   UNL     1       1.801  12.475  -2.651  1.00  0.00     0.055 A 
ATOM     84  C   UNL     1       1.008  10.782  -4.162  1.00  0.00     0.041 A 
ATOM     85  F   UNL     1      -0.944   9.592  -3.651  1.00  0.00    -0.206 F 
ATOM     86  C   UNL     1       1.936  11.770  -3.849  1.00  0.00     0.022 A 
BRANCH  83  87
ATOM     87  S   UNL     1       2.921  13.852  -2.278  1.00  0.00     0.124 S 
ATOM     88  O   UNL     1       1.992  14.971  -2.179  1.00  0.00    -0.237 OA
ATOM     89  O   UNL     1       3.535  13.413  -1.030  1.00  0.00    -0.237 OA
ATOM     90  O   UNL     1       3.817  13.883  -3.433  1.00  0.00    -0.744 OA
ENDBRANCH  83  87
ENDBRANCH  56  80
BRANCH  68  91
ATOM     91  C   UNL     1      -5.542  15.171   0.035  1.00  0.00     0.023 A 
ATOM     92  C   UNL     1      -5.880  15.662  -1.238  1.00  0.00     0.031 A 
ATOM     93  C   UNL     1      -5.518  16.081   1.107  1.00  0.00     0.131 A 
ATOM     94  C   UNL     1      -6.126  17.033  -1.417  1.00  0.00     0.055 A 
ATOM     95  C   UNL     1      -5.825  17.432   0.935  1.00  0.00     0.041 A 
ATOM     96  F   UNL     1      -5.199  15.671   2.345  1.00  0.00    -0.206 F 
ATOM     97  C   UNL     1      -6.118  17.917  -0.336  1.00  0.00     0.022 A 
BRANCH  94  98
ATOM     98  S   UNL     1      -6.363  17.665  -3.102  1.00  0.00     0.124 S 
ATOM     99  O   UNL     1      -5.120  17.265  -3.754  1.00  0.00    -0.237 OA
ATOM    100  O   UNL     1      -7.565  16.959  -3.533  1.00  0.00    -0.237 OA
ATOM    101  O   UNL     1      -6.527  19.104  -2.909  1.00  0.00    -0.744 OA
ENDBRANCH  94  98
ENDBRANCH  68  91
ENDBRANCH  42  43
ENDBRANCH  35  37
ENDBRANCH  34  35
ENDBRANCH  33  34
ENDBRANCH  32  33
ENDBRANCH   1  32
TORSDOF 20
