REMARK SMILES Nc1cc(C(=O)OCCOCCOC(=O)c2ccc(-c3c4nc(c(-c5cc(S(=O)(=O)[O-])ccc5F)c5ccc([nH]5)c(-c5cc(S(=O)(=O)[O-])ccc5F)c5nc(c(-c6cc(S(=O)(=O)[O-])ccc6F)c6ccc3[nH]6)C=C5)C=C4)cc2)c(O)c([N+](=O)[O-])c1
REMARK SMILES IDX 11 1 10 2 9 3 8 4 7 5 5 6 6 7 4 8 2 9 3 10 85 11 81 12 79 13
REMARK SMILES IDX 1 14 82 17 83 18 84 19 80 20 12 22 13 23 14 24 15 25 16 26
REMARK SMILES IDX 17 27 78 28 18 29 77 30 19 31 20 32 21 33 71 34 22 35 76 36
REMARK SMILES IDX 70 37 72 38 23 39 75 40 69 41 68 42 24 44 56 45 36 46 55 47
REMARK SMILES IDX 37 48 40 49 54 50 73 51 38 52 39 53 53 55 74 56 41 57 25 58
REMARK SMILES IDX 26 59 34 60 27 61 33 62 35 63 32 64 28 65 29 66 30 67 31 68
REMARK SMILES IDX 57 69 58 70 66 71 59 72 65 73 67 74 64 75 60 76 61 77 62 78
REMARK SMILES IDX 63 79 42 80 43 81 51 82 44 83 50 84 52 85 49 86 45 87 46 88
REMARK SMILES IDX 47 89 48 90
REMARK H PARENT 1 15 1 16 80 21 72 43 40 54
REMARK Flexibility Score: inf
ROOT
ATOM      1  C   UNL     1       1.153   3.730  -1.752  1.00  0.00     0.202 C 
ENDROOT
BRANCH   1   2
ATOM      2  O   UNL     1       1.667   4.837  -1.009  1.00  0.00    -0.374 OA
BRANCH   2   3
ATOM      3  C   UNL     1       2.906   4.635  -0.325  1.00  0.00     0.202 C 
BRANCH   3   4
ATOM      4  C   UNL     1       2.804   3.897   1.012  1.00  0.00     0.261 C 
BRANCH   4   5
ATOM      5  O   UNL     1       2.342   2.552   0.809  1.00  0.00    -0.460 OA
BRANCH   5   6
ATOM      6  C   UNL     1       1.223   2.205   1.483  1.00  0.00     0.342 C 
ATOM      7  O   UNL     1       0.626   2.877   2.313  1.00  0.00    -0.246 OA
BRANCH   6   8
ATOM      8  C   UNL     1       0.644   0.962   0.928  1.00  0.00     0.111 A 
ATOM      9  C   UNL     1      -1.424  -0.118   0.204  1.00  0.00     0.039 A 
ATOM     10  C   UNL     1      -0.742   0.997   0.683  1.00  0.00     0.045 A 
ATOM     11  C   UNL     1      -0.698  -1.272  -0.075  1.00  0.00     0.115 A 
ATOM     12  C   UNL     1       0.690  -1.316   0.161  1.00  0.00     0.313 A 
ATOM     13  C   UNL     1       1.379  -0.197   0.657  1.00  0.00     0.209 A 
BRANCH   9  14
ATOM     14  N   UNL     1      -2.772  -0.040  -0.098  1.00  0.00    -0.398 N 
ATOM     15  H   UNL     1      -3.274   0.783   0.104  1.00  0.00     0.156 HD
ATOM     16  H   UNL     1      -3.228  -0.806  -0.515  1.00  0.00     0.156 HD
ENDBRANCH   9  14
BRANCH  12  17
ATOM     17  N   UNL     1       1.388  -2.573  -0.106  1.00  0.00     0.066 N 
ATOM     18  O   UNL     1       2.620  -2.523  -0.237  1.00  0.00    -0.258 OA
ATOM     19  O   UNL     1       0.710  -3.608  -0.185  1.00  0.00    -0.258 OA
ENDBRANCH  12  17
BRANCH  13  20
ATOM     20  O   UNL     1       2.721  -0.194   0.920  1.00  0.00    -0.501 OA
ATOM     21  H   UNL     1       3.132   0.581   1.251  1.00  0.00     0.293 HD
ENDBRANCH  13  20
ENDBRANCH   6   8
ENDBRANCH   5   6
ENDBRANCH   4   5
ENDBRANCH   3   4
ENDBRANCH   2   3
ENDBRANCH   1   2
BRANCH   1  22
ATOM     22  C   UNL     1       1.786   3.481  -3.127  1.00  0.00     0.261 C 
BRANCH  22  23
ATOM     23  O   UNL     1       3.152   3.041  -3.030  1.00  0.00    -0.460 OA
BRANCH  23  24
ATOM     24  C   UNL     1       4.071   3.955  -3.429  1.00  0.00     0.338 C 
ATOM     25  O   UNL     1       3.845   5.056  -3.913  1.00  0.00    -0.246 OA
BRANCH  24  26
ATOM     26  C   UNL     1       5.426   3.523  -3.034  1.00  0.00     0.060 A 
ATOM     27  C   UNL     1       6.222   4.443  -2.340  1.00  0.00     0.016 A 
ATOM     28  C   UNL     1       5.938   2.273  -3.390  1.00  0.00     0.016 A 
ATOM     29  C   UNL     1       7.548   4.135  -2.039  1.00  0.00     0.010 A 
ATOM     30  C   UNL     1       7.273   1.969  -3.094  1.00  0.00     0.010 A 
ATOM     31  C   UNL     1       8.093   2.911  -2.446  1.00  0.00    -0.014 A 
BRANCH  31  32
ATOM     32  C   UNL     1       9.555   2.679  -2.317  1.00  0.00     0.031 A 
ATOM     33  C   UNL     1      10.431   2.865  -3.528  1.00  0.00     0.074 A 
ATOM     34  C   UNL     1      10.098   2.339  -1.134  1.00  0.00     0.049 A 
ATOM     35  N   UNL     1      11.719   2.680  -3.658  1.00  0.00    -0.248 NA
ATOM     36  C   UNL     1       9.760   3.319  -4.756  1.00  0.00     0.031 C 
ATOM     37  C   UNL     1       9.358   2.177   0.117  1.00  0.00     0.029 A 
ATOM     38  N   UNL     1      11.399   2.063  -0.793  1.00  0.00    -0.354 N 
ATOM     39  C   UNL     1      12.014   2.987  -4.982  1.00  0.00     0.074 A 
ATOM     40  C   UNL     1      10.764   3.340  -5.621  1.00  0.00     0.031 C 
ATOM     41  C   UNL     1      10.217   1.821   1.089  1.00  0.00     0.029 A 
ATOM     42  C   UNL     1      11.559   1.691   0.522  1.00  0.00     0.049 A 
ATOM     43  H   UNL     1      12.147   2.126  -1.429  1.00  0.00     0.167 HD
ATOM     44  C   UNL     1      13.219   2.981  -5.606  1.00  0.00     0.034 A 
ATOM     45  C   UNL     1      12.656   1.269   1.183  1.00  0.00     0.034 A 
ATOM     46  C   UNL     1      14.457   2.624  -4.957  1.00  0.00     0.049 A 
ATOM     47  C   UNL     1      13.972   1.189   0.444  1.00  0.00     0.074 A 
ATOM     48  C   UNL     1      15.734   2.606  -5.491  1.00  0.00     0.029 A 
ATOM     49  N   UNL     1      14.574   2.209  -3.637  1.00  0.00    -0.354 N 
ATOM     50  N   UNL     1      14.239   1.495  -0.806  1.00  0.00    -0.248 NA
ATOM     51  C   UNL     1      15.134   0.715   1.206  1.00  0.00     0.031 C 
ATOM     52  C   UNL     1      16.610   2.113  -4.517  1.00  0.00     0.029 A 
ATOM     53  C   UNL     1      15.895   1.899  -3.350  1.00  0.00     0.049 A 
ATOM     54  H   UNL     1      13.828   2.145  -2.998  1.00  0.00     0.167 HD
ATOM     55  C   UNL     1      15.607   1.284  -0.964  1.00  0.00     0.074 A 
ATOM     56  C   UNL     1      16.110   0.838   0.318  1.00  0.00     0.031 C 
ATOM     57  C   UNL     1      16.381   1.450  -2.067  1.00  0.00     0.034 A 
BRANCH  44  58
ATOM     58  C   UNL     1      13.245   3.321  -7.076  1.00  0.00     0.023 A 
ATOM     59  C   UNL     1      12.915   4.602  -7.550  1.00  0.00     0.031 A 
ATOM     60  C   UNL     1      13.600   2.340  -8.019  1.00  0.00     0.131 A 
ATOM     61  C   UNL     1      12.893   4.853  -8.931  1.00  0.00     0.055 A 
ATOM     62  C   UNL     1      13.646   2.615  -9.387  1.00  0.00     0.041 A 
ATOM     63  F   UNL     1      13.903   1.092  -7.626  1.00  0.00    -0.206 F 
ATOM     64  C   UNL     1      13.280   3.875  -9.851  1.00  0.00     0.022 A 
BRANCH  61  65
ATOM     65  S   UNL     1      12.236   6.439  -9.517  1.00  0.00     0.124 S 
ATOM     66  O   UNL     1      10.874   6.407  -8.990  1.00  0.00    -0.237 OA
ATOM     67  O   UNL     1      13.139   7.402  -8.898  1.00  0.00    -0.237 OA
ATOM     68  O   UNL     1      12.337   6.335 -10.971  1.00  0.00    -0.744 OA
ENDBRANCH  61  65
ENDBRANCH  44  58
BRANCH  45  69
ATOM     69  C   UNL     1      12.568   0.840   2.610  1.00  0.00     0.023 A 
ATOM     70  C   UNL     1      13.291   1.504   3.615  1.00  0.00     0.031 A 
ATOM     71  C   UNL     1      11.820  -0.293   2.978  1.00  0.00     0.131 A 
ATOM     72  C   UNL     1      13.296   0.997   4.924  1.00  0.00     0.055 A 
ATOM     73  C   UNL     1      11.781  -0.758   4.294  1.00  0.00     0.041 A 
ATOM     74  F   UNL     1      11.113  -0.969   2.058  1.00  0.00    -0.206 F 
ATOM     75  C   UNL     1      12.536  -0.121   5.273  1.00  0.00     0.022 A 
BRANCH  72  76
ATOM     76  S   UNL     1      14.401   1.760   6.145  1.00  0.00     0.124 S 
ATOM     77  O   UNL     1      15.699   1.629   5.493  1.00  0.00    -0.237 OA
ATOM     78  O   UNL     1      13.861   3.112   6.237  1.00  0.00    -0.237 OA
ATOM     79  O   UNL     1      14.214   0.933   7.336  1.00  0.00    -0.744 OA
ENDBRANCH  72  76
ENDBRANCH  45  69
BRANCH  57  80
ATOM     80  C   UNL     1      17.863   1.201  -1.914  1.00  0.00     0.023 A 
ATOM     81  C   UNL     1      18.378  -0.083  -1.661  1.00  0.00     0.031 A 
ATOM     82  C   UNL     1      18.771   2.270  -2.014  1.00  0.00     0.131 A 
ATOM     83  C   UNL     1      19.757  -0.256  -1.463  1.00  0.00     0.055 A 
ATOM     84  C   UNL     1      20.147   2.082  -1.876  1.00  0.00     0.041 A 
ATOM     85  F   UNL     1      18.335   3.517  -2.253  1.00  0.00    -0.206 F 
ATOM     86  C   UNL     1      20.646   0.815  -1.585  1.00  0.00     0.022 A 
BRANCH  83  87
ATOM     87  S   UNL     1      20.367  -1.887  -0.954  1.00  0.00     0.124 S 
ATOM     88  O   UNL     1      19.634  -2.112   0.287  1.00  0.00    -0.237 OA
ATOM     89  O   UNL     1      19.985  -2.729  -2.083  1.00  0.00    -0.237 OA
ATOM     90  O   UNL     1      21.806  -1.681  -0.796  1.00  0.00    -0.744 OA
ENDBRANCH  83  87
ENDBRANCH  57  80
ENDBRANCH  31  32
ENDBRANCH  24  26
ENDBRANCH  23  24
ENDBRANCH  22  23
ENDBRANCH   1  22
TORSDOF 20
