REMARK SMILES C#CC[N@H+](CC(=O)OCCOCCOC(=O)c1ccc(-c2c3nc(c(-c4cc(S(=O)(=O)[O-])ccc4F)c4ccc([nH]4)c(-c4cc(S(=O)(=O)[O-])ccc4F)c4nc(c(-c5cc(S(=O)(=O)[O-])ccc5F)c5ccc2[nH]5)C=C4)C=C3)cc1)Cc1cccc2ccccc12
REMARK SMILES IDX 11 1 10 2 9 3 8 4 6 5 7 6 5 7 4 8 3 10 2 11 1 12 80 13 81 14
REMARK SMILES IDX 82 15 90 16 83 17 85 18 89 19 84 20 86 21 88 22 87 23 12 24
REMARK SMILES IDX 13 25 14 26 15 27 16 28 17 29 18 30 79 31 19 32 78 33 20 34
REMARK SMILES IDX 21 35 22 36 72 37 23 38 77 39 71 40 73 41 24 42 76 43 70 44
REMARK SMILES IDX 69 45 25 47 57 48 37 49 56 50 38 51 41 52 55 53 74 54 39 55
REMARK SMILES IDX 40 56 54 58 75 59 42 60 26 61 27 62 35 63 28 64 34 65 36 66
REMARK SMILES IDX 33 67 29 68 30 69 31 70 32 71 58 72 59 73 67 74 60 75 66 76
REMARK SMILES IDX 68 77 65 78 61 79 62 80 63 81 64 82 43 83 44 84 52 85 45 86
REMARK SMILES IDX 51 87 53 88 50 89 46 90 47 91 48 92 49 93
REMARK H PARENT 4 9 73 46 41 57
REMARK Flexibility Score: inf
ROOT
ATOM      1  O   UNL     1      -6.580   1.894  -2.444  1.00  0.00    -0.374 OA
ENDROOT
BRANCH   1   2
ATOM      2  C   UNL     1      -6.137   2.681  -1.335  1.00  0.00     0.202 C 
BRANCH   2   3
ATOM      3  C   UNL     1      -5.740   1.875  -0.091  1.00  0.00     0.261 C 
BRANCH   3   4
ATOM      4  O   UNL     1      -4.641   0.992  -0.373  1.00  0.00    -0.459 OA
BRANCH   4   5
ATOM      5  C   UNL     1      -4.751  -0.281   0.092  1.00  0.00     0.361 C 
ATOM      6  O   UNL     1      -5.594  -0.658   0.901  1.00  0.00    -0.245 OA
BRANCH   5   7
ATOM      7  C   UNL     1      -3.799  -1.264  -0.601  1.00  0.00     0.387 C 
BRANCH   7   8
ATOM      8  N   UNL     1      -2.521  -0.690  -1.095  1.00  0.00    -0.312 N 
ATOM      9  H   UNL     1      -2.679   0.087  -1.736  1.00  0.00     0.349 HD
BRANCH   8  10
ATOM     10  C   UNL     1      -1.789  -0.089   0.029  1.00  0.00     0.354 C 
BRANCH  10  11
ATOM     11  C   UNL     1      -0.269  -0.089   0.029  1.00  0.00    -0.047 C 
ATOM     12  C   UNL     1       1.034  -0.089   0.029  1.00  0.00     0.010 C 
ENDBRANCH  10  11
ENDBRANCH   8  10
BRANCH   8  13
ATOM     13  C   UNL     1      -1.798  -1.654  -1.940  1.00  0.00     0.300 C 
BRANCH  13  14
ATOM     14  C   UNL     1      -1.464  -1.049  -3.301  1.00  0.00     0.014 A 
ATOM     15  C   UNL     1      -0.254  -0.338  -3.410  1.00  0.00     0.010 A 
ATOM     16  C   UNL     1      -2.355  -1.078  -4.420  1.00  0.00    -0.010 A 
ATOM     17  C   UNL     1       0.064   0.385  -4.552  1.00  0.00     0.001 A 
ATOM     18  C   UNL     1      -2.024  -0.307  -5.569  1.00  0.00    -0.018 A 
ATOM     19  C   UNL     1      -3.579  -1.790  -4.463  1.00  0.00     0.009 A 
ATOM     20  C   UNL     1      -0.824   0.412  -5.617  1.00  0.00     0.009 A 
ATOM     21  C   UNL     1      -2.923  -0.206  -6.644  1.00  0.00     0.009 A 
ATOM     22  C   UNL     1      -4.457  -1.694  -5.550  1.00  0.00     0.001 A 
ATOM     23  C   UNL     1      -4.138  -0.884  -6.631  1.00  0.00     0.001 A 
ENDBRANCH  13  14
ENDBRANCH   8  13
ENDBRANCH   7   8
ENDBRANCH   5   7
ENDBRANCH   4   5
ENDBRANCH   3   4
ENDBRANCH   2   3
ENDBRANCH   1   2
BRANCH   1  24
ATOM     24  C   UNL     1      -5.585   1.121  -3.119  1.00  0.00     0.202 C 
BRANCH  24  25
ATOM     25  C   UNL     1      -4.447   1.906  -3.768  1.00  0.00     0.261 C 
BRANCH  25  26
ATOM     26  O   UNL     1      -3.580   2.562  -2.834  1.00  0.00    -0.460 OA
BRANCH  26  27
ATOM     27  C   UNL     1      -2.537   3.158  -3.462  1.00  0.00     0.338 C 
ATOM     28  O   UNL     1      -2.227   3.058  -4.638  1.00  0.00    -0.246 OA
BRANCH  27  29
ATOM     29  C   UNL     1      -1.947   4.186  -2.602  1.00  0.00     0.060 A 
ATOM     30  C   UNL     1      -2.463   5.477  -2.739  1.00  0.00     0.016 A 
ATOM     31  C   UNL     1      -0.793   3.944  -1.852  1.00  0.00     0.016 A 
ATOM     32  C   UNL     1      -1.787   6.547  -2.168  1.00  0.00     0.010 A 
ATOM     33  C   UNL     1      -0.129   5.023  -1.255  1.00  0.00     0.010 A 
ATOM     34  C   UNL     1      -0.604   6.332  -1.444  1.00  0.00    -0.014 A 
BRANCH  34  35
ATOM     35  C   UNL     1       0.122   7.523  -0.939  1.00  0.00     0.031 A 
ATOM     36  C   UNL     1       1.310   8.056  -1.689  1.00  0.00     0.074 A 
ATOM     37  C   UNL     1      -0.382   8.179   0.121  1.00  0.00     0.049 A 
ATOM     38  N   UNL     1       1.962   9.177  -1.518  1.00  0.00    -0.248 NA
ATOM     39  C   UNL     1       1.833   7.216  -2.777  1.00  0.00     0.031 C 
ATOM     40  C   UNL     1      -1.541   7.735   0.899  1.00  0.00     0.029 A 
ATOM     41  N   UNL     1      -0.023   9.367   0.701  1.00  0.00    -0.354 N 
ATOM     42  C   UNL     1       2.968   9.185  -2.480  1.00  0.00     0.074 A 
ATOM     43  C   UNL     1       2.861   7.936  -3.205  1.00  0.00     0.031 C 
ATOM     44  C   UNL     1      -1.823   8.661   1.829  1.00  0.00     0.029 A 
ATOM     45  C   UNL     1      -0.856   9.748   1.728  1.00  0.00     0.049 A 
ATOM     46  H   UNL     1       0.755   9.895   0.412  1.00  0.00     0.167 HD
ATOM     47  C   UNL     1       3.888  10.151  -2.733  1.00  0.00     0.034 A 
ATOM     48  C   UNL     1      -0.847  10.860   2.489  1.00  0.00     0.034 A 
ATOM     49  C   UNL     1       3.980  11.377  -1.972  1.00  0.00     0.049 A 
ATOM     50  C   UNL     1       0.180  11.918   2.189  1.00  0.00     0.074 A 
ATOM     51  C   UNL     1       4.880  12.420  -2.108  1.00  0.00     0.029 A 
ATOM     52  N   UNL     1       3.139  11.718  -0.917  1.00  0.00    -0.354 N 
ATOM     53  N   UNL     1       1.116  11.918   1.267  1.00  0.00    -0.248 NA
ATOM     54  C   UNL     1       0.141  13.130   3.014  1.00  0.00     0.031 C 
ATOM     55  C   UNL     1       4.616  13.363  -1.105  1.00  0.00     0.029 A 
ATOM     56  C   UNL     1       3.511  12.941  -0.381  1.00  0.00     0.049 A 
ATOM     57  H   UNL     1       2.386  11.169  -0.598  1.00  0.00     0.167 HD
ATOM     58  C   UNL     1       1.775  13.135   1.397  1.00  0.00     0.074 A 
ATOM     59  C   UNL     1       1.107  13.853   2.466  1.00  0.00     0.031 C 
ATOM     60  C   UNL     1       2.839  13.618   0.703  1.00  0.00     0.034 A 
BRANCH  47  61
ATOM     61  C   UNL     1       4.891   9.884  -3.832  1.00  0.00     0.023 A 
ATOM     62  C   UNL     1       4.503   9.752  -5.179  1.00  0.00     0.031 A 
ATOM     63  C   UNL     1       6.253   9.715  -3.524  1.00  0.00     0.131 A 
ATOM     64  C   UNL     1       5.452   9.393  -6.152  1.00  0.00     0.055 A 
ATOM     65  C   UNL     1       7.204   9.428  -4.508  1.00  0.00     0.041 A 
ATOM     66  F   UNL     1       6.684   9.808  -2.256  1.00  0.00    -0.206 F 
ATOM     67  C   UNL     1       6.803   9.251  -5.828  1.00  0.00     0.022 A 
BRANCH  64  68
ATOM     68  S   UNL     1       4.877   8.984  -7.824  1.00  0.00     0.124 S 
ATOM     69  O   UNL     1       3.971   7.868  -7.560  1.00  0.00    -0.237 OA
ATOM     70  O   UNL     1       4.250  10.228  -8.256  1.00  0.00    -0.237 OA
ATOM     71  O   UNL     1       6.104   8.626  -8.532  1.00  0.00    -0.744 OA
ENDBRANCH  64  68
ENDBRANCH  47  61
BRANCH  48  72
ATOM     72  C   UNL     1      -1.840  11.017   3.590  1.00  0.00     0.023 A 
ATOM     73  C   UNL     1      -2.829  12.011   3.552  1.00  0.00     0.031 A 
ATOM     74  C   UNL     1      -1.816  10.151   4.700  1.00  0.00     0.131 A 
ATOM     75  C   UNL     1      -3.743  12.128   4.613  1.00  0.00     0.055 A 
ATOM     76  C   UNL     1      -2.752  10.245   5.731  1.00  0.00     0.041 A 
ATOM     77  F   UNL     1      -0.895   9.178   4.781  1.00  0.00    -0.206 F 
ATOM     78  C   UNL     1      -3.719  11.244   5.694  1.00  0.00     0.022 A 
BRANCH  75  79
ATOM     79  S   UNL     1      -4.940  13.491   4.589  1.00  0.00     0.124 S 
ATOM     80  O   UNL     1      -4.070  14.655   4.466  1.00  0.00    -0.237 OA
ATOM     81  O   UNL     1      -5.745  13.164   3.416  1.00  0.00    -0.237 OA
ATOM     82  O   UNL     1      -5.630  13.361   5.871  1.00  0.00    -0.744 OA
ENDBRANCH  75  79
ENDBRANCH  48  72
BRANCH  60  83
ATOM     83  C   UNL     1       3.320  14.991   1.093  1.00  0.00     0.023 A 
ATOM     84  C   UNL     1       3.941  15.220   2.333  1.00  0.00     0.031 A 
ATOM     85  C   UNL     1       3.121  16.084   0.234  1.00  0.00     0.131 A 
ATOM     86  C   UNL     1       4.285  16.526   2.708  1.00  0.00     0.055 A 
ATOM     87  C   UNL     1       3.514  17.375   0.591  1.00  0.00     0.041 A 
ATOM     88  F   UNL     1       2.531  15.917  -0.960  1.00  0.00    -0.206 F 
ATOM     89  C   UNL     1       4.087  17.604   1.840  1.00  0.00     0.022 A 
BRANCH  86  90
ATOM     90  S   UNL     1       4.909  16.811   4.387  1.00  0.00     0.124 S 
ATOM     91  O   UNL     1       3.812  16.308   5.207  1.00  0.00    -0.237 OA
ATOM     92  O   UNL     1       6.134  16.018   4.404  1.00  0.00    -0.237 OA
ATOM     93  O   UNL     1       5.108  18.259   4.438  1.00  0.00    -0.744 OA
ENDBRANCH  86  90
ENDBRANCH  60  83
ENDBRANCH  34  35
ENDBRANCH  27  29
ENDBRANCH  26  27
ENDBRANCH  25  26
ENDBRANCH  24  25
ENDBRANCH   1  24
TORSDOF 22
