REMARK SMILES CC[C@@H]1CCCN1C(=O)N(CC(=O)OCCOCCOC(=O)c1ccc(-c2c3nc(c(-c4cc(S(=O)(=O)[O-])ccc4F)c4ccc([nH]4)c(-c4cc(S(=O)(=O)[O-])ccc4F)c4nc(c(-c5cc(S(=O)(=O)[O-])ccc5F)c5ccc2[nH]5)C=C4)C=C3)cc1)CC(F)(F)F
REMARK SMILES IDX 16 1 15 2 14 3 12 4 13 5 11 6 10 7 8 8 9 9 7 10 3 11 4 12
REMARK SMILES IDX 5 13 6 14 2 15 1 16 86 17 87 18 88 19 89 20 90 21 17 22
REMARK SMILES IDX 18 23 19 24 20 25 21 26 22 27 23 28 24 29 85 30 25 31 84 32
REMARK SMILES IDX 26 33 27 34 28 35 78 36 29 37 83 38 77 39 79 40 30 41 82 42
REMARK SMILES IDX 76 43 75 44 31 46 63 47 43 48 62 49 44 50 47 51 61 52 80 53
REMARK SMILES IDX 45 54 46 55 60 57 81 58 48 59 32 60 33 61 41 62 34 63 40 64
REMARK SMILES IDX 42 65 39 66 35 67 36 68 37 69 38 70 64 71 65 72 73 73 66 74
REMARK SMILES IDX 72 75 74 76 71 77 67 78 68 79 69 80 70 81 49 82 50 83 58 84
REMARK SMILES IDX 51 85 57 86 59 87 56 88 52 89 53 90 54 91 55 92
REMARK H PARENT 79 45 47 56
REMARK Flexibility Score: inf
ROOT
ATOM      1  C   UNL     1      -1.595   2.972   1.185  1.00  0.00     0.202 C 
ENDROOT
BRANCH   1   2
ATOM      2  C   UNL     1      -1.445   2.203  -0.126  1.00  0.00     0.261 C 
BRANCH   2   3
ATOM      3  O   UNL     1      -0.138   1.591  -0.207  1.00  0.00    -0.462 OA
BRANCH   3   4
ATOM      4  C   UNL     1       0.479   1.634  -1.417  1.00  0.00     0.325 C 
ATOM      5  O   UNL     1       0.058   2.242  -2.396  1.00  0.00    -0.250 OA
BRANCH   4   6
ATOM      6  C   UNL     1       1.761   0.793  -1.473  1.00  0.00     0.244 C 
BRANCH   6   7
ATOM      7  N   UNL     1       2.254   0.106  -0.273  1.00  0.00    -0.304 N 
BRANCH   7   8
ATOM      8  C   UNL     1       2.684  -1.200  -0.308  1.00  0.00     0.321 C 
ATOM      9  O   UNL     1       3.807  -1.462   0.132  1.00  0.00    -0.248 OA
BRANCH   8  10
ATOM     10  N   UNL     1       1.864  -2.206  -0.747  1.00  0.00    -0.322 N 
ATOM     11  C   UNL     1       0.518  -2.255  -1.345  1.00  0.00     0.086 C 
ATOM     12  C   UNL     1       0.184  -3.755  -1.444  1.00  0.00     0.027 C 
ATOM     13  C   UNL     1       1.534  -4.439  -1.468  1.00  0.00     0.024 C 
ATOM     14  C   UNL     1       2.364  -3.563  -0.556  1.00  0.00     0.122 C 
BRANCH  11  15
ATOM     15  C   UNL     1      -0.629  -1.536  -0.635  1.00  0.00     0.022 C 
ATOM     16  C   UNL     1      -0.621  -1.590   0.884  1.00  0.00     0.006 C 
ENDBRANCH  11  15
ENDBRANCH   8  10
ENDBRANCH   7   8
BRANCH   7  17
ATOM     17  C   UNL     1       2.965   0.956   0.713  1.00  0.00     0.237 C 
BRANCH  17  18
ATOM     18  C   UNL     1       2.960   0.508   2.189  1.00  0.00     0.406 C 
ATOM     19  F   UNL     1       3.815  -0.493   2.467  1.00  0.00    -0.169 F 
ATOM     20  F   UNL     1       3.337   1.558   2.968  1.00  0.00    -0.169 F 
ATOM     21  F   UNL     1       1.727   0.138   2.596  1.00  0.00    -0.169 F 
ENDBRANCH  17  18
ENDBRANCH   7  17
ENDBRANCH   6   7
ENDBRANCH   4   6
ENDBRANCH   3   4
ENDBRANCH   2   3
ENDBRANCH   1   2
BRANCH   1  22
ATOM     22  O   UNL     1      -0.869   4.203   1.228  1.00  0.00    -0.374 OA
BRANCH  22  23
ATOM     23  C   UNL     1       0.546   4.106   1.352  1.00  0.00     0.202 C 
BRANCH  23  24
ATOM     24  C   UNL     1       1.094   3.892   2.768  1.00  0.00     0.261 C 
BRANCH  24  25
ATOM     25  O   UNL     1       0.567   2.723   3.416  1.00  0.00    -0.460 OA
BRANCH  25  26
ATOM     26  C   UNL     1      -0.434   3.003   4.291  1.00  0.00     0.338 C 
ATOM     27  O   UNL     1      -0.874   4.114   4.539  1.00  0.00    -0.246 OA
BRANCH  26  28
ATOM     28  C   UNL     1      -1.055   1.783   4.854  1.00  0.00     0.060 A 
ATOM     29  C   UNL     1      -2.431   1.852   5.101  1.00  0.00     0.016 A 
ATOM     30  C   UNL     1      -0.326   0.662   5.263  1.00  0.00     0.016 A 
ATOM     31  C   UNL     1      -3.058   0.869   5.859  1.00  0.00     0.010 A 
ATOM     32  C   UNL     1      -0.965  -0.338   6.016  1.00  0.00     0.010 A 
ATOM     33  C   UNL     1      -2.318  -0.201   6.377  1.00  0.00    -0.014 A 
BRANCH  33  34
ATOM     34  C   UNL     1      -2.948  -1.027   7.444  1.00  0.00     0.031 A 
ATOM     35  C   UNL     1      -2.569  -0.778   8.884  1.00  0.00     0.074 A 
ATOM     36  C   UNL     1      -3.937  -1.891   7.152  1.00  0.00     0.049 A 
ATOM     37  N   UNL     1      -3.087  -1.274   9.979  1.00  0.00    -0.248 NA
ATOM     38  C   UNL     1      -1.457   0.155   9.116  1.00  0.00     0.031 C 
ATOM     39  C   UNL     1      -4.413  -2.199   5.805  1.00  0.00     0.029 A 
ATOM     40  N   UNL     1      -4.732  -2.651   7.973  1.00  0.00    -0.354 N 
ATOM     41  C   UNL     1      -2.365  -0.713  11.030  1.00  0.00     0.074 A 
ATOM     42  C   UNL     1      -1.340   0.116  10.434  1.00  0.00     0.031 C 
ATOM     43  C   UNL     1      -5.428  -3.075   5.891  1.00  0.00     0.029 A 
ATOM     44  C   UNL     1      -5.660  -3.408   7.296  1.00  0.00     0.049 A 
ATOM     45  H   UNL     1      -4.647  -2.655   8.954  1.00  0.00     0.167 HD
ATOM     46  C   UNL     1      -2.550  -0.859  12.367  1.00  0.00     0.034 A 
ATOM     47  C   UNL     1      -6.588  -4.273   7.754  1.00  0.00     0.034 A 
ATOM     48  C   UNL     1      -3.573  -1.696  12.949  1.00  0.00     0.049 A 
ATOM     49  C   UNL     1      -6.749  -4.459   9.242  1.00  0.00     0.074 A 
ATOM     50  C   UNL     1      -3.865  -1.897  14.287  1.00  0.00     0.029 A 
ATOM     51  N   UNL     1      -4.463  -2.485  12.229  1.00  0.00    -0.354 N 
ATOM     52  N   UNL     1      -6.085  -3.894  10.225  1.00  0.00    -0.248 NA
ATOM     53  C   UNL     1      -7.803  -5.381   9.682  1.00  0.00     0.031 C 
ATOM     54  C   UNL     1      -4.873  -2.864  14.377  1.00  0.00     0.029 A 
ATOM     55  C   UNL     1      -5.277  -3.202  13.095  1.00  0.00     0.049 A 
ATOM     56  H   UNL     1      -4.508  -2.529  11.247  1.00  0.00     0.167 HD
ATOM     57  C   UNL     1      -6.661  -4.373  11.400  1.00  0.00     0.074 A 
ATOM     58  C   UNL     1      -7.737  -5.258  11.000  1.00  0.00     0.031 C 
ATOM     59  C   UNL     1      -6.335  -4.100  12.690  1.00  0.00     0.034 A 
BRANCH  46  60
ATOM     60  C   UNL     1      -1.581  -0.140  13.280  1.00  0.00     0.023 A 
ATOM     61  C   UNL     1      -1.470   1.262  13.296  1.00  0.00     0.031 A 
ATOM     62  C   UNL     1      -0.715  -0.874  14.111  1.00  0.00     0.131 A 
ATOM     63  C   UNL     1      -0.460   1.878  14.052  1.00  0.00     0.055 A 
ATOM     64  C   UNL     1       0.229  -0.249  14.930  1.00  0.00     0.041 A 
ATOM     65  F   UNL     1      -0.756  -2.216  14.127  1.00  0.00    -0.206 F 
ATOM     66  C   UNL     1       0.374   1.134  14.888  1.00  0.00     0.022 A 
BRANCH  63  67
ATOM     67  S   UNL     1      -0.137   3.646  13.795  1.00  0.00     0.124 S 
ATOM     68  O   UNL     1       0.110   3.696  12.356  1.00  0.00    -0.237 OA
ATOM     69  O   UNL     1      -1.377   4.262  14.253  1.00  0.00    -0.237 OA
ATOM     70  O   UNL     1       1.035   3.906  14.629  1.00  0.00    -0.744 OA
ENDBRANCH  63  67
ENDBRANCH  46  60
BRANCH  47  71
ATOM     71  C   UNL     1      -7.422  -5.048   6.791  1.00  0.00     0.023 A 
ATOM     72  C   UNL     1      -8.811  -4.868   6.703  1.00  0.00     0.031 A 
ATOM     73  C   UNL     1      -6.827  -6.012   5.955  1.00  0.00     0.131 A 
ATOM     74  C   UNL     1      -9.564  -5.663   5.823  1.00  0.00     0.055 A 
ATOM     75  C   UNL     1      -7.573  -6.766   5.049  1.00  0.00     0.041 A 
ATOM     76  F   UNL     1      -5.502  -6.222   5.999  1.00  0.00    -0.206 F 
ATOM     77  C   UNL     1      -8.952  -6.600   4.986  1.00  0.00     0.022 A 
BRANCH  74  78
ATOM     78  S   UNL     1     -11.371  -5.498   5.824  1.00  0.00     0.124 S 
ATOM     79  O   UNL     1     -11.701  -5.855   7.199  1.00  0.00    -0.237 OA
ATOM     80  O   UNL     1     -11.547  -4.095   5.464  1.00  0.00    -0.237 OA
ATOM     81  O   UNL     1     -11.801  -6.457   4.808  1.00  0.00    -0.744 OA
ENDBRANCH  74  78
ENDBRANCH  47  71
BRANCH  59  82
ATOM     82  C   UNL     1      -7.186  -4.739  13.765  1.00  0.00     0.023 A 
ATOM     83  C   UNL     1      -7.230  -6.132  13.952  1.00  0.00     0.031 A 
ATOM     84  C   UNL     1      -7.988  -3.939  14.600  1.00  0.00     0.131 A 
ATOM     85  C   UNL     1      -8.106  -6.686  14.898  1.00  0.00     0.055 A 
ATOM     86  C   UNL     1      -8.806  -4.491  15.587  1.00  0.00     0.041 A 
ATOM     87  F   UNL     1      -7.992  -2.602  14.469  1.00  0.00    -0.206 F 
ATOM     88  C   UNL     1      -8.882  -5.873  15.729  1.00  0.00     0.022 A 
BRANCH  85  89
ATOM     89  S   UNL     1      -8.312  -8.488  14.947  1.00  0.00     0.124 S 
ATOM     90  O   UNL     1      -8.686  -8.789  13.569  1.00  0.00    -0.237 OA
ATOM     91  O   UNL     1      -6.988  -8.941  15.362  1.00  0.00    -0.237 OA
ATOM     92  O   UNL     1      -9.372  -8.686  15.934  1.00  0.00    -0.744 OA
ENDBRANCH  85  89
ENDBRANCH  59  82
ENDBRANCH  33  34
ENDBRANCH  26  28
ENDBRANCH  25  26
ENDBRANCH  24  25
ENDBRANCH  23  24
ENDBRANCH  22  23
ENDBRANCH   1  22
TORSDOF 23
